MODEL 1
REMARK minimizedAffinity 1.6102066
REMARK minimizedRMSD -1
REMARK  0 active torsions:
REMARK  status: ('A' for Active; 'I' for Inactive)
ROOT
ATOM      1  C4' PXY d   1       0.361  -5.978  -5.987  0.00  0.00     0.077 C 
ATOM      2  C1' PXY d   1      -3.846  -5.999  -2.023  0.00  0.00     0.077 C 
ATOM      3  C1  PXY d   1      -2.735  -5.989  -3.053  0.00  0.00    -0.082 A 
ATOM      4  C2  PXY d   1      -3.037  -5.977  -4.341  0.00  0.00     0.003 A 
ATOM      5  C3  PXY d   1      -2.045  -6.000  -5.287  0.00  0.00     0.003 A 
ATOM      6  C4  PXY d   1      -0.728  -5.980  -4.911  0.00  0.00    -0.082 A 
ATOM      7  C5  PXY d   1      -0.412  -5.981  -3.598  0.00  0.00     0.003 A 
ATOM      8  C6  PXY d   1      -1.434  -5.999  -2.654  0.00  0.00     0.003 A 
ENDROOT
TORSDOF 0
ENDMDL
