MODEL 1
REMARK minimizedAffinity -4.14704418
REMARK minimizedRMSD -1
REMARK  0 active torsions:
REMARK  status: ('A' for Active; 'I' for Inactive)
ROOT
ATOM      1  C4' PXY d   1      -3.204  -5.953  -1.503  0.00  0.00     0.077 C 
ATOM      2  C1' PXY d   1       0.486  -5.248  -5.897  0.00  0.00     0.077 C 
ATOM      3  C1  PXY d   1      -0.473  -5.441  -4.739  0.00  0.00    -0.082 A 
ATOM      4  C2  PXY d   1      -1.768  -5.236  -4.921  0.00  0.00     0.003 A 
ATOM      5  C3  PXY d   1      -2.645  -5.375  -3.876  0.00  0.00     0.003 A 
ATOM      6  C4  PXY d   1      -2.200  -5.779  -2.646  0.00  0.00    -0.082 A 
ATOM      7  C5  PXY d   1      -0.882  -6.000  -2.455  0.00  0.00     0.003 A 
ATOM      8  C6  PXY d   1      -0.002  -5.813  -3.518  0.00  0.00     0.003 A 
ENDROOT
TORSDOF 0
ENDMDL
