MODEL 1
REMARK minimizedAffinity 13.562604
REMARK minimizedRMSD -1
REMARK  0 active torsions:
REMARK  status: ('A' for Active; 'I' for Inactive)
ROOT
ATOM      1  C4' PXY d   1      -3.734   1.147  -3.206  0.00  0.00     0.077 C 
ATOM      2  C1' PXY d   1       1.031   4.310  -4.045  0.00  0.00     0.077 C 
ATOM      3  C1  PXY d   1      -0.211   3.469  -3.826  0.00  0.00    -0.082 A 
ATOM      4  C2  PXY d   1      -1.402   3.980  -4.096  0.00  0.00     0.003 A 
ATOM      5  C3  PXY d   1      -2.538   3.245  -3.873  0.00  0.00     0.003 A 
ATOM      6  C4  PXY d   1      -2.451   1.955  -3.421  0.00  0.00    -0.082 A 
ATOM      7  C5  PXY d   1      -1.240   1.424  -3.153  0.00  0.00     0.003 A 
ATOM      8  C6  PXY d   1      -0.101   2.201  -3.347  0.00  0.00     0.003 A 
ENDROOT
TORSDOF 0
ENDMDL
