MODEL 1
REMARK minimizedAffinity 0.62750417
REMARK minimizedRMSD -1
REMARK  0 active torsions:
REMARK  status: ('A' for Active; 'I' for Inactive)
ROOT
ATOM      1  C4' PXY d   1      -3.350   1.618  -3.075  0.00  0.00     0.077 C 
ATOM      2  C1' PXY d   1       1.376   4.659  -4.426  0.00  0.00     0.077 C 
ATOM      3  C1  PXY d   1       0.144   3.851  -4.069  0.00  0.00    -0.082 A 
ATOM      4  C2  PXY d   1      -1.019   4.152  -4.623  0.00  0.00     0.003 A 
ATOM      5  C3  PXY d   1      -2.149   3.452  -4.287  0.00  0.00     0.003 A 
ATOM      6  C4  PXY d   1      -2.079   2.400  -3.414  0.00  0.00    -0.082 A 
ATOM      7  C5  PXY d   1      -0.894   2.080  -2.852  0.00  0.00     0.003 A 
ATOM      8  C6  PXY d   1       0.234   2.829  -3.175  0.00  0.00     0.003 A 
ENDROOT
TORSDOF 0
ENDMDL
