MODEL 1
REMARK minimizedAffinity 3.77471352
REMARK minimizedRMSD -1
REMARK  0 active torsions:
REMARK  status: ('A' for Active; 'I' for Inactive)
ROOT
ATOM      1  C4' PXY d   1       0.292  -5.931  -5.929  0.00  0.00     0.077 C 
ATOM      2  C1' PXY d   1      -3.058  -6.000  -1.219  0.00  0.00     0.077 C 
ATOM      3  C1  PXY d   1      -2.169  -5.976  -2.447  0.00  0.00    -0.082 A 
ATOM      4  C2  PXY d   1      -2.718  -5.974  -3.651  0.00  0.00     0.003 A 
ATOM      5  C3  PXY d   1      -1.930  -5.985  -4.773  0.00  0.00     0.003 A 
ATOM      6  C4  PXY d   1      -0.565  -5.945  -4.661  0.00  0.00    -0.082 A 
ATOM      7  C5  PXY d   1       0.002  -5.937  -3.436  0.00  0.00     0.003 A 
ATOM      8  C6  PXY d   1      -0.816  -5.967  -2.310  0.00  0.00     0.003 A 
ENDROOT
TORSDOF 0
ENDMDL
