MODEL 1
REMARK minimizedAffinity -0.361206084
REMARK minimizedRMSD -1
REMARK  0 active torsions:
REMARK  status: ('A' for Active; 'I' for Inactive)
ROOT
ATOM      1  C4' PXY d   1       0.811   0.786   0.473  0.00  0.00     0.077 C 
ATOM      2  C1' PXY d   1      -0.723   4.108  -4.003  0.00  0.00     0.077 C 
ATOM      3  C1  PXY d   1      -0.318   3.247  -2.822  0.00  0.00    -0.082 A 
ATOM      4  C2  PXY d   1       0.038   1.989  -3.022  0.00  0.00     0.003 A 
ATOM      5  C3  PXY d   1       0.377   1.187  -1.962  0.00  0.00     0.003 A 
ATOM      6  C4  PXY d   1       0.403   1.695  -0.690  0.00  0.00    -0.082 A 
ATOM      7  C5  PXY d   1       0.051   2.981  -0.480  0.00  0.00     0.003 A 
ATOM      8  C6  PXY d   1      -0.329   3.766  -1.564  0.00  0.00     0.003 A 
ENDROOT
TORSDOF 0
ENDMDL
