MODEL 1
REMARK minimizedAffinity -2.17187738
REMARK minimizedRMSD -1
REMARK  0 active torsions:
REMARK  status: ('A' for Active; 'I' for Inactive)
ROOT
ATOM      1  C4' PXY d   1      -2.999  -5.769  -2.255  0.00  0.00     0.077 C 
ATOM      2  C1' PXY d   1       1.612  -5.871  -5.741  0.00  0.00     0.077 C 
ATOM      3  C1  PXY d   1       0.409  -5.851  -4.818  0.00  0.00    -0.082 A 
ATOM      4  C2  PXY d   1      -0.801  -5.680  -5.324  0.00  0.00     0.003 A 
ATOM      5  C3  PXY d   1      -1.896  -5.628  -4.501  0.00  0.00     0.003 A 
ATOM      6  C4  PXY d   1      -1.757  -5.805  -3.150  0.00  0.00    -0.082 A 
ATOM      7  C5  PXY d   1      -0.526  -5.990  -2.627  0.00  0.00     0.003 A 
ATOM      8  C6  PXY d   1       0.577  -5.999  -3.476  0.00  0.00     0.003 A 
ENDROOT
TORSDOF 0
ENDMDL
