MODEL 1
REMARK minimizedAffinity -0.201446101
REMARK minimizedRMSD -1
REMARK  0 active torsions:
REMARK  status: ('A' for Active; 'I' for Inactive)
ROOT
ATOM      1  C4' PXY d   1       1.501  -6.000  -5.987  0.00  0.00     0.077 C 
ATOM      2  C1' PXY d   1      -2.480  -5.975  -1.796  0.00  0.00     0.077 C 
ATOM      3  C1  PXY d   1      -1.427  -5.976  -2.887  0.00  0.00    -0.082 A 
ATOM      4  C2  PXY d   1      -1.801  -5.963  -4.156  0.00  0.00     0.003 A 
ATOM      5  C3  PXY d   1      -0.863  -5.996  -5.156  0.00  0.00     0.003 A 
ATOM      6  C4  PXY d   1       0.473  -5.990  -4.853  0.00  0.00    -0.082 A 
ATOM      7  C5  PXY d   1       0.862  -5.992  -3.560  0.00  0.00     0.003 A 
ATOM      8  C6  PXY d   1      -0.107  -6.000  -2.561  0.00  0.00     0.003 A 
ENDROOT
TORSDOF 0
ENDMDL
