MODEL 1
REMARK minimizedAffinity -2.26959038
REMARK minimizedRMSD -1
REMARK  0 active torsions:
REMARK  status: ('A' for Active; 'I' for Inactive)
ROOT
ATOM      1  C4' PXY d   1      -3.676  -5.972  -2.305  0.00  0.00     0.077 C 
ATOM      2  C1' PXY d   1       1.312  -5.997  -5.227  0.00  0.00     0.077 C 
ATOM      3  C1  PXY d   1       0.010  -5.996  -4.451  0.00  0.00    -0.082 A 
ATOM      4  C2  PXY d   1      -1.141  -5.991  -5.103  0.00  0.00     0.003 A 
ATOM      5  C3  PXY d   1      -2.328  -5.957  -4.417  0.00  0.00     0.003 A 
ATOM      6  C4  PXY d   1      -2.337  -5.983  -3.048  0.00  0.00    -0.082 A 
ATOM      7  C5  PXY d   1      -1.167  -6.000  -2.375  0.00  0.00     0.003 A 
ATOM      8  C6  PXY d   1       0.027  -5.992  -3.090  0.00  0.00     0.003 A 
ENDROOT
TORSDOF 0
ENDMDL
