MODEL 1
REMARK minimizedAffinity -3.60206556
REMARK minimizedRMSD -1
REMARK  0 active torsions:
REMARK  status: ('A' for Active; 'I' for Inactive)
ROOT
ATOM      1  C4' PXY d   1      -3.648  -5.999  -3.008  0.00  0.00     0.077 C 
ATOM      2  C1' PXY d   1       1.300  -5.977  -5.995  0.00  0.00     0.077 C 
ATOM      3  C1  PXY d   1       0.009  -5.988  -5.201  0.00  0.00    -0.082 A 
ATOM      4  C2  PXY d   1      -1.150  -6.000  -5.839  0.00  0.00     0.003 A 
ATOM      5  C3  PXY d   1      -2.328  -5.978  -5.137  0.00  0.00     0.003 A 
ATOM      6  C4  PXY d   1      -2.319  -5.997  -3.768  0.00  0.00    -0.082 A 
ATOM      7  C5  PXY d   1      -1.141  -5.996  -3.110  0.00  0.00     0.003 A 
ATOM      8  C6  PXY d   1       0.044  -5.977  -3.841  0.00  0.00     0.003 A 
ENDROOT
TORSDOF 0
ENDMDL
