MODEL 1
REMARK minimizedAffinity 0.732752979
REMARK minimizedRMSD -1
REMARK  0 active torsions:
REMARK  status: ('A' for Active; 'I' for Inactive)
ROOT
ATOM      1  C4' PXY d   1      -2.748  -4.961  -2.712  0.00  0.00     0.077 C 
ATOM      2  C1' PXY d   1       1.943  -5.997  -5.926  0.00  0.00     0.077 C 
ATOM      3  C1  PXY d   1       0.717  -5.734  -5.074  0.00  0.00    -0.082 A 
ATOM      4  C2  PXY d   1      -0.375  -5.239  -5.635  0.00  0.00     0.003 A 
ATOM      5  C3  PXY d   1      -1.482  -4.965  -4.874  0.00  0.00     0.003 A 
ATOM      6  C4  PXY d   1      -1.490  -5.251  -3.535  0.00  0.00    -0.082 A 
ATOM      7  C5  PXY d   1      -0.384  -5.767  -2.957  0.00  0.00     0.003 A 
ATOM      8  C6  PXY d   1       0.744  -5.999  -3.740  0.00  0.00     0.003 A 
ENDROOT
TORSDOF 0
ENDMDL
