MODEL 1
REMARK minimizedAffinity 4.88167429
REMARK minimizedRMSD -1
REMARK  0 active torsions:
REMARK  status: ('A' for Active; 'I' for Inactive)
ROOT
ATOM      1  C4' PXY d   1      -0.085  -3.995   2.829  0.00  0.00     0.077 C 
ATOM      2  C1' PXY d   1       1.318   0.999   0.278  0.00  0.00     0.077 C 
ATOM      3  C1  PXY d   1       0.938  -0.311   0.941  0.00  0.00    -0.082 A 
ATOM      4  C2  PXY d   1       1.498  -0.648   2.091  0.00  0.00     0.003 A 
ATOM      5  C3  PXY d   1       1.190  -1.843   2.689  0.00  0.00     0.003 A 
ATOM      6  C4  PXY d   1       0.261  -2.678   2.129  0.00  0.00    -0.082 A 
ATOM      7  C5  PXY d   1      -0.323  -2.337   0.960  0.00  0.00     0.003 A 
ATOM      8  C6  PXY d   1       0.034  -1.138   0.349  0.00  0.00     0.003 A 
ENDROOT
TORSDOF 0
ENDMDL
