MODEL 1
REMARK minimizedAffinity -0.415356427
REMARK minimizedRMSD -1
REMARK  0 active torsions:
REMARK  status: ('A' for Active; 'I' for Inactive)
ROOT
ATOM      1  C4' PXY d   1       0.371  -5.617  -6.000  0.00  0.00     0.077 C 
ATOM      2  C1' PXY d   1      -3.063  -6.000  -1.366  0.00  0.00     0.077 C 
ATOM      3  C1  PXY d   1      -2.152  -5.896  -2.573  0.00  0.00    -0.082 A 
ATOM      4  C2  PXY d   1      -2.677  -5.712  -3.774  0.00  0.00     0.003 A 
ATOM      5  C3  PXY d   1      -1.870  -5.648  -4.881  0.00  0.00     0.003 A 
ATOM      6  C4  PXY d   1      -0.509  -5.718  -4.751  0.00  0.00    -0.082 A 
ATOM      7  C5  PXY d   1       0.035  -5.895  -3.528  0.00  0.00     0.003 A 
ATOM      8  C6  PXY d   1      -0.804  -5.999  -2.422  0.00  0.00     0.003 A 
ENDROOT
TORSDOF 0
ENDMDL
