MODEL 1
REMARK minimizedAffinity 5.65020895
REMARK minimizedRMSD -1
REMARK  0 active torsions:
REMARK  status: ('A' for Active; 'I' for Inactive)
ROOT
ATOM      1  C4' PXY d   1       0.977  -5.860  -2.724  0.00  0.00     0.077 C 
ATOM      2  C1' PXY d   1      -4.192  -5.998  -5.307  0.00  0.00     0.077 C 
ATOM      3  C1  PXY d   1      -2.842  -5.957  -4.619  0.00  0.00    -0.082 A 
ATOM      4  C2  PXY d   1      -1.739  -5.890  -5.347  0.00  0.00     0.003 A 
ATOM      5  C3  PXY d   1      -0.508  -5.884  -4.742  0.00  0.00     0.003 A 
ATOM      6  C4  PXY d   1      -0.408  -5.894  -3.376  0.00  0.00    -0.082 A 
ATOM      7  C5  PXY d   1      -1.529  -5.952  -2.627  0.00  0.00     0.003 A 
ATOM      8  C6  PXY d   1      -2.767  -5.998  -3.261  0.00  0.00     0.003 A 
ENDROOT
TORSDOF 0
ENDMDL
