MODEL 1
REMARK minimizedAffinity 1.44792545
REMARK minimizedRMSD -1
REMARK  0 active torsions:
REMARK  status: ('A' for Active; 'I' for Inactive)
ROOT
ATOM      1  C4' PXY d   1       1.352  -5.972  -5.617  0.00  0.00     0.077 C 
ATOM      2  C1' PXY d   1      -3.029  -5.999  -1.845  0.00  0.00     0.077 C 
ATOM      3  C1  PXY d   1      -1.888  -5.997  -2.843  0.00  0.00    -0.082 A 
ATOM      4  C2  PXY d   1      -0.638  -6.000  -2.408  0.00  0.00     0.003 A 
ATOM      5  C3  PXY d   1       0.406  -5.966  -3.297  0.00  0.00     0.003 A 
ATOM      6  C4  PXY d   1       0.169  -5.983  -4.645  0.00  0.00    -0.082 A 
ATOM      7  C5  PXY d   1      -1.104  -5.992  -5.097  0.00  0.00     0.003 A 
ATOM      8  C6  PXY d   1      -2.149  -5.984  -4.178  0.00  0.00     0.003 A 
ENDROOT
TORSDOF 0
ENDMDL
