MODEL 1
REMARK minimizedAffinity -2.60786605
REMARK minimizedRMSD -1
REMARK  0 active torsions:
REMARK  status: ('A' for Active; 'I' for Inactive)
ROOT
ATOM      1  C4' PXY d   1       1.311  -5.991  -3.367  0.00  0.00     0.077 C 
ATOM      2  C1' PXY d   1      -4.418  -5.973  -4.131  0.00  0.00     0.077 C 
ATOM      3  C1  PXY d   1      -2.914  -5.983  -3.943  0.00  0.00    -0.082 A 
ATOM      4  C2  PXY d   1      -2.408  -5.984  -2.720  0.00  0.00     0.003 A 
ATOM      5  C3  PXY d   1      -1.050  -5.961  -2.532  0.00  0.00     0.003 A 
ATOM      6  C4  PXY d   1      -0.201  -5.990  -3.605  0.00  0.00    -0.082 A 
ATOM      7  C5  PXY d   1      -0.710  -6.000  -4.856  0.00  0.00     0.003 A 
ATOM      8  C6  PXY d   1      -2.091  -5.982  -5.026  0.00  0.00     0.003 A 
ENDROOT
TORSDOF 0
ENDMDL
