MODEL 1
REMARK minimizedAffinity 0.181909204
REMARK minimizedRMSD -1
REMARK  0 active torsions:
REMARK  status: ('A' for Active; 'I' for Inactive)
ROOT
ATOM      1  C4' PXY d   1      -4.041  -5.997  -3.151  0.00  0.00     0.077 C 
ATOM      2  C1' PXY d   1       1.162  -5.918  -5.669  0.00  0.00     0.077 C 
ATOM      3  C1  PXY d   1      -0.198  -5.945  -4.998  0.00  0.00    -0.082 A 
ATOM      4  C2  PXY d   1      -1.293  -5.939  -5.740  0.00  0.00     0.003 A 
ATOM      5  C3  PXY d   1      -2.531  -5.930  -5.149  0.00  0.00     0.003 A 
ATOM      6  C4  PXY d   1      -2.648  -5.981  -3.786  0.00  0.00    -0.082 A 
ATOM      7  C5  PXY d   1      -1.535  -5.998  -3.022  0.00  0.00     0.003 A 
ATOM      8  C6  PXY d   1      -0.288  -5.965  -3.641  0.00  0.00     0.003 A 
ENDROOT
TORSDOF 0
ENDMDL
