MODEL 1
REMARK minimizedAffinity 9.38751507
REMARK minimizedRMSD -1
REMARK  0 active torsions:
REMARK  status: ('A' for Active; 'I' for Inactive)
ROOT
ATOM      1  C1  DEN d   1       2.784  -2.696   1.815  0.00  0.00     0.130 A 
ATOM      2  C2  DEN d   1       2.032  -1.594   1.221  0.00  0.00    -0.031 A 
ATOM      3  C3  DEN d   1       1.284  -0.917   2.300  0.00  0.00     0.027 A 
ATOM      4  C4  DEN d   1       1.222  -1.462   4.820  0.00  0.00     0.027 A 
ATOM      5  C5  DEN d   1       1.689  -2.315   5.796  0.00  0.00    -0.003 A 
ATOM      6  C6  DEN d   1       2.519  -3.366   5.511  0.00  0.00     0.001 A 
ATOM      7  C7  DEN d   1       2.945  -3.565   4.224  0.00  0.00     0.017 A 
ATOM      8  C8  DEN d   1       2.473  -2.714   3.233  0.00  0.00    -0.094 A 
ATOM      9  C9  DEN d   1       1.644  -1.650   3.544  0.00  0.00    -0.072 A 
ENDROOT
TORSDOF 0
ENDMDL
