MODEL 1
REMARK minimizedAffinity 15.2648439
REMARK minimizedRMSD -1
REMARK  0 active torsions:
REMARK  status: ('A' for Active; 'I' for Inactive)
ROOT
ATOM      1  C1  DEN d   1      -0.672  -4.525   0.662  0.00  0.00     0.130 A 
ATOM      2  C2  DEN d   1      -1.732  -5.250  -0.033  0.00  0.00    -0.031 A 
ATOM      3  C3  DEN d   1      -1.200  -5.700  -1.335  0.00  0.00     0.027 A 
ATOM      4  C4  DEN d   1       1.152  -5.351  -2.335  0.00  0.00     0.027 A 
ATOM      5  C5  DEN d   1       2.390  -4.786  -2.121  0.00  0.00    -0.003 A 
ATOM      6  C6  DEN d   1       2.681  -4.072  -0.989  0.00  0.00     0.001 A 
ATOM      7  C7  DEN d   1       1.735  -3.941  -0.007  0.00  0.00     0.017 A 
ATOM      8  C8  DEN d   1       0.482  -4.502  -0.218  0.00  0.00    -0.094 A 
ATOM      9  C9  DEN d   1       0.211  -5.231  -1.364  0.00  0.00    -0.072 A 
ENDROOT
TORSDOF 0
ENDMDL
