MODEL 1
REMARK minimizedAffinity 13.3030205
REMARK minimizedRMSD -1
REMARK  0 active torsions:
REMARK  status: ('A' for Active; 'I' for Inactive)
ROOT
ATOM      1  C1  DEN d   1       0.763  -0.767   2.222  0.00  0.00     0.130 A 
ATOM      2  C2  DEN d   1       2.078  -1.376   2.396  0.00  0.00    -0.031 A 
ATOM      3  C3  DEN d   1       1.987  -2.789   1.975  0.00  0.00     0.027 A 
ATOM      4  C4  DEN d   1      -0.052  -4.083   1.070  0.00  0.00     0.027 A 
ATOM      5  C5  DEN d   1      -1.390  -3.992   0.756  0.00  0.00    -0.003 A 
ATOM      6  C6  DEN d   1      -2.107  -2.839   0.939  0.00  0.00     0.001 A 
ATOM      7  C7  DEN d   1      -1.478  -1.716   1.408  0.00  0.00     0.017 A 
ATOM      8  C8  DEN d   1      -0.130  -1.802   1.734  0.00  0.00    -0.094 A 
ATOM      9  C9  DEN d   1       0.579  -2.973   1.530  0.00  0.00    -0.072 A 
ENDROOT
TORSDOF 0
ENDMDL
