MODEL 1
REMARK minimizedAffinity 17.3654041
REMARK minimizedRMSD -1
REMARK  0 active torsions:
REMARK  status: ('A' for Active; 'I' for Inactive)
ROOT
ATOM      1  C1  DEN d   1       1.251  -0.992   5.279  0.00  0.00     0.130 A 
ATOM      2  C2  DEN d   1       1.492  -2.240   5.999  0.00  0.00    -0.031 A 
ATOM      3  C3  DEN d   1       1.989  -3.237   5.030  0.00  0.00     0.027 A 
ATOM      4  C4  DEN d   1       2.410  -2.970   2.499  0.00  0.00     0.027 A 
ATOM      5  C5  DEN d   1       2.340  -2.098   1.435  0.00  0.00    -0.003 A 
ATOM      6  C6  DEN d   1       1.874  -0.817   1.571  0.00  0.00     0.001 A 
ATOM      7  C7  DEN d   1       1.502  -0.357   2.806  0.00  0.00     0.017 A 
ATOM      8  C8  DEN d   1       1.562  -1.233   3.882  0.00  0.00    -0.094 A 
ATOM      9  C9  DEN d   1       2.048  -2.520   3.727  0.00  0.00    -0.072 A 
ENDROOT
TORSDOF 0
ENDMDL
