MODEL 1
REMARK minimizedAffinity 12.9901476
REMARK minimizedRMSD -1
REMARK  0 active torsions:
REMARK  status: ('A' for Active; 'I' for Inactive)
ROOT
ATOM      1  C1  DEN d   1       0.751  -0.945   3.251  0.00  0.00     0.130 A 
ATOM      2  C2  DEN d   1       1.138  -1.231   1.872  0.00  0.00    -0.031 A 
ATOM      3  C3  DEN d   1       1.869  -2.514   1.860  0.00  0.00     0.027 A 
ATOM      4  C4  DEN d   1       2.432  -4.080   3.830  0.00  0.00     0.027 A 
ATOM      5  C5  DEN d   1       2.321  -4.255   5.192  0.00  0.00    -0.003 A 
ATOM      6  C6  DEN d   1       1.714  -3.330   6.000  0.00  0.00     0.001 A 
ATOM      7  C7  DEN d   1       1.154  -2.209   5.447  0.00  0.00     0.017 A 
ATOM      8  C8  DEN d   1       1.268  -2.022   4.076  0.00  0.00    -0.094 A 
ATOM      9  C9  DEN d   1       1.875  -2.974   3.274  0.00  0.00    -0.072 A 
ENDROOT
TORSDOF 0
ENDMDL
