MODEL 1
REMARK minimizedAffinity 13.697567
REMARK minimizedRMSD -1
REMARK  0 active torsions:
REMARK  status: ('A' for Active; 'I' for Inactive)
ROOT
ATOM      1  C1  DEN d   1      -2.588   0.523  -2.954  0.00  0.00     0.130 A 
ATOM      2  C2  DEN d   1      -2.533   0.480  -1.495  0.00  0.00    -0.031 A 
ATOM      3  C3  DEN d   1      -3.073   1.753  -0.979  0.00  0.00     0.027 A 
ATOM      4  C4  DEN d   1      -3.990   3.776  -2.290  0.00  0.00     0.027 A 
ATOM      5  C5  DEN d   1      -4.230   4.284  -3.548  0.00  0.00    -0.003 A 
ATOM      6  C6  DEN d   1      -3.910   3.593  -4.687  0.00  0.00     0.001 A 
ATOM      7  C7  DEN d   1      -3.374   2.336  -4.591  0.00  0.00     0.017 A 
ATOM      8  C8  DEN d   1      -3.123   1.821  -3.326  0.00  0.00    -0.094 A 
ATOM      9  C9  DEN d   1      -3.464   2.530  -2.187  0.00  0.00    -0.072 A 
ENDROOT
TORSDOF 0
ENDMDL
