MODEL 1
REMARK minimizedAffinity 7.5557456
REMARK minimizedRMSD -1
REMARK  0 active torsions:
REMARK  status: ('A' for Active; 'I' for Inactive)
ROOT
ATOM      1  C1  DEN d   1      -3.474   1.574  -4.293  0.00  0.00     0.130 A 
ATOM      2  C2  DEN d   1      -3.630   1.467  -2.845  0.00  0.00    -0.031 A 
ATOM      3  C3  DEN d   1      -4.013   2.797  -2.328  0.00  0.00     0.027 A 
ATOM      4  C4  DEN d   1      -4.381   4.997  -3.622  0.00  0.00     0.027 A 
ATOM      5  C5  DEN d   1      -4.353   5.584  -4.868  0.00  0.00    -0.003 A 
ATOM      6  C6  DEN d   1      -4.000   4.891  -5.995  0.00  0.00     0.001 A 
ATOM      7  C7  DEN d   1      -3.704   3.556  -5.905  0.00  0.00     0.017 A 
ATOM      8  C8  DEN d   1      -3.723   2.958  -4.652  0.00  0.00    -0.094 A 
ATOM      9  C9  DEN d   1      -4.094   3.674  -3.526  0.00  0.00    -0.072 A 
ENDROOT
TORSDOF 0
ENDMDL
