MODEL 1
REMARK minimizedAffinity 5.4871316
REMARK minimizedRMSD -1
REMARK  0 active torsions:
REMARK  status: ('A' for Active; 'I' for Inactive)
ROOT
ATOM      1  C1  DEN d   1       1.268  -0.531   2.645  0.00  0.00     0.130 A 
ATOM      2  C2  DEN d   1       1.923  -1.121   1.481  0.00  0.00    -0.031 A 
ATOM      3  C3  DEN d   1       2.584  -2.369   1.913  0.00  0.00     0.027 A 
ATOM      4  C4  DEN d   1       2.653  -3.441   4.258  0.00  0.00     0.027 A 
ATOM      5  C5  DEN d   1       2.252  -3.301   5.568  0.00  0.00    -0.003 A 
ATOM      6  C6  DEN d   1       1.531  -2.220   6.000  0.00  0.00     0.001 A 
ATOM      7  C7  DEN d   1       1.148  -1.258   5.103  0.00  0.00     0.017 A 
ATOM      8  C8  DEN d   1       1.555  -1.388   3.782  0.00  0.00    -0.094 A 
ATOM      9  C9  DEN d   1       2.273  -2.495   3.362  0.00  0.00    -0.072 A 
ENDROOT
TORSDOF 0
ENDMDL
