MODEL 1
REMARK minimizedAffinity 12.7076263
REMARK minimizedRMSD -1
REMARK  0 active torsions:
REMARK  status: ('A' for Active; 'I' for Inactive)
ROOT
ATOM      1  C1  DEN d   1      -3.139   2.206  -1.155  0.00  0.00     0.130 A 
ATOM      2  C2  DEN d   1      -2.232   1.873  -2.249  0.00  0.00    -0.031 A 
ATOM      3  C3  DEN d   1      -2.666   2.622  -3.446  0.00  0.00     0.027 A 
ATOM      4  C4  DEN d   1      -4.640   4.262  -3.706  0.00  0.00     0.027 A 
ATOM      5  C5  DEN d   1      -5.701   4.854  -3.057  0.00  0.00    -0.003 A 
ATOM      6  C6  DEN d   1      -6.000   4.581  -1.748  0.00  0.00     0.001 A 
ATOM      7  C7  DEN d   1      -5.202   3.727  -1.033  0.00  0.00     0.017 A 
ATOM      8  C8  DEN d   1      -4.136   3.120  -1.683  0.00  0.00    -0.094 A 
ATOM      9  C9  DEN d   1      -3.842   3.419  -3.003  0.00  0.00    -0.072 A 
ENDROOT
TORSDOF 0
ENDMDL
