MODEL 1
REMARK minimizedAffinity 8.43863106
REMARK minimizedRMSD -1
REMARK  0 active torsions:
REMARK  status: ('A' for Active; 'I' for Inactive)
ROOT
ATOM      1  C1  DEN d   1       1.559  -2.199   5.999  0.00  0.00     0.130 A 
ATOM      2  C2  DEN d   1       2.276  -3.472   6.000  0.00  0.00    -0.031 A 
ATOM      3  C3  DEN d   1       2.728  -3.741   4.620  0.00  0.00     0.027 A 
ATOM      4  C4  DEN d   1       2.394  -2.317   2.496  0.00  0.00     0.027 A 
ATOM      5  C5  DEN d   1       1.839  -1.160   1.996  0.00  0.00    -0.003 A 
ATOM      6  C6  DEN d   1       1.128  -0.292   2.782  0.00  0.00     0.001 A 
ATOM      7  C7  DEN d   1       0.992  -0.546   4.121  0.00  0.00     0.017 A 
ATOM      8  C8  DEN d   1       1.543  -1.714   4.631  0.00  0.00    -0.094 A 
ATOM      9  C9  DEN d   1       2.268  -2.572   3.823  0.00  0.00    -0.072 A 
ENDROOT
TORSDOF 0
ENDMDL
