MODEL 1
REMARK minimizedAffinity -2.50084543
REMARK minimizedRMSD -1
REMARK  1 active torsions:
REMARK  status: ('A' for Active; 'I' for Inactive)
REMARK    1  A    between atoms: C1_2  and  C2_3 
ROOT
ATOM      1  C2  UNL d   1       5.704   1.917   4.902  0.00  0.00    -0.081 A 
ATOM      2  C3  UNL d   1       5.861   1.063   6.000  0.00  0.00     0.006 A 
ATOM      3  C4  UNL d   1       5.650  -0.311   5.864  0.00  0.00     0.002 A 
ATOM      4  C5  UNL d   1       5.286  -0.854   4.627  0.00  0.00    -0.080 A 
ATOM      5  C6  UNL d   1       5.086  -2.332   4.460  0.00  0.00     0.076 C 
ATOM      6  C7  UNL d   1       5.112   0.001   3.534  0.00  0.00     0.002 A 
ATOM      7  C8  UNL d   1       5.322   1.375   3.669  0.00  0.00     0.006 A 
ENDROOT
BRANCH   1   8
ATOM      8  C1  UNL d   1       5.993   3.391   5.030  0.00  0.00     0.054 C 
ATOM      9  C   UNL d   1       6.000   4.074   3.670  0.00  0.00     0.018 C 
ENDBRANCH   1   8
TORSDOF 1
ENDMDL
