MODEL 1
REMARK minimizedAffinity 8.88086414
REMARK minimizedRMSD -1
REMARK  1 active torsions:
REMARK  status: ('A' for Active; 'I' for Inactive)
REMARK    1  A    between atoms: C1_2  and  C2_3 
ROOT
ATOM      1  C2  UNL d   1       0.717  -0.937  -2.257  0.00  0.00    -0.081 A 
ATOM      2  C3  UNL d   1       0.461   0.347  -1.760  0.00  0.00     0.006 A 
ATOM      3  C4  UNL d   1      -0.195   0.515  -0.538  0.00  0.00     0.002 A 
ATOM      4  C5  UNL d   1      -0.599  -0.596   0.210  0.00  0.00    -0.080 A 
ATOM      5  C6  UNL d   1      -1.277  -0.430   1.537  0.00  0.00     0.076 C 
ATOM      6  C7  UNL d   1      -0.359  -1.879  -0.295  0.00  0.00     0.002 A 
ATOM      7  C8  UNL d   1       0.296  -2.047  -1.517  0.00  0.00     0.006 A 
ENDROOT
BRANCH   1   8
ATOM      8  C1  UNL d   1       1.481  -1.122  -3.543  0.00  0.00     0.054 C 
ATOM      9  C   UNL d   1       1.018  -2.366  -4.288  0.00  0.00     0.018 C 
ENDBRANCH   1   8
TORSDOF 1
ENDMDL
