MODEL 1
REMARK minimizedAffinity 2.9341104
REMARK minimizedRMSD -1
REMARK  1 active torsions:
REMARK  status: ('A' for Active; 'I' for Inactive)
REMARK    1  A    between atoms: C1_2  and  C2_3 
ROOT
ATOM      1  C2  UNL d   1       4.722   1.924   4.511  0.00  0.00    -0.081 A 
ATOM      2  C3  UNL d   1       5.739   1.603   5.419  0.00  0.00     0.006 A 
ATOM      3  C4  UNL d   1       6.000   0.271   5.748  0.00  0.00     0.002 A 
ATOM      4  C5  UNL d   1       5.255  -0.763   5.170  0.00  0.00    -0.080 A 
ATOM      5  C6  UNL d   1       5.546  -2.198   5.491  0.00  0.00     0.076 C 
ATOM      6  C7  UNL d   1       4.228  -0.441   4.276  0.00  0.00     0.002 A 
ATOM      7  C8  UNL d   1       3.966   0.890   3.947  0.00  0.00     0.006 A 
ENDROOT
BRANCH   1   8
ATOM      8  C1  UNL d   1       4.481   3.355   4.105  0.00  0.00     0.054 C 
ATOM      9  C   UNL d   1       5.790   4.118   3.964  0.00  0.00     0.018 C 
ENDBRANCH   1   8
TORSDOF 1
ENDMDL
