MODEL 1
REMARK minimizedAffinity -2.98288369
REMARK minimizedRMSD -1
REMARK  1 active torsions:
REMARK  status: ('A' for Active; 'I' for Inactive)
REMARK    1  A    between atoms: C1_2  and  C2_3 
ROOT
ATOM      1  C2  UNL d   1       0.799  -1.163  -0.576  0.00  0.00    -0.081 A 
ATOM      2  C3  UNL d   1      -0.399  -1.847  -0.335  0.00  0.00     0.006 A 
ATOM      3  C4  UNL d   1      -1.491  -1.184   0.231  0.00  0.00     0.002 A 
ATOM      4  C5  UNL d   1      -1.405   0.174   0.557  0.00  0.00    -0.080 A 
ATOM      5  C6  UNL d   1      -2.580   0.905   1.137  0.00  0.00     0.076 C 
ATOM      6  C7  UNL d   1      -0.203   0.852   0.332  0.00  0.00     0.002 A 
ATOM      7  C8  UNL d   1       0.889   0.190  -0.233  0.00  0.00     0.006 A 
ENDROOT
BRANCH   1   8
ATOM      8  C1  UNL d   1       1.957  -1.859  -1.246  0.00  0.00     0.054 C 
ATOM      9  C   UNL d   1       3.212  -0.999  -1.215  0.00  0.00     0.018 C 
ENDBRANCH   1   8
TORSDOF 1
ENDMDL
