MODEL 1
REMARK minimizedAffinity -5.3832078
REMARK minimizedRMSD -1
REMARK  1 active torsions:
REMARK  status: ('A' for Active; 'I' for Inactive)
REMARK    1  A    between atoms: C1_2  and  C2_3 
ROOT
ATOM      1  C2  UNL d   1      -0.636   0.077   0.471  0.00  0.00    -0.081 A 
ATOM      2  C3  UNL d   1      -0.312  -1.281   0.364  0.00  0.00     0.006 A 
ATOM      3  C4  UNL d   1       0.878  -1.679  -0.250  0.00  0.00     0.002 A 
ATOM      4  C5  UNL d   1       1.767  -0.727  -0.759  0.00  0.00    -0.080 A 
ATOM      5  C6  UNL d   1       3.062  -1.139  -1.393  0.00  0.00     0.076 C 
ATOM      6  C7  UNL d   1       1.436   0.629  -0.667  0.00  0.00     0.002 A 
ATOM      7  C8  UNL d   1       0.246   1.028  -0.054  0.00  0.00     0.006 A 
ENDROOT
BRANCH   1   8
ATOM      8  C1  UNL d   1      -1.887   0.512   1.190  0.00  0.00     0.054 C 
ATOM      9  C   UNL d   1      -1.570   1.048   2.579  0.00  0.00     0.018 C 
ENDBRANCH   1   8
TORSDOF 1
ENDMDL
