MODEL 1
REMARK minimizedAffinity -1.90115178
REMARK minimizedRMSD -1
REMARK  1 active torsions:
REMARK  status: ('A' for Active; 'I' for Inactive)
REMARK    1  A    between atoms: C1_2  and  C2_3 
ROOT
ATOM      1  C2  UNL d   1      -2.793  -0.247   3.778  0.00  0.00    -0.081 A 
ATOM      2  C3  UNL d   1      -3.420  -0.334   2.529  0.00  0.00     0.006 A 
ATOM      3  C4  UNL d   1      -4.450  -1.253   2.315  0.00  0.00     0.002 A 
ATOM      4  C5  UNL d   1      -4.875  -2.095   3.348  0.00  0.00    -0.080 A 
ATOM      5  C6  UNL d   1      -6.000  -3.065   3.141  0.00  0.00     0.076 C 
ATOM      6  C7  UNL d   1      -4.237  -2.021   4.591  0.00  0.00     0.002 A 
ATOM      7  C8  UNL d   1      -3.207  -1.102   4.805  0.00  0.00     0.006 A 
ENDROOT
BRANCH   1   8
ATOM      8  C1  UNL d   1      -1.727   0.788   4.030  0.00  0.00     0.054 C 
ATOM      9  C   UNL d   1      -1.754   1.880   2.971  0.00  0.00     0.018 C 
ENDBRANCH   1   8
TORSDOF 1
ENDMDL
