MODEL 1
REMARK minimizedAffinity -2.93260098
REMARK minimizedRMSD -1
REMARK  1 active torsions:
REMARK  status: ('A' for Active; 'I' for Inactive)
REMARK    1  A    between atoms: C1_2  and  C2_3 
ROOT
ATOM      1  C2  UNL d   1      -0.997  -0.300   0.689  0.00  0.00    -0.081 A 
ATOM      2  C3  UNL d   1      -0.593  -1.629   0.511  0.00  0.00     0.006 A 
ATOM      3  C4  UNL d   1       0.625  -1.921  -0.106  0.00  0.00     0.002 A 
ATOM      4  C5  UNL d   1       1.463  -0.891  -0.549  0.00  0.00    -0.080 A 
ATOM      5  C6  UNL d   1       2.787  -1.191  -1.186  0.00  0.00     0.076 C 
ATOM      6  C7  UNL d   1       1.051   0.436  -0.386  0.00  0.00     0.002 A 
ATOM      7  C8  UNL d   1      -0.167   0.729   0.230  0.00  0.00     0.006 A 
ENDROOT
BRANCH   1   8
ATOM      8  C1  UNL d   1      -2.280   0.020   1.413  0.00  0.00     0.054 C 
ATOM      9  C   UNL d   1      -2.110  -0.101   2.920  0.00  0.00     0.018 C 
ENDBRANCH   1   8
TORSDOF 1
ENDMDL
