MODEL 1
REMARK minimizedAffinity -1.3295275
REMARK minimizedRMSD -1
REMARK  1 active torsions:
REMARK  status: ('A' for Active; 'I' for Inactive)
REMARK    1  A    between atoms: C1_2  and  C2_3 
ROOT
ATOM      1  C2  UNL d   1      -1.512   0.506   1.763  0.00  0.00    -0.081 A 
ATOM      2  C3  UNL d   1      -0.174   0.251   2.088  0.00  0.00     0.006 A 
ATOM      3  C4  UNL d   1       0.833   0.435   1.137  0.00  0.00     0.002 A 
ATOM      4  C5  UNL d   1       0.520   0.885  -0.150  0.00  0.00    -0.080 A 
ATOM      5  C6  UNL d   1       1.595   1.116  -1.170  0.00  0.00     0.076 C 
ATOM      6  C7  UNL d   1      -0.819   1.123  -0.480  0.00  0.00     0.002 A 
ATOM      7  C8  UNL d   1      -1.826   0.938   0.470  0.00  0.00     0.006 A 
ENDROOT
BRANCH   1   8
ATOM      8  C1  UNL d   1      -2.593   0.369   2.805  0.00  0.00     0.054 C 
ATOM      9  C   UNL d   1      -2.287   1.214   4.033  0.00  0.00     0.018 C 
ENDBRANCH   1   8
TORSDOF 1
ENDMDL
