MODEL 1
REMARK minimizedAffinity -4.5021925
REMARK minimizedRMSD -1
REMARK  1 active torsions:
REMARK  status: ('A' for Active; 'I' for Inactive)
REMARK    1  A    between atoms: C1_2  and  C2_3 
ROOT
ATOM      1  C2  UNL d   1      -0.961  -0.120   0.283  0.00  0.00    -0.081 A 
ATOM      2  C3  UNL d   1      -0.359  -1.384   0.278  0.00  0.00     0.006 A 
ATOM      3  C4  UNL d   1       0.892  -1.571  -0.315  0.00  0.00     0.002 A 
ATOM      4  C5  UNL d   1       1.564  -0.497  -0.907  0.00  0.00    -0.080 A 
ATOM      5  C6  UNL d   1       2.921  -0.677  -1.520  0.00  0.00     0.076 C 
ATOM      6  C7  UNL d   1       0.955   0.763  -0.918  0.00  0.00     0.002 A 
ATOM      7  C8  UNL d   1      -0.295   0.950  -0.325  0.00  0.00     0.006 A 
ENDROOT
BRANCH   1   8
ATOM      8  C1  UNL d   1      -2.280   0.099   0.978  0.00  0.00     0.054 C 
ATOM      9  C   UNL d   1      -2.080   0.451   2.446  0.00  0.00     0.018 C 
ENDBRANCH   1   8
TORSDOF 1
ENDMDL
