MODEL 1
REMARK minimizedAffinity -3.08521461
REMARK minimizedRMSD -1
REMARK  1 active torsions:
REMARK  status: ('A' for Active; 'I' for Inactive)
REMARK    1  A    between atoms: C1_2  and  C2_3 
ROOT
ATOM      1  C2  UNL d   1      -1.751   1.565   2.398  0.00  0.00    -0.081 A 
ATOM      2  C3  UNL d   1      -1.270   2.864   2.191  0.00  0.00     0.006 A 
ATOM      3  C4  UNL d   1      -0.797   3.252   0.936  0.00  0.00     0.002 A 
ATOM      4  C5  UNL d   1      -0.803   2.352  -0.135  0.00  0.00    -0.080 A 
ATOM      5  C6  UNL d   1      -0.326   2.766  -1.495  0.00  0.00     0.076 C 
ATOM      6  C7  UNL d   1      -1.266   1.049   0.075  0.00  0.00     0.002 A 
ATOM      7  C8  UNL d   1      -1.739   0.660   1.331  0.00  0.00     0.006 A 
ENDROOT
BRANCH   1   8
ATOM      8  C1  UNL d   1      -2.322   1.162   3.733  0.00  0.00     0.054 C 
ATOM      9  C   UNL d   1      -3.391   0.090   3.577  0.00  0.00     0.018 C 
ENDBRANCH   1   8
TORSDOF 1
ENDMDL
