MODEL 1
REMARK minimizedAffinity -5.77995634
REMARK minimizedRMSD -1
REMARK  1 active torsions:
REMARK  status: ('A' for Active; 'I' for Inactive)
REMARK    1  A    between atoms: C1_2  and  C2_3 
ROOT
ATOM      1  C2  UNL d   1       1.753   0.044  -1.168  0.00  0.00    -0.081 A 
ATOM      2  C3  UNL d   1       2.279  -1.195  -1.554  0.00  0.00     0.006 A 
ATOM      3  C4  UNL d   1       1.672  -2.382  -1.139  0.00  0.00     0.002 A 
ATOM      4  C5  UNL d   1       0.524  -2.351  -0.340  0.00  0.00    -0.080 A 
ATOM      5  C6  UNL d   1      -0.155  -3.619   0.087  0.00  0.00     0.076 C 
ATOM      6  C7  UNL d   1       0.008  -1.114   0.060  0.00  0.00     0.002 A 
ATOM      7  C8  UNL d   1       0.615   0.074  -0.353  0.00  0.00     0.006 A 
ENDROOT
BRANCH   1   8
ATOM      8  C1  UNL d   1       2.367   1.327  -1.667  0.00  0.00     0.054 C 
ATOM      9  C   UNL d   1       1.310   2.264  -2.234  0.00  0.00     0.018 C 
ENDBRANCH   1   8
TORSDOF 1
ENDMDL
