MODEL 1
REMARK minimizedAffinity -3.8711741
REMARK minimizedRMSD -1
REMARK  0 active torsions:
REMARK  status: ('A' for Active; 'I' for Inactive)
ROOT
ATOM      1  C   UNL d   1      -1.377   1.662   1.859  0.00  0.00    -0.002 A 
ATOM      2  C1  UNL d   1      -1.843   2.154   0.648  0.00  0.00     0.010 A 
ATOM      3  C2  UNL d   1      -1.419   1.591  -0.557  0.00  0.00     0.041 A 
ATOM      4  C3  UNL d   1      -0.512   0.513  -0.525  0.00  0.00    -0.075 A 
ATOM      5  S   UNL d   1       0.143  -0.335  -1.875  0.00  0.00     0.015 SA
ATOM      6  C4  UNL d   1       1.057  -1.370  -0.876  0.00  0.00     0.022 A 
ATOM      7  C5  UNL d   1       0.879  -1.089   0.458  0.00  0.00     0.026 A 
ATOM      8  C6  UNL d   1      -0.029   0.000   0.682  0.00  0.00    -0.082 A 
ATOM      9  C7  UNL d   1      -0.477   0.594   1.887  0.00  0.00     0.045 A 
ENDROOT
TORSDOF 0
ENDMDL
