MODEL 1
REMARK minimizedAffinity -2.21521306
REMARK minimizedRMSD -1
REMARK  0 active torsions:
REMARK  status: ('A' for Active; 'I' for Inactive)
ROOT
ATOM      1  C   UNL d   1      -0.371  -4.098  -0.775  0.00  0.00    -0.002 A 
ATOM      2  C1  UNL d   1       0.805  -3.940  -1.494  0.00  0.00     0.010 A 
ATOM      3  C2  UNL d   1       1.414  -2.687  -1.593  0.00  0.00     0.041 A 
ATOM      4  C3  UNL d   1       0.816  -1.586  -0.950  0.00  0.00    -0.075 A 
ATOM      5  S   UNL d   1       1.383   0.042  -0.933  0.00  0.00     0.015 SA
ATOM      6  C4  UNL d   1       0.078   0.566   0.029  0.00  0.00     0.022 A 
ATOM      7  C5  UNL d   1      -0.779  -0.463   0.339  0.00  0.00     0.026 A 
ATOM      8  C6  UNL d   1      -0.368  -1.720  -0.219  0.00  0.00    -0.082 A 
ATOM      9  C7  UNL d   1      -0.962  -3.003  -0.138  0.00  0.00     0.045 A 
ENDROOT
TORSDOF 0
ENDMDL
