MODEL 1
REMARK minimizedAffinity -0.393594295
REMARK minimizedRMSD -1
REMARK  0 active torsions:
REMARK  status: ('A' for Active; 'I' for Inactive)
ROOT
ATOM      1  C   UNL d   1       0.333  -1.671  -1.754  0.00  0.00    -0.002 A 
ATOM      2  C1  UNL d   1      -0.250  -2.611  -2.592  0.00  0.00     0.010 A 
ATOM      3  C2  UNL d   1      -0.041  -3.975  -2.383  0.00  0.00     0.041 A 
ATOM      4  C3  UNL d   1       0.770  -4.383  -1.306  0.00  0.00    -0.075 A 
ATOM      5  S   UNL d   1       1.166  -6.000  -0.856  0.00  0.00     0.015 SA
ATOM      6  C4  UNL d   1       2.117  -5.481   0.459  0.00  0.00     0.022 A 
ATOM      7  C5  UNL d   1       2.144  -4.111   0.567  0.00  0.00     0.026 A 
ATOM      8  C6  UNL d   1       1.368  -3.455  -0.448  0.00  0.00    -0.082 A 
ATOM      9  C7  UNL d   1       1.137  -2.079  -0.687  0.00  0.00     0.045 A 
ENDROOT
TORSDOF 0
ENDMDL
