MODEL 1
REMARK minimizedAffinity -2.89306426
REMARK minimizedRMSD -1
REMARK  0 active torsions:
REMARK  status: ('A' for Active; 'I' for Inactive)
ROOT
ATOM      1  C   UNL d   1      -2.074   1.857   1.622  0.00  0.00    -0.002 A 
ATOM      2  C1  UNL d   1      -2.538   1.673   0.327  0.00  0.00     0.010 A 
ATOM      3  C2  UNL d   1      -1.805   0.916  -0.589  0.00  0.00     0.041 A 
ATOM      4  C3  UNL d   1      -0.587   0.339  -0.177  0.00  0.00    -0.075 A 
ATOM      5  S   UNL d   1       0.478  -0.628  -1.127  0.00  0.00     0.015 SA
ATOM      6  C4  UNL d   1       1.574  -0.821   0.164  0.00  0.00     0.022 A 
ATOM      7  C5  UNL d   1       1.153  -0.170   1.300  0.00  0.00     0.026 A 
ATOM      8  C6  UNL d   1      -0.100   0.509   1.122  0.00  0.00    -0.082 A 
ATOM      9  C7  UNL d   1      -0.865   1.283   2.027  0.00  0.00     0.045 A 
ENDROOT
TORSDOF 0
ENDMDL
