MODEL 1
REMARK minimizedAffinity -0.728135049
REMARK minimizedRMSD -1
REMARK  0 active torsions:
REMARK  status: ('A' for Active; 'I' for Inactive)
ROOT
ATOM      1  C   UNL d   1      -1.228   1.275   0.583  0.00  0.00    -0.002 A 
ATOM      2  C1  UNL d   1      -2.125   0.251   0.309  0.00  0.00     0.010 A 
ATOM      3  C2  UNL d   1      -1.687  -0.937  -0.279  0.00  0.00     0.041 A 
ATOM      4  C3  UNL d   1      -0.321  -1.081  -0.590  0.00  0.00    -0.075 A 
ATOM      5  S   UNL d   1       0.442  -2.448  -1.313  0.00  0.00     0.015 SA
ATOM      6  C4  UNL d   1       1.976  -1.705  -1.275  0.00  0.00     0.022 A 
ATOM      7  C5  UNL d   1       1.925  -0.445  -0.727  0.00  0.00     0.026 A 
ATOM      8  C6  UNL d   1       0.601  -0.065  -0.323  0.00  0.00    -0.082 A 
ATOM      9  C7  UNL d   1       0.126   1.128   0.274  0.00  0.00     0.045 A 
ENDROOT
TORSDOF 0
ENDMDL
