MODEL 1
REMARK minimizedAffinity -4.18071985
REMARK minimizedRMSD -1
REMARK  0 active torsions:
REMARK  status: ('A' for Active; 'I' for Inactive)
ROOT
ATOM      1  C   UNL d   1      -1.873   2.411   1.681  0.00  0.00    -0.002 A 
ATOM      2  C1  UNL d   1      -1.011   1.655   2.462  0.00  0.00     0.010 A 
ATOM      3  C2  UNL d   1      -0.051   0.833   1.869  0.00  0.00     0.041 A 
ATOM      4  C3  UNL d   1       0.030   0.784   0.463  0.00  0.00    -0.075 A 
ATOM      5  S   UNL d   1       1.127  -0.150  -0.483  0.00  0.00     0.015 SA
ATOM      6  C4  UNL d   1       0.477   0.433  -1.947  0.00  0.00     0.022 A 
ATOM      7  C5  UNL d   1      -0.552   1.319  -1.738  0.00  0.00     0.026 A 
ATOM      8  C6  UNL d   1      -0.827   1.537  -0.345  0.00  0.00    -0.082 A 
ATOM      9  C7  UNL d   1      -1.790   2.360   0.286  0.00  0.00     0.045 A 
ENDROOT
TORSDOF 0
ENDMDL
