MODEL 1
REMARK minimizedAffinity 3.39289117
REMARK minimizedRMSD -1
REMARK  0 active torsions:
REMARK  status: ('A' for Active; 'I' for Inactive)
ROOT
ATOM      1  C   UNL d   1      -1.150   1.232  -0.645  0.00  0.00    -0.002 A 
ATOM      2  C1  UNL d   1       0.112   0.719  -0.384  0.00  0.00     0.010 A 
ATOM      3  C2  UNL d   1       0.858   0.117  -1.400  0.00  0.00     0.041 A 
ATOM      4  C3  UNL d   1       0.309   0.041  -2.695  0.00  0.00    -0.075 A 
ATOM      5  S   UNL d   1       1.040  -0.651  -4.095  0.00  0.00     0.015 SA
ATOM      6  C4  UNL d   1      -0.306  -0.281  -5.072  0.00  0.00     0.022 A 
ATOM      7  C5  UNL d   1      -1.298   0.355  -4.364  0.00  0.00     0.026 A 
ATOM      8  C6  UNL d   1      -0.960   0.551  -2.982  0.00  0.00    -0.082 A 
ATOM      9  C7  UNL d   1      -1.692   1.154  -1.931  0.00  0.00     0.045 A 
ENDROOT
TORSDOF 0
ENDMDL
