MODEL 1
REMARK minimizedAffinity 0.391309351
REMARK minimizedRMSD -1
REMARK  0 active torsions:
REMARK  status: ('A' for Active; 'I' for Inactive)
ROOT
ATOM      1  C   UNL d   1      -0.489   0.670   2.678  0.00  0.00    -0.002 A 
ATOM      2  C1  UNL d   1       0.054  -0.387   1.961  0.00  0.00     0.010 A 
ATOM      3  C2  UNL d   1       0.006  -0.399   0.566  0.00  0.00     0.041 A 
ATOM      4  C3  UNL d   1      -0.602   0.681  -0.104  0.00  0.00    -0.075 A 
ATOM      5  S   UNL d   1      -0.777   0.882  -1.808  0.00  0.00     0.015 SA
ATOM      6  C4  UNL d   1      -1.575   2.376  -1.625  0.00  0.00     0.022 A 
ATOM      7  C5  UNL d   1      -1.714   2.728  -0.303  0.00  0.00     0.026 A 
ATOM      8  C6  UNL d   1      -1.155   1.757   0.595  0.00  0.00    -0.082 A 
ATOM      9  C7  UNL d   1      -1.091   1.740   2.009  0.00  0.00     0.045 A 
ENDROOT
TORSDOF 0
ENDMDL
