MODEL 1
REMARK minimizedAffinity 6.96170902
REMARK minimizedRMSD -1
REMARK  0 active torsions:
REMARK  status: ('A' for Active; 'I' for Inactive)
ROOT
ATOM      1  C   UNL d   1      -1.060   1.458   2.985  0.00  0.00    -0.002 A 
ATOM      2  C1  UNL d   1      -0.742   2.651   2.351  0.00  0.00     0.010 A 
ATOM      3  C2  UNL d   1      -0.193   2.649   1.068  0.00  0.00     0.041 A 
ATOM      4  C3  UNL d   1       0.032   1.416   0.425  0.00  0.00    -0.075 A 
ATOM      5  S   UNL d   1       0.693   1.169  -1.148  0.00  0.00     0.015 SA
ATOM      6  C4  UNL d   1       0.569  -0.526  -1.016  0.00  0.00     0.022 A 
ATOM      7  C5  UNL d   1       0.039  -0.911   0.192  0.00  0.00     0.026 A 
ATOM      8  C6  UNL d   1      -0.281   0.201   1.042  0.00  0.00    -0.082 A 
ATOM      9  C7  UNL d   1      -0.835   0.237   2.344  0.00  0.00     0.045 A 
ENDROOT
TORSDOF 0
ENDMDL
