MODEL 1
REMARK minimizedAffinity 3.01580262
REMARK minimizedRMSD -1
REMARK  0 active torsions:
REMARK  status: ('A' for Active; 'I' for Inactive)
ROOT
ATOM      1  C   UNL d   1      -2.542   2.075   2.239  0.00  0.00    -0.002 A 
ATOM      2  C1  UNL d   1      -1.320   1.753   2.812  0.00  0.00     0.010 A 
ATOM      3  C2  UNL d   1      -0.239   1.375   2.014  0.00  0.00     0.041 A 
ATOM      4  C3  UNL d   1      -0.407   1.330   0.616  0.00  0.00    -0.075 A 
ATOM      5  S   UNL d   1       0.777   0.897  -0.560  0.00  0.00     0.015 SA
ATOM      6  C4  UNL d   1      -0.311   1.131  -1.851  0.00  0.00     0.022 A 
ATOM      7  C5  UNL d   1      -1.552   1.530  -1.414  0.00  0.00     0.026 A 
ATOM      8  C6  UNL d   1      -1.628   1.651   0.015  0.00  0.00    -0.082 A 
ATOM      9  C7  UNL d   1      -2.705   2.029   0.852  0.00  0.00     0.045 A 
ENDROOT
TORSDOF 0
ENDMDL
