MODEL 1
REMARK minimizedAffinity 5.10818434
REMARK minimizedRMSD -1
REMARK  1 active torsions:
REMARK  status: ('A' for Active; 'I' for Inactive)
REMARK    1  A    between atoms: C1_2  and  C2_3 
ROOT
ATOM      1  C2  UNL d   1       0.365   0.194   2.701  0.00  0.00    -0.081 A 
ATOM      2  C3  UNL d   1       0.148  -1.116   3.147  0.00  0.00     0.006 A 
ATOM      3  C4  UNL d   1      -1.060  -1.466   3.754  0.00  0.00     0.002 A 
ATOM      4  C5  UNL d   1      -2.074  -0.516   3.917  0.00  0.00    -0.080 A 
ATOM      5  C6  UNL d   1      -3.388  -0.886   4.540  0.00  0.00     0.076 C 
ATOM      6  C7  UNL d   1      -1.851   0.796   3.487  0.00  0.00     0.002 A 
ATOM      7  C8  UNL d   1      -0.643   1.148   2.881  0.00  0.00     0.006 A 
ENDROOT
BRANCH   1   8
ATOM      8  C1  UNL d   1       1.642   0.559   1.988  0.00  0.00     0.054 C 
ATOM      9  C   UNL d   1       1.851  -0.302   0.751  0.00  0.00     0.018 C 
ENDBRANCH   1   8
TORSDOF 1
ENDMDL
