MODEL 1
REMARK minimizedAffinity 8.32857227
REMARK minimizedRMSD -1
REMARK  1 active torsions:
REMARK  status: ('A' for Active; 'I' for Inactive)
REMARK    1  A    between atoms: C1_2  and  C2_3 
ROOT
ATOM      1  C2  UNL d   1       1.325  -0.704   1.303  0.00  0.00    -0.081 A 
ATOM      2  C3  UNL d   1       2.469  -0.712   2.110  0.00  0.00     0.006 A 
ATOM      3  C4  UNL d   1       3.740  -0.782   1.535  0.00  0.00     0.002 A 
ATOM      4  C5  UNL d   1       3.889  -0.837   0.145  0.00  0.00    -0.080 A 
ATOM      5  C6  UNL d   1       5.249  -0.882  -0.486  0.00  0.00     0.076 C 
ATOM      6  C7  UNL d   1       2.745  -0.847  -0.660  0.00  0.00     0.002 A 
ATOM      7  C8  UNL d   1       1.474  -0.777  -0.086  0.00  0.00     0.006 A 
ENDROOT
BRANCH   1   8
ATOM      8  C1  UNL d   1      -0.045  -0.563   1.917  0.00  0.00     0.054 C 
ATOM      9  C   UNL d   1      -0.295   0.861   2.392  0.00  0.00     0.018 C 
ENDBRANCH   1   8
TORSDOF 1
ENDMDL
