MODEL 1
REMARK minimizedAffinity 12.9466209
REMARK minimizedRMSD -1
REMARK  1 active torsions:
REMARK  status: ('A' for Active; 'I' for Inactive)
REMARK    1  A    between atoms: C1_2  and  C2_3 
ROOT
ATOM      1  C2  UNL d   1      -0.276   1.340   2.369  0.00  0.00    -0.081 A 
ATOM      2  C3  UNL d   1      -0.686   0.048   2.019  0.00  0.00     0.006 A 
ATOM      3  C4  UNL d   1       0.023  -1.067   2.470  0.00  0.00     0.002 A 
ATOM      4  C5  UNL d   1       1.149  -0.910   3.286  0.00  0.00    -0.080 A 
ATOM      5  C6  UNL d   1       1.902  -2.099   3.802  0.00  0.00     0.076 C 
ATOM      6  C7  UNL d   1       1.569   0.382   3.622  0.00  0.00     0.002 A 
ATOM      7  C8  UNL d   1       0.860   1.497   3.170  0.00  0.00     0.006 A 
ENDROOT
BRANCH   1   8
ATOM      8  C1  UNL d   1      -1.077   2.542   1.937  0.00  0.00     0.054 C 
ATOM      9  C   UNL d   1      -0.313   3.380   0.922  0.00  0.00     0.018 C 
ENDBRANCH   1   8
TORSDOF 1
ENDMDL
