MODEL 1
REMARK minimizedAffinity 14.5095539
REMARK minimizedRMSD -1
REMARK  1 active torsions:
REMARK  status: ('A' for Active; 'I' for Inactive)
REMARK    1  A    between atoms: C1_2  and  C2_3 
ROOT
ATOM      1  C2  UNL d   1      -1.466  -3.715  -1.862  0.00  0.00    -0.081 A 
ATOM      2  C3  UNL d   1      -0.991  -5.031  -1.885  0.00  0.00     0.006 A 
ATOM      3  C4  UNL d   1      -0.794  -5.692  -3.100  0.00  0.00     0.002 A 
ATOM      4  C5  UNL d   1      -1.062  -5.046  -4.311  0.00  0.00    -0.080 A 
ATOM      5  C6  UNL d   1      -0.827  -5.733  -5.623  0.00  0.00     0.076 C 
ATOM      6  C7  UNL d   1      -1.554  -3.736  -4.288  0.00  0.00     0.002 A 
ATOM      7  C8  UNL d   1      -1.751  -3.075  -3.073  0.00  0.00     0.006 A 
ENDROOT
BRANCH   1   8
ATOM      8  C1  UNL d   1      -1.617  -2.977  -0.556  0.00  0.00     0.054 C 
ATOM      9  C   UNL d   1      -3.039  -3.082  -0.023  0.00  0.00     0.018 C 
ENDBRANCH   1   8
TORSDOF 1
ENDMDL
