MODEL 1
REMARK minimizedAffinity 16.799078
REMARK minimizedRMSD -1
REMARK  1 active torsions:
REMARK  status: ('A' for Active; 'I' for Inactive)
REMARK    1  A    between atoms: C1_2  and  C2_3 
ROOT
ATOM      1  C2  UNL d   1       0.267  -0.687   1.429  0.00  0.00    -0.081 A 
ATOM      2  C3  UNL d   1       1.445  -0.332   2.099  0.00  0.00     0.006 A 
ATOM      3  C4  UNL d   1       2.667  -0.320   1.424  0.00  0.00     0.002 A 
ATOM      4  C5  UNL d   1       2.732  -0.653   0.067  0.00  0.00    -0.080 A 
ATOM      5  C6  UNL d   1       4.034  -0.614  -0.677  0.00  0.00     0.076 C 
ATOM      6  C7  UNL d   1       1.559  -1.024  -0.598  0.00  0.00     0.002 A 
ATOM      7  C8  UNL d   1       0.336  -1.038   0.076  0.00  0.00     0.006 A 
ENDROOT
BRANCH   1   8
ATOM      8  C1  UNL d   1      -1.062  -0.639   2.138  0.00  0.00     0.054 C 
ATOM      9  C   UNL d   1      -2.107  -1.474   1.412  0.00  0.00     0.018 C 
ENDBRANCH   1   8
TORSDOF 1
ENDMDL
