MODEL 1
REMARK minimizedAffinity -4.96397638
REMARK minimizedRMSD -1
REMARK  1 active torsions:
REMARK  status: ('A' for Active; 'I' for Inactive)
REMARK    1  A    between atoms: C1_2  and  C2_3 
ROOT
ATOM      1  C2  UNL d   1      -0.102  -0.344   0.065  0.00  0.00    -0.076 A 
ATOM      2  C3  UNL d   1      -1.498  -0.436   0.210  0.00  0.00     0.004 A 
ATOM      3  C4  UNL d   1      -2.103  -1.638   0.574  0.00  0.00    -0.003 A 
ATOM      4  C5  UNL d   1      -1.323  -2.766   0.800  0.00  0.00     0.000 A 
ATOM      5  C6  UNL d   1       0.064  -2.689   0.679  0.00  0.00     0.000 A 
ATOM      6  C7  UNL d   1       0.691  -1.481   0.328  0.00  0.00    -0.073 A 
ATOM      7  C8  UNL d   1       2.190  -1.456   0.206  0.00  0.00     0.078 C 
ENDROOT
BRANCH   1   8
ATOM      8  C1  UNL d   1       0.496   0.978  -0.358  0.00  0.00     0.053 C 
ATOM      9  C   UNL d   1       0.437   1.189  -1.863  0.00  0.00     0.018 C 
ENDBRANCH   1   8
TORSDOF 1
ENDMDL
