MODEL 1
REMARK minimizedAffinity -2.24206781
REMARK minimizedRMSD -1
REMARK  1 active torsions:
REMARK  status: ('A' for Active; 'I' for Inactive)
REMARK    1  A    between atoms: C1_2  and  C2_3 
ROOT
ATOM      1  C2  UNL d   1      -5.423  -2.993  -3.980  0.00  0.00    -0.076 A 
ATOM      2  C3  UNL d   1      -6.000  -3.245  -5.236  0.00  0.00     0.004 A 
ATOM      3  C4  UNL d   1      -5.636  -4.366  -5.981  0.00  0.00    -0.003 A 
ATOM      4  C5  UNL d   1      -4.690  -5.254  -5.480  0.00  0.00     0.000 A 
ATOM      5  C6  UNL d   1      -4.121  -5.029  -4.227  0.00  0.00     0.000 A 
ATOM      6  C7  UNL d   1      -4.488  -3.912  -3.457  0.00  0.00    -0.073 A 
ATOM      7  C8  UNL d   1      -3.838  -3.715  -2.115  0.00  0.00     0.078 C 
ENDROOT
BRANCH   1   8
ATOM      8  C1  UNL d   1      -5.837  -1.747  -3.230  0.00  0.00     0.053 C 
ATOM      9  C   UNL d   1      -5.999  -0.543  -4.145  0.00  0.00     0.018 C 
ENDBRANCH   1   8
TORSDOF 1
ENDMDL
