MODEL 1
REMARK minimizedAffinity -4.13826513
REMARK minimizedRMSD -1
REMARK  1 active torsions:
REMARK  status: ('A' for Active; 'I' for Inactive)
REMARK    1  A    between atoms: C1_2  and  C2_3 
ROOT
ATOM      1  C2  UNL d   1      -4.729  -3.285  -5.098  0.00  0.00    -0.076 A 
ATOM      2  C3  UNL d   1      -3.628  -3.144  -5.959  0.00  0.00     0.004 A 
ATOM      3  C4  UNL d   1      -2.607  -4.094  -5.979  0.00  0.00    -0.003 A 
ATOM      4  C5  UNL d   1      -2.672  -5.199  -5.138  0.00  0.00     0.000 A 
ATOM      5  C6  UNL d   1      -3.767  -5.363  -4.290  0.00  0.00     0.000 A 
ATOM      6  C7  UNL d   1      -4.812  -4.424  -4.269  0.00  0.00    -0.073 A 
ATOM      7  C8  UNL d   1      -5.965  -4.648  -3.330  0.00  0.00     0.078 C 
ENDROOT
BRANCH   1   8
ATOM      8  C1  UNL d   1      -5.792  -2.209  -5.100  0.00  0.00     0.053 C 
ATOM      9  C   UNL d   1      -5.224  -0.828  -4.815  0.00  0.00     0.018 C 
ENDBRANCH   1   8
TORSDOF 1
ENDMDL
