MODEL 1
REMARK minimizedAffinity -1.16969311
REMARK minimizedRMSD -1
REMARK  1 active torsions:
REMARK  status: ('A' for Active; 'I' for Inactive)
REMARK    1  A    between atoms: C1_2  and  C2_3 
ROOT
ATOM      1  C2  UNL d   1      -4.109  -3.687  -5.613  0.00  0.00    -0.076 A 
ATOM      2  C3  UNL d   1      -2.761  -3.507  -5.970  0.00  0.00     0.004 A 
ATOM      3  C4  UNL d   1      -1.804  -4.474  -5.670  0.00  0.00    -0.003 A 
ATOM      4  C5  UNL d   1      -2.179  -5.639  -5.009  0.00  0.00     0.000 A 
ATOM      5  C6  UNL d   1      -3.514  -5.842  -4.663  0.00  0.00     0.000 A 
ATOM      6  C7  UNL d   1      -4.495  -4.884  -4.973  0.00  0.00    -0.073 A 
ATOM      7  C8  UNL d   1      -5.919  -5.153  -4.571  0.00  0.00     0.078 C 
ENDROOT
BRANCH   1   8
ATOM      8  C1  UNL d   1      -5.098  -2.592  -5.941  0.00  0.00     0.053 C 
ATOM      9  C   UNL d   1      -5.969  -2.218  -4.751  0.00  0.00     0.018 C 
ENDBRANCH   1   8
TORSDOF 1
ENDMDL
