MODEL 1
REMARK minimizedAffinity -3.11726069
REMARK minimizedRMSD -1
REMARK  1 active torsions:
REMARK  status: ('A' for Active; 'I' for Inactive)
REMARK    1  A    between atoms: C1_2  and  C2_3 
ROOT
ATOM      1  C2  UNL d   1      -4.668  -3.889  -5.687  0.00  0.00    -0.076 A 
ATOM      2  C3  UNL d   1      -3.434  -3.293  -6.000  0.00  0.00     0.004 A 
ATOM      3  C4  UNL d   1      -2.255  -4.037  -5.988  0.00  0.00    -0.003 A 
ATOM      4  C5  UNL d   1      -2.291  -5.388  -5.664  0.00  0.00     0.000 A 
ATOM      5  C6  UNL d   1      -3.509  -6.000  -5.368  0.00  0.00     0.000 A 
ATOM      6  C7  UNL d   1      -4.709  -5.269  -5.391  0.00  0.00    -0.073 A 
ATOM      7  C8  UNL d   1      -5.993  -5.978  -5.058  0.00  0.00     0.078 C 
ENDROOT
BRANCH   1   8
ATOM      8  C1  UNL d   1      -5.910  -3.027  -5.689  0.00  0.00     0.053 C 
ATOM      9  C   UNL d   1      -5.776  -1.809  -4.789  0.00  0.00     0.018 C 
ENDBRANCH   1   8
TORSDOF 1
ENDMDL
