MODEL 1
REMARK minimizedAffinity -2.66972041
REMARK minimizedRMSD -1
REMARK  1 active torsions:
REMARK  status: ('A' for Active; 'I' for Inactive)
REMARK    1  A    between atoms: C1_2  and  C2_3 
ROOT
ATOM      1  C2  UNL d   1      -4.019  -3.566  -5.078  0.00  0.00    -0.076 A 
ATOM      2  C3  UNL d   1      -2.757  -3.601  -5.696  0.00  0.00     0.004 A 
ATOM      3  C4  UNL d   1      -2.085  -4.808  -5.886  0.00  0.00    -0.003 A 
ATOM      4  C5  UNL d   1      -2.665  -5.998  -5.462  0.00  0.00     0.000 A 
ATOM      5  C6  UNL d   1      -3.924  -5.983  -4.863  0.00  0.00     0.000 A 
ATOM      6  C7  UNL d   1      -4.622  -4.777  -4.679  0.00  0.00    -0.073 A 
ATOM      7  C8  UNL d   1      -5.975  -4.819  -4.022  0.00  0.00     0.078 C 
ENDROOT
BRANCH   1   8
ATOM      8  C1  UNL d   1      -4.687  -2.225  -4.874  0.00  0.00     0.053 C 
ATOM      9  C   UNL d   1      -5.759  -1.943  -5.916  0.00  0.00     0.018 C 
ENDBRANCH   1   8
TORSDOF 1
ENDMDL
