MODEL 1
REMARK minimizedAffinity -3.72388148
REMARK minimizedRMSD -1
REMARK  1 active torsions:
REMARK  status: ('A' for Active; 'I' for Inactive)
REMARK    1  A    between atoms: C1_2  and  C2_3 
ROOT
ATOM      1  C2  UNL d   1      -3.869  -4.608  -5.384  0.00  0.00    -0.076 A 
ATOM      2  C3  UNL d   1      -3.244  -3.349  -5.352  0.00  0.00     0.004 A 
ATOM      3  C4  UNL d   1      -3.983  -2.186  -5.143  0.00  0.00    -0.003 A 
ATOM      4  C5  UNL d   1      -5.360  -2.262  -4.963  0.00  0.00     0.000 A 
ATOM      5  C6  UNL d   1      -5.994  -3.504  -4.975  0.00  0.00     0.000 A 
ATOM      6  C7  UNL d   1      -5.262  -4.688  -5.167  0.00  0.00    -0.073 A 
ATOM      7  C8  UNL d   1      -5.998  -5.999  -5.177  0.00  0.00     0.078 C 
ENDROOT
BRANCH   1   8
ATOM      8  C1  UNL d   1      -3.020  -5.832  -5.641  0.00  0.00     0.053 C 
ATOM      9  C   UNL d   1      -1.531  -5.525  -5.611  0.00  0.00     0.018 C 
ENDBRANCH   1   8
TORSDOF 1
ENDMDL
