MODEL 1
REMARK minimizedAffinity -3.046139
REMARK minimizedRMSD -1
REMARK  1 active torsions:
REMARK  status: ('A' for Active; 'I' for Inactive)
REMARK    1  A    between atoms: C1_2  and  C2_3 
ROOT
ATOM      1  C2  UNL d   1      -4.926  -3.730  -4.594  0.00  0.00    -0.076 A 
ATOM      2  C3  UNL d   1      -4.964  -5.054  -4.123  0.00  0.00     0.004 A 
ATOM      3  C4  UNL d   1      -4.013  -5.988  -4.530  0.00  0.00    -0.003 A 
ATOM      4  C5  UNL d   1      -3.008  -5.613  -5.415  0.00  0.00     0.000 A 
ATOM      5  C6  UNL d   1      -2.944  -4.299  -5.878  0.00  0.00     0.000 A 
ATOM      6  C7  UNL d   1      -3.885  -3.341  -5.464  0.00  0.00    -0.073 A 
ATOM      7  C8  UNL d   1      -3.773  -1.940  -6.000  0.00  0.00     0.078 C 
ENDROOT
BRANCH   1   8
ATOM      8  C1  UNL d   1      -6.000  -2.768  -4.138  0.00  0.00     0.053 C 
ATOM      9  C   UNL d   1      -5.446  -1.636  -3.288  0.00  0.00     0.018 C 
ENDBRANCH   1   8
TORSDOF 1
ENDMDL
