MODEL 1
REMARK minimizedAffinity -3.35879135
REMARK minimizedRMSD -1
REMARK  1 active torsions:
REMARK  status: ('A' for Active; 'I' for Inactive)
REMARK    1  A    between atoms: C1_2  and  C2_3 
ROOT
ATOM      1  C2  UNL d   1      -3.569  -4.468  -5.041  0.00  0.00    -0.076 A 
ATOM      2  C3  UNL d   1      -3.927  -5.764  -4.629  0.00  0.00     0.004 A 
ATOM      3  C4  UNL d   1      -5.133  -5.999  -3.970  0.00  0.00    -0.003 A 
ATOM      4  C5  UNL d   1      -6.000  -4.944  -3.712  0.00  0.00     0.000 A 
ATOM      5  C6  UNL d   1      -5.669  -3.655  -4.129  0.00  0.00     0.000 A 
ATOM      6  C7  UNL d   1      -4.465  -3.402  -4.809  0.00  0.00    -0.073 A 
ATOM      7  C8  UNL d   1      -4.156  -1.992  -5.231  0.00  0.00     0.078 C 
ENDROOT
BRANCH   1   8
ATOM      8  C1  UNL d   1      -2.237  -4.269  -5.727  0.00  0.00     0.053 C 
ATOM      9  C   UNL d   1      -1.519  -5.582  -5.999  0.00  0.00     0.018 C 
ENDBRANCH   1   8
TORSDOF 1
ENDMDL
