MODEL 1
REMARK minimizedAffinity -1.0224514
REMARK minimizedRMSD -1
REMARK  1 active torsions:
REMARK  status: ('A' for Active; 'I' for Inactive)
REMARK    1  A    between atoms: C1_2  and  C2_3 
ROOT
ATOM      1  C2  UNL d   1      -4.374  -4.445  -4.669  0.00  0.00    -0.076 A 
ATOM      2  C3  UNL d   1      -4.278  -5.426  -5.672  0.00  0.00     0.004 A 
ATOM      3  C4  UNL d   1      -3.051  -6.000  -5.998  0.00  0.00    -0.003 A 
ATOM      4  C5  UNL d   1      -1.899  -5.604  -5.326  0.00  0.00     0.000 A 
ATOM      5  C6  UNL d   1      -1.979  -4.646  -4.316  0.00  0.00     0.000 A 
ATOM      6  C7  UNL d   1      -3.211  -4.069  -3.964  0.00  0.00    -0.073 A 
ATOM      7  C8  UNL d   1      -3.237  -3.035  -2.871  0.00  0.00     0.078 C 
ENDROOT
BRANCH   1   8
ATOM      8  C1  UNL d   1      -5.728  -3.838  -4.376  0.00  0.00     0.053 C 
ATOM      9  C   UNL d   1      -5.999  -2.592  -5.205  0.00  0.00     0.018 C 
ENDBRANCH   1   8
TORSDOF 1
ENDMDL
