MODEL 1
REMARK minimizedAffinity 4.50097799
REMARK minimizedRMSD -1
REMARK  1 active torsions:
REMARK  status: ('A' for Active; 'I' for Inactive)
REMARK    1  A    between atoms: C1_2  and  C2_3 
ROOT
ATOM      1  C2  UNL d   1      -0.788  -1.160   1.970  0.00  0.00    -0.076 A 
ATOM      2  C3  UNL d   1       0.037  -2.109   2.598  0.00  0.00     0.004 A 
ATOM      3  C4  UNL d   1       1.223  -2.536   2.002  0.00  0.00    -0.003 A 
ATOM      4  C5  UNL d   1       1.603  -2.019   0.768  0.00  0.00     0.000 A 
ATOM      5  C6  UNL d   1       0.806  -1.063   0.139  0.00  0.00     0.000 A 
ATOM      6  C7  UNL d   1      -0.384  -0.610   0.734  0.00  0.00    -0.073 A 
ATOM      7  C8  UNL d   1      -1.209   0.417   0.009  0.00  0.00     0.078 C 
ENDROOT
BRANCH   1   8
ATOM      8  C1  UNL d   1      -2.076  -0.756   2.652  0.00  0.00     0.053 C 
ATOM      9  C   UNL d   1      -2.289  -1.482   3.971  0.00  0.00     0.018 C 
ENDBRANCH   1   8
TORSDOF 1
ENDMDL
