MODEL 1
REMARK minimizedAffinity -3.49367762
REMARK minimizedRMSD -1
REMARK  1 active torsions:
REMARK  status: ('A' for Active; 'I' for Inactive)
REMARK    1  A    between atoms: C1_2  and  C2_3 
ROOT
ATOM      1  C2  UNL d   1      -4.570  -4.339  -4.245  0.00  0.00    -0.076 A 
ATOM      2  C3  UNL d   1      -3.317  -4.133  -3.643  0.00  0.00     0.004 A 
ATOM      3  C4  UNL d   1      -2.197  -4.855  -4.052  0.00  0.00    -0.003 A 
ATOM      4  C5  UNL d   1      -2.312  -5.795  -5.070  0.00  0.00     0.000 A 
ATOM      5  C6  UNL d   1      -3.545  -6.000  -5.690  0.00  0.00     0.000 A 
ATOM      6  C7  UNL d   1      -4.680  -5.269  -5.301  0.00  0.00    -0.073 A 
ATOM      7  C8  UNL d   1      -5.985  -5.535  -6.000  0.00  0.00     0.078 C 
ENDROOT
BRANCH   1   8
ATOM      8  C1  UNL d   1      -5.755  -3.546  -3.740  0.00  0.00     0.053 C 
ATOM      9  C   UNL d   1      -5.906  -2.209  -4.450  0.00  0.00     0.018 C 
ENDBRANCH   1   8
TORSDOF 1
ENDMDL
