MODEL 1
REMARK minimizedAffinity -3.87121677
REMARK minimizedRMSD -1
REMARK  1 active torsions:
REMARK  status: ('A' for Active; 'I' for Inactive)
REMARK    1  A    between atoms: C1_2  and  C2_3 
ROOT
ATOM      1  C2  UNL d   1      -4.330  -4.005  -4.959  0.00  0.00    -0.076 A 
ATOM      2  C3  UNL d   1      -2.998  -3.683  -5.272  0.00  0.00     0.004 A 
ATOM      3  C4  UNL d   1      -1.947  -4.501  -4.859  0.00  0.00    -0.003 A 
ATOM      4  C5  UNL d   1      -2.211  -5.653  -4.128  0.00  0.00     0.000 A 
ATOM      5  C6  UNL d   1      -3.528  -5.997  -3.825  0.00  0.00     0.000 A 
ATOM      6  C7  UNL d   1      -4.600  -5.193  -4.247  0.00  0.00    -0.073 A 
ATOM      7  C8  UNL d   1      -6.000  -5.608  -3.886  0.00  0.00     0.078 C 
ENDROOT
BRANCH   1   8
ATOM      8  C1  UNL d   1      -5.427  -3.066  -5.410  0.00  0.00     0.053 C 
ATOM      9  C   UNL d   1      -5.593  -1.876  -4.478  0.00  0.00     0.018 C 
ENDBRANCH   1   8
TORSDOF 1
ENDMDL
