MODEL 1
REMARK minimizedAffinity -4.04526281
REMARK minimizedRMSD -1
REMARK  1 active torsions:
REMARK  status: ('A' for Active; 'I' for Inactive)
REMARK    1  A    between atoms: C1_2  and  C2_3 
ROOT
ATOM      1  C2  UNL d   1      -4.010  -4.029  -4.429  0.00  0.00    -0.076 A 
ATOM      2  C3  UNL d   1      -2.622  -3.980  -4.209  0.00  0.00     0.004 A 
ATOM      3  C4  UNL d   1      -1.763  -4.873  -4.849  0.00  0.00    -0.003 A 
ATOM      4  C5  UNL d   1      -2.278  -5.828  -5.718  0.00  0.00     0.000 A 
ATOM      5  C6  UNL d   1      -3.650  -5.879  -5.961  0.00  0.00     0.000 A 
ATOM      6  C7  UNL d   1      -4.528  -4.977  -5.337  0.00  0.00    -0.073 A 
ATOM      7  C8  UNL d   1      -5.999  -5.081  -5.631  0.00  0.00     0.078 C 
ENDROOT
BRANCH   1   8
ATOM      8  C1  UNL d   1      -4.895  -3.054  -3.686  0.00  0.00     0.053 C 
ATOM      9  C   UNL d   1      -4.974  -1.699  -4.374  0.00  0.00     0.018 C 
ENDBRANCH   1   8
TORSDOF 1
ENDMDL
