MODEL 1
REMARK minimizedAffinity -1.62244594
REMARK minimizedRMSD -1
REMARK  1 active torsions:
REMARK  status: ('A' for Active; 'I' for Inactive)
REMARK    1  A    between atoms: C1_2  and  C2_3 
ROOT
ATOM      1  C2  UNL d   1      -3.257  -5.596  -4.935  0.00  0.00    -0.076 A 
ATOM      2  C3  UNL d   1      -4.105  -5.948  -6.000  0.00  0.00     0.004 A 
ATOM      3  C4  UNL d   1      -5.460  -5.624  -5.975  0.00  0.00    -0.003 A 
ATOM      4  C5  UNL d   1      -5.990  -4.940  -4.886  0.00  0.00     0.000 A 
ATOM      5  C6  UNL d   1      -5.160  -4.567  -3.829  0.00  0.00     0.000 A 
ATOM      6  C7  UNL d   1      -3.788  -4.872  -3.846  0.00  0.00    -0.073 A 
ATOM      7  C8  UNL d   1      -2.940  -4.451  -2.677  0.00  0.00     0.078 C 
ENDROOT
BRANCH   1   8
ATOM      8  C1  UNL d   1      -1.801  -5.998  -5.005  0.00  0.00     0.053 C 
ATOM      9  C   UNL d   1      -1.011  -5.157  -5.995  0.00  0.00     0.018 C 
ENDBRANCH   1   8
TORSDOF 1
ENDMDL
