MODEL 1
REMARK minimizedAffinity 0.986209869
REMARK minimizedRMSD -1
REMARK  1 active torsions:
REMARK  status: ('A' for Active; 'I' for Inactive)
REMARK    1  A    between atoms: C1_2  and  C2_3 
ROOT
ATOM      1  C2  UNL d   1      -3.592  -4.687  -4.099  0.00  0.00    -0.076 A 
ATOM      2  C3  UNL d   1      -4.805  -4.183  -3.599  0.00  0.00     0.004 A 
ATOM      3  C4  UNL d   1      -6.000  -4.370  -4.293  0.00  0.00    -0.003 A 
ATOM      4  C5  UNL d   1      -6.000  -5.064  -5.498  0.00  0.00     0.000 A 
ATOM      5  C6  UNL d   1      -4.808  -5.586  -6.000  0.00  0.00     0.000 A 
ATOM      6  C7  UNL d   1      -3.598  -5.420  -5.304  0.00  0.00    -0.073 A 
ATOM      7  C8  UNL d   1      -2.341  -5.999  -5.895  0.00  0.00     0.078 C 
ENDROOT
BRANCH   1   8
ATOM      8  C1  UNL d   1      -2.324  -4.429  -3.316  0.00  0.00     0.053 C 
ATOM      9  C   UNL d   1      -2.527  -3.427  -2.190  0.00  0.00     0.018 C 
ENDBRANCH   1   8
TORSDOF 1
ENDMDL
