MODEL 1
REMARK minimizedAffinity -1.84719849
REMARK minimizedRMSD -1
REMARK  0 active torsions:
REMARK  status: ('A' for Active; 'I' for Inactive)
ROOT
ATOM      1  C1  BNZ d   1       3.536  -6.000   5.948  0.00  0.00     0.000 A 
ATOM      2  C2  BNZ d   1       4.904  -5.986   5.995  0.00  0.00     0.000 A 
ATOM      3  C3  BNZ d   1       5.644  -5.953   4.846  0.00  0.00     0.000 A 
ATOM      4  C4  BNZ d   1       5.016  -5.976   3.652  0.00  0.00     0.000 A 
ATOM      5  C5  BNZ d   1       3.637  -6.000   3.588  0.00  0.00     0.000 A 
ATOM      6  C6  BNZ d   1       2.895  -5.993   4.747  0.00  0.00     0.000 A 
ENDROOT
TORSDOF 0
ENDMDL
