MODEL 1
REMARK minimizedAffinity 6.79355812
REMARK minimizedRMSD -1
REMARK  0 active torsions:
REMARK  status: ('A' for Active; 'I' for Inactive)
ROOT
ATOM      1  C1  BNZ d   1       1.318   1.134  -5.744  0.00  0.00     0.000 A 
ATOM      2  C2  BNZ d   1       1.048   0.228  -4.754  0.00  0.00     0.000 A 
ATOM      3  C3  BNZ d   1       2.055  -0.311  -4.004  0.00  0.00     0.000 A 
ATOM      4  C4  BNZ d   1       3.333   0.026  -4.270  0.00  0.00     0.000 A 
ATOM      5  C5  BNZ d   1       3.623   0.932  -5.271  0.00  0.00     0.000 A 
ATOM      6  C6  BNZ d   1       2.604   1.502  -5.999  0.00  0.00     0.000 A 
ENDROOT
TORSDOF 0
ENDMDL
