MODEL 1
REMARK minimizedAffinity 8.4265728
REMARK minimizedRMSD -1
REMARK  0 active torsions:
REMARK  status: ('A' for Active; 'I' for Inactive)
ROOT
ATOM      1  C1  BNZ d   1       4.472   4.300  -4.378  0.00  0.00     0.000 A 
ATOM      2  C2  BNZ d   1       3.596   4.180  -5.424  0.00  0.00     0.000 A 
ATOM      3  C3  BNZ d   1       2.317   3.743  -5.219  0.00  0.00     0.000 A 
ATOM      4  C4  BNZ d   1       1.929   3.388  -3.977  0.00  0.00     0.000 A 
ATOM      5  C5  BNZ d   1       2.803   3.494  -2.914  0.00  0.00     0.000 A 
ATOM      6  C6  BNZ d   1       4.078   3.972  -3.118  0.00  0.00     0.000 A 
ENDROOT
TORSDOF 0
ENDMDL
