MODEL 1
REMARK minimizedAffinity 10.3607206
REMARK minimizedRMSD -1
REMARK  0 active torsions:
REMARK  status: ('A' for Active; 'I' for Inactive)
ROOT
ATOM      1  C1  BNZ d   1       1.397  -2.126  -4.082  0.00  0.00     0.000 A 
ATOM      2  C2  BNZ d   1       0.966  -2.031  -2.786  0.00  0.00     0.000 A 
ATOM      3  C3  BNZ d   1       0.974  -0.831  -2.132  0.00  0.00     0.000 A 
ATOM      4  C4  BNZ d   1       1.451   0.263  -2.760  0.00  0.00     0.000 A 
ATOM      5  C5  BNZ d   1       1.899   0.182  -4.063  0.00  0.00     0.000 A 
ATOM      6  C6  BNZ d   1       1.852  -1.020  -4.732  0.00  0.00     0.000 A 
ENDROOT
TORSDOF 0
ENDMDL
