MODEL 1
REMARK minimizedAffinity 1.33700573
REMARK minimizedRMSD -1
REMARK  0 active torsions:
REMARK  status: ('A' for Active; 'I' for Inactive)
ROOT
ATOM      1  C1  BNZ d   1      -0.705  -2.443  -4.740  0.00  0.00     0.000 A 
ATOM      2  C2  BNZ d   1       0.441  -2.427  -3.990  0.00  0.00     0.000 A 
ATOM      3  C3  BNZ d   1       1.000  -1.245  -3.592  0.00  0.00     0.000 A 
ATOM      4  C4  BNZ d   1       0.436  -0.082  -3.977  0.00  0.00     0.000 A 
ATOM      5  C5  BNZ d   1      -0.714  -0.082  -4.740  0.00  0.00     0.000 A 
ATOM      6  C6  BNZ d   1      -1.296  -1.274  -5.107  0.00  0.00     0.000 A 
ENDROOT
TORSDOF 0
ENDMDL
