MODEL 1
REMARK minimizedAffinity 7.30016279
REMARK minimizedRMSD -1
REMARK  0 active torsions:
REMARK  status: ('A' for Active; 'I' for Inactive)
ROOT
ATOM      1  C1  BNZ d   1       0.877  -1.662  -3.602  0.00  0.00     0.000 A 
ATOM      2  C2  BNZ d   1       2.110  -1.173  -3.939  0.00  0.00     0.000 A 
ATOM      3  C3  BNZ d   1       2.644  -0.104  -3.275  0.00  0.00     0.000 A 
ATOM      4  C4  BNZ d   1       1.928   0.498  -2.304  0.00  0.00     0.000 A 
ATOM      5  C5  BNZ d   1       0.679   0.023  -1.959  0.00  0.00     0.000 A 
ATOM      6  C6  BNZ d   1       0.161  -1.078  -2.603  0.00  0.00     0.000 A 
ENDROOT
TORSDOF 0
ENDMDL
