MODEL 1
REMARK minimizedAffinity 3.43586302
REMARK minimizedRMSD -1
REMARK  0 active torsions:
REMARK  status: ('A' for Active; 'I' for Inactive)
ROOT
ATOM      1  C1  BNZ d   1      -2.386  -3.316  -6.000  0.00  0.00     0.000 A 
ATOM      2  C2  BNZ d   1      -3.410  -4.225  -6.000  0.00  0.00     0.000 A 
ATOM      3  C3  BNZ d   1      -3.155  -5.568  -5.975  0.00  0.00     0.000 A 
ATOM      4  C4  BNZ d   1      -1.877  -5.999  -5.990  0.00  0.00     0.000 A 
ATOM      5  C5  BNZ d   1      -0.834  -5.095  -6.000  0.00  0.00     0.000 A 
ATOM      6  C6  BNZ d   1      -1.095  -3.744  -5.985  0.00  0.00     0.000 A 
ENDROOT
TORSDOF 0
ENDMDL
