MODEL 1
REMARK minimizedAffinity 3.68280363
REMARK minimizedRMSD -1
REMARK  0 active torsions:
REMARK  status: ('A' for Active; 'I' for Inactive)
ROOT
ATOM      1  C1  BNZ d   1       0.674   0.339  -2.240  0.00  0.00     0.000 A 
ATOM      2  C2  BNZ d   1       0.812   1.488  -1.509  0.00  0.00     0.000 A 
ATOM      3  C3  BNZ d   1       1.960   2.227  -1.576  0.00  0.00     0.000 A 
ATOM      4  C4  BNZ d   1       2.982   1.796  -2.343  0.00  0.00     0.000 A 
ATOM      5  C5  BNZ d   1       2.862   0.634  -3.080  0.00  0.00     0.000 A 
ATOM      6  C6  BNZ d   1       1.690  -0.087  -3.039  0.00  0.00     0.000 A 
ENDROOT
TORSDOF 0
ENDMDL
