MODEL 1
REMARK minimizedAffinity 7.614604
REMARK minimizedRMSD -1
REMARK  0 active torsions:
REMARK  status: ('A' for Active; 'I' for Inactive)
ROOT
ATOM      1  C1  BNZ d   1       1.847   1.157  -5.244  0.00  0.00     0.000 A 
ATOM      2  C2  BNZ d   1       1.522   0.073  -4.473  0.00  0.00     0.000 A 
ATOM      3  C3  BNZ d   1       2.327  -1.031  -4.441  0.00  0.00     0.000 A 
ATOM      4  C4  BNZ d   1       3.435  -1.066  -5.210  0.00  0.00     0.000 A 
ATOM      5  C5  BNZ d   1       3.772   0.015  -6.000  0.00  0.00     0.000 A 
ATOM      6  C6  BNZ d   1       2.979   1.140  -5.999  0.00  0.00     0.000 A 
ENDROOT
TORSDOF 0
ENDMDL
