MODEL 1
REMARK minimizedAffinity 7.78656626
REMARK minimizedRMSD -1
REMARK  0 active torsions:
REMARK  status: ('A' for Active; 'I' for Inactive)
ROOT
ATOM      1  C1  BNZ d   1       2.888   0.429  -3.601  0.00  0.00     0.000 A 
ATOM      2  C2  BNZ d   1       3.067   1.574  -2.871  0.00  0.00     0.000 A 
ATOM      3  C3  BNZ d   1       2.050   2.089  -2.117  0.00  0.00     0.000 A 
ATOM      4  C4  BNZ d   1       0.846   1.482  -2.124  0.00  0.00     0.000 A 
ATOM      5  C5  BNZ d   1       0.647   0.332  -2.862  0.00  0.00     0.000 A 
ATOM      6  C6  BNZ d   1       1.684  -0.206  -3.589  0.00  0.00     0.000 A 
ENDROOT
TORSDOF 0
ENDMDL
