MODEL 1
REMARK minimizedAffinity 7.44228172
REMARK minimizedRMSD -1
REMARK  0 active torsions:
REMARK  status: ('A' for Active; 'I' for Inactive)
ROOT
ATOM      1  C1  BNZ d   1      -0.365  -0.691  -5.064  0.00  0.00     0.000 A 
ATOM      2  C2  BNZ d   1      -1.205  -1.234  -6.000  0.00  0.00     0.000 A 
ATOM      3  C3  BNZ d   1      -1.480  -2.573  -6.000  0.00  0.00     0.000 A 
ATOM      4  C4  BNZ d   1      -0.885  -3.372  -5.091  0.00  0.00     0.000 A 
ATOM      5  C5  BNZ d   1      -0.029  -2.841  -4.147  0.00  0.00     0.000 A 
ATOM      6  C6  BNZ d   1       0.215  -1.487  -4.125  0.00  0.00     0.000 A 
ENDROOT
TORSDOF 0
ENDMDL
