MODEL 1
REMARK minimizedAffinity 6.5952754
REMARK minimizedRMSD -1
REMARK  0 active torsions:
REMARK  status: ('A' for Active; 'I' for Inactive)
ROOT
ATOM      1  C1  BNZ d   1      -4.747  -2.160  -3.888  0.00  0.00     0.000 A 
ATOM      2  C2  BNZ d   1      -4.755  -3.476  -3.510  0.00  0.00     0.000 A 
ATOM      3  C3  BNZ d   1      -5.294  -3.857  -2.313  0.00  0.00     0.000 A 
ATOM      4  C4  BNZ d   1      -5.787  -2.918  -1.479  0.00  0.00     0.000 A 
ATOM      5  C5  BNZ d   1      -5.778  -1.586  -1.842  0.00  0.00     0.000 A 
ATOM      6  C6  BNZ d   1      -5.269  -1.211  -3.065  0.00  0.00     0.000 A 
ENDROOT
TORSDOF 0
ENDMDL
