MODEL 1
REMARK minimizedAffinity 6.76487303
REMARK minimizedRMSD -1
REMARK  0 active torsions:
REMARK  status: ('A' for Active; 'I' for Inactive)
ROOT
ATOM      1  C1  BNZ d   1      -2.763  -2.387  -5.949  0.00  0.00     0.000 A 
ATOM      2  C2  BNZ d   1      -1.417  -2.137  -5.949  0.00  0.00     0.000 A 
ATOM      3  C3  BNZ d   1      -0.515  -3.163  -5.995  0.00  0.00     0.000 A 
ATOM      4  C4  BNZ d   1      -0.959  -4.437  -5.999  0.00  0.00     0.000 A 
ATOM      5  C5  BNZ d   1      -2.313  -4.705  -5.990  0.00  0.00     0.000 A 
ATOM      6  C6  BNZ d   1      -3.219  -3.669  -5.984  0.00  0.00     0.000 A 
ENDROOT
TORSDOF 0
ENDMDL
