MODEL 1
REMARK minimizedAffinity 9.08429432
REMARK minimizedRMSD -1
REMARK  0 active torsions:
REMARK  status: ('A' for Active; 'I' for Inactive)
ROOT
ATOM      1  C1  BNZ d   1       2.977   5.707  -4.872  0.00  0.00     0.000 A 
ATOM      2  C2  BNZ d   1       4.114   5.291  -4.232  0.00  0.00     0.000 A 
ATOM      3  C3  BNZ d   1       4.651   4.061  -4.489  0.00  0.00     0.000 A 
ATOM      4  C4  BNZ d   1       4.030   3.234  -5.354  0.00  0.00     0.000 A 
ATOM      5  C5  BNZ d   1       2.877   3.635  -6.000  0.00  0.00     0.000 A 
ATOM      6  C6  BNZ d   1       2.361   4.889  -5.768  0.00  0.00     0.000 A 
ENDROOT
TORSDOF 0
ENDMDL
