MODEL 1
REMARK minimizedAffinity 0.415584713
REMARK minimizedRMSD -1
REMARK  0 active torsions:
REMARK  status: ('A' for Active; 'I' for Inactive)
ROOT
ATOM      1  C1  BNZ d   1       0.044  -2.118  -4.448  0.00  0.00     0.000 A 
ATOM      2  C2  BNZ d   1       0.833  -1.868  -3.358  0.00  0.00     0.000 A 
ATOM      3  C3  BNZ d   1       0.827  -0.641  -2.756  0.00  0.00     0.000 A 
ATOM      4  C4  BNZ d   1       0.063   0.345  -3.268  0.00  0.00     0.000 A 
ATOM      5  C5  BNZ d   1      -0.732   0.111  -4.372  0.00  0.00     0.000 A 
ATOM      6  C6  BNZ d   1      -0.753  -1.136  -4.952  0.00  0.00     0.000 A 
ENDROOT
TORSDOF 0
ENDMDL
