MODEL 1
REMARK minimizedAffinity 3.19074655
REMARK minimizedRMSD -1
REMARK  0 active torsions:
REMARK  status: ('A' for Active; 'I' for Inactive)
ROOT
ATOM      1  C1  BNZ d   1      -5.263  -3.621  -1.300  0.00  0.00     0.000 A 
ATOM      2  C2  BNZ d   1      -5.624  -4.810  -1.876  0.00  0.00     0.000 A 
ATOM      3  C3  BNZ d   1      -5.259  -6.000  -1.312  0.00  0.00     0.000 A 
ATOM      4  C4  BNZ d   1      -4.501  -6.000  -0.197  0.00  0.00     0.000 A 
ATOM      5  C5  BNZ d   1      -4.121  -4.809   0.391  0.00  0.00     0.000 A 
ATOM      6  C6  BNZ d   1      -4.523  -3.613  -0.158  0.00  0.00     0.000 A 
ENDROOT
TORSDOF 0
ENDMDL
