MODEL 1
REMARK minimizedAffinity 6.61706781
REMARK minimizedRMSD -1
REMARK  0 active torsions:
REMARK  status: ('A' for Active; 'I' for Inactive)
ROOT
ATOM      1  C1  BNZ d   1       0.965  -1.213  -2.232  0.00  0.00     0.000 A 
ATOM      2  C2  BNZ d   1       1.012  -1.529  -3.564  0.00  0.00     0.000 A 
ATOM      3  C3  BNZ d   1       1.045  -0.549  -4.515  0.00  0.00     0.000 A 
ATOM      4  C4  BNZ d   1       0.989   0.745  -4.136  0.00  0.00     0.000 A 
ATOM      5  C5  BNZ d   1       0.932   1.079  -2.798  0.00  0.00     0.000 A 
ATOM      6  C6  BNZ d   1       0.938   0.090  -1.841  0.00  0.00     0.000 A 
ENDROOT
TORSDOF 0
ENDMDL
