MODEL 1
REMARK minimizedAffinity 1.36621058
REMARK minimizedRMSD -1
REMARK  1 active torsions:
REMARK  status: ('A' for Active; 'I' for Inactive)
REMARK    1  A    between atoms: C1_2  and  C2_3 
ROOT
ATOM      1  C2  UNL d   1      -1.252   0.011   1.968  0.00  0.00    -0.076 A 
ATOM      2  C3  UNL d   1      -0.821   1.054   1.130  0.00  0.00     0.004 A 
ATOM      3  C4  UNL d   1      -1.287   1.161  -0.179  0.00  0.00    -0.003 A 
ATOM      4  C5  UNL d   1      -2.192   0.227  -0.672  0.00  0.00     0.000 A 
ATOM      5  C6  UNL d   1      -2.643  -0.804   0.151  0.00  0.00     0.000 A 
ATOM      6  C7  UNL d   1      -2.196  -0.917   1.479  0.00  0.00    -0.073 A 
ATOM      7  C8  UNL d   1      -2.711  -2.052   2.320  0.00  0.00     0.078 C 
ENDROOT
BRANCH   1   8
ATOM      8  C1  UNL d   1      -0.691  -0.070   3.370  0.00  0.00     0.053 C 
ATOM      9  C   UNL d   1       0.343  -1.175   3.521  0.00  0.00     0.018 C 
ENDBRANCH   1   8
TORSDOF 1
ENDMDL
