MODEL 1
REMARK minimizedAffinity 0.752872884
REMARK minimizedRMSD -1
REMARK  1 active torsions:
REMARK  status: ('A' for Active; 'I' for Inactive)
REMARK    1  A    between atoms: C1_2  and  C2_3 
ROOT
ATOM      1  C2  UNL d   1       0.321  -0.959   2.461  0.00  0.00    -0.076 A 
ATOM      2  C3  UNL d   1       0.891   0.267   2.078  0.00  0.00     0.004 A 
ATOM      3  C4  UNL d   1       0.133   1.239   1.427  0.00  0.00    -0.003 A 
ATOM      4  C5  UNL d   1      -1.208   1.001   1.149  0.00  0.00     0.000 A 
ATOM      5  C6  UNL d   1      -1.795  -0.203   1.537  0.00  0.00     0.000 A 
ATOM      6  C7  UNL d   1      -1.049  -1.187   2.209  0.00  0.00    -0.073 A 
ATOM      7  C8  UNL d   1      -1.732  -2.470   2.599  0.00  0.00     0.078 C 
ENDROOT
BRANCH   1   8
ATOM      8  C1  UNL d   1       1.199  -1.986   3.139  0.00  0.00     0.053 C 
ATOM      9  C   UNL d   1       2.040  -1.387   4.255  0.00  0.00     0.018 C 
ENDBRANCH   1   8
TORSDOF 1
ENDMDL
