MODEL 1
REMARK minimizedAffinity 3.08122396
REMARK minimizedRMSD -1
REMARK  1 active torsions:
REMARK  status: ('A' for Active; 'I' for Inactive)
REMARK    1  A    between atoms: C1_2  and  C2_3 
ROOT
ATOM      1  C2  UNL d   1      -0.000  -0.619   1.827  0.00  0.00    -0.076 A 
ATOM      2  C3  UNL d   1      -0.767  -1.522   2.584  0.00  0.00     0.004 A 
ATOM      3  C4  UNL d   1      -0.193  -2.258   3.619  0.00  0.00    -0.003 A 
ATOM      4  C5  UNL d   1       1.157  -2.104   3.913  0.00  0.00     0.000 A 
ATOM      5  C6  UNL d   1       1.929  -1.200   3.184  0.00  0.00     0.000 A 
ATOM      6  C7  UNL d   1       1.362  -0.438   2.148  0.00  0.00    -0.073 A 
ATOM      7  C8  UNL d   1       2.242   0.517   1.390  0.00  0.00     0.078 C 
ENDROOT
BRANCH   1   8
ATOM      8  C1  UNL d   1      -0.671   0.132   0.699  0.00  0.00     0.053 C 
ATOM      9  C   UNL d   1      -1.227  -0.796  -0.370  0.00  0.00     0.018 C 
ENDBRANCH   1   8
TORSDOF 1
ENDMDL
