MODEL 1
REMARK minimizedAffinity -1.8469125
REMARK minimizedRMSD -1
REMARK  0 active torsions:
REMARK  status: ('A' for Active; 'I' for Inactive)
ROOT
ATOM      1  C2' OXE d   1      -2.656   1.964   2.896  0.00  0.00     0.078 C 
ATOM      2  C1' OXE d   1      -0.904   3.613   1.450  0.00  0.00     0.078 C 
ATOM      3  C1  OXE d   1      -0.666   2.124   1.407  0.00  0.00    -0.078 A 
ATOM      4  C2  OXE d   1      -1.500   1.328   2.155  0.00  0.00    -0.078 A 
ATOM      5  C3  OXE d   1      -1.358  -0.056   2.107  0.00  0.00     0.003 A 
ATOM      6  C4  OXE d   1      -0.279  -0.635   1.428  0.00  0.00    -0.002 A 
ATOM      7  C5  OXE d   1       0.605   0.161   0.692  0.00  0.00    -0.002 A 
ATOM      8  C6  OXE d   1       0.401   1.535   0.636  0.00  0.00     0.003 A 
ENDROOT
TORSDOF 0
ENDMDL
