MODEL 1
REMARK minimizedAffinity 4.74688911
REMARK minimizedRMSD -1
REMARK  0 active torsions:
REMARK  status: ('A' for Active; 'I' for Inactive)
ROOT
ATOM      1  C2' OXE d   1      -0.887   1.786   1.620  0.00  0.00     0.078 C 
ATOM      2  C1' OXE d   1      -1.333  -0.893   2.332  0.00  0.00     0.078 C 
ATOM      3  C1  OXE d   1      -2.370   0.125   2.736  0.00  0.00    -0.078 A 
ATOM      4  C2  OXE d   1      -2.121   1.440   2.425  0.00  0.00    -0.078 A 
ATOM      5  C3  OXE d   1      -3.071   2.412   2.726  0.00  0.00     0.003 A 
ATOM      6  C4  OXE d   1      -4.205   2.085   3.479  0.00  0.00    -0.002 A 
ATOM      7  C5  OXE d   1      -4.459   0.757   3.842  0.00  0.00    -0.002 A 
ATOM      8  C6  OXE d   1      -3.574  -0.239   3.442  0.00  0.00     0.003 A 
ENDROOT
TORSDOF 0
ENDMDL
