MODEL 1
REMARK minimizedAffinity 1.28520691
REMARK minimizedRMSD -1
REMARK  0 active torsions:
REMARK  status: ('A' for Active; 'I' for Inactive)
ROOT
ATOM      1  C2' OXE d   1      -2.937   1.833   2.630  0.00  0.00     0.078 C 
ATOM      2  C1' OXE d   1      -2.180  -0.749   1.830  0.00  0.00     0.078 C 
ATOM      3  C1  OXE d   1      -1.205   0.376   1.590  0.00  0.00    -0.078 A 
ATOM      4  C2  OXE d   1      -1.602   1.643   1.942  0.00  0.00    -0.078 A 
ATOM      5  C3  OXE d   1      -0.719   2.709   1.793  0.00  0.00     0.003 A 
ATOM      6  C4  OXE d   1       0.509   2.527   1.147  0.00  0.00    -0.002 A 
ATOM      7  C5  OXE d   1       0.917   1.251   0.744  0.00  0.00    -0.002 A 
ATOM      8  C6  OXE d   1       0.092   0.160   0.996  0.00  0.00     0.003 A 
ENDROOT
TORSDOF 0
ENDMDL
