MODEL 1
REMARK minimizedAffinity 6.37633038
REMARK minimizedRMSD -1
REMARK  0 active torsions:
REMARK  status: ('A' for Active; 'I' for Inactive)
ROOT
ATOM      1  C2' OXE d   1      -3.297   2.559   3.115  0.00  0.00     0.078 C 
ATOM      2  C1' OXE d   1      -3.239  -0.207   2.637  0.00  0.00     0.078 C 
ATOM      3  C1  OXE d   1      -2.082   0.619   2.131  0.00  0.00    -0.078 A 
ATOM      4  C2  OXE d   1      -2.142   1.978   2.329  0.00  0.00    -0.078 A 
ATOM      5  C3  OXE d   1      -1.076   2.780   1.931  0.00  0.00     0.003 A 
ATOM      6  C4  OXE d   1      -0.016   2.236   1.196  0.00  0.00    -0.002 A 
ATOM      7  C5  OXE d   1       0.045   0.861   0.949  0.00  0.00    -0.002 A 
ATOM      8  C6  OXE d   1      -0.957   0.034   1.446  0.00  0.00     0.003 A 
ENDROOT
TORSDOF 0
ENDMDL
