MODEL 1
REMARK minimizedAffinity -5.6828599
REMARK minimizedRMSD -1
REMARK  0 active torsions:
REMARK  status: ('A' for Active; 'I' for Inactive)
ROOT
ATOM      1  C2' OXE d   1      -2.535   0.872   2.614  0.00  0.00     0.078 C 
ATOM      2  C1' OXE d   1      -1.139  -1.129   1.226  0.00  0.00     0.078 C 
ATOM      3  C1  OXE d   1      -0.557   0.262   1.228  0.00  0.00    -0.078 A 
ATOM      4  C2  OXE d   1      -1.271   1.245   1.870  0.00  0.00    -0.078 A 
ATOM      5  C3  OXE d   1      -0.752   2.534   1.948  0.00  0.00     0.003 A 
ATOM      6  C4  OXE d   1       0.413   2.873   1.249  0.00  0.00    -0.002 A 
ATOM      7  C5  OXE d   1       1.135   1.896   0.555  0.00  0.00    -0.002 A 
ATOM      8  C6  OXE d   1       0.687   0.579   0.571  0.00  0.00     0.003 A 
ENDROOT
TORSDOF 0
ENDMDL
