MODEL 1
REMARK minimizedAffinity 8.02693653
REMARK minimizedRMSD -1
REMARK  0 active torsions:
REMARK  status: ('A' for Active; 'I' for Inactive)
ROOT
ATOM      1  C2' OXE d   1      -3.064   1.889   2.816  0.00  0.00     0.078 C 
ATOM      2  C1' OXE d   1      -4.702  -0.347   3.258  0.00  0.00     0.078 C 
ATOM      3  C1  OXE d   1      -4.901   0.857   4.144  0.00  0.00    -0.078 A 
ATOM      4  C2  OXE d   1      -4.064   1.929   3.952  0.00  0.00    -0.078 A 
ATOM      5  C3  OXE d   1      -4.240   3.086   4.705  0.00  0.00     0.003 A 
ATOM      6  C4  OXE d   1      -5.161   3.111   5.760  0.00  0.00    -0.002 A 
ATOM      7  C5  OXE d   1      -5.997   2.015   5.999  0.00  0.00    -0.002 A 
ATOM      8  C6  OXE d   1      -5.909   0.899   5.175  0.00  0.00     0.003 A 
ENDROOT
TORSDOF 0
ENDMDL
