MODEL 1
REMARK minimizedAffinity 2.5090816
REMARK minimizedRMSD -1
REMARK  0 active torsions:
REMARK  status: ('A' for Active; 'I' for Inactive)
ROOT
ATOM      1  C2' OXE d   1      -2.345  -0.249   2.939  0.00  0.00     0.078 C 
ATOM      2  C1' OXE d   1      -2.316   2.556   2.822  0.00  0.00     0.078 C 
ATOM      3  C1  OXE d   1      -1.348   1.805   1.942  0.00  0.00    -0.078 A 
ATOM      4  C2  OXE d   1      -1.337   0.435   2.040  0.00  0.00    -0.078 A 
ATOM      5  C3  OXE d   1      -0.502  -0.309   1.211  0.00  0.00     0.003 A 
ATOM      6  C4  OXE d   1       0.434   0.331   0.390  0.00  0.00    -0.002 A 
ATOM      7  C5  OXE d   1       0.467   1.727   0.304  0.00  0.00    -0.002 A 
ATOM      8  C6  OXE d   1      -0.445   2.476   1.040  0.00  0.00     0.003 A 
ENDROOT
TORSDOF 0
ENDMDL
