MODEL 1
REMARK minimizedAffinity 1.99667883
REMARK minimizedRMSD -1
REMARK  0 active torsions:
REMARK  status: ('A' for Active; 'I' for Inactive)
ROOT
ATOM      1  C2' OXE d   1      -2.439   2.317   2.403  0.00  0.00     0.078 C 
ATOM      2  C1' OXE d   1      -2.224  -0.476   2.580  0.00  0.00     0.078 C 
ATOM      3  C1  OXE d   1      -1.094   0.276   1.923  0.00  0.00    -0.078 A 
ATOM      4  C2  OXE d   1      -1.229   1.638   1.799  0.00  0.00    -0.078 A 
ATOM      5  C3  OXE d   1      -0.191   2.386   1.250  0.00  0.00     0.003 A 
ATOM      6  C4  OXE d   1       0.920   1.750   0.684  0.00  0.00    -0.002 A 
ATOM      7  C5  OXE d   1       1.059   0.360   0.764  0.00  0.00    -0.002 A 
ATOM      8  C6  OXE d   1       0.083  -0.386   1.417  0.00  0.00     0.003 A 
ENDROOT
TORSDOF 0
ENDMDL
