MODEL 1
REMARK minimizedAffinity -5.7502327
REMARK minimizedRMSD -1
REMARK  0 active torsions:
REMARK  status: ('A' for Active; 'I' for Inactive)
ROOT
ATOM      1  C2' OXE d   1       1.231   0.928   0.809  0.00  0.00     0.078 C 
ATOM      2  C1' OXE d   1      -0.369   3.067   1.671  0.00  0.00     0.078 C 
ATOM      3  C1  OXE d   1      -0.992   1.694   1.632  0.00  0.00    -0.078 A 
ATOM      4  C2  OXE d   1      -0.215   0.661   1.165  0.00  0.00    -0.078 A 
ATOM      5  C3  OXE d   1      -0.723  -0.635   1.160  0.00  0.00     0.003 A 
ATOM      6  C4  OXE d   1      -2.065  -0.872   1.481  0.00  0.00    -0.002 A 
ATOM      7  C5  OXE d   1      -2.885   0.172   1.922  0.00  0.00    -0.002 A 
ATOM      8  C6  OXE d   1      -2.352   1.451   2.043  0.00  0.00     0.003 A 
ENDROOT
TORSDOF 0
ENDMDL
