MODEL 1
REMARK minimizedAffinity 7.23834229
REMARK minimizedRMSD -1
REMARK  0 active torsions:
REMARK  status: ('A' for Active; 'I' for Inactive)
ROOT
ATOM      1  C2' OXE d   1      -4.391   3.337   4.206  0.00  0.00     0.078 C 
ATOM      2  C1' OXE d   1      -2.060   2.950   2.691  0.00  0.00     0.078 C 
ATOM      3  C1  OXE d   1      -3.209   3.679   2.040  0.00  0.00    -0.078 A 
ATOM      4  C2  OXE d   1      -4.362   3.823   2.773  0.00  0.00    -0.078 A 
ATOM      5  C3  OXE d   1      -5.433   4.536   2.241  0.00  0.00     0.003 A 
ATOM      6  C4  OXE d   1      -5.402   4.973   0.911  0.00  0.00    -0.002 A 
ATOM      7  C5  OXE d   1      -4.251   4.802   0.134  0.00  0.00    -0.002 A 
ATOM      8  C6  OXE d   1      -3.133   4.196   0.696  0.00  0.00     0.003 A 
ENDROOT
TORSDOF 0
ENDMDL
