MODEL 1
REMARK minimizedAffinity 1.06995285
REMARK minimizedRMSD -1
REMARK  0 active torsions:
REMARK  status: ('A' for Active; 'I' for Inactive)
ROOT
ATOM      1  C2' OXE d   1      -2.307  -0.322   2.927  0.00  0.00     0.078 C 
ATOM      2  C1' OXE d   1      -1.914   2.397   2.352  0.00  0.00     0.078 C 
ATOM      3  C1  OXE d   1      -0.990   1.399   1.700  0.00  0.00    -0.078 A 
ATOM      4  C2  OXE d   1      -1.160   0.075   2.023  0.00  0.00    -0.078 A 
ATOM      5  C3  OXE d   1      -0.370  -0.892   1.408  0.00  0.00     0.003 A 
ATOM      6  C4  OXE d   1       0.695  -0.516   0.580  0.00  0.00    -0.002 A 
ATOM      7  C5  OXE d   1       0.911   0.831   0.269  0.00  0.00    -0.002 A 
ATOM      8  C6  OXE d   1       0.053   1.795   0.785  0.00  0.00     0.003 A 
ENDROOT
TORSDOF 0
ENDMDL
