MODEL 1
REMARK minimizedAffinity -1.73987305
REMARK minimizedRMSD -1
REMARK  0 active torsions:
REMARK  status: ('A' for Active; 'I' for Inactive)
ROOT
ATOM      1  C2' OXE d   1      -1.794   2.065   2.445  0.00  0.00     0.078 C 
ATOM      2  C1' OXE d   1      -1.954  -0.622   1.648  0.00  0.00     0.078 C 
ATOM      3  C1  OXE d   1      -0.676   0.124   1.356  0.00  0.00    -0.078 A 
ATOM      4  C2  OXE d   1      -0.623   1.451   1.708  0.00  0.00    -0.078 A 
ATOM      5  C3  OXE d   1       0.551   2.171   1.510  0.00  0.00     0.003 A 
ATOM      6  C4  OXE d   1       1.626   1.599   0.818  0.00  0.00    -0.002 A 
ATOM      7  C5  OXE d   1       1.578   0.260   0.416  0.00  0.00    -0.002 A 
ATOM      8  C6  OXE d   1       0.454  -0.502   0.714  0.00  0.00     0.003 A 
ENDROOT
TORSDOF 0
ENDMDL
