MODEL 1
REMARK minimizedAffinity -3.71524882
REMARK minimizedRMSD -1
REMARK  0 active torsions:
REMARK  status: ('A' for Active; 'I' for Inactive)
ROOT
ATOM      1  C2' OXE d   1       2.389  -0.572   0.162  0.00  0.00     0.078 C 
ATOM      2  C1' OXE d   1       2.105   2.221   0.129  0.00  0.00     0.078 C 
ATOM      3  C1  OXE d   1       0.974   1.405   0.704  0.00  0.00    -0.078 A 
ATOM      4  C2  OXE d   1       1.102   0.037   0.673  0.00  0.00    -0.078 A 
ATOM      5  C3  OXE d   1       0.112  -0.761   1.241  0.00  0.00     0.003 A 
ATOM      6  C4  OXE d   1      -1.080  -0.190   1.702  0.00  0.00    -0.002 A 
ATOM      7  C5  OXE d   1      -1.248   1.199   1.706  0.00  0.00    -0.002 A 
ATOM      8  C6  OXE d   1      -0.215   2.011   1.251  0.00  0.00     0.003 A 
ENDROOT
TORSDOF 0
ENDMDL
