MODEL 1
REMARK minimizedAffinity -0.547287881
REMARK minimizedRMSD -1
REMARK  0 active torsions:
REMARK  status: ('A' for Active; 'I' for Inactive)
ROOT
ATOM      1  C2' OXE d   1      -0.859  -1.116   0.819  0.00  0.00     0.078 C 
ATOM      2  C1' OXE d   1      -2.929  -0.061   2.394  0.00  0.00     0.078 C 
ATOM      3  C1  OXE d   1      -1.812   0.867   1.986  0.00  0.00    -0.078 A 
ATOM      4  C2  OXE d   1      -0.780   0.331   1.254  0.00  0.00    -0.078 A 
ATOM      5  C3  OXE d   1       0.248   1.155   0.806  0.00  0.00     0.003 A 
ATOM      6  C4  OXE d   1       0.319   2.490   1.221  0.00  0.00    -0.002 A 
ATOM      7  C5  OXE d   1      -0.701   3.046   2.000  0.00  0.00    -0.002 A 
ATOM      8  C6  OXE d   1      -1.793   2.261   2.354  0.00  0.00     0.003 A 
ENDROOT
TORSDOF 0
ENDMDL
