MODEL 1
REMARK minimizedAffinity 2.28460145
REMARK minimizedRMSD -1
REMARK  0 active torsions:
REMARK  status: ('A' for Active; 'I' for Inactive)
ROOT
ATOM      1  C2' OXE d   1      -2.436   2.316   1.566  0.00  0.00     0.078 C 
ATOM      2  C1' OXE d   1      -2.451  -0.418   2.200  0.00  0.00     0.078 C 
ATOM      3  C1  OXE d   1      -1.207   0.150   1.566  0.00  0.00    -0.078 A 
ATOM      4  C2  OXE d   1      -1.225   1.478   1.216  0.00  0.00    -0.078 A 
ATOM      5  C3  OXE d   1      -0.084   2.066   0.678  0.00  0.00     0.003 A 
ATOM      6  C4  OXE d   1       1.029   1.282   0.348  0.00  0.00    -0.002 A 
ATOM      7  C5  OXE d   1       1.053  -0.082   0.660  0.00  0.00    -0.002 A 
ATOM      8  C6  OXE d   1      -0.037  -0.653   1.306  0.00  0.00     0.003 A 
ENDROOT
TORSDOF 0
ENDMDL
