MODEL 1
REMARK minimizedAffinity 3.54449511
REMARK minimizedRMSD -1
REMARK  0 active torsions:
REMARK  status: ('A' for Active; 'I' for Inactive)
ROOT
ATOM      1  C2' OXE d   1      -2.246  -2.973  -3.861  0.00  0.00     0.078 C 
ATOM      2  C1' OXE d   1      -3.972  -1.437  -2.266  0.00  0.00     0.078 C 
ATOM      3  C1  OXE d   1      -3.665  -2.844  -1.818  0.00  0.00    -0.078 A 
ATOM      4  C2  OXE d   1      -2.857  -3.605  -2.629  0.00  0.00    -0.078 A 
ATOM      5  C3  OXE d   1      -2.499  -4.891  -2.234  0.00  0.00     0.003 A 
ATOM      6  C4  OXE d   1      -3.077  -5.470  -1.098  0.00  0.00    -0.002 A 
ATOM      7  C5  OXE d   1      -3.934  -4.727  -0.280  0.00  0.00    -0.002 A 
ATOM      8  C6  OXE d   1      -4.204  -3.402  -0.602  0.00  0.00     0.003 A 
ENDROOT
TORSDOF 0
ENDMDL
