MODEL 1
REMARK minimizedAffinity -0.658055663
REMARK minimizedRMSD -1
REMARK  0 active torsions:
REMARK  status: ('A' for Active; 'I' for Inactive)
ROOT
ATOM      1  C2' OXE d   1      -3.133   0.920   2.885  0.00  0.00     0.078 C 
ATOM      2  C1' OXE d   1      -1.993  -1.515   2.078  0.00  0.00     0.078 C 
ATOM      3  C1  OXE d   1      -1.264  -0.244   1.721  0.00  0.00    -0.078 A 
ATOM      4  C2  OXE d   1      -1.853   0.945   2.079  0.00  0.00    -0.078 A 
ATOM      5  C3  OXE d   1      -1.196   2.145   1.821  0.00  0.00     0.003 A 
ATOM      6  C4  OXE d   1      -0.017   2.159   1.066  0.00  0.00    -0.002 A 
ATOM      7  C5  OXE d   1       0.580   0.962   0.657  0.00  0.00    -0.002 A 
ATOM      8  C6  OXE d   1      -0.008  -0.248   1.012  0.00  0.00     0.003 A 
ENDROOT
TORSDOF 0
ENDMDL
