MODEL 1
REMARK minimizedAffinity -3.20955372
REMARK minimizedRMSD -1
REMARK  0 active torsions:
REMARK  status: ('A' for Active; 'I' for Inactive)
ROOT
ATOM      1  C2' OXE d   1      -0.337  -1.334   1.181  0.00  0.00     0.078 C 
ATOM      2  C1' OXE d   1       1.024   1.055   0.619  0.00  0.00     0.078 C 
ATOM      3  C1  OXE d   1      -0.339   1.156   1.258  0.00  0.00    -0.078 A 
ATOM      4  C2  OXE d   1      -1.017  -0.017   1.486  0.00  0.00    -0.078 A 
ATOM      5  C3  OXE d   1      -2.255   0.016   2.123  0.00  0.00     0.003 A 
ATOM      6  C4  OXE d   1      -2.881   1.239   2.393  0.00  0.00    -0.002 A 
ATOM      7  C5  OXE d   1      -2.224   2.446   2.132  0.00  0.00    -0.002 A 
ATOM      8  C6  OXE d   1      -0.937   2.421   1.604  0.00  0.00     0.003 A 
ENDROOT
TORSDOF 0
ENDMDL
