MODEL 1
REMARK minimizedAffinity 8.20287418
REMARK minimizedRMSD -1
REMARK  0 active torsions:
REMARK  status: ('A' for Active; 'I' for Inactive)
ROOT
ATOM      1  C4' PXY d   1      -4.064  -3.000  -1.173  0.00  0.00     0.077 C 
ATOM      2  C1' PXY d   1       0.639  -2.367   2.129  0.00  0.00     0.077 C 
ATOM      3  C1  PXY d   1      -0.591  -2.545   1.260  0.00  0.00    -0.082 A 
ATOM      4  C2  PXY d   1      -1.179  -1.483   0.734  0.00  0.00     0.003 A 
ATOM      5  C3  PXY d   1      -2.311  -1.624  -0.028  0.00  0.00     0.003 A 
ATOM      6  C4  PXY d   1      -2.815  -2.868  -0.297  0.00  0.00    -0.082 A 
ATOM      7  C5  PXY d   1      -2.214  -3.957   0.227  0.00  0.00     0.003 A 
ATOM      8  C6  PXY d   1      -1.090  -3.790   1.032  0.00  0.00     0.003 A 
ENDROOT
TORSDOF 0
ENDMDL
