MODEL 1
REMARK minimizedAffinity 7.10828638
REMARK minimizedRMSD -1
REMARK  0 active torsions:
REMARK  status: ('A' for Active; 'I' for Inactive)
ROOT
ATOM      1  C4' PXY d   1       0.995  -4.103   2.785  0.00  0.00     0.077 C 
ATOM      2  C1' PXY d   1       2.843   0.796   0.335  0.00  0.00     0.077 C 
ATOM      3  C1  PXY d   1       2.370  -0.494   0.976  0.00  0.00    -0.082 A 
ATOM      4  C2  PXY d   1       1.078  -0.776   1.001  0.00  0.00     0.003 A 
ATOM      5  C3  PXY d   1       0.630  -1.923   1.605  0.00  0.00     0.003 A 
ATOM      6  C4  PXY d   1       1.518  -2.816   2.141  0.00  0.00    -0.082 A 
ATOM      7  C5  PXY d   1       2.839  -2.541   2.109  0.00  0.00     0.003 A 
ATOM      8  C6  PXY d   1       3.270  -1.352   1.528  0.00  0.00     0.003 A 
ENDROOT
TORSDOF 0
ENDMDL
