MODEL 1
REMARK minimizedAffinity -2.71871901
REMARK minimizedRMSD -1
REMARK  0 active torsions:
REMARK  status: ('A' for Active; 'I' for Inactive)
ROOT
ATOM      1  C4' PXY d   1      -0.675  -1.475   1.224  0.00  0.00     0.077 C 
ATOM      2  C1' PXY d   1       5.028  -2.182   1.846  0.00  0.00     0.077 C 
ATOM      3  C1  PXY d   1       3.533  -1.986   1.691  0.00  0.00    -0.082 A 
ATOM      4  C2  PXY d   1       2.773  -3.008   1.330  0.00  0.00     0.003 A 
ATOM      5  C3  PXY d   1       1.424  -2.841   1.154  0.00  0.00     0.003 A 
ATOM      6  C4  PXY d   1       0.838  -1.628   1.402  0.00  0.00    -0.082 A 
ATOM      7  C5  PXY d   1       1.604  -0.584   1.782  0.00  0.00     0.003 A 
ATOM      8  C6  PXY d   1       2.978  -0.764   1.915  0.00  0.00     0.003 A 
ENDROOT
TORSDOF 0
ENDMDL
