MODEL 1
REMARK minimizedAffinity 4.79879141
REMARK minimizedRMSD -1
REMARK  0 active torsions:
REMARK  status: ('A' for Active; 'I' for Inactive)
ROOT
ATOM      1  C4' PXY d   1      -2.397   0.018   0.663  0.00  0.00     0.077 C 
ATOM      2  C1' PXY d   1       1.812  -2.875  -2.044  0.00  0.00     0.077 C 
ATOM      3  C1  PXY d   1       0.712  -2.122  -1.323  0.00  0.00    -0.082 A 
ATOM      4  C2  PXY d   1      -0.322  -1.660  -2.008  0.00  0.00     0.003 A 
ATOM      5  C3  PXY d   1      -1.310  -0.949  -1.377  0.00  0.00     0.003 A 
ATOM      6  C4  PXY d   1      -1.267  -0.756  -0.022  0.00  0.00    -0.082 A 
ATOM      7  C5  PXY d   1      -0.221  -1.233   0.685  0.00  0.00     0.003 A 
ATOM      8  C6  PXY d   1       0.792  -1.916   0.020  0.00  0.00     0.003 A 
ENDROOT
TORSDOF 0
ENDMDL
