MODEL 1
REMARK minimizedAffinity 7.73821497
REMARK minimizedRMSD -1
REMARK  0 active torsions:
REMARK  status: ('A' for Active; 'I' for Inactive)
ROOT
ATOM      1  C4' PXY d   1       1.488   4.616  -0.600  0.00  0.00     0.077 C 
ATOM      2  C1' PXY d   1       2.774  -0.429   1.909  0.00  0.00     0.077 C 
ATOM      3  C1  PXY d   1       2.424   0.893   1.255  0.00  0.00    -0.082 A 
ATOM      4  C2  PXY d   1       3.160   1.340   0.251  0.00  0.00     0.003 A 
ATOM      5  C3  PXY d   1       2.878   2.549  -0.331  0.00  0.00     0.003 A 
ATOM      6  C4  PXY d   1       1.798   3.282   0.084  0.00  0.00    -0.082 A 
ATOM      7  C5  PXY d   1       1.036   2.827   1.101  0.00  0.00     0.003 A 
ATOM      8  C6  PXY d   1       1.364   1.617   1.706  0.00  0.00     0.003 A 
ENDROOT
TORSDOF 0
ENDMDL
