MODEL 1
REMARK minimizedAffinity 3.76938534
REMARK minimizedRMSD -1
REMARK  0 active torsions:
REMARK  status: ('A' for Active; 'I' for Inactive)
ROOT
ATOM      1  C4' PXY d   1       4.747  -1.884   1.567  0.00  0.00     0.077 C 
ATOM      2  C1' PXY d   1      -1.027  -2.143   1.461  0.00  0.00     0.077 C 
ATOM      3  C1  PXY d   1       0.487  -2.066   1.498  0.00  0.00    -0.082 A 
ATOM      4  C2  PXY d   1       1.189  -2.483   0.457  0.00  0.00     0.003 A 
ATOM      5  C3  PXY d   1       2.559  -2.450   0.486  0.00  0.00     0.003 A 
ATOM      6  C4  PXY d   1       3.217  -1.934   1.571  0.00  0.00    -0.082 A 
ATOM      7  C5  PXY d   1       2.508  -1.497   2.632  0.00  0.00     0.003 A 
ATOM      8  C6  PXY d   1       1.118  -1.577   2.600  0.00  0.00     0.003 A 
ENDROOT
TORSDOF 0
ENDMDL
