MODEL 1
REMARK minimizedAffinity -3.24927139
REMARK minimizedRMSD -1
REMARK  0 active torsions:
REMARK  status: ('A' for Active; 'I' for Inactive)
ROOT
ATOM      1  C4' PXY d   1       1.484  -0.000   4.296  0.00  0.00     0.077 C 
ATOM      2  C1' PXY d   1       4.456  -0.304  -0.653  0.00  0.00     0.077 C 
ATOM      3  C1  PXY d   1       3.673  -0.237   0.644  0.00  0.00    -0.082 A 
ATOM      4  C2  PXY d   1       3.229   0.931   1.080  0.00  0.00     0.003 A 
ATOM      5  C3  PXY d   1       2.547   1.014   2.267  0.00  0.00     0.003 A 
ATOM      6  C4  PXY d   1       2.270  -0.117   2.988  0.00  0.00    -0.082 A 
ATOM      7  C5  PXY d   1       2.710  -1.313   2.544  0.00  0.00     0.003 A 
ATOM      8  C6  PXY d   1       3.436  -1.371   1.358  0.00  0.00     0.003 A 
ENDROOT
TORSDOF 0
ENDMDL
