MODEL 1
REMARK minimizedAffinity 3.6557827
REMARK minimizedRMSD -1
REMARK  0 active torsions:
REMARK  status: ('A' for Active; 'I' for Inactive)
ROOT
ATOM      1  C4' PXY d   1       3.040   1.256   1.581  0.00  0.00     0.077 C 
ATOM      2  C1' PXY d   1       0.270  -3.747   2.422  0.00  0.00     0.077 C 
ATOM      3  C1  PXY d   1       1.008  -2.440   2.206  0.00  0.00    -0.082 A 
ATOM      4  C2  PXY d   1       0.329  -1.305   2.168  0.00  0.00     0.003 A 
ATOM      5  C3  PXY d   1       0.976  -0.118   1.941  0.00  0.00     0.003 A 
ATOM      6  C4  PXY d   1       2.338  -0.086   1.806  0.00  0.00    -0.082 A 
ATOM      7  C5  PXY d   1       3.039  -1.239   1.855  0.00  0.00     0.003 A 
ATOM      8  C6  PXY d   1       2.359  -2.438   2.044  0.00  0.00     0.003 A 
ENDROOT
TORSDOF 0
ENDMDL
