MODEL 1
REMARK minimizedAffinity 2.26051426
REMARK minimizedRMSD -1
REMARK  0 active torsions:
REMARK  status: ('A' for Active; 'I' for Inactive)
ROOT
ATOM      1  C4' PXY d   1      -0.138  -2.266  -2.760  0.00  0.00     0.077 C 
ATOM      2  C1' PXY d   1       1.654  -2.031   2.731  0.00  0.00     0.077 C 
ATOM      3  C1  PXY d   1       1.172  -2.094   1.295  0.00  0.00    -0.082 A 
ATOM      4  C2  PXY d   1       2.002  -2.487   0.342  0.00  0.00     0.003 A 
ATOM      5  C3  PXY d   1       1.592  -2.519  -0.966  0.00  0.00     0.003 A 
ATOM      6  C4  PXY d   1       0.303  -2.196  -1.295  0.00  0.00    -0.082 A 
ATOM      7  C5  PXY d   1      -0.553  -1.804  -0.328  0.00  0.00     0.003 A 
ATOM      8  C6  PXY d   1      -0.105  -1.739   0.988  0.00  0.00     0.003 A 
ENDROOT
TORSDOF 0
ENDMDL
