MODEL 1
REMARK minimizedAffinity 5.65538025
REMARK minimizedRMSD -1
REMARK  0 active torsions:
REMARK  status: ('A' for Active; 'I' for Inactive)
ROOT
ATOM      1  C4' PXY d   1       4.463  -0.045  -5.707  0.00  0.00     0.077 C 
ATOM      2  C1' PXY d   1       1.854  -2.725  -1.300  0.00  0.00     0.077 C 
ATOM      3  C1  PXY d   1       2.544  -2.014  -2.447  0.00  0.00    -0.082 A 
ATOM      4  C2  PXY d   1       2.045  -2.108  -3.669  0.00  0.00     0.003 A 
ATOM      5  C3  PXY d   1       2.674  -1.498  -4.724  0.00  0.00     0.003 A 
ATOM      6  C4  PXY d   1       3.795  -0.739  -4.517  0.00  0.00    -0.082 A 
ATOM      7  C5  PXY d   1       4.303  -0.629  -3.271  0.00  0.00     0.003 A 
ATOM      8  C6  PXY d   1       3.673  -1.290  -2.221  0.00  0.00     0.003 A 
ENDROOT
TORSDOF 0
ENDMDL
