MODEL 1
REMARK minimizedAffinity -0.68675369
REMARK minimizedRMSD -1
REMARK  0 active torsions:
REMARK  status: ('A' for Active; 'I' for Inactive)
ROOT
ATOM      1  C4' PXY d   1       3.000  -3.449  -1.876  0.00  0.00     0.077 C 
ATOM      2  C1' PXY d   1      -1.242   0.154  -0.312  0.00  0.00     0.077 C 
ATOM      3  C1  PXY d   1      -0.121  -0.785  -0.714  0.00  0.00    -0.082 A 
ATOM      4  C2  PXY d   1      -0.159  -1.381  -1.894  0.00  0.00     0.003 A 
ATOM      5  C3  PXY d   1       0.829  -2.258  -2.261  0.00  0.00     0.003 A 
ATOM      6  C4  PXY d   1       1.895  -2.486  -1.432  0.00  0.00    -0.082 A 
ATOM      7  C5  PXY d   1       1.946  -1.873  -0.230  0.00  0.00     0.003 A 
ATOM      8  C6  PXY d   1       0.912  -1.019   0.140  0.00  0.00     0.003 A 
ENDROOT
TORSDOF 0
ENDMDL
