MODEL 1
REMARK minimizedAffinity 7.29372358
REMARK minimizedRMSD -1
REMARK  0 active torsions:
REMARK  status: ('A' for Active; 'I' for Inactive)
ROOT
ATOM      1  C4' PXY d   1       0.656  -3.089   2.354  0.00  0.00     0.077 C 
ATOM      2  C1' PXY d   1       3.464   1.867   1.370  0.00  0.00     0.077 C 
ATOM      3  C1  PXY d   1       2.736   0.561   1.620  0.00  0.00    -0.082 A 
ATOM      4  C2  PXY d   1       1.480   0.582   2.036  0.00  0.00     0.003 A 
ATOM      5  C3  PXY d   1       0.816  -0.589   2.297  0.00  0.00     0.003 A 
ATOM      6  C4  PXY d   1       1.428  -1.795   2.080  0.00  0.00    -0.082 A 
ATOM      7  C5  PXY d   1       2.705  -1.825   1.645  0.00  0.00     0.003 A 
ATOM      8  C6  PXY d   1       3.375  -0.624   1.425  0.00  0.00     0.003 A 
ENDROOT
TORSDOF 0
ENDMDL
