MODEL 1
REMARK minimizedAffinity 2.70589972
REMARK minimizedRMSD -1
REMARK  3 active torsions:
REMARK  status: ('A' for Active; 'I' for Inactive)
REMARK    1  A    between atoms: C3'_2  and  C2'_3 
REMARK    2  A    between atoms: C2'_3  and  C1'_4 
REMARK    3  A    between atoms: C1'_4  and  C1_5 
ROOT
ATOM      1  C1  N4B d   1       0.552   1.314   0.932  0.00  0.00    -0.075 A 
ATOM      2  C2  N4B d   1       1.384   2.304   1.497  0.00  0.00     0.002 A 
ATOM      3  C3  N4B d   1       1.714   3.421   0.770  0.00  0.00     0.002 A 
ATOM      4  C4  N4B d   1       1.241   3.560  -0.527  0.00  0.00    -0.004 A 
ATOM      5  C5  N4B d   1       0.417   2.611  -1.056  0.00  0.00     0.002 A 
ATOM      6  C6  N4B d   1       0.074   1.485  -0.335  0.00  0.00     0.002 A 
ENDROOT
BRANCH   1   7
ATOM      7  C1' N4B d   1       0.234   0.035   1.657  0.00  0.00     0.057 C 
BRANCH   7   8
ATOM      8  C2' N4B d   1       1.228  -1.043   1.232  0.00  0.00     0.009 C 
BRANCH   8   9
ATOM      9  C3' N4B d   1       0.609  -2.430   1.261  0.00  0.00     0.004 C 
ATOM     10  C4' N4B d   1       1.577  -3.506   0.870  0.00  0.00     0.003 C 
ENDBRANCH   8   9
ENDBRANCH   7   8
ENDBRANCH   1   7
TORSDOF 3
ENDMDL
