MODEL 1
REMARK minimizedAffinity 1.02514744
REMARK minimizedRMSD -1
REMARK  0 active torsions:
REMARK  status: ('A' for Active; 'I' for Inactive)
ROOT
ATOM      1  C   UNL d   1      -5.999   4.887   1.712  0.00  0.00     0.078 C 
ATOM      2  C1  UNL d   1      -5.700   4.888   3.182  0.00  0.00    -0.077 A 
ATOM      3  C2  UNL d   1      -5.999   6.000   3.978  0.00  0.00    -0.001 A 
ATOM      4  C3  UNL d   1      -5.706   5.990   5.343  0.00  0.00     0.003 A 
ATOM      5  C4  UNL d   1      -5.110   4.872   5.923  0.00  0.00    -0.005 A 
ATOM      6  C5  UNL d   1      -4.807   3.761   5.137  0.00  0.00     0.003 A 
ATOM      7  C6  UNL d   1      -5.099   3.769   3.773  0.00  0.00    -0.001 A 
ENDROOT
TORSDOF 0
ENDMDL
