MODEL 1
REMARK minimizedAffinity 5.1305604
REMARK minimizedRMSD -1
REMARK  0 active torsions:
REMARK  status: ('A' for Active; 'I' for Inactive)
ROOT
ATOM      1  C   UNL d   1       4.195   3.401  -2.342  0.00  0.00     0.078 C 
ATOM      2  C1  UNL d   1       3.419   2.461  -1.468  0.00  0.00    -0.077 A 
ATOM      3  C2  UNL d   1       2.160   1.988  -1.857  0.00  0.00    -0.001 A 
ATOM      4  C3  UNL d   1       1.445   1.122  -1.028  0.00  0.00     0.003 A 
ATOM      5  C4  UNL d   1       1.980   0.722   0.195  0.00  0.00    -0.005 A 
ATOM      6  C5  UNL d   1       3.231   1.190   0.591  0.00  0.00     0.003 A 
ATOM      7  C6  UNL d   1       3.947   2.056  -0.236  0.00  0.00    -0.001 A 
ENDROOT
TORSDOF 0
ENDMDL
