MODEL 1
REMARK minimizedAffinity 8.71353722
REMARK minimizedRMSD -1
REMARK  0 active torsions:
REMARK  status: ('A' for Active; 'I' for Inactive)
ROOT
ATOM      1  C   UNL d   1      -1.991  -0.292  -2.635  0.00  0.00     0.078 C 
ATOM      2  C1  UNL d   1      -3.303   0.096  -2.021  0.00  0.00    -0.077 A 
ATOM      3  C2  UNL d   1      -4.490   0.043  -2.762  0.00  0.00    -0.001 A 
ATOM      4  C3  UNL d   1      -5.702   0.417  -2.180  0.00  0.00     0.003 A 
ATOM      5  C4  UNL d   1      -5.739   0.848  -0.856  0.00  0.00    -0.005 A 
ATOM      6  C5  UNL d   1      -4.563   0.906  -0.111  0.00  0.00     0.003 A 
ATOM      7  C6  UNL d   1      -3.350   0.533  -0.691  0.00  0.00    -0.001 A 
ENDROOT
TORSDOF 0
ENDMDL
