MODEL 1
REMARK minimizedAffinity 0.507546067
REMARK minimizedRMSD -1
REMARK  0 active torsions:
REMARK  status: ('A' for Active; 'I' for Inactive)
ROOT
ATOM      1  C   UNL d   1      -4.923   3.243   2.569  0.00  0.00     0.078 C 
ATOM      2  C1  UNL d   1      -4.961   4.157   3.758  0.00  0.00    -0.077 A 
ATOM      3  C2  UNL d   1      -4.001   5.162   3.925  0.00  0.00    -0.001 A 
ATOM      4  C3  UNL d   1      -4.042   5.999   5.042  0.00  0.00     0.003 A 
ATOM      5  C4  UNL d   1      -5.041   5.838   6.000  0.00  0.00    -0.005 A 
ATOM      6  C5  UNL d   1      -6.000   4.839   5.843  0.00  0.00     0.003 A 
ATOM      7  C6  UNL d   1      -5.960   4.002   4.727  0.00  0.00    -0.001 A 
ENDROOT
TORSDOF 0
ENDMDL
