MODEL 1
REMARK minimizedAffinity 7.58222008
REMARK minimizedRMSD -1
REMARK  0 active torsions:
REMARK  status: ('A' for Active; 'I' for Inactive)
ROOT
ATOM      1  C   UNL d   1       2.604   0.138  -0.024  0.00  0.00     0.078 C 
ATOM      2  C1  UNL d   1       3.646   1.177  -0.309  0.00  0.00    -0.077 A 
ATOM      3  C2  UNL d   1       4.034   1.470  -1.622  0.00  0.00    -0.001 A 
ATOM      4  C3  UNL d   1       5.013   2.433  -1.871  0.00  0.00     0.003 A 
ATOM      5  C4  UNL d   1       5.613   3.111  -0.812  0.00  0.00    -0.005 A 
ATOM      6  C5  UNL d   1       5.235   2.825   0.498  0.00  0.00     0.003 A 
ATOM      7  C6  UNL d   1       4.257   1.862   0.749  0.00  0.00    -0.001 A 
ENDROOT
TORSDOF 0
ENDMDL
