MODEL 1
REMARK minimizedAffinity -0.301787734
REMARK minimizedRMSD -1
REMARK  0 active torsions:
REMARK  status: ('A' for Active; 'I' for Inactive)
ROOT
ATOM      1  C   UNL d   1       2.026  -2.211   0.323  0.00  0.00     0.078 C 
ATOM      2  C1  UNL d   1       2.632  -1.058  -0.422  0.00  0.00    -0.077 A 
ATOM      3  C2  UNL d   1       2.705   0.215   0.156  0.00  0.00    -0.001 A 
ATOM      4  C3  UNL d   1       3.263   1.280  -0.552  0.00  0.00     0.003 A 
ATOM      5  C4  UNL d   1       3.752   1.084  -1.842  0.00  0.00    -0.005 A 
ATOM      6  C5  UNL d   1       3.682  -0.180  -2.426  0.00  0.00     0.003 A 
ATOM      7  C6  UNL d   1       3.124  -1.246  -1.720  0.00  0.00    -0.001 A 
ENDROOT
TORSDOF 0
ENDMDL
