MODEL 1
REMARK minimizedAffinity 2.55858493
REMARK minimizedRMSD -1
REMARK  0 active torsions:
REMARK  status: ('A' for Active; 'I' for Inactive)
ROOT
ATOM      1  C   UNL d   1      -5.973   0.401  -4.769  0.00  0.00     0.078 C 
ATOM      2  C1  UNL d   1      -5.273   0.338  -3.445  0.00  0.00    -0.077 A 
ATOM      3  C2  UNL d   1      -3.903   0.057  -3.366  0.00  0.00    -0.001 A 
ATOM      4  C3  UNL d   1      -3.266  -0.008  -2.126  0.00  0.00     0.003 A 
ATOM      5  C4  UNL d   1      -3.991   0.207  -0.955  0.00  0.00    -0.005 A 
ATOM      6  C5  UNL d   1      -5.354   0.485  -1.023  0.00  0.00     0.003 A 
ATOM      7  C6  UNL d   1      -5.993   0.550  -2.262  0.00  0.00    -0.001 A 
ENDROOT
TORSDOF 0
ENDMDL
