MODEL 1
REMARK minimizedAffinity 10.9002476
REMARK minimizedRMSD -1
REMARK  0 active torsions:
REMARK  status: ('A' for Active; 'I' for Inactive)
ROOT
ATOM      1  C   UNL d   1       2.079   0.995  -0.281  0.00  0.00     0.078 C 
ATOM      2  C1  UNL d   1       3.444   1.569  -0.518  0.00  0.00    -0.077 A 
ATOM      3  C2  UNL d   1       4.391   1.625   0.512  0.00  0.00    -0.001 A 
ATOM      4  C3  UNL d   1       5.655   2.171   0.281  0.00  0.00     0.003 A 
ATOM      5  C4  UNL d   1       5.983   2.665  -0.980  0.00  0.00    -0.005 A 
ATOM      6  C5  UNL d   1       5.047   2.615  -2.011  0.00  0.00     0.003 A 
ATOM      7  C6  UNL d   1       3.782   2.070  -1.781  0.00  0.00    -0.001 A 
ENDROOT
TORSDOF 0
ENDMDL
