MODEL 1
REMARK minimizedAffinity 1.16555953
REMARK minimizedRMSD -1
REMARK  0 active torsions:
REMARK  status: ('A' for Active; 'I' for Inactive)
ROOT
ATOM      1  C   UNL d   1      -5.201   3.406   2.199  0.00  0.00     0.078 C 
ATOM      2  C1  UNL d   1      -5.258   4.096   3.528  0.00  0.00    -0.077 A 
ATOM      3  C2  UNL d   1      -5.943   3.526   4.608  0.00  0.00    -0.001 A 
ATOM      4  C3  UNL d   1      -5.997   4.184   5.838  0.00  0.00     0.003 A 
ATOM      5  C4  UNL d   1      -5.369   5.418   5.999  0.00  0.00    -0.005 A 
ATOM      6  C5  UNL d   1      -4.687   5.995   4.929  0.00  0.00     0.003 A 
ATOM      7  C6  UNL d   1      -4.632   5.337   3.699  0.00  0.00    -0.001 A 
ENDROOT
TORSDOF 0
ENDMDL
