MODEL 1
REMARK minimizedAffinity 2.65163612
REMARK minimizedRMSD -1
REMARK  0 active torsions:
REMARK  status: ('A' for Active; 'I' for Inactive)
ROOT
ATOM      1  C   UNL d   1      -0.350  -2.509   3.371  0.00  0.00     0.078 C 
ATOM      2  C1  UNL d   1      -0.395  -3.732   4.237  0.00  0.00    -0.077 A 
ATOM      3  C2  UNL d   1      -1.443  -4.654   4.129  0.00  0.00    -0.001 A 
ATOM      4  C3  UNL d   1      -1.477  -5.783   4.949  0.00  0.00     0.003 A 
ATOM      5  C4  UNL d   1      -0.467  -6.000   5.883  0.00  0.00    -0.005 A 
ATOM      6  C5  UNL d   1       0.579  -5.086   6.000  0.00  0.00     0.003 A 
ATOM      7  C6  UNL d   1       0.615  -3.957   5.181  0.00  0.00    -0.001 A 
ENDROOT
TORSDOF 0
ENDMDL
