MODEL 1
REMARK minimizedAffinity -3.03253484
REMARK minimizedRMSD -1
REMARK  0 active torsions:
REMARK  status: ('A' for Active; 'I' for Inactive)
ROOT
ATOM      1  N1  IND d   1      -0.594  -0.826   1.006  0.00  0.00    -0.196 N 
ATOM      2  C2  IND d   1      -1.589   0.067   1.290  0.00  0.00     0.054 A 
ATOM      3  C3  IND d   1      -1.682   0.995   0.311  0.00  0.00    -0.031 A 
ATOM      4  C4  IND d   1      -0.370   1.180  -1.896  0.00  0.00     0.051 A 
ATOM      5  C5  IND d   1       0.668   0.616  -2.583  0.00  0.00    -0.031 A 
ATOM      6  C6  IND d   1       1.350  -0.483  -2.100  0.00  0.00     0.015 A 
ATOM      7  C7  IND d   1       1.011  -1.066  -0.912  0.00  0.00    -0.016 A 
ATOM      8  C8  IND d   1      -0.038  -0.491  -0.209  0.00  0.00    -0.047 A 
ATOM      9  C9  IND d   1      -0.706   0.649  -0.673  0.00  0.00    -0.096 A 
ATOM     10  HN1 IND d   1      -0.356  -1.486   1.503  0.00  0.00     0.298 HD
ENDROOT
TORSDOF 0
ENDMDL
