MODEL 1
REMARK minimizedAffinity -5.53930092
REMARK minimizedRMSD -1
REMARK  0 active torsions:
REMARK  status: ('A' for Active; 'I' for Inactive)
ROOT
ATOM      1  N1  IND d   1       0.090  -1.599   0.283  0.00  0.00    -0.196 N 
ATOM      2  C2  IND d   1      -0.434  -0.388   0.639  0.00  0.00     0.054 A 
ATOM      3  C3  IND d   1      -0.018   0.574  -0.215  0.00  0.00    -0.031 A 
ATOM      4  C4  IND d   1       1.444   0.368  -2.324  0.00  0.00     0.051 A 
ATOM      5  C5  IND d   1       2.189  -0.531  -3.034  0.00  0.00    -0.031 A 
ATOM      6  C6  IND d   1       2.271  -1.859  -2.670  0.00  0.00     0.015 A 
ATOM      7  C7  IND d   1       1.600  -2.343  -1.583  0.00  0.00    -0.016 A 
ATOM      8  C8  IND d   1       0.849  -1.431  -0.854  0.00  0.00    -0.047 A 
ATOM      9  C9  IND d   1       0.795  -0.073  -1.195  0.00  0.00    -0.096 A 
ATOM     10  HN1 IND d   1      -0.034  -2.341   0.700  0.00  0.00     0.298 HD
ENDROOT
TORSDOF 0
ENDMDL
