MODEL 1
REMARK minimizedAffinity -3.4554801
REMARK minimizedRMSD -1
REMARK  0 active torsions:
REMARK  status: ('A' for Active; 'I' for Inactive)
ROOT
ATOM      1  N1  IND d   1      -0.251  -0.961   0.266  0.00  0.00    -0.196 N 
ATOM      2  C2  IND d   1      -0.316   0.200   0.985  0.00  0.00     0.054 A 
ATOM      3  C3  IND d   1       0.507   1.131   0.451  0.00  0.00    -0.031 A 
ATOM      4  C4  IND d   1       1.974   0.999  -1.660  0.00  0.00     0.051 A 
ATOM      5  C5  IND d   1       2.392   0.130  -2.629  0.00  0.00    -0.031 A 
ATOM      6  C6  IND d   1       1.939  -1.172  -2.685  0.00  0.00     0.015 A 
ATOM      7  C7  IND d   1       1.038  -1.653  -1.777  0.00  0.00    -0.016 A 
ATOM      8  C8  IND d   1       0.618  -0.776  -0.787  0.00  0.00    -0.047 A 
ATOM      9  C9  IND d   1       1.106   0.534  -0.700  0.00  0.00    -0.096 A 
ATOM     10  HN1 IND d   1      -0.680  -1.685   0.442  0.00  0.00     0.298 HD
ENDROOT
TORSDOF 0
ENDMDL
