MODEL 1
REMARK minimizedAffinity -4.63974047
REMARK minimizedRMSD -1
REMARK  0 active torsions:
REMARK  status: ('A' for Active; 'I' for Inactive)
ROOT
ATOM      1  N1  IND d   1      -0.367  -0.985   0.408  0.00  0.00    -0.196 N 
ATOM      2  C2  IND d   1      -0.539   0.366   0.530  0.00  0.00     0.054 A 
ATOM      3  C3  IND d   1       0.233   1.021  -0.366  0.00  0.00    -0.031 A 
ATOM      4  C4  IND d   1       1.779   0.074  -2.194  0.00  0.00     0.051 A 
ATOM      5  C5  IND d   1       2.290  -1.101  -2.670  0.00  0.00    -0.031 A 
ATOM      6  C6  IND d   1       1.932  -2.322  -2.135  0.00  0.00     0.015 A 
ATOM      7  C7  IND d   1       1.037  -2.414  -1.107  0.00  0.00    -0.016 A 
ATOM      8  C8  IND d   1       0.521  -1.223  -0.617  0.00  0.00    -0.047 A 
ATOM      9  C9  IND d   1       0.913   0.021  -1.127  0.00  0.00    -0.096 A 
ATOM     10  HN1 IND d   1      -0.750  -1.585   0.891  0.00  0.00     0.298 HD
ENDROOT
TORSDOF 0
ENDMDL
