MODEL 1
REMARK minimizedAffinity -4.93681097
REMARK minimizedRMSD -1
REMARK  0 active torsions:
REMARK  status: ('A' for Active; 'I' for Inactive)
ROOT
ATOM      1  N1  IND d   1       0.503   0.157  -0.582  0.00  0.00    -0.196 N 
ATOM      2  C2  IND d   1       0.263   0.974  -1.651  0.00  0.00     0.054 A 
ATOM      3  C3  IND d   1      -0.909   1.629  -1.489  0.00  0.00    -0.031 A 
ATOM      4  C4  IND d   1      -2.544   1.588   0.499  0.00  0.00     0.051 A 
ATOM      5  C5  IND d   1      -2.771   0.964   1.694  0.00  0.00    -0.031 A 
ATOM      6  C6  IND d   1      -1.900   0.022   2.202  0.00  0.00     0.015 A 
ATOM      7  C7  IND d   1      -0.758  -0.324   1.538  0.00  0.00    -0.016 A 
ATOM      8  C8  IND d   1      -0.527   0.302   0.321  0.00  0.00    -0.047 A 
ATOM      9  C9  IND d   1      -1.429   1.227  -0.221  0.00  0.00    -0.096 A 
ATOM     10  HN1 IND d   1       1.183  -0.361  -0.490  0.00  0.00     0.298 HD
ENDROOT
TORSDOF 0
ENDMDL
