MODEL 1
REMARK minimizedAffinity 6.68109941
REMARK minimizedRMSD -1
REMARK  0 active torsions:
REMARK  status: ('A' for Active; 'I' for Inactive)
ROOT
ATOM      1  N1  IND d   1      -2.899   0.853   3.774  0.00  0.00    -0.196 N 
ATOM      2  C2  IND d   1      -3.530   1.074   4.966  0.00  0.00     0.054 A 
ATOM      3  C3  IND d   1      -2.672   0.890   5.994  0.00  0.00    -0.031 A 
ATOM      4  C4  IND d   1      -0.161   0.323   5.947  0.00  0.00     0.051 A 
ATOM      5  C5  IND d   1       0.853  -0.008   5.092  0.00  0.00    -0.031 A 
ATOM      6  C6  IND d   1       0.664  -0.068   3.726  0.00  0.00     0.015 A 
ATOM      7  C7  IND d   1      -0.547   0.214   3.161  0.00  0.00    -0.016 A 
ATOM      8  C8  IND d   1      -1.581   0.544   4.026  0.00  0.00    -0.047 A 
ATOM      9  C9  IND d   1      -1.406   0.565   5.416  0.00  0.00    -0.096 A 
ATOM     10  HN1 IND d   1      -3.264   0.899   2.996  0.00  0.00     0.298 HD
ENDROOT
TORSDOF 0
ENDMDL
