MODEL 1
REMARK minimizedAffinity -4.08922052
REMARK minimizedRMSD -1
REMARK  0 active torsions:
REMARK  status: ('A' for Active; 'I' for Inactive)
ROOT
ATOM      1  N1  IND d   1       0.225  -0.054   0.595  0.00  0.00    -0.196 N 
ATOM      2  C2  IND d   1       0.103   1.307   0.559  0.00  0.00     0.054 A 
ATOM      3  C3  IND d   1       0.620   1.796  -0.590  0.00  0.00    -0.031 A 
ATOM      4  C4  IND d   1       1.624   0.535  -2.598  0.00  0.00     0.051 A 
ATOM      5  C5  IND d   1       1.982  -0.716  -3.014  0.00  0.00    -0.031 A 
ATOM      6  C6  IND d   1       1.766  -1.834  -2.234  0.00  0.00     0.015 A 
ATOM      7  C7  IND d   1       1.170  -1.742  -1.008  0.00  0.00    -0.016 A 
ATOM      8  C8  IND d   1       0.812  -0.472  -0.579  0.00  0.00    -0.047 A 
ATOM      9  C9  IND d   1       1.067   0.670  -1.348  0.00  0.00    -0.096 A 
ATOM     10  HN1 IND d   1      -0.024  -0.563   1.242  0.00  0.00     0.298 HD
ENDROOT
TORSDOF 0
ENDMDL
