MODEL 1
REMARK minimizedAffinity -1.79847789
REMARK minimizedRMSD -1
REMARK  0 active torsions:
REMARK  status: ('A' for Active; 'I' for Inactive)
ROOT
ATOM      1  N1  IND d   1      -1.664   0.271  -0.039  0.00  0.00    -0.196 N 
ATOM      2  C2  IND d   1      -1.308  -0.183   1.200  0.00  0.00     0.054 A 
ATOM      3  C3  IND d   1       0.008  -0.491   1.227  0.00  0.00    -0.031 A 
ATOM      4  C4  IND d   1       1.787  -0.231  -0.615  0.00  0.00     0.051 A 
ATOM      5  C5  IND d   1       1.934   0.109  -1.931  0.00  0.00    -0.031 A 
ATOM      6  C6  IND d   1       0.867   0.531  -2.698  0.00  0.00     0.015 A 
ATOM      7  C7  IND d   1      -0.389   0.641  -2.172  0.00  0.00    -0.016 A 
ATOM      8  C8  IND d   1      -0.543   0.290  -0.838  0.00  0.00    -0.047 A 
ATOM      9  C9  IND d   1       0.528  -0.180  -0.067  0.00  0.00    -0.096 A 
ATOM     10  HN1 IND d   1      -2.456   0.506  -0.278  0.00  0.00     0.298 HD
ENDROOT
TORSDOF 0
ENDMDL
