MODEL 1
REMARK minimizedAffinity -3.4352982
REMARK minimizedRMSD -1
REMARK  0 active torsions:
REMARK  status: ('A' for Active; 'I' for Inactive)
ROOT
ATOM      1  N1  IND d   1       0.549  -2.512  -0.903  0.00  0.00    -0.196 N 
ATOM      2  C2  IND d   1       1.461  -2.981  -1.807  0.00  0.00     0.054 A 
ATOM      3  C3  IND d   1       2.130  -1.955  -2.377  0.00  0.00    -0.031 A 
ATOM      4  C4  IND d   1       1.966   0.570  -1.901  0.00  0.00     0.051 A 
ATOM      5  C5  IND d   1       1.250   1.486  -1.183  0.00  0.00    -0.031 A 
ATOM      6  C6  IND d   1       0.245   1.109  -0.315  0.00  0.00     0.015 A 
ATOM      7  C7  IND d   1      -0.074  -0.205  -0.124  0.00  0.00    -0.016 A 
ATOM      8  C8  IND d   1       0.646  -1.138  -0.857  0.00  0.00    -0.047 A 
ATOM      9  C9  IND d   1       1.637  -0.759  -1.771  0.00  0.00    -0.096 A 
ATOM     10  HN1 IND d   1       0.007  -2.993  -0.441  0.00  0.00     0.298 HD
ENDROOT
TORSDOF 0
ENDMDL
