MODEL 1
REMARK minimizedAffinity -5.41431808
REMARK minimizedRMSD -1
REMARK  0 active torsions:
REMARK  status: ('A' for Active; 'I' for Inactive)
ROOT
ATOM      1  N1  IND d   1       0.110   0.135   0.260  0.00  0.00    -0.196 N 
ATOM      2  C2  IND d   1      -0.039   0.734  -0.960  0.00  0.00     0.054 A 
ATOM      3  C3  IND d   1      -1.295   1.216  -1.097  0.00  0.00    -0.031 A 
ATOM      4  C4  IND d   1      -3.237   1.224   0.592  0.00  0.00     0.051 A 
ATOM      5  C5  IND d   1      -3.592   0.761   1.828  0.00  0.00    -0.031 A 
ATOM      6  C6  IND d   1      -2.712   0.054   2.622  0.00  0.00     0.015 A 
ATOM      7  C7  IND d   1      -1.435  -0.208   2.212  0.00  0.00    -0.016 A 
ATOM      8  C8  IND d   1      -1.074   0.254   0.954  0.00  0.00    -0.047 A 
ATOM      9  C9  IND d   1      -1.976   0.935   0.127  0.00  0.00    -0.096 A 
ATOM     10  HN1 IND d   1       0.823  -0.252   0.545  0.00  0.00     0.298 HD
ENDROOT
TORSDOF 0
ENDMDL
