MODEL 1
REMARK minimizedAffinity -5.00187492
REMARK minimizedRMSD -1
REMARK  0 active torsions:
REMARK  status: ('A' for Active; 'I' for Inactive)
ROOT
ATOM      1  N1  IND d   1      -0.574   1.163  -1.243  0.00  0.00    -0.196 N 
ATOM      2  C2  IND d   1       0.704   0.819  -1.588  0.00  0.00     0.054 A 
ATOM      3  C3  IND d   1       1.243   0.012  -0.647  0.00  0.00    -0.031 A 
ATOM      4  C4  IND d   1       0.176  -0.952   1.488  0.00  0.00     0.051 A 
ATOM      5  C5  IND d   1      -0.960  -0.894   2.246  0.00  0.00    -0.031 A 
ATOM      6  C6  IND d   1      -2.048  -0.133   1.870  0.00  0.00     0.015 A 
ATOM      7  C7  IND d   1      -2.045   0.591   0.712  0.00  0.00    -0.016 A 
ATOM      8  C8  IND d   1      -0.891   0.540  -0.057  0.00  0.00    -0.047 A 
ATOM      9  C9  IND d   1       0.233  -0.197   0.341  0.00  0.00    -0.096 A 
ATOM     10  HN1 IND d   1      -1.092   1.682  -1.693  0.00  0.00     0.298 HD
ENDROOT
TORSDOF 0
ENDMDL
