MODEL 1
REMARK minimizedAffinity -3.70770788
REMARK minimizedRMSD -1
REMARK  0 active torsions:
REMARK  status: ('A' for Active; 'I' for Inactive)
ROOT
ATOM      1  N1  IND d   1      -1.735  -0.607   0.036  0.00  0.00    -0.196 N 
ATOM      2  C2  IND d   1      -2.036   0.219   1.082  0.00  0.00     0.054 A 
ATOM      3  C3  IND d   1      -0.988   1.026   1.361  0.00  0.00    -0.031 A 
ATOM      4  C4  IND d   1       1.282   1.231   0.163  0.00  0.00     0.051 A 
ATOM      5  C5  IND d   1       2.033   0.661  -0.826  0.00  0.00    -0.031 A 
ATOM      6  C6  IND d   1       1.556  -0.380  -1.596  0.00  0.00     0.015 A 
ATOM      7  C7  IND d   1       0.300  -0.885  -1.412  0.00  0.00    -0.016 A 
ATOM      8  C8  IND d   1      -0.463  -0.313  -0.404  0.00  0.00    -0.047 A 
ATOM      9  C9  IND d   1       0.031   0.716   0.409  0.00  0.00    -0.096 A 
ATOM     10  HN1 IND d   1      -2.254  -1.209  -0.293  0.00  0.00     0.298 HD
ENDROOT
TORSDOF 0
ENDMDL
