MODEL 1
REMARK minimizedAffinity 1.04088366
REMARK minimizedRMSD -1
REMARK  0 active torsions:
REMARK  status: ('A' for Active; 'I' for Inactive)
ROOT
ATOM      1  N1  IND d   1       0.583  -2.095  -0.293  0.00  0.00    -0.196 N 
ATOM      2  C2  IND d   1      -0.271  -1.912   0.758  0.00  0.00     0.054 A 
ATOM      3  C3  IND d   1      -0.308  -0.608   1.113  0.00  0.00    -0.031 A 
ATOM      4  C4  IND d   1       0.872   1.413   0.040  0.00  0.00     0.051 A 
ATOM      5  C5  IND d   1       1.784   1.741  -0.923  0.00  0.00    -0.031 A 
ATOM      6  C6  IND d   1       2.351   0.788  -1.745  0.00  0.00     0.015 A 
ATOM      7  C7  IND d   1       2.018  -0.533  -1.640  0.00  0.00    -0.016 A 
ATOM      8  C8  IND d   1       1.098  -0.870  -0.658  0.00  0.00    -0.047 A 
ATOM      9  C9  IND d   1       0.551   0.086   0.207  0.00  0.00    -0.096 A 
ATOM     10  HN1 IND d   1       0.767  -2.848  -0.665  0.00  0.00     0.298 HD
ENDROOT
TORSDOF 0
ENDMDL
