MODEL 1
REMARK minimizedAffinity -2.10614681
REMARK minimizedRMSD -1
REMARK  0 active torsions:
REMARK  status: ('A' for Active; 'I' for Inactive)
ROOT
ATOM      1  N1  IND d   1       1.163   1.760  -1.022  0.00  0.00    -0.196 N 
ATOM      2  C2  IND d   1       2.111   1.300  -1.893  0.00  0.00     0.054 A 
ATOM      3  C3  IND d   1       2.198  -0.047  -1.825  0.00  0.00    -0.031 A 
ATOM      4  C4  IND d   1       0.811  -1.708  -0.430  0.00  0.00     0.051 A 
ATOM      5  C5  IND d   1      -0.149  -1.760   0.542  0.00  0.00    -0.031 A 
ATOM      6  C6  IND d   1      -0.735  -0.618   1.050  0.00  0.00     0.015 A 
ATOM      7  C7  IND d   1      -0.388   0.623   0.595  0.00  0.00    -0.016 A 
ATOM      8  C8  IND d   1       0.591   0.680  -0.386  0.00  0.00    -0.047 A 
ATOM      9  C9  IND d   1       1.219  -0.473  -0.875  0.00  0.00    -0.096 A 
ATOM     10  HN1 IND d   1       0.958   2.585  -0.893  0.00  0.00     0.298 HD
ENDROOT
TORSDOF 0
ENDMDL
