MODEL 1
REMARK minimizedAffinity -5.22500372
REMARK minimizedRMSD -1
REMARK  0 active torsions:
REMARK  status: ('A' for Active; 'I' for Inactive)
ROOT
ATOM      1  N1  IND d   1      -1.445  -0.951  -0.190  0.00  0.00    -0.196 N 
ATOM      2  C2  IND d   1      -1.761  -0.162   0.881  0.00  0.00     0.054 A 
ATOM      3  C3  IND d   1      -0.850   0.827   1.021  0.00  0.00    -0.031 A 
ATOM      4  C4  IND d   1       1.182   1.400  -0.452  0.00  0.00     0.051 A 
ATOM      5  C5  IND d   1       1.899   0.945  -1.523  0.00  0.00    -0.031 A 
ATOM      6  C6  IND d   1       1.529  -0.187  -2.220  0.00  0.00     0.015 A 
ATOM      7  C7  IND d   1       0.416  -0.903  -1.877  0.00  0.00    -0.016 A 
ATOM      8  C8  IND d   1      -0.310  -0.447  -0.786  0.00  0.00    -0.047 A 
ATOM      9  C9  IND d   1       0.085   0.676  -0.048  0.00  0.00    -0.096 A 
ATOM     10  HN1 IND d   1      -1.881  -1.646  -0.447  0.00  0.00     0.298 HD
ENDROOT
TORSDOF 0
ENDMDL
