MODEL 1
REMARK minimizedAffinity -4.13232708
REMARK minimizedRMSD -1
REMARK  0 active torsions:
REMARK  status: ('A' for Active; 'I' for Inactive)
ROOT
ATOM      1  N1  IND d   1      -0.343  -1.047   0.210  0.00  0.00    -0.196 N 
ATOM      2  C2  IND d   1      -1.010   0.026   0.732  0.00  0.00     0.054 A 
ATOM      3  C3  IND d   1      -0.549   1.175   0.190  0.00  0.00    -0.031 A 
ATOM      4  C4  IND d   1       1.223   1.523  -1.645  0.00  0.00     0.051 A 
ATOM      5  C5  IND d   1       2.135   0.844  -2.404  0.00  0.00    -0.031 A 
ATOM      6  C6  IND d   1       2.268  -0.527  -2.331  0.00  0.00     0.015 A 
ATOM      7  C7  IND d   1       1.483  -1.276  -1.501  0.00  0.00    -0.016 A 
ATOM      8  C8  IND d   1       0.561  -0.590  -0.723  0.00  0.00    -0.047 A 
ATOM      9  C9  IND d   1       0.450   0.806  -0.762  0.00  0.00    -0.096 A 
ATOM     10  HN1 IND d   1      -0.468  -1.870   0.428  0.00  0.00     0.298 HD
ENDROOT
TORSDOF 0
ENDMDL
