MODEL 1
REMARK minimizedAffinity -3.09599876
REMARK minimizedRMSD -1
REMARK  0 active torsions:
REMARK  status: ('A' for Active; 'I' for Inactive)
ROOT
ATOM      1  C   UNL d   1      -0.958   1.620   0.047  0.00  0.00    -0.002 A 
ATOM      2  C1  UNL d   1      -1.509   0.350   0.134  0.00  0.00     0.010 A 
ATOM      3  C2  UNL d   1      -0.735  -0.780  -0.140  0.00  0.00     0.041 A 
ATOM      4  C3  UNL d   1       0.615  -0.609  -0.504  0.00  0.00    -0.075 A 
ATOM      5  S   UNL d   1       1.754  -1.847  -0.884  0.00  0.00     0.015 SA
ATOM      6  C4  UNL d   1       2.998  -0.718  -1.168  0.00  0.00     0.022 A 
ATOM      7  C5  UNL d   1       2.573   0.576  -0.983  0.00  0.00     0.026 A 
ATOM      8  C6  UNL d   1       1.193   0.660  -0.597  0.00  0.00    -0.082 A 
ATOM      9  C7  UNL d   1       0.382   1.786  -0.314  0.00  0.00     0.045 A 
ENDROOT
TORSDOF 0
ENDMDL
