MODEL 1
REMARK minimizedAffinity -3.41766739
REMARK minimizedRMSD -1
REMARK  0 active torsions:
REMARK  status: ('A' for Active; 'I' for Inactive)
ROOT
ATOM      1  C   UNL d   1       3.174   1.035  -1.243  0.00  0.00    -0.002 A 
ATOM      2  C1  UNL d   1       2.110   1.920  -1.140  0.00  0.00     0.010 A 
ATOM      3  C2  UNL d   1       0.815   1.452  -0.911  0.00  0.00     0.041 A 
ATOM      4  C3  UNL d   1       0.605   0.065  -0.784  0.00  0.00    -0.075 A 
ATOM      5  S   UNL d   1      -0.895  -0.738  -0.501  0.00  0.00     0.015 SA
ATOM      6  C4  UNL d   1      -0.159  -2.275  -0.508  0.00  0.00     0.022 A 
ATOM      7  C5  UNL d   1       1.197  -2.197  -0.721  0.00  0.00     0.026 A 
ATOM      8  C6  UNL d   1       1.659  -0.847  -0.883  0.00  0.00    -0.082 A 
ATOM      9  C7  UNL d   1       2.961  -0.341  -1.116  0.00  0.00     0.045 A 
ENDROOT
TORSDOF 0
ENDMDL
