MODEL 1
REMARK minimizedAffinity 4.17371035
REMARK minimizedRMSD -1
REMARK  0 active torsions:
REMARK  status: ('A' for Active; 'I' for Inactive)
ROOT
ATOM      1  C   UNL d   1       3.298  -0.958  -1.492  0.00  0.00    -0.002 A 
ATOM      2  C1  UNL d   1       3.466   0.166  -0.696  0.00  0.00     0.010 A 
ATOM      3  C2  UNL d   1       2.388   0.703   0.011  0.00  0.00     0.041 A 
ATOM      4  C3  UNL d   1       1.127   0.084  -0.096  0.00  0.00    -0.075 A 
ATOM      5  S   UNL d   1      -0.336   0.566   0.679  0.00  0.00     0.015 SA
ATOM      6  C4  UNL d   1      -1.218  -0.710  -0.028  0.00  0.00     0.022 A 
ATOM      7  C5  UNL d   1      -0.431  -1.494  -0.838  0.00  0.00     0.026 A 
ATOM      8  C6  UNL d   1       0.934  -1.049  -0.890  0.00  0.00    -0.082 A 
ATOM      9  C7  UNL d   1       2.046  -1.569  -1.595  0.00  0.00     0.045 A 
ENDROOT
TORSDOF 0
ENDMDL
