MODEL 1
REMARK minimizedAffinity 0.163628191
REMARK minimizedRMSD -1
REMARK  0 active torsions:
REMARK  status: ('A' for Active; 'I' for Inactive)
ROOT
ATOM      1  C   UNL d   1       1.777   1.642  -0.738  0.00  0.00    -0.002 A 
ATOM      2  C1  UNL d   1       2.886   0.856  -0.457  0.00  0.00     0.010 A 
ATOM      3  C2  UNL d   1       2.744  -0.509  -0.203  0.00  0.00     0.041 A 
ATOM      4  C3  UNL d   1       1.455  -1.078  -0.238  0.00  0.00    -0.075 A 
ATOM      5  S   UNL d   1       1.040  -2.728   0.041  0.00  0.00     0.015 SA
ATOM      6  C4  UNL d   1      -0.620  -2.429  -0.207  0.00  0.00     0.022 A 
ATOM      7  C5  UNL d   1      -0.869  -1.108  -0.496  0.00  0.00     0.026 A 
ATOM      8  C6  UNL d   1       0.323  -0.308  -0.519  0.00  0.00    -0.082 A 
ATOM      9  C7  UNL d   1       0.501   1.074  -0.772  0.00  0.00     0.045 A 
ENDROOT
TORSDOF 0
ENDMDL
