MODEL 1
REMARK minimizedAffinity -5.02402973
REMARK minimizedRMSD -1
REMARK  0 active torsions:
REMARK  status: ('A' for Active; 'I' for Inactive)
ROOT
ATOM      1  C   UNL d   1       3.265  -0.328  -1.911  0.00  0.00    -0.002 A 
ATOM      2  C1  UNL d   1       2.618   0.775  -2.449  0.00  0.00     0.010 A 
ATOM      3  C2  UNL d   1       1.410   1.224  -1.910  0.00  0.00     0.041 A 
ATOM      4  C3  UNL d   1       0.860   0.540  -0.808  0.00  0.00    -0.075 A 
ATOM      5  S   UNL d   1      -0.607   0.910   0.018  0.00  0.00     0.015 SA
ATOM      6  C4  UNL d   1      -0.410  -0.387   1.105  0.00  0.00     0.022 A 
ATOM      7  C5  UNL d   1       0.742  -1.095   0.859  0.00  0.00     0.026 A 
ATOM      8  C6  UNL d   1       1.493  -0.573  -0.248  0.00  0.00    -0.082 A 
ATOM      9  C7  UNL d   1       2.715  -1.004  -0.818  0.00  0.00     0.045 A 
ENDROOT
TORSDOF 0
ENDMDL
