MODEL 1
REMARK minimizedAffinity -2.44237828
REMARK minimizedRMSD -1
REMARK  0 active torsions:
REMARK  status: ('A' for Active; 'I' for Inactive)
ROOT
ATOM      1  C   UNL d   1       1.974   1.548  -3.049  0.00  0.00    -0.002 A 
ATOM      2  C1  UNL d   1       2.681   0.408  -2.694  0.00  0.00     0.010 A 
ATOM      3  C2  UNL d   1       2.240  -0.404  -1.647  0.00  0.00     0.041 A 
ATOM      4  C3  UNL d   1       1.064  -0.048  -0.958  0.00  0.00    -0.075 A 
ATOM      5  S   UNL d   1       0.334  -0.892   0.357  0.00  0.00     0.015 SA
ATOM      6  C4  UNL d   1      -0.934   0.240   0.477  0.00  0.00     0.022 A 
ATOM      7  C5  UNL d   1      -0.819   1.244  -0.455  0.00  0.00     0.026 A 
ATOM      8  C6  UNL d   1       0.334   1.094  -1.298  0.00  0.00    -0.082 A 
ATOM      9  C7  UNL d   1       0.807   1.897  -2.363  0.00  0.00     0.045 A 
ENDROOT
TORSDOF 0
ENDMDL
