MODEL 1
REMARK minimizedAffinity -2.30459142
REMARK minimizedRMSD -1
REMARK  0 active torsions:
REMARK  status: ('A' for Active; 'I' for Inactive)
ROOT
ATOM      1  C   UNL d   1       2.626  -1.499  -0.733  0.00  0.00    -0.002 A 
ATOM      2  C1  UNL d   1       2.799  -0.220  -1.243  0.00  0.00     0.010 A 
ATOM      3  C2  UNL d   1       1.803   0.746  -1.090  0.00  0.00     0.041 A 
ATOM      4  C3  UNL d   1       0.619   0.403  -0.408  0.00  0.00    -0.075 A 
ATOM      5  S   UNL d   1      -0.737   1.423  -0.101  0.00  0.00     0.015 SA
ATOM      6  C4  UNL d   1      -1.577   0.185   0.716  0.00  0.00     0.022 A 
ATOM      7  C5  UNL d   1      -0.856  -0.984   0.762  0.00  0.00     0.026 A 
ATOM      8  C6  UNL d   1       0.422  -0.878   0.115  0.00  0.00    -0.082 A 
ATOM      9  C7  UNL d   1       1.450  -1.836  -0.057  0.00  0.00     0.045 A 
ENDROOT
TORSDOF 0
ENDMDL
