MODEL 1
REMARK minimizedAffinity -4.59631968
REMARK minimizedRMSD -1
REMARK  0 active torsions:
REMARK  status: ('A' for Active; 'I' for Inactive)
ROOT
ATOM      1  C   UNL d   1       2.794  -0.462  -2.127  0.00  0.00    -0.002 A 
ATOM      2  C1  UNL d   1       2.434   0.841  -2.441  0.00  0.00     0.010 A 
ATOM      3  C2  UNL d   1       1.297   1.420  -1.873  0.00  0.00     0.041 A 
ATOM      4  C3  UNL d   1       0.523   0.661  -0.974  0.00  0.00    -0.075 A 
ATOM      5  S   UNL d   1      -0.910   1.162  -0.156  0.00  0.00     0.015 SA
ATOM      6  C4  UNL d   1      -1.077  -0.341   0.630  0.00  0.00     0.022 A 
ATOM      7  C5  UNL d   1      -0.073  -1.216   0.288  0.00  0.00     0.026 A 
ATOM      8  C6  UNL d   1       0.866  -0.653  -0.642  0.00  0.00    -0.082 A 
ATOM      9  C7  UNL d   1       2.023  -1.212  -1.235  0.00  0.00     0.045 A 
ENDROOT
TORSDOF 0
ENDMDL
