MODEL 1
REMARK minimizedAffinity 5.56503582
REMARK minimizedRMSD -1
REMARK  0 active torsions:
REMARK  status: ('A' for Active; 'I' for Inactive)
ROOT
ATOM      1  C   UNL d   1      -2.101  -1.355   0.734  0.00  0.00    -0.002 A 
ATOM      2  C1  UNL d   1      -1.125  -2.305   0.468  0.00  0.00     0.010 A 
ATOM      3  C2  UNL d   1       0.056  -1.946  -0.183  0.00  0.00     0.041 A 
ATOM      4  C3  UNL d   1       0.244  -0.602  -0.564  0.00  0.00    -0.075 A 
ATOM      5  S   UNL d   1       1.612   0.068  -1.371  0.00  0.00     0.015 SA
ATOM      6  C4  UNL d   1       0.933   1.632  -1.381  0.00  0.00     0.022 A 
ATOM      7  C5  UNL d   1      -0.307   1.659  -0.787  0.00  0.00     0.026 A 
ATOM      8  C6  UNL d   1      -0.724   0.372  -0.306  0.00  0.00    -0.082 A 
ATOM      9  C7  UNL d   1      -1.912  -0.023   0.354  0.00  0.00     0.045 A 
ENDROOT
TORSDOF 0
ENDMDL
