MODEL 1
REMARK minimizedAffinity 2.92272711
REMARK minimizedRMSD -1
REMARK  0 active torsions:
REMARK  status: ('A' for Active; 'I' for Inactive)
ROOT
ATOM      1  C   UNL d   1      -0.937  -2.207   0.873  0.00  0.00    -0.002 A 
ATOM      2  C1  UNL d   1      -1.490  -0.989   0.503  0.00  0.00     0.010 A 
ATOM      3  C2  UNL d   1      -0.908  -0.223  -0.509  0.00  0.00     0.041 A 
ATOM      4  C3  UNL d   1       0.250  -0.706  -1.149  0.00  0.00    -0.075 A 
ATOM      5  S   UNL d   1       1.134   0.061  -2.415  0.00  0.00     0.015 SA
ATOM      6  C4  UNL d   1       2.267  -1.210  -2.495  0.00  0.00     0.022 A 
ATOM      7  C5  UNL d   1       1.993  -2.203  -1.585  0.00  0.00     0.026 A 
ATOM      8  C6  UNL d   1       0.825  -1.929  -0.794  0.00  0.00    -0.082 A 
ATOM      9  C7  UNL d   1       0.212  -2.682   0.235  0.00  0.00     0.045 A 
ENDROOT
TORSDOF 0
ENDMDL
