MODEL 1
REMARK minimizedAffinity -2.76496243
REMARK minimizedRMSD -1
REMARK  1 active torsions:
REMARK  status: ('A' for Active; 'I' for Inactive)
REMARK    1  A    between atoms: C3_4  and  O_7 
ROOT
ATOM      1  C   UNL d   1       0.202   0.030  -0.744  0.00  0.00    -0.033 A 
ATOM      2  C1  UNL d   1       1.566  -0.137  -0.496  0.00  0.00     0.039 A 
ATOM      3  C2  UNL d   1       2.020  -0.356   0.806  0.00  0.00    -0.080 A 
ATOM      4  C3  UNL d   1       1.100  -0.406   1.850  0.00  0.00     0.150 A 
ATOM      5  C4  UNL d   1      -0.260  -0.244   1.611  0.00  0.00    -0.007 A 
ATOM      6  C5  UNL d   1      -0.711  -0.025   0.310  0.00  0.00     0.039 A 
ENDROOT
BRANCH   4   7
ATOM      7  O   UNL d   1       1.496  -0.612   3.139  0.00  0.00    -0.526 OA
ATOM      8  H5  UNL d   1       2.465  -0.677   3.156  0.00  0.00     0.418 HD
ENDBRANCH   4   7
TORSDOF 1
ENDMDL
