MODEL 1
REMARK minimizedAffinity -3.14597106
REMARK minimizedRMSD -1
REMARK  1 active torsions:
REMARK  status: ('A' for Active; 'I' for Inactive)
REMARK    1  A    between atoms: C3_4  and  O_7 
ROOT
ATOM      1  C   UNL d   1       1.850  -0.833   1.193  0.00  0.00    -0.033 A 
ATOM      2  C1  UNL d   1       2.120  -0.804  -0.176  0.00  0.00     0.039 A 
ATOM      3  C2  UNL d   1       1.139  -0.379  -1.074  0.00  0.00    -0.080 A 
ATOM      4  C3  UNL d   1      -0.106   0.015  -0.591  0.00  0.00     0.150 A 
ATOM      5  C4  UNL d   1      -0.380  -0.007   0.773  0.00  0.00    -0.007 A 
ATOM      6  C5  UNL d   1       0.600  -0.433   1.668  0.00  0.00     0.039 A 
ENDROOT
BRANCH   4   7
ATOM      7  O   UNL d   1      -1.096   0.433  -1.429  0.00  0.00    -0.526 OA
ATOM      8  H5  UNL d   1      -0.773   0.369  -2.343  0.00  0.00     0.418 HD
ENDBRANCH   4   7
TORSDOF 1
ENDMDL
