MODEL 1
REMARK minimizedAffinity -2.48678589
REMARK minimizedRMSD -1
REMARK  1 active torsions:
REMARK  status: ('A' for Active; 'I' for Inactive)
REMARK    1  A    between atoms: C3_4  and  O_7 
ROOT
ATOM      1  C   UNL d   1      -0.141   0.339   0.561  0.00  0.00    -0.033 A 
ATOM      2  C1  UNL d   1       1.159  -0.099   0.822  0.00  0.00     0.039 A 
ATOM      3  C2  UNL d   1       1.961  -0.569  -0.220  0.00  0.00    -0.080 A 
ATOM      4  C3  UNL d   1       1.452  -0.595  -1.515  0.00  0.00     0.150 A 
ATOM      5  C4  UNL d   1       0.160  -0.157  -1.783  0.00  0.00    -0.007 A 
ATOM      6  C5  UNL d   1      -0.640   0.311  -0.741  0.00  0.00     0.039 A 
ENDROOT
BRANCH   4   7
ATOM      7  O   UNL d   1       2.196  -1.050  -2.564  0.00  0.00    -0.526 OA
ATOM      8  H5  UNL d   1       3.057  -1.346  -2.224  0.00  0.00     0.418 HD
ENDBRANCH   4   7
TORSDOF 1
ENDMDL
