MODEL 1
REMARK minimizedAffinity -3.27639222
REMARK minimizedRMSD -1
REMARK  1 active torsions:
REMARK  status: ('A' for Active; 'I' for Inactive)
REMARK    1  A    between atoms: C3_4  and  O_7 
ROOT
ATOM      1  C   UNL d   1       1.891  -0.712   0.525  0.00  0.00    -0.033 A 
ATOM      2  C1  UNL d   1       0.859   0.089   1.020  0.00  0.00     0.039 A 
ATOM      3  C2  UNL d   1      -0.151   0.535   0.165  0.00  0.00    -0.080 A 
ATOM      4  C3  UNL d   1      -0.118   0.174  -1.179  0.00  0.00     0.150 A 
ATOM      5  C4  UNL d   1       0.904  -0.627  -1.677  0.00  0.00    -0.007 A 
ATOM      6  C5  UNL d   1       1.913  -1.071  -0.823  0.00  0.00     0.039 A 
ENDROOT
BRANCH   4   7
ATOM      7  O   UNL d   1      -1.079   0.589  -2.052  0.00  0.00    -0.526 OA
ATOM      8  H5  UNL d   1      -1.705   1.158  -1.573  0.00  0.00     0.418 HD
ENDBRANCH   4   7
TORSDOF 1
ENDMDL
