MODEL 1
REMARK minimizedAffinity -3.72178936
REMARK minimizedRMSD -1
REMARK  1 active torsions:
REMARK  status: ('A' for Active; 'I' for Inactive)
REMARK    1  A    between atoms: C3_4  and  O_7 
ROOT
ATOM      1  C   UNL d   1      -0.020  -0.025  -1.833  0.00  0.00    -0.033 A 
ATOM      2  C1  UNL d   1      -0.754   0.516  -0.776  0.00  0.00     0.039 A 
ATOM      3  C2  UNL d   1      -0.228   0.508   0.517  0.00  0.00    -0.080 A 
ATOM      4  C3  UNL d   1       1.032  -0.042   0.739  0.00  0.00     0.150 A 
ATOM      5  C4  UNL d   1       1.770  -0.579  -0.310  0.00  0.00    -0.007 A 
ATOM      6  C5  UNL d   1       1.242  -0.571  -1.601  0.00  0.00     0.039 A 
ENDROOT
BRANCH   4   7
ATOM      7  O   UNL d   1       1.585  -0.077   1.985  0.00  0.00    -0.526 OA
ATOM      8  H5  UNL d   1       0.949   0.303   2.614  0.00  0.00     0.418 HD
ENDBRANCH   4   7
TORSDOF 1
ENDMDL
