MODEL 1
REMARK minimizedAffinity -5.39141893
REMARK minimizedRMSD -1
REMARK  1 active torsions:
REMARK  status: ('A' for Active; 'I' for Inactive)
REMARK    1  A    between atoms: C3_4  and  O_7 
ROOT
ATOM      1  C   UNL d   1      -0.915  -0.031  -0.063  0.00  0.00    -0.033 A 
ATOM      2  C1  UNL d   1       0.467  -0.053  -0.256  0.00  0.00     0.039 A 
ATOM      3  C2  UNL d   1       1.319  -0.329   0.816  0.00  0.00    -0.080 A 
ATOM      4  C3  UNL d   1       0.777  -0.582   2.072  0.00  0.00     0.150 A 
ATOM      5  C4  UNL d   1      -0.600  -0.565   2.271  0.00  0.00    -0.007 A 
ATOM      6  C5  UNL d   1      -1.449  -0.288   1.200  0.00  0.00     0.039 A 
ENDROOT
BRANCH   4   7
ATOM      7  O   UNL d   1       1.568  -0.851   3.149  0.00  0.00    -0.526 OA
ATOM      8  H5  UNL d   1       2.497  -0.801   2.869  0.00  0.00     0.418 HD
ENDBRANCH   4   7
TORSDOF 1
ENDMDL
