MODEL 1
REMARK minimizedAffinity 6.80417013
REMARK minimizedRMSD -1
REMARK  1 active torsions:
REMARK  status: ('A' for Active; 'I' for Inactive)
REMARK    1  A    between atoms: C1_2  and  C2_3 
ROOT
ATOM      1  C2  UNL d   1      -2.788  -2.768  -2.525  0.00  0.00    -0.076 A 
ATOM      2  C3  UNL d   1      -3.589  -2.453  -1.413  0.00  0.00     0.004 A 
ATOM      3  C4  UNL d   1      -3.862  -3.406  -0.433  0.00  0.00    -0.003 A 
ATOM      4  C5  UNL d   1      -3.338  -4.689  -0.548  0.00  0.00     0.000 A 
ATOM      5  C6  UNL d   1      -2.526  -5.013  -1.635  0.00  0.00     0.000 A 
ATOM      6  C7  UNL d   1      -2.228  -4.060  -2.624  0.00  0.00    -0.073 A 
ATOM      7  C8  UNL d   1      -1.353  -4.466  -3.778  0.00  0.00     0.078 C 
ENDROOT
BRANCH   1   8
ATOM      8  C1  UNL d   1      -2.548  -1.702  -3.570  0.00  0.00     0.053 C 
ATOM      9  C   UNL d   1      -2.295  -0.332  -2.958  0.00  0.00     0.018 C 
ENDBRANCH   1   8
TORSDOF 1
ENDMDL
