MODEL 1
REMARK minimizedAffinity 1.4948107
REMARK minimizedRMSD -1
REMARK  1 active torsions:
REMARK  status: ('A' for Active; 'I' for Inactive)
REMARK    1  A    between atoms: C1_2  and  C2_3 
ROOT
ATOM      1  C2  UNL d   1      -2.429   1.187   0.364  0.00  0.00    -0.076 A 
ATOM      2  C3  UNL d   1      -3.248   0.285   1.065  0.00  0.00     0.004 A 
ATOM      3  C4  UNL d   1      -4.566   0.610   1.383  0.00  0.00    -0.003 A 
ATOM      4  C5  UNL d   1      -5.086   1.842   1.005  0.00  0.00     0.000 A 
ATOM      5  C6  UNL d   1      -4.293   2.743   0.293  0.00  0.00     0.000 A 
ATOM      6  C7  UNL d   1      -2.968   2.424  -0.049  0.00  0.00    -0.073 A 
ATOM      7  C8  UNL d   1      -2.157   3.435  -0.812  0.00  0.00     0.078 C 
ENDROOT
BRANCH   1   8
ATOM      8  C1  UNL d   1      -1.000   0.790   0.072  0.00  0.00     0.053 C 
ATOM      9  C   UNL d   1      -0.207   0.494   1.335  0.00  0.00     0.018 C 
ENDBRANCH   1   8
TORSDOF 1
ENDMDL
