MODEL 1
REMARK minimizedAffinity 1.60918903
REMARK minimizedRMSD -1
REMARK  1 active torsions:
REMARK  status: ('A' for Active; 'I' for Inactive)
REMARK    1  A    between atoms: C1_2  and  C2_3 
ROOT
ATOM      1  C2  UNL d   1      -3.724   1.667   0.518  0.00  0.00    -0.076 A 
ATOM      2  C3  UNL d   1      -3.039   2.657  -0.207  0.00  0.00     0.004 A 
ATOM      3  C4  UNL d   1      -1.667   2.844  -0.048  0.00  0.00    -0.003 A 
ATOM      4  C5  UNL d   1      -0.957   2.042   0.840  0.00  0.00     0.000 A 
ATOM      5  C6  UNL d   1      -1.617   1.043   1.554  0.00  0.00     0.000 A 
ATOM      6  C7  UNL d   1      -2.997   0.831   1.393  0.00  0.00    -0.073 A 
ATOM      7  C8  UNL d   1      -3.659  -0.257   2.193  0.00  0.00     0.078 C 
ENDROOT
BRANCH   1   8
ATOM      8  C1  UNL d   1      -5.217   1.528   0.323  0.00  0.00     0.053 C 
ATOM      9  C   UNL d   1      -6.000   2.633   1.017  0.00  0.00     0.018 C 
ENDBRANCH   1   8
TORSDOF 1
ENDMDL
