MODEL 1
REMARK minimizedAffinity -3.06268382
REMARK minimizedRMSD -1
REMARK  1 active torsions:
REMARK  status: ('A' for Active; 'I' for Inactive)
REMARK    1  A    between atoms: C1_2  and  C2_3 
ROOT
ATOM      1  C2  UNL d   1      -2.059  -0.028   0.699  0.00  0.00    -0.076 A 
ATOM      2  C3  UNL d   1      -3.453   0.125   0.785  0.00  0.00     0.004 A 
ATOM      3  C4  UNL d   1      -4.050   1.374   0.618  0.00  0.00    -0.003 A 
ATOM      4  C5  UNL d   1      -3.261   2.490   0.362  0.00  0.00     0.000 A 
ATOM      5  C6  UNL d   1      -1.878   2.354   0.256  0.00  0.00     0.000 A 
ATOM      6  C7  UNL d   1      -1.262   1.099   0.405  0.00  0.00    -0.073 A 
ATOM      7  C8  UNL d   1       0.235   1.011   0.287  0.00  0.00     0.078 C 
ENDROOT
BRANCH   1   8
ATOM      8  C1  UNL d   1      -1.466  -1.402   0.917  0.00  0.00     0.053 C 
ATOM      9  C   UNL d   1      -0.774  -1.532   2.265  0.00  0.00     0.018 C 
ENDBRANCH   1   8
TORSDOF 1
ENDMDL
