MODEL 1
REMARK minimizedAffinity 0.0849516019
REMARK minimizedRMSD -1
REMARK  1 active torsions:
REMARK  status: ('A' for Active; 'I' for Inactive)
REMARK    1  A    between atoms: C1_2  and  C2_3 
ROOT
ATOM      1  C2  UNL d   1      -2.794   1.317   0.588  0.00  0.00    -0.076 A 
ATOM      2  C3  UNL d   1      -2.273   2.568   0.962  0.00  0.00     0.004 A 
ATOM      3  C4  UNL d   1      -0.912   2.733   1.210  0.00  0.00    -0.003 A 
ATOM      4  C5  UNL d   1      -0.048   1.651   1.087  0.00  0.00     0.000 A 
ATOM      5  C6  UNL d   1      -0.544   0.407   0.699  0.00  0.00     0.000 A 
ATOM      6  C7  UNL d   1      -1.912   0.226   0.430  0.00  0.00    -0.073 A 
ATOM      7  C8  UNL d   1      -2.393  -1.139   0.021  0.00  0.00     0.078 C 
ENDROOT
BRANCH   1   8
ATOM      8  C1  UNL d   1      -4.283   1.191   0.359  0.00  0.00     0.053 C 
ATOM      9  C   UNL d   1      -5.050   0.927   1.645  0.00  0.00     0.018 C 
ENDBRANCH   1   8
TORSDOF 1
ENDMDL
