MODEL 1
REMARK minimizedAffinity -2.62616062
REMARK minimizedRMSD -1
REMARK  1 active torsions:
REMARK  status: ('A' for Active; 'I' for Inactive)
REMARK    1  A    between atoms: C1_2  and  C2_3 
ROOT
ATOM      1  C2  UNL d   1      -0.293   1.409   1.204  0.00  0.00    -0.076 A 
ATOM      2  C3  UNL d   1      -1.032   0.411   1.862  0.00  0.00     0.004 A 
ATOM      3  C4  UNL d   1      -2.379   0.204   1.568  0.00  0.00    -0.003 A 
ATOM      4  C5  UNL d   1      -3.008   0.992   0.610  0.00  0.00     0.000 A 
ATOM      5  C6  UNL d   1      -2.285   1.975  -0.065  0.00  0.00     0.000 A 
ATOM      6  C7  UNL d   1      -0.923   2.185   0.208  0.00  0.00    -0.073 A 
ATOM      7  C8  UNL d   1      -0.193   3.263  -0.546  0.00  0.00     0.078 C 
ENDROOT
BRANCH   1   8
ATOM      8  C1  UNL d   1       1.157   1.606   1.585  0.00  0.00     0.053 C 
ATOM      9  C   UNL d   1       2.099   0.753   0.749  0.00  0.00     0.018 C 
ENDBRANCH   1   8
TORSDOF 1
ENDMDL
