MODEL 1
REMARK minimizedAffinity -3.16888666
REMARK minimizedRMSD -1
REMARK  1 active torsions:
REMARK  status: ('A' for Active; 'I' for Inactive)
REMARK    1  A    between atoms: C1_2  and  C2_3 
ROOT
ATOM      1  C2  UNL d   1      -2.905   1.713   0.613  0.00  0.00    -0.076 A 
ATOM      2  C3  UNL d   1      -2.537   2.836  -0.149  0.00  0.00     0.004 A 
ATOM      3  C4  UNL d   1      -1.206   3.062  -0.497  0.00  0.00    -0.003 A 
ATOM      4  C5  UNL d   1      -0.222   2.169  -0.090  0.00  0.00     0.000 A 
ATOM      5  C6  UNL d   1      -0.571   1.040   0.652  0.00  0.00     0.000 A 
ATOM      6  C7  UNL d   1      -1.910   0.789   0.997  0.00  0.00    -0.073 A 
ATOM      7  C8  UNL d   1      -2.228  -0.440   1.804  0.00  0.00     0.078 C 
ENDROOT
BRANCH   1   8
ATOM      8  C1  UNL d   1      -4.360   1.534   0.984  0.00  0.00     0.053 C 
ATOM      9  C   UNL d   1      -5.172   2.805   0.785  0.00  0.00     0.018 C 
ENDBRANCH   1   8
TORSDOF 1
ENDMDL
