MODEL 1
REMARK minimizedAffinity 5.00526619
REMARK minimizedRMSD -1
REMARK  1 active torsions:
REMARK  status: ('A' for Active; 'I' for Inactive)
REMARK    1  A    between atoms: C1_2  and  C2_3 
ROOT
ATOM      1  C2  UNL d   1      -2.036   2.010   1.006  0.00  0.00    -0.076 A 
ATOM      2  C3  UNL d   1      -2.470   0.976   1.853  0.00  0.00     0.004 A 
ATOM      3  C4  UNL d   1      -1.627  -0.085   2.179  0.00  0.00    -0.003 A 
ATOM      4  C5  UNL d   1      -0.337  -0.130   1.663  0.00  0.00     0.000 A 
ATOM      5  C6  UNL d   1       0.116   0.897   0.835  0.00  0.00     0.000 A 
ATOM      6  C7  UNL d   1      -0.715   1.982   0.509  0.00  0.00    -0.073 A 
ATOM      7  C8  UNL d   1      -0.177   3.058  -0.393  0.00  0.00     0.078 C 
ENDROOT
BRANCH   1   8
ATOM      8  C1  UNL d   1      -3.003   3.122   0.665  0.00  0.00     0.053 C 
ATOM      9  C   UNL d   1      -4.439   2.776   1.028  0.00  0.00     0.018 C 
ENDBRANCH   1   8
TORSDOF 1
ENDMDL
