MODEL 1
REMARK minimizedAffinity 7.2293911
REMARK minimizedRMSD -1
REMARK  1 active torsions:
REMARK  status: ('A' for Active; 'I' for Inactive)
REMARK    1  A    between atoms: C1_2  and  C2_3 
ROOT
ATOM      1  C2  UNL d   1       3.791  -2.177  -0.370  0.00  0.00    -0.076 A 
ATOM      2  C3  UNL d   1       3.841  -3.462  -0.937  0.00  0.00     0.004 A 
ATOM      3  C4  UNL d   1       3.049  -4.497  -0.442  0.00  0.00    -0.003 A 
ATOM      4  C5  UNL d   1       2.194  -4.263   0.629  0.00  0.00     0.000 A 
ATOM      5  C6  UNL d   1       2.118  -2.990   1.193  0.00  0.00     0.000 A 
ATOM      6  C7  UNL d   1       2.898  -1.932   0.695  0.00  0.00    -0.073 A 
ATOM      7  C8  UNL d   1       2.781  -0.580   1.345  0.00  0.00     0.078 C 
ENDROOT
BRANCH   1   8
ATOM      8  C1  UNL d   1       4.693  -1.102  -0.932  0.00  0.00     0.053 C 
ATOM      9  C   UNL d   1       3.968  -0.179  -1.898  0.00  0.00     0.018 C 
ENDBRANCH   1   8
TORSDOF 1
ENDMDL
