MODEL 1
REMARK minimizedAffinity -1.37839329
REMARK minimizedRMSD -1
REMARK  1 active torsions:
REMARK  status: ('A' for Active; 'I' for Inactive)
REMARK    1  A    between atoms: C1_2  and  C2_3 
ROOT
ATOM      1  C2  UNL d   1       1.672   1.394   0.971  0.00  0.00    -0.076 A 
ATOM      2  C3  UNL d   1       2.511   1.242   2.089  0.00  0.00     0.004 A 
ATOM      3  C4  UNL d   1       2.022   1.417   3.382  0.00  0.00    -0.003 A 
ATOM      4  C5  UNL d   1       0.685   1.745   3.579  0.00  0.00     0.000 A 
ATOM      5  C6  UNL d   1      -0.166   1.882   2.482  0.00  0.00     0.000 A 
ATOM      6  C7  UNL d   1       0.308   1.694   1.173  0.00  0.00    -0.073 A 
ATOM      7  C8  UNL d   1      -0.652   1.861   0.027  0.00  0.00     0.078 C 
ENDROOT
BRANCH   1   8
ATOM      8  C1  UNL d   1       2.266   1.220  -0.409  0.00  0.00     0.053 C 
ATOM      9  C   UNL d   1       3.537   0.385  -0.395  0.00  0.00     0.018 C 
ENDBRANCH   1   8
TORSDOF 1
ENDMDL
