MODEL 1
REMARK minimizedAffinity -0.159373164
REMARK minimizedRMSD -1
REMARK  1 active torsions:
REMARK  status: ('A' for Active; 'I' for Inactive)
REMARK    1  A    between atoms: C1_2  and  C2_3 
ROOT
ATOM      1  C2  UNL d   1      -3.522   1.875   0.522  0.00  0.00    -0.076 A 
ATOM      2  C3  UNL d   1      -2.985   3.110   0.117  0.00  0.00     0.004 A 
ATOM      3  C4  UNL d   1      -1.611   3.275  -0.046  0.00  0.00    -0.003 A 
ATOM      4  C5  UNL d   1      -0.751   2.208   0.192  0.00  0.00     0.000 A 
ATOM      5  C6  UNL d   1      -1.268   0.972   0.577  0.00  0.00     0.000 A 
ATOM      6  C7  UNL d   1      -2.653   0.784   0.730  0.00  0.00    -0.073 A 
ATOM      7  C8  UNL d   1      -3.155  -0.570   1.153  0.00  0.00     0.078 C 
ENDROOT
BRANCH   1   8
ATOM      8  C1  UNL d   1      -5.019   1.763   0.708  0.00  0.00     0.053 C 
ATOM      9  C   UNL d   1      -5.696   3.121   0.815  0.00  0.00     0.018 C 
ENDBRANCH   1   8
TORSDOF 1
ENDMDL
