MODEL 1
REMARK minimizedAffinity -3.29902911
REMARK minimizedRMSD -1
REMARK  1 active torsions:
REMARK  status: ('A' for Active; 'I' for Inactive)
REMARK    1  A    between atoms: C1_2  and  C2_3 
ROOT
ATOM      1  C2  UNL d   1      -3.228   1.352   0.563  0.00  0.00    -0.076 A 
ATOM      2  C3  UNL d   1      -2.746   2.509  -0.074  0.00  0.00     0.004 A 
ATOM      3  C4  UNL d   1      -1.389   2.661  -0.356  0.00  0.00    -0.003 A 
ATOM      4  C5  UNL d   1      -0.492   1.657  -0.007  0.00  0.00     0.000 A 
ATOM      5  C6  UNL d   1      -0.955   0.495   0.610  0.00  0.00     0.000 A 
ATOM      6  C7  UNL d   1      -2.322   0.319   0.887  0.00  0.00    -0.073 A 
ATOM      7  C8  UNL d   1      -2.765  -0.952   1.558  0.00  0.00     0.078 C 
ENDROOT
BRANCH   1   8
ATOM      8  C1  UNL d   1      -4.705   1.256   0.869  0.00  0.00     0.053 C 
ATOM      9  C   UNL d   1      -5.457   2.532   0.522  0.00  0.00     0.018 C 
ENDBRANCH   1   8
TORSDOF 1
ENDMDL
