MODEL 1
REMARK minimizedAffinity -2.7609024
REMARK minimizedRMSD -1
REMARK  1 active torsions:
REMARK  status: ('A' for Active; 'I' for Inactive)
REMARK    1  A    between atoms: C1_2  and  C2_3 
ROOT
ATOM      1  C2  UNL d   1      -2.411   0.868   0.719  0.00  0.00    -0.076 A 
ATOM      2  C3  UNL d   1      -1.541   0.302   1.667  0.00  0.00     0.004 A 
ATOM      3  C4  UNL d   1      -0.165   0.516   1.595  0.00  0.00    -0.003 A 
ATOM      4  C5  UNL d   1       0.362   1.300   0.575  0.00  0.00     0.000 A 
ATOM      5  C6  UNL d   1      -0.489   1.884  -0.364  0.00  0.00     0.000 A 
ATOM      6  C7  UNL d   1      -1.879   1.691  -0.296  0.00  0.00    -0.073 A 
ATOM      7  C8  UNL d   1      -2.749   2.339  -1.338  0.00  0.00     0.078 C 
ENDROOT
BRANCH   1   8
ATOM      8  C1  UNL d   1      -3.891   0.579   0.832  0.00  0.00     0.053 C 
ATOM      9  C   UNL d   1      -4.744   1.824   0.648  0.00  0.00     0.018 C 
ENDBRANCH   1   8
TORSDOF 1
ENDMDL
