MODEL 1
REMARK minimizedAffinity 4.15838623
REMARK minimizedRMSD -1
REMARK  1 active torsions:
REMARK  status: ('A' for Active; 'I' for Inactive)
REMARK    1  A    between atoms: C1_2  and  C2_3 
ROOT
ATOM      1  C2  UNL d   1      -1.034   2.156   1.064  0.00  0.00    -0.076 A 
ATOM      2  C3  UNL d   1      -1.276   2.406   2.427  0.00  0.00     0.004 A 
ATOM      3  C4  UNL d   1      -0.534   1.762   3.416  0.00  0.00    -0.003 A 
ATOM      4  C5  UNL d   1       0.462   0.860   3.059  0.00  0.00     0.000 A 
ATOM      5  C6  UNL d   1       0.727   0.614   1.712  0.00  0.00     0.000 A 
ATOM      6  C7  UNL d   1      -0.001   1.266   0.702  0.00  0.00    -0.073 A 
ATOM      7  C8  UNL d   1       0.323   0.959  -0.734  0.00  0.00     0.078 C 
ENDROOT
BRANCH   1   8
ATOM      8  C1  UNL d   1      -1.889   2.863   0.036  0.00  0.00     0.053 C 
ATOM      9  C   UNL d   1      -3.356   2.915   0.434  0.00  0.00     0.018 C 
ENDBRANCH   1   8
TORSDOF 1
ENDMDL
