MODEL 1
REMARK minimizedAffinity -1.25112629
REMARK minimizedRMSD -1
REMARK  1 active torsions:
REMARK  status: ('A' for Active; 'I' for Inactive)
REMARK    1  A    between atoms: C1_2  and  C2_3 
ROOT
ATOM      1  C2  UNL d   1      -2.918   1.632   1.135  0.00  0.00    -0.076 A 
ATOM      2  C3  UNL d   1      -3.459   0.457   1.686  0.00  0.00     0.004 A 
ATOM      3  C4  UNL d   1      -2.646  -0.633   1.991  0.00  0.00    -0.003 A 
ATOM      4  C5  UNL d   1      -1.278  -0.566   1.750  0.00  0.00     0.000 A 
ATOM      5  C6  UNL d   1      -0.722   0.598   1.220  0.00  0.00     0.000 A 
ATOM      6  C7  UNL d   1      -1.525   1.712   0.922  0.00  0.00    -0.073 A 
ATOM      7  C8  UNL d   1      -0.873   2.939   0.347  0.00  0.00     0.078 C 
ENDROOT
BRANCH   1   8
ATOM      8  C1  UNL d   1      -3.853   2.772   0.799  0.00  0.00     0.053 C 
ATOM      9  C   UNL d   1      -5.317   2.390   0.957  0.00  0.00     0.018 C 
ENDBRANCH   1   8
TORSDOF 1
ENDMDL
