MODEL 1
REMARK minimizedAffinity -0.744841456
REMARK minimizedRMSD -1
REMARK  1 active torsions:
REMARK  status: ('A' for Active; 'I' for Inactive)
REMARK    1  A    between atoms: C1_2  and  C2_3 
ROOT
ATOM      1  C2  UNL d   1       0.748   0.922   0.760  0.00  0.00    -0.076 A 
ATOM      2  C3  UNL d   1       1.012   2.149   0.129  0.00  0.00     0.004 A 
ATOM      3  C4  UNL d   1       0.022   3.123   0.009  0.00  0.00    -0.003 A 
ATOM      4  C5  UNL d   1      -1.250   2.884   0.519  0.00  0.00     0.000 A 
ATOM      5  C6  UNL d   1      -1.525   1.679   1.164  0.00  0.00     0.000 A 
ATOM      6  C7  UNL d   1      -0.533   0.694   1.308  0.00  0.00    -0.073 A 
ATOM      7  C8  UNL d   1      -0.887  -0.590   2.008  0.00  0.00     0.078 C 
ENDROOT
BRANCH   1   8
ATOM      8  C1  UNL d   1       1.853  -0.107   0.837  0.00  0.00     0.053 C 
ATOM      9  C   UNL d   1       2.960   0.298   1.799  0.00  0.00     0.018 C 
ENDBRANCH   1   8
TORSDOF 1
ENDMDL
