MODEL 1
REMARK minimizedAffinity -0.89705646
REMARK minimizedRMSD -1
REMARK  1 active torsions:
REMARK  status: ('A' for Active; 'I' for Inactive)
REMARK    1  A    between atoms: C1_2  and  C2_3 
ROOT
ATOM      1  C2  UNL d   1      -2.647   1.592   0.055  0.00  0.00    -0.076 A 
ATOM      2  C3  UNL d   1      -1.686   2.609  -0.076  0.00  0.00     0.004 A 
ATOM      3  C4  UNL d   1      -0.384   2.431   0.387  0.00  0.00    -0.003 A 
ATOM      4  C5  UNL d   1      -0.022   1.231   0.990  0.00  0.00     0.000 A 
ATOM      5  C6  UNL d   1      -0.957   0.204   1.114  0.00  0.00     0.000 A 
ATOM      6  C7  UNL d   1      -2.270   0.362   0.637  0.00  0.00    -0.073 A 
ATOM      7  C8  UNL d   1      -3.239  -0.776   0.801  0.00  0.00     0.078 C 
ENDROOT
BRANCH   1   8
ATOM      8  C1  UNL d   1      -4.051   1.852  -0.442  0.00  0.00     0.053 C 
ATOM      9  C   UNL d   1      -5.066   1.923   0.689  0.00  0.00     0.018 C 
ENDBRANCH   1   8
TORSDOF 1
ENDMDL
