MODEL 1
REMARK minimizedAffinity -3.10560846
REMARK minimizedRMSD -1
REMARK  1 active torsions:
REMARK  status: ('A' for Active; 'I' for Inactive)
REMARK    1  A    between atoms: N_2  and  C1_3 
ROOT
ATOM      1  C1  UNL d   1      -0.976  -0.285  -1.669  0.00  0.00     0.143 A 
ATOM      2  C2  UNL d   1      -0.163  -1.361  -1.297  0.00  0.00    -0.057 A 
ATOM      3  C3  UNL d   1       1.038  -1.158  -0.607  0.00  0.00     0.033 A 
ATOM      4  C4  UNL d   1       1.463   0.131  -0.301  0.00  0.00    -0.042 A 
ATOM      5  C5  UNL d   1       0.683   1.216  -0.683  0.00  0.00     0.033 A 
ATOM      6  C6  UNL d   1      -0.519   1.007  -1.366  0.00  0.00    -0.057 A 
ENDROOT
BRANCH   1   7
ATOM      7  N   UNL d   1      -2.132  -0.415  -2.443  0.00  0.00    -0.732 N 
ATOM      8  C   UNL d   1      -2.233  -1.451  -3.448  0.00  0.00     0.284 C 
ATOM      9  H3  UNL d   1      -2.981  -0.279  -1.899  0.00  0.00     0.395 HD
ENDBRANCH   1   7
TORSDOF 1
ENDMDL
