MODEL 1
REMARK minimizedAffinity 6.74224615
REMARK minimizedRMSD -1
REMARK  1 active torsions:
REMARK  status: ('A' for Active; 'I' for Inactive)
REMARK    1  A    between atoms: N_2  and  C1_3 
ROOT
ATOM      1  C1  UNL d   1       3.493   4.577  -4.838  0.00  0.00     0.143 A 
ATOM      2  C2  UNL d   1       2.795   3.569  -4.165  0.00  0.00    -0.057 A 
ATOM      3  C3  UNL d   1       3.458   2.454  -3.639  0.00  0.00     0.033 A 
ATOM      4  C4  UNL d   1       4.832   2.314  -3.801  0.00  0.00    -0.042 A 
ATOM      5  C5  UNL d   1       5.543   3.292  -4.488  0.00  0.00     0.033 A 
ATOM      6  C6  UNL d   1       4.876   4.406  -5.006  0.00  0.00    -0.057 A 
ENDROOT
BRANCH   1   7
ATOM      7  N   UNL d   1       2.877   5.661  -5.470  0.00  0.00    -0.732 N 
ATOM      8  C   UNL d   1       1.479   5.602  -5.838  0.00  0.00     0.284 C 
ATOM      9  H3  UNL d   1       3.167   6.554  -5.079  0.00  0.00     0.395 HD
ENDBRANCH   1   7
TORSDOF 1
ENDMDL
