MODEL 1
REMARK minimizedAffinity -0.847773314
REMARK minimizedRMSD -1
REMARK  1 active torsions:
REMARK  status: ('A' for Active; 'I' for Inactive)
REMARK    1  A    between atoms: N_2  and  C1_3 
ROOT
ATOM      1  C1  UNL d   1       1.682   5.994  -5.076  0.00  0.00     0.143 A 
ATOM      2  C2  UNL d   1       0.474   5.946  -5.781  0.00  0.00    -0.057 A 
ATOM      3  C3  UNL d   1      -0.757   5.953  -5.114  0.00  0.00     0.033 A 
ATOM      4  C4  UNL d   1      -0.801   5.978  -3.724  0.00  0.00    -0.042 A 
ATOM      5  C5  UNL d   1       0.387   6.000  -3.002  0.00  0.00     0.033 A 
ATOM      6  C6  UNL d   1       1.613   6.000  -3.674  0.00  0.00    -0.057 A 
ENDROOT
BRANCH   1   7
ATOM      7  N   UNL d   1       2.938   5.890  -5.678  0.00  0.00    -0.732 N 
ATOM      8  C   UNL d   1       4.145   5.973  -4.884  0.00  0.00     0.284 C 
ATOM      9  H3  UNL d   1       2.965   5.175  -6.401  0.00  0.00     0.395 HD
ENDBRANCH   1   7
TORSDOF 1
ENDMDL
