MODEL 1
REMARK minimizedAffinity -2.99083996
REMARK minimizedRMSD -1
REMARK  1 active torsions:
REMARK  status: ('A' for Active; 'I' for Inactive)
REMARK    1  A    between atoms: N_2  and  C1_3 
ROOT
ATOM      1  C1  UNL d   1      -0.879   6.000  -4.384  0.00  0.00     0.143 A 
ATOM      2  C2  UNL d   1      -2.270   5.974  -4.245  0.00  0.00    -0.057 A 
ATOM      3  C3  UNL d   1      -2.874   5.989  -2.982  0.00  0.00     0.033 A 
ATOM      4  C4  UNL d   1      -2.093   6.000  -1.831  0.00  0.00    -0.042 A 
ATOM      5  C5  UNL d   1      -0.707   6.000  -1.945  0.00  0.00     0.033 A 
ATOM      6  C6  UNL d   1      -0.110   5.992  -3.209  0.00  0.00    -0.057 A 
ENDROOT
BRANCH   1   7
ATOM      7  N   UNL d   1      -0.217   5.887  -5.609  0.00  0.00    -0.732 N 
ATOM      8  C   UNL d   1       1.200   5.599  -5.659  0.00  0.00     0.284 C 
ATOM      9  H3  UNL d   1      -0.768   5.387  -6.303  0.00  0.00     0.395 HD
ENDBRANCH   1   7
TORSDOF 1
ENDMDL
