MODEL 1
REMARK minimizedAffinity 3.8904438
REMARK minimizedRMSD -1
REMARK  1 active torsions:
REMARK  status: ('A' for Active; 'I' for Inactive)
REMARK    1  A    between atoms: N_2  and  C1_3 
ROOT
ATOM      1  C1  UNL d   1       1.888   0.887   1.259  0.00  0.00     0.143 A 
ATOM      2  C2  UNL d   1       1.924   1.513   0.008  0.00  0.00    -0.057 A 
ATOM      3  C3  UNL d   1       0.858   1.398  -0.892  0.00  0.00     0.033 A 
ATOM      4  C4  UNL d   1      -0.254   0.628  -0.569  0.00  0.00    -0.042 A 
ATOM      5  C5  UNL d   1      -0.301  -0.024   0.659  0.00  0.00     0.033 A 
ATOM      6  C6  UNL d   1       0.764   0.100   1.557  0.00  0.00    -0.057 A 
ENDROOT
BRANCH   1   7
ATOM      7  N   UNL d   1       2.957   0.882   2.158  0.00  0.00    -0.732 N 
ATOM      8  C   UNL d   1       4.300   1.182   1.708  0.00  0.00     0.284 C 
ATOM      9  H3  UNL d   1       2.715   1.302   3.052  0.00  0.00     0.395 HD
ENDBRANCH   1   7
TORSDOF 1
ENDMDL
