MODEL 1
REMARK minimizedAffinity 5.11719894
REMARK minimizedRMSD -1
REMARK  1 active torsions:
REMARK  status: ('A' for Active; 'I' for Inactive)
REMARK    1  A    between atoms: N_2  and  C1_3 
ROOT
ATOM      1  C1  UNL d   1      -0.355   0.434  -0.557  0.00  0.00     0.143 A 
ATOM      2  C2  UNL d   1      -0.088  -0.254   0.631  0.00  0.00    -0.057 A 
ATOM      3  C3  UNL d   1       0.908   0.181   1.515  0.00  0.00     0.033 A 
ATOM      4  C4  UNL d   1       1.675   1.300   1.210  0.00  0.00    -0.042 A 
ATOM      5  C5  UNL d   1       1.444   1.986   0.022  0.00  0.00     0.033 A 
ATOM      6  C6  UNL d   1       0.445   1.550  -0.853  0.00  0.00    -0.057 A 
ENDROOT
BRANCH   1   7
ATOM      7  N   UNL d   1      -1.263  -0.005  -1.523  0.00  0.00    -0.732 N 
ATOM      8  C   UNL d   1      -2.536  -0.573  -1.134  0.00  0.00     0.284 C 
ATOM      9  H3  UNL d   1      -1.315   0.623  -2.322  0.00  0.00     0.395 HD
ENDBRANCH   1   7
TORSDOF 1
ENDMDL
