MODEL 1
REMARK minimizedAffinity 4.89424181
REMARK minimizedRMSD -1
REMARK  1 active torsions:
REMARK  status: ('A' for Active; 'I' for Inactive)
REMARK    1  A    between atoms: N_2  and  C1_3 
ROOT
ATOM      1  C1  UNL d   1       0.834  -0.418   0.397  0.00  0.00     0.143 A 
ATOM      2  C2  UNL d   1       1.535   0.417   1.274  0.00  0.00    -0.057 A 
ATOM      3  C3  UNL d   1       2.014   1.666   0.860  0.00  0.00     0.033 A 
ATOM      4  C4  UNL d   1       1.826   2.090  -0.452  0.00  0.00    -0.042 A 
ATOM      5  C5  UNL d   1       1.154   1.265  -1.347  0.00  0.00     0.033 A 
ATOM      6  C6  UNL d   1       0.672   0.022  -0.926  0.00  0.00    -0.057 A 
ENDROOT
BRANCH   1   7
ATOM      7  N   UNL d   1       0.419  -1.712   0.721  0.00  0.00    -0.732 N 
ATOM      8  C   UNL d   1      -0.727  -1.925   1.578  0.00  0.00     0.284 C 
ATOM      9  H3  UNL d   1       0.467  -2.346  -0.074  0.00  0.00     0.395 HD
ENDBRANCH   1   7
TORSDOF 1
ENDMDL
