MODEL 1
REMARK minimizedAffinity -2.14362955
REMARK minimizedRMSD -1
REMARK  1 active torsions:
REMARK  status: ('A' for Active; 'I' for Inactive)
REMARK    1  A    between atoms: N_2  and  C1_3 
ROOT
ATOM      1  C1  UNL d   1       1.038   1.546   2.131  0.00  0.00     0.143 A 
ATOM      2  C2  UNL d   1       2.082   0.902   2.803  0.00  0.00    -0.057 A 
ATOM      3  C3  UNL d   1       3.418   1.105   2.435  0.00  0.00     0.033 A 
ATOM      4  C4  UNL d   1       3.731   1.937   1.365  0.00  0.00    -0.042 A 
ATOM      5  C5  UNL d   1       2.708   2.568   0.666  0.00  0.00     0.033 A 
ATOM      6  C6  UNL d   1       1.377   2.366   1.044  0.00  0.00    -0.057 A 
ENDROOT
BRANCH   1   7
ATOM      7  N   UNL d   1      -0.315   1.308   2.387  0.00  0.00    -0.732 N 
ATOM      8  C   UNL d   1      -1.100   0.485   1.492  0.00  0.00     0.284 C 
ATOM      9  H3  UNL d   1      -0.501   1.145   3.373  0.00  0.00     0.395 HD
ENDBRANCH   1   7
TORSDOF 1
ENDMDL
