MODEL 1
REMARK minimizedAffinity -3.50451374
REMARK minimizedRMSD -1
REMARK  1 active torsions:
REMARK  status: ('A' for Active; 'I' for Inactive)
REMARK    1  A    between atoms: N_2  and  C1_3 
ROOT
ATOM      1  C1  UNL d   1      -0.898   5.954  -4.545  0.00  0.00     0.143 A 
ATOM      2  C2  UNL d   1      -0.032   5.932  -3.446  0.00  0.00    -0.057 A 
ATOM      3  C3  UNL d   1       1.357   5.969  -3.616  0.00  0.00     0.033 A 
ATOM      4  C4  UNL d   1       1.908   6.000  -4.893  0.00  0.00    -0.042 A 
ATOM      5  C5  UNL d   1       1.067   5.998  -6.000  0.00  0.00     0.033 A 
ATOM      6  C6  UNL d   1      -0.320   5.967  -5.824  0.00  0.00    -0.057 A 
ENDROOT
BRANCH   1   7
ATOM      7  N   UNL d   1      -2.285   5.820  -4.445  0.00  0.00    -0.732 N 
ATOM      8  C   UNL d   1      -2.945   5.925  -3.161  0.00  0.00     0.284 C 
ATOM      9  H3  UNL d   1      -2.776   6.287  -5.204  0.00  0.00     0.395 HD
ENDBRANCH   1   7
TORSDOF 1
ENDMDL
