MODEL 1
REMARK minimizedAffinity 0.707104087
REMARK minimizedRMSD -1
REMARK  1 active torsions:
REMARK  status: ('A' for Active; 'I' for Inactive)
REMARK    1  A    between atoms: N_2  and  C1_3 
ROOT
ATOM      1  C1  UNL d   1      -1.325  -0.119   2.163  0.00  0.00     0.143 A 
ATOM      2  C2  UNL d   1      -1.080  -0.340   0.804  0.00  0.00    -0.057 A 
ATOM      3  C3  UNL d   1       0.010   0.255   0.156  0.00  0.00     0.033 A 
ATOM      4  C4  UNL d   1       0.860   1.107   0.852  0.00  0.00    -0.042 A 
ATOM      5  C5  UNL d   1       0.621   1.362   2.198  0.00  0.00     0.033 A 
ATOM      6  C6  UNL d   1      -0.465   0.759   2.841  0.00  0.00    -0.057 A 
ENDROOT
BRANCH   1   7
ATOM      7  N   UNL d   1      -2.447  -0.603   2.840  0.00  0.00    -0.732 N 
ATOM      8  C   UNL d   1      -2.324  -1.150   4.174  0.00  0.00     0.284 C 
ATOM      9  H3  UNL d   1      -3.265  -0.013   2.706  0.00  0.00     0.395 HD
ENDBRANCH   1   7
TORSDOF 1
ENDMDL
