MODEL 1
REMARK minimizedAffinity -0.923351645
REMARK minimizedRMSD -1
REMARK  1 active torsions:
REMARK  status: ('A' for Active; 'I' for Inactive)
REMARK    1  A    between atoms: N_2  and  C1_3 
ROOT
ATOM      1  C1  UNL d   1       0.805   5.778  -3.651  0.00  0.00     0.143 A 
ATOM      2  C2  UNL d   1       0.474   5.790  -5.010  0.00  0.00    -0.057 A 
ATOM      3  C3  UNL d   1       1.458   5.673  -5.999  0.00  0.00     0.033 A 
ATOM      4  C4  UNL d   1       2.799   5.571  -5.645  0.00  0.00    -0.042 A 
ATOM      5  C5  UNL d   1       3.154   5.582  -4.300  0.00  0.00     0.033 A 
ATOM      6  C6  UNL d   1       2.166   5.693  -3.318  0.00  0.00    -0.057 A 
ENDROOT
BRANCH   1   7
ATOM      7  N   UNL d   1      -0.118   5.990  -2.624  0.00  0.00    -0.732 N 
ATOM      8  C   UNL d   1      -1.538   5.999  -2.899  0.00  0.00     0.284 C 
ATOM      9  H3  UNL d   1       0.137   5.503  -1.767  0.00  0.00     0.395 HD
ENDBRANCH   1   7
TORSDOF 1
ENDMDL
