MODEL 1
REMARK minimizedAffinity -2.94054413
REMARK minimizedRMSD -1
REMARK  1 active torsions:
REMARK  status: ('A' for Active; 'I' for Inactive)
REMARK    1  A    between atoms: N_2  and  C1_3 
ROOT
ATOM      1  C1  UNL d   1      -0.405   6.000  -4.362  0.00  0.00     0.143 A 
ATOM      2  C2  UNL d   1      -1.790   5.948  -4.547  0.00  0.00    -0.057 A 
ATOM      3  C3  UNL d   1      -2.669   5.943  -3.457  0.00  0.00     0.033 A 
ATOM      4  C4  UNL d   1      -2.174   5.962  -2.157  0.00  0.00    -0.042 A 
ATOM      5  C5  UNL d   1      -0.800   5.989  -1.949  0.00  0.00     0.033 A 
ATOM      6  C6  UNL d   1       0.072   6.000  -3.042  0.00  0.00    -0.057 A 
ENDROOT
BRANCH   1   7
ATOM      7  N   UNL d   1       0.523   5.907  -5.402  0.00  0.00    -0.732 N 
ATOM      8  C   UNL d   1       1.942   6.000  -5.135  0.00  0.00     0.284 C 
ATOM      9  H3  UNL d   1       0.274   5.193  -6.082  0.00  0.00     0.395 HD
ENDBRANCH   1   7
TORSDOF 1
ENDMDL
