MODEL 1
REMARK minimizedAffinity 0.938894153
REMARK minimizedRMSD -1
REMARK  1 active torsions:
REMARK  status: ('A' for Active; 'I' for Inactive)
REMARK    1  A    between atoms: N_2  and  C1_3 
ROOT
ATOM      1  C1  UNL d   1       1.912   2.307   0.637  0.00  0.00     0.143 A 
ATOM      2  C2  UNL d   1       1.573   1.946  -0.672  0.00  0.00    -0.057 A 
ATOM      3  C3  UNL d   1       0.852   0.776  -0.938  0.00  0.00     0.033 A 
ATOM      4  C4  UNL d   1       0.480  -0.071   0.100  0.00  0.00    -0.042 A 
ATOM      5  C5  UNL d   1       0.828   0.255   1.406  0.00  0.00     0.033 A 
ATOM      6  C6  UNL d   1       1.542   1.428   1.667  0.00  0.00    -0.057 A 
ENDROOT
BRANCH   1   7
ATOM      7  N   UNL d   1       2.712   3.406   0.958  0.00  0.00    -0.732 N 
ATOM      8  C   UNL d   1       4.075   3.490   0.480  0.00  0.00     0.284 C 
ATOM      9  H3  UNL d   1       2.201   4.285   0.914  0.00  0.00     0.395 HD
ENDBRANCH   1   7
TORSDOF 1
ENDMDL
