MODEL 1
REMARK minimizedAffinity -1.03249776
REMARK minimizedRMSD -1
REMARK  1 active torsions:
REMARK  status: ('A' for Active; 'I' for Inactive)
REMARK    1  A    between atoms: N_2  and  C1_3 
ROOT
ATOM      1  C1  UNL d   1      -1.579   5.905  -3.350  0.00  0.00     0.143 A 
ATOM      2  C2  UNL d   1      -0.714   5.959  -4.448  0.00  0.00    -0.057 A 
ATOM      3  C3  UNL d   1       0.675   5.991  -4.277  0.00  0.00     0.033 A 
ATOM      4  C4  UNL d   1       1.225   5.999  -3.000  0.00  0.00    -0.042 A 
ATOM      5  C5  UNL d   1       0.384   5.971  -1.893  0.00  0.00     0.033 A 
ATOM      6  C6  UNL d   1      -1.002   5.932  -2.070  0.00  0.00    -0.057 A 
ENDROOT
BRANCH   1   7
ATOM      7  N   UNL d   1      -2.971   5.970  -3.452  0.00  0.00    -0.732 N 
ATOM      8  C   UNL d   1      -3.796   5.999  -2.264  0.00  0.00     0.284 C 
ATOM      9  H3  UNL d   1      -3.277   6.604  -4.187  0.00  0.00     0.395 HD
ENDBRANCH   1   7
TORSDOF 1
ENDMDL
