MODEL 1
REMARK minimizedAffinity -5.74828815
REMARK minimizedRMSD -1
REMARK  1 active torsions:
REMARK  status: ('A' for Active; 'I' for Inactive)
REMARK    1  A    between atoms: C1_2  and  C2_3 
ROOT
ATOM      1  C2  UNL d   1       0.281   0.660   0.201  0.00  0.00    -0.076 A 
ATOM      2  C3  UNL d   1       1.550   0.690  -0.404  0.00  0.00     0.004 A 
ATOM      3  C4  UNL d   1       2.504  -0.284  -0.118  0.00  0.00    -0.003 A 
ATOM      4  C5  UNL d   1       2.205  -1.306   0.777  0.00  0.00     0.000 A 
ATOM      5  C6  UNL d   1       0.945  -1.361   1.373  0.00  0.00     0.000 A 
ATOM      6  C7  UNL d   1      -0.034  -0.396   1.083  0.00  0.00    -0.073 A 
ATOM      7  C8  UNL d   1      -1.374  -0.501   1.758  0.00  0.00     0.078 C 
ENDROOT
BRANCH   1   8
ATOM      8  C1  UNL d   1      -0.704   1.760  -0.127  0.00  0.00     0.053 C 
ATOM      9  C   UNL d   1      -0.202   2.682  -1.228  0.00  0.00     0.018 C 
ENDBRANCH   1   8
TORSDOF 1
ENDMDL
