MODEL 1
REMARK minimizedAffinity -6.51352596
REMARK minimizedRMSD -1
REMARK  1 active torsions:
REMARK  status: ('A' for Active; 'I' for Inactive)
REMARK    1  A    between atoms: C1_2  and  C2_3 
ROOT
ATOM      1  C2  UNL d   1       1.100  -0.241  -0.070  0.00  0.00    -0.076 A 
ATOM      2  C3  UNL d   1       0.365   0.951  -0.187  0.00  0.00     0.004 A 
ATOM      3  C4  UNL d   1      -0.736   1.199   0.630  0.00  0.00    -0.003 A 
ATOM      4  C5  UNL d   1      -1.121   0.258   1.579  0.00  0.00     0.000 A 
ATOM      5  C6  UNL d   1      -0.393  -0.923   1.721  0.00  0.00     0.000 A 
ATOM      6  C7  UNL d   1       0.730  -1.181   0.916  0.00  0.00    -0.073 A 
ATOM      7  C8  UNL d   1       1.474  -2.474   1.108  0.00  0.00     0.078 C 
ENDROOT
BRANCH   1   8
ATOM      8  C1  UNL d   1       2.269  -0.466  -1.002  0.00  0.00     0.053 C 
ATOM      9  C   UNL d   1       3.605  -0.158  -0.346  0.00  0.00     0.018 C 
ENDBRANCH   1   8
TORSDOF 1
ENDMDL
