MODEL 1
REMARK minimizedAffinity -1.18927872
REMARK minimizedRMSD -1
REMARK  1 active torsions:
REMARK  status: ('A' for Active; 'I' for Inactive)
REMARK    1  A    between atoms: C1_2  and  C2_3 
ROOT
ATOM      1  C2  UNL d   1       1.126  -0.611   0.091  0.00  0.00    -0.076 A 
ATOM      2  C3  UNL d   1      -0.237  -0.533   0.425  0.00  0.00     0.004 A 
ATOM      3  C4  UNL d   1      -1.034   0.507  -0.052  0.00  0.00    -0.003 A 
ATOM      4  C5  UNL d   1      -0.481   1.485  -0.871  0.00  0.00     0.000 A 
ATOM      5  C6  UNL d   1       0.866   1.414  -1.226  0.00  0.00     0.000 A 
ATOM      6  C7  UNL d   1       1.679   0.363  -0.768  0.00  0.00    -0.073 A 
ATOM      7  C8  UNL d   1       3.126   0.339  -1.178  0.00  0.00     0.078 C 
ENDROOT
BRANCH   1   8
ATOM      8  C1  UNL d   1       1.947  -1.746   0.659  0.00  0.00     0.053 C 
ATOM      9  C   UNL d   1       2.806  -1.312   1.837  0.00  0.00     0.018 C 
ENDBRANCH   1   8
TORSDOF 1
ENDMDL
