MODEL 1
REMARK minimizedAffinity -1.90351725
REMARK minimizedRMSD -1
REMARK  1 active torsions:
REMARK  status: ('A' for Active; 'I' for Inactive)
REMARK    1  A    between atoms: C1_2  and  C2_3 
ROOT
ATOM      1  C2  UNL d   1       0.157   0.402  -0.139  0.00  0.00    -0.076 A 
ATOM      2  C3  UNL d   1       1.351   0.483  -0.876  0.00  0.00     0.004 A 
ATOM      3  C4  UNL d   1       2.423  -0.364  -0.602  0.00  0.00    -0.003 A 
ATOM      4  C5  UNL d   1       2.318  -1.307   0.415  0.00  0.00     0.000 A 
ATOM      5  C6  UNL d   1       1.135  -1.414   1.145  0.00  0.00     0.000 A 
ATOM      6  C7  UNL d   1       0.039  -0.578   0.870  0.00  0.00    -0.073 A 
ATOM      7  C8  UNL d   1      -1.211  -0.733   1.693  0.00  0.00     0.078 C 
ENDROOT
BRANCH   1   8
ATOM      8  C1  UNL d   1      -0.962   1.365  -0.464  0.00  0.00     0.053 C 
ATOM      9  C   UNL d   1      -1.123   1.589  -1.959  0.00  0.00     0.018 C 
ENDBRANCH   1   8
TORSDOF 1
ENDMDL
