MODEL 1
REMARK minimizedAffinity -4.23974323
REMARK minimizedRMSD -1
REMARK  1 active torsions:
REMARK  status: ('A' for Active; 'I' for Inactive)
REMARK    1  A    between atoms: C1_2  and  C2_3 
ROOT
ATOM      1  C2  UNL d   1       0.501  -0.063  -0.070  0.00  0.00    -0.076 A 
ATOM      2  C3  UNL d   1      -0.293  -1.222  -0.038  0.00  0.00     0.004 A 
ATOM      3  C4  UNL d   1       0.282  -2.482   0.126  0.00  0.00    -0.003 A 
ATOM      4  C5  UNL d   1       1.661  -2.602   0.261  0.00  0.00     0.000 A 
ATOM      5  C6  UNL d   1       2.462  -1.461   0.250  0.00  0.00     0.000 A 
ATOM      6  C7  UNL d   1       1.897  -0.183   0.102  0.00  0.00    -0.073 A 
ATOM      7  C8  UNL d   1       2.810   1.013   0.090  0.00  0.00     0.078 C 
ENDROOT
BRANCH   1   8
ATOM      8  C1  UNL d   1      -0.175   1.273  -0.277  0.00  0.00     0.053 C 
ATOM      9  C   UNL d   1      -0.217   1.684  -1.741  0.00  0.00     0.018 C 
ENDBRANCH   1   8
TORSDOF 1
ENDMDL
