MODEL 1
REMARK minimizedAffinity -4.51528835
REMARK minimizedRMSD -1
REMARK  1 active torsions:
REMARK  status: ('A' for Active; 'I' for Inactive)
REMARK    1  A    between atoms: C1_2  and  C2_3 
ROOT
ATOM      1  C2  UNL d   1       0.112  -1.147   0.541  0.00  0.00    -0.076 A 
ATOM      2  C3  UNL d   1       0.637  -0.404  -0.531  0.00  0.00     0.004 A 
ATOM      3  C4  UNL d   1       0.055   0.801  -0.920  0.00  0.00    -0.003 A 
ATOM      4  C5  UNL d   1      -1.060   1.284  -0.244  0.00  0.00     0.000 A 
ATOM      5  C6  UNL d   1      -1.583   0.568   0.833  0.00  0.00     0.000 A 
ATOM      6  C7  UNL d   1      -0.998  -0.640   1.249  0.00  0.00    -0.073 A 
ATOM      7  C8  UNL d   1      -1.607  -1.374   2.413  0.00  0.00     0.078 C 
ENDROOT
BRANCH   1   8
ATOM      8  C1  UNL d   1       0.769  -2.461   0.901  0.00  0.00     0.053 C 
ATOM      9  C   UNL d   1       2.217  -2.290   1.333  0.00  0.00     0.018 C 
ENDBRANCH   1   8
TORSDOF 1
ENDMDL
