MODEL 1
REMARK minimizedAffinity -0.37228784
REMARK minimizedRMSD -1
REMARK  1 active torsions:
REMARK  status: ('A' for Active; 'I' for Inactive)
REMARK    1  A    between atoms: C1_2  and  C2_3 
ROOT
ATOM      1  C2  UNL d   1      -0.758   2.332  -2.681  0.00  0.00    -0.076 A 
ATOM      2  C3  UNL d   1       0.390   3.142  -2.632  0.00  0.00     0.004 A 
ATOM      3  C4  UNL d   1       0.635   4.100  -3.614  0.00  0.00    -0.003 A 
ATOM      4  C5  UNL d   1      -0.264   4.264  -4.662  0.00  0.00     0.000 A 
ATOM      5  C6  UNL d   1      -1.417   3.482  -4.717  0.00  0.00     0.000 A 
ATOM      6  C7  UNL d   1      -1.688   2.523  -3.726  0.00  0.00    -0.073 A 
ATOM      7  C8  UNL d   1      -2.943   1.702  -3.839  0.00  0.00     0.078 C 
ENDROOT
BRANCH   1   8
ATOM      8  C1  UNL d   1      -0.958   1.292  -1.603  0.00  0.00     0.053 C 
ATOM      9  C   UNL d   1       0.017   1.456  -0.447  0.00  0.00     0.018 C 
ENDBRANCH   1   8
TORSDOF 1
ENDMDL
