MODEL 1
REMARK minimizedAffinity -1.56377602
REMARK minimizedRMSD -1
REMARK  1 active torsions:
REMARK  status: ('A' for Active; 'I' for Inactive)
REMARK    1  A    between atoms: C1_2  and  C2_3 
ROOT
ATOM      1  C2  UNL d   1      -0.001  -1.380   0.413  0.00  0.00    -0.076 A 
ATOM      2  C3  UNL d   1       0.057  -0.033   0.017  0.00  0.00     0.004 A 
ATOM      3  C4  UNL d   1       1.278   0.627  -0.108  0.00  0.00    -0.003 A 
ATOM      4  C5  UNL d   1       2.462  -0.051   0.161  0.00  0.00     0.000 A 
ATOM      5  C6  UNL d   1       2.425  -1.393   0.538  0.00  0.00     0.000 A 
ATOM      6  C7  UNL d   1       1.203  -2.077   0.652  0.00  0.00    -0.073 A 
ATOM      7  C8  UNL d   1       1.221  -3.522   1.068  0.00  0.00     0.078 C 
ENDROOT
BRANCH   1   8
ATOM      8  C1  UNL d   1      -1.356  -2.035   0.557  0.00  0.00     0.053 C 
ATOM      9  C   UNL d   1      -1.992  -1.766   1.912  0.00  0.00     0.018 C 
ENDBRANCH   1   8
TORSDOF 1
ENDMDL
