MODEL 1
REMARK minimizedAffinity -3.60271096
REMARK minimizedRMSD -1
REMARK  1 active torsions:
REMARK  status: ('A' for Active; 'I' for Inactive)
REMARK    1  A    between atoms: C1_2  and  C2_3 
ROOT
ATOM      1  C2  UNL d   1       0.642  -0.092  -0.036  0.00  0.00    -0.076 A 
ATOM      2  C3  UNL d   1      -0.147  -1.169   0.405  0.00  0.00     0.004 A 
ATOM      3  C4  UNL d   1       0.440  -2.330   0.905  0.00  0.00    -0.003 A 
ATOM      4  C5  UNL d   1       1.825  -2.433   0.971  0.00  0.00     0.000 A 
ATOM      5  C6  UNL d   1       2.622  -1.368   0.554  0.00  0.00     0.000 A 
ATOM      6  C7  UNL d   1       2.046  -0.184   0.063  0.00  0.00    -0.073 A 
ATOM      7  C8  UNL d   1       2.954   0.931  -0.379  0.00  0.00     0.078 C 
ENDROOT
BRANCH   1   8
ATOM      8  C1  UNL d   1      -0.050   1.132  -0.594  0.00  0.00     0.053 C 
ATOM      9  C   UNL d   1      -1.424   1.354   0.019  0.00  0.00     0.018 C 
ENDBRANCH   1   8
TORSDOF 1
ENDMDL
