MODEL 1
REMARK minimizedAffinity 0.956103802
REMARK minimizedRMSD -1
REMARK  1 active torsions:
REMARK  status: ('A' for Active; 'I' for Inactive)
REMARK    1  A    between atoms: C1_2  and  C2_3 
ROOT
ATOM      1  C2  UNL d   1       2.054   1.807  -4.143  0.00  0.00    -0.081 A 
ATOM      2  C3  UNL d   1       3.370   1.364  -3.959  0.00  0.00     0.006 A 
ATOM      3  C4  UNL d   1       3.680   0.473  -2.929  0.00  0.00     0.002 A 
ATOM      4  C5  UNL d   1       2.679   0.004  -2.071  0.00  0.00    -0.080 A 
ATOM      5  C6  UNL d   1       2.993  -0.977  -0.981  0.00  0.00     0.076 C 
ATOM      6  C7  UNL d   1       1.368   0.460  -2.244  0.00  0.00     0.002 A 
ATOM      7  C8  UNL d   1       1.058   1.352  -3.273  0.00  0.00     0.006 A 
ENDROOT
BRANCH   1   8
ATOM      8  C1  UNL d   1       1.705   2.717  -5.292  0.00  0.00     0.054 C 
ATOM      9  C   UNL d   1       0.440   2.255  -6.000  0.00  0.00     0.018 C 
ENDBRANCH   1   8
TORSDOF 1
ENDMDL
