MODEL 1
REMARK minimizedAffinity 5.78292465
REMARK minimizedRMSD -1
REMARK  1 active torsions:
REMARK  status: ('A' for Active; 'I' for Inactive)
REMARK    1  A    between atoms: C1_2  and  C2_3 
ROOT
ATOM      1  C2  UNL d   1      -3.898  -0.781   3.317  0.00  0.00    -0.081 A 
ATOM      2  C3  UNL d   1      -5.193  -0.346   3.009  0.00  0.00     0.006 A 
ATOM      3  C4  UNL d   1      -5.409   0.950   2.534  0.00  0.00     0.002 A 
ATOM      4  C5  UNL d   1      -4.335   1.828   2.351  0.00  0.00    -0.080 A 
ATOM      5  C6  UNL d   1      -4.551   3.211   1.813  0.00  0.00     0.076 C 
ATOM      6  C7  UNL d   1      -3.044   1.398   2.676  0.00  0.00     0.002 A 
ATOM      7  C8  UNL d   1      -2.827   0.103   3.151  0.00  0.00     0.006 A 
ENDROOT
BRANCH   1   8
ATOM      8  C1  UNL d   1      -3.654  -2.199   3.768  0.00  0.00     0.054 C 
ATOM      9  C   UNL d   1      -3.002  -3.025   2.669  0.00  0.00     0.018 C 
ENDBRANCH   1   8
TORSDOF 1
ENDMDL
