MODEL 1
REMARK minimizedAffinity -1.48324764
REMARK minimizedRMSD -1
REMARK  1 active torsions:
REMARK  status: ('A' for Active; 'I' for Inactive)
REMARK    1  A    between atoms: C1_2  and  C2_3 
ROOT
ATOM      1  C2  UNL d   1       1.504   1.707  -3.172  0.00  0.00    -0.081 A 
ATOM      2  C3  UNL d   1       0.686   0.797  -2.491  0.00  0.00     0.006 A 
ATOM      3  C4  UNL d   1       1.241  -0.318  -1.858  0.00  0.00     0.002 A 
ATOM      4  C5  UNL d   1       2.622  -0.538  -1.889  0.00  0.00    -0.080 A 
ATOM      5  C6  UNL d   1       3.233  -1.715  -1.188  0.00  0.00     0.076 C 
ATOM      6  C7  UNL d   1       3.438   0.361  -2.584  0.00  0.00     0.002 A 
ATOM      7  C8  UNL d   1       2.884   1.476  -3.217  0.00  0.00     0.006 A 
ENDROOT
BRANCH   1   8
ATOM      8  C1  UNL d   1       0.917   2.945  -3.800  0.00  0.00     0.054 C 
ATOM      9  C   UNL d   1       0.084   3.731  -2.798  0.00  0.00     0.018 C 
ENDBRANCH   1   8
TORSDOF 1
ENDMDL
