MODEL 1
REMARK minimizedAffinity 1.09180951
REMARK minimizedRMSD -1
REMARK  1 active torsions:
REMARK  status: ('A' for Active; 'I' for Inactive)
REMARK    1  A    between atoms: C1_2  and  C2_3 
ROOT
ATOM      1  C2  UNL d   1       0.999   1.890  -2.818  0.00  0.00    -0.081 A 
ATOM      2  C3  UNL d   1       0.594   0.714  -2.175  0.00  0.00     0.006 A 
ATOM      3  C4  UNL d   1       1.540  -0.201  -1.710  0.00  0.00     0.002 A 
ATOM      4  C5  UNL d   1       2.908   0.048  -1.871  0.00  0.00    -0.080 A 
ATOM      5  C6  UNL d   1       3.935  -0.912  -1.349  0.00  0.00     0.076 C 
ATOM      6  C7  UNL d   1       3.313   1.214  -2.529  0.00  0.00     0.002 A 
ATOM      7  C8  UNL d   1       2.366   2.129  -2.995  0.00  0.00     0.006 A 
ENDROOT
BRANCH   1   8
ATOM      8  C1  UNL d   1      -0.018   2.910  -3.264  0.00  0.00     0.054 C 
ATOM      9  C   UNL d   1      -0.132   4.051  -2.263  0.00  0.00     0.018 C 
ENDBRANCH   1   8
TORSDOF 1
ENDMDL
