MODEL 1
REMARK minimizedAffinity -0.325790912
REMARK minimizedRMSD -1
REMARK  1 active torsions:
REMARK  status: ('A' for Active; 'I' for Inactive)
REMARK    1  A    between atoms: C1_2  and  C2_3 
ROOT
ATOM      1  C2  UNL d   1       2.641   2.120  -4.082  0.00  0.00    -0.081 A 
ATOM      2  C3  UNL d   1       2.924   1.637  -2.798  0.00  0.00     0.006 A 
ATOM      3  C4  UNL d   1       1.916   1.060  -2.021  0.00  0.00     0.002 A 
ATOM      4  C5  UNL d   1       0.613   0.950  -2.516  0.00  0.00    -0.080 A 
ATOM      5  C6  UNL d   1      -0.471   0.305  -1.704  0.00  0.00     0.076 C 
ATOM      6  C7  UNL d   1       0.326   1.449  -3.792  0.00  0.00     0.002 A 
ATOM      7  C8  UNL d   1       1.333   2.026  -4.569  0.00  0.00     0.006 A 
ENDROOT
BRANCH   1   8
ATOM      8  C1  UNL d   1       3.738   2.684  -4.948  0.00  0.00     0.054 C 
ATOM      9  C   UNL d   1       4.380   1.600  -5.803  0.00  0.00     0.018 C 
ENDBRANCH   1   8
TORSDOF 1
ENDMDL
