MODEL 1
REMARK minimizedAffinity 4.30180407
REMARK minimizedRMSD -1
REMARK  1 active torsions:
REMARK  status: ('A' for Active; 'I' for Inactive)
REMARK    1  A    between atoms: C1_2  and  C2_3 
ROOT
ATOM      1  C2  UNL d   1       1.066   0.633  -2.548  0.00  0.00    -0.081 A 
ATOM      2  C3  UNL d   1       2.335   1.173  -2.307  0.00  0.00     0.006 A 
ATOM      3  C4  UNL d   1       3.055   1.779  -3.340  0.00  0.00     0.002 A 
ATOM      4  C5  UNL d   1       2.514   1.862  -4.628  0.00  0.00    -0.080 A 
ATOM      5  C6  UNL d   1       3.263   2.536  -5.739  0.00  0.00     0.076 C 
ATOM      6  C7  UNL d   1       1.253   1.307  -4.872  0.00  0.00     0.002 A 
ATOM      7  C8  UNL d   1       0.534   0.700  -3.840  0.00  0.00     0.006 A 
ENDROOT
BRANCH   1   8
ATOM      8  C1  UNL d   1       0.261   0.037  -1.422  0.00  0.00     0.054 C 
ATOM      9  C   UNL d   1      -1.045   0.791  -1.216  0.00  0.00     0.018 C 
ENDBRANCH   1   8
TORSDOF 1
ENDMDL
