MODEL 1
REMARK minimizedAffinity 7.25058365
REMARK minimizedRMSD -1
REMARK  1 active torsions:
REMARK  status: ('A' for Active; 'I' for Inactive)
REMARK    1  A    between atoms: C1_2  and  C2_3 
ROOT
ATOM      1  C2  UNL d   1       4.806   5.134   1.926  0.00  0.00    -0.081 A 
ATOM      2  C3  UNL d   1       3.512   4.803   2.346  0.00  0.00     0.006 A 
ATOM      3  C4  UNL d   1       2.412   5.064   1.525  0.00  0.00     0.002 A 
ATOM      4  C5  UNL d   1       2.589   5.653   0.268  0.00  0.00    -0.080 A 
ATOM      5  C6  UNL d   1       1.420   5.911  -0.635  0.00  0.00     0.076 C 
ATOM      6  C7  UNL d   1       3.880   6.000  -0.144  0.00  0.00     0.002 A 
ATOM      7  C8  UNL d   1       4.980   5.739   0.676  0.00  0.00     0.006 A 
ENDROOT
BRANCH   1   8
ATOM      8  C1  UNL d   1       6.000   4.794   2.781  0.00  0.00     0.054 C 
ATOM      9  C   UNL d   1       5.999   5.595   4.076  0.00  0.00     0.018 C 
ENDBRANCH   1   8
TORSDOF 1
ENDMDL
