MODEL 1
REMARK minimizedAffinity 6.15753651
REMARK minimizedRMSD -1
REMARK  1 active torsions:
REMARK  status: ('A' for Active; 'I' for Inactive)
REMARK    1  A    between atoms: C1_2  and  C2_3 
ROOT
ATOM      1  C2  UNL d   1       4.741   5.470   3.710  0.00  0.00    -0.081 A 
ATOM      2  C3  UNL d   1       3.773   5.975   2.834  0.00  0.00     0.006 A 
ATOM      3  C4  UNL d   1       3.914   5.815   1.453  0.00  0.00     0.002 A 
ATOM      4  C5  UNL d   1       5.021   5.140   0.927  0.00  0.00    -0.080 A 
ATOM      5  C6  UNL d   1       5.170   4.935  -0.551  0.00  0.00     0.076 C 
ATOM      6  C7  UNL d   1       5.997   4.651   1.801  0.00  0.00     0.002 A 
ATOM      7  C8  UNL d   1       5.857   4.812   3.182  0.00  0.00     0.006 A 
ENDROOT
BRANCH   1   8
ATOM      8  C1  UNL d   1       4.559   5.585   5.202  0.00  0.00     0.054 C 
ATOM      9  C   UNL d   1       5.818   5.166   5.947  0.00  0.00     0.018 C 
ENDBRANCH   1   8
TORSDOF 1
ENDMDL
