MODEL 1
REMARK minimizedAffinity -0.974565148
REMARK minimizedRMSD -1
REMARK  1 active torsions:
REMARK  status: ('A' for Active; 'I' for Inactive)
REMARK    1  A    between atoms: C1_2  and  C2_3 
ROOT
ATOM      1  C2  UNL d   1       4.973   5.331   3.978  0.00  0.00    -0.081 A 
ATOM      2  C3  UNL d   1       5.945   4.678   3.210  0.00  0.00     0.006 A 
ATOM      3  C4  UNL d   1       5.870   4.689   1.815  0.00  0.00     0.002 A 
ATOM      4  C5  UNL d   1       4.827   5.360   1.166  0.00  0.00    -0.080 A 
ATOM      5  C6  UNL d   1       4.752   5.405  -0.332  0.00  0.00     0.076 C 
ATOM      6  C7  UNL d   1       3.847   5.997   1.934  0.00  0.00     0.002 A 
ATOM      7  C8  UNL d   1       3.921   5.985   3.328  0.00  0.00     0.006 A 
ENDROOT
BRANCH   1   8
ATOM      8  C1  UNL d   1       5.087   5.375   5.481  0.00  0.00     0.054 C 
ATOM      9  C   UNL d   1       5.998   4.272   5.999  0.00  0.00     0.018 C 
ENDBRANCH   1   8
TORSDOF 1
ENDMDL
