MODEL 1
REMARK minimizedAffinity -5.28072739
REMARK minimizedRMSD -1
REMARK  1 active torsions:
REMARK  status: ('A' for Active; 'I' for Inactive)
REMARK    1  A    between atoms: C1_2  and  C2_3 
ROOT
ATOM      1  C2  UNL d   1       0.604   1.072  -0.623  0.00  0.00    -0.081 A 
ATOM      2  C3  UNL d   1       1.531   0.044  -0.835  0.00  0.00     0.006 A 
ATOM      3  C4  UNL d   1       1.215  -1.275  -0.498  0.00  0.00     0.002 A 
ATOM      4  C5  UNL d   1      -0.034  -1.588   0.048  0.00  0.00    -0.080 A 
ATOM      5  C6  UNL d   1      -0.396  -3.003   0.386  0.00  0.00     0.076 C 
ATOM      6  C7  UNL d   1      -0.953  -0.558   0.277  0.00  0.00     0.002 A 
ATOM      7  C8  UNL d   1      -0.638   0.760  -0.059  0.00  0.00     0.006 A 
ENDROOT
BRANCH   1   8
ATOM      8  C1  UNL d   1       0.917   2.485  -1.045  0.00  0.00     0.054 C 
ATOM      9  C   UNL d   1      -0.240   3.424  -0.736  0.00  0.00     0.018 C 
ENDBRANCH   1   8
TORSDOF 1
ENDMDL
