MODEL 1
REMARK minimizedAffinity 5.35050154
REMARK minimizedRMSD -1
REMARK  0 active torsions:
REMARK  status: ('A' for Active; 'I' for Inactive)
ROOT
ATOM      1  C   UNL d   1      -5.970  -0.301   5.271  0.00  0.00     0.078 C 
ATOM      2  C1  UNL d   1      -5.598   1.138   5.072  0.00  0.00    -0.077 A 
ATOM      3  C2  UNL d   1      -5.979   2.116   5.999  0.00  0.00    -0.001 A 
ATOM      4  C3  UNL d   1      -5.634   3.453   5.796  0.00  0.00     0.003 A 
ATOM      5  C4  UNL d   1      -4.907   3.825   4.667  0.00  0.00    -0.005 A 
ATOM      6  C5  UNL d   1      -4.526   2.859   3.738  0.00  0.00     0.003 A 
ATOM      7  C6  UNL d   1      -4.870   1.521   3.939  0.00  0.00    -0.001 A 
ENDROOT
TORSDOF 0
ENDMDL
