MODEL 1
REMARK minimizedAffinity 9.55703926
REMARK minimizedRMSD -1
REMARK  0 active torsions:
REMARK  status: ('A' for Active; 'I' for Inactive)
ROOT
ATOM      1  C   UNL d   1      -4.484  -5.999   1.498  0.00  0.00     0.078 C 
ATOM      2  C1  UNL d   1      -3.148  -5.318   1.470  0.00  0.00    -0.077 A 
ATOM      3  C2  UNL d   1      -1.983  -6.000   1.841  0.00  0.00    -0.001 A 
ATOM      4  C3  UNL d   1      -0.748  -5.350   1.820  0.00  0.00     0.003 A 
ATOM      5  C4  UNL d   1      -0.666  -4.015   1.430  0.00  0.00    -0.005 A 
ATOM      6  C5  UNL d   1      -1.821  -3.327   1.062  0.00  0.00     0.003 A 
ATOM      7  C6  UNL d   1      -3.057  -3.975   1.082  0.00  0.00    -0.001 A 
ENDROOT
TORSDOF 0
ENDMDL
