MODEL 1
REMARK minimizedAffinity 7.34570169
REMARK minimizedRMSD -1
REMARK  0 active torsions:
REMARK  status: ('A' for Active; 'I' for Inactive)
ROOT
ATOM      1  C   UNL d   1       3.077   2.997  -3.077  0.00  0.00     0.078 C 
ATOM      2  C1  UNL d   1       2.721   4.043  -4.091  0.00  0.00    -0.077 A 
ATOM      3  C2  UNL d   1       1.466   4.048  -4.712  0.00  0.00    -0.001 A 
ATOM      4  C3  UNL d   1       1.152   5.022  -5.661  0.00  0.00     0.003 A 
ATOM      5  C4  UNL d   1       2.088   5.998  -5.998  0.00  0.00    -0.005 A 
ATOM      6  C5  UNL d   1       3.340   6.000  -5.387  0.00  0.00     0.003 A 
ATOM      7  C6  UNL d   1       3.656   5.027  -4.438  0.00  0.00    -0.001 A 
ENDROOT
TORSDOF 0
ENDMDL
