MODEL 1
REMARK minimizedAffinity -0.141686589
REMARK minimizedRMSD -1
REMARK  0 active torsions:
REMARK  status: ('A' for Active; 'I' for Inactive)
ROOT
ATOM      1  C   UNL d   1      -5.995  -0.629   5.965  0.00  0.00     0.078 C 
ATOM      2  C1  UNL d   1      -5.728   0.679   5.283  0.00  0.00    -0.077 A 
ATOM      3  C2  UNL d   1      -5.195   0.722   3.988  0.00  0.00    -0.001 A 
ATOM      4  C3  UNL d   1      -4.942   1.947   3.369  0.00  0.00     0.003 A 
ATOM      5  C4  UNL d   1      -5.218   3.139   4.037  0.00  0.00    -0.005 A 
ATOM      6  C5  UNL d   1      -5.746   3.106   5.326  0.00  0.00     0.003 A 
ATOM      7  C6  UNL d   1      -6.000   1.882   5.947  0.00  0.00    -0.001 A 
ENDROOT
TORSDOF 0
ENDMDL
