MODEL 1
REMARK minimizedAffinity 14.3227291
REMARK minimizedRMSD -1
REMARK  0 active torsions:
REMARK  status: ('A' for Active; 'I' for Inactive)
ROOT
ATOM      1  C   UNL d   1      -5.999  -0.336   5.999  0.00  0.00     0.078 C 
ATOM      2  C1  UNL d   1      -5.057   0.617   5.327  0.00  0.00    -0.077 A 
ATOM      3  C2  UNL d   1      -4.613   1.773   5.981  0.00  0.00    -0.001 A 
ATOM      4  C3  UNL d   1      -3.744   2.657   5.340  0.00  0.00     0.003 A 
ATOM      5  C4  UNL d   1      -3.312   2.395   4.041  0.00  0.00    -0.005 A 
ATOM      6  C5  UNL d   1      -3.750   1.249   3.382  0.00  0.00     0.003 A 
ATOM      7  C6  UNL d   1      -4.620   0.364   4.021  0.00  0.00    -0.001 A 
ENDROOT
TORSDOF 0
ENDMDL
