MODEL 1
REMARK minimizedAffinity 3.080199
REMARK minimizedRMSD -1
REMARK  0 active torsions:
REMARK  status: ('A' for Active; 'I' for Inactive)
ROOT
ATOM      1  C   UNL d   1      -5.996   5.471   1.965  0.00  0.00     0.078 C 
ATOM      2  C1  UNL d   1      -5.480   5.268   3.358  0.00  0.00    -0.077 A 
ATOM      3  C2  UNL d   1      -6.000   6.000   4.433  0.00  0.00    -0.001 A 
ATOM      4  C3  UNL d   1      -5.504   5.807   5.724  0.00  0.00     0.003 A 
ATOM      5  C4  UNL d   1      -4.485   4.885   5.951  0.00  0.00    -0.005 A 
ATOM      6  C5  UNL d   1      -3.960   4.153   4.887  0.00  0.00     0.003 A 
ATOM      7  C6  UNL d   1      -4.455   4.344   3.596  0.00  0.00    -0.001 A 
ENDROOT
TORSDOF 0
ENDMDL
