MODEL 1
REMARK minimizedAffinity 13.0651226
REMARK minimizedRMSD -1
REMARK  0 active torsions:
REMARK  status: ('A' for Active; 'I' for Inactive)
ROOT
ATOM      1  C   UNL d   1      -4.496   4.132   1.489  0.00  0.00     0.078 C 
ATOM      2  C1  UNL d   1      -4.085   2.996   2.377  0.00  0.00    -0.077 A 
ATOM      3  C2  UNL d   1      -3.043   3.143   3.301  0.00  0.00    -0.001 A 
ATOM      4  C3  UNL d   1      -2.665   2.074   4.114  0.00  0.00     0.003 A 
ATOM      5  C4  UNL d   1      -3.321   0.849   4.010  0.00  0.00    -0.005 A 
ATOM      6  C5  UNL d   1      -4.357   0.692   3.092  0.00  0.00     0.003 A 
ATOM      7  C6  UNL d   1      -4.738   1.761   2.278  0.00  0.00    -0.001 A 
ENDROOT
TORSDOF 0
ENDMDL
