MODEL 1
REMARK minimizedAffinity 15.7839537
REMARK minimizedRMSD -1
REMARK  0 active torsions:
REMARK  status: ('A' for Active; 'I' for Inactive)
ROOT
ATOM      1  C   UNL d   1       2.948   5.445   1.868  0.00  0.00     0.078 C 
ATOM      2  C1  UNL d   1       2.604   4.139   1.216  0.00  0.00    -0.077 A 
ATOM      3  C2  UNL d   1       2.044   3.090   1.955  0.00  0.00    -0.001 A 
ATOM      4  C3  UNL d   1       1.738   1.876   1.337  0.00  0.00     0.003 A 
ATOM      5  C4  UNL d   1       1.989   1.700  -0.022  0.00  0.00    -0.005 A 
ATOM      6  C5  UNL d   1       2.548   2.738  -0.765  0.00  0.00     0.003 A 
ATOM      7  C6  UNL d   1       2.855   3.952  -0.149  0.00  0.00    -0.001 A 
ENDROOT
TORSDOF 0
ENDMDL
