MODEL 1
REMARK minimizedAffinity 15.1157427
REMARK minimizedRMSD -1
REMARK  0 active torsions:
REMARK  status: ('A' for Active; 'I' for Inactive)
ROOT
ATOM      1  C   UNL d   1      -1.821  -5.973   2.293  0.00  0.00     0.078 C 
ATOM      2  C1  UNL d   1      -3.116  -5.898   1.542  0.00  0.00    -0.077 A 
ATOM      3  C2  UNL d   1      -4.333  -5.742   2.217  0.00  0.00    -0.001 A 
ATOM      4  C3  UNL d   1      -5.533  -5.684   1.505  0.00  0.00     0.003 A 
ATOM      5  C4  UNL d   1      -5.527  -5.781   0.115  0.00  0.00    -0.005 A 
ATOM      6  C5  UNL d   1      -4.321  -5.939  -0.565  0.00  0.00     0.003 A 
ATOM      7  C6  UNL d   1      -3.121  -5.997   0.145  0.00  0.00    -0.001 A 
ENDROOT
TORSDOF 0
ENDMDL
