MODEL 1
REMARK minimizedAffinity 10.7265816
REMARK minimizedRMSD -1
REMARK  0 active torsions:
REMARK  status: ('A' for Active; 'I' for Inactive)
ROOT
ATOM      1  C   UNL d   1      -1.143  -2.234   1.175  0.00  0.00     0.078 C 
ATOM      2  C1  UNL d   1      -1.841  -3.545   1.385  0.00  0.00    -0.077 A 
ATOM      3  C2  UNL d   1      -3.198  -3.697   1.074  0.00  0.00    -0.001 A 
ATOM      4  C3  UNL d   1      -3.837  -4.920   1.283  0.00  0.00     0.003 A 
ATOM      5  C4  UNL d   1      -3.128  -6.000   1.805  0.00  0.00    -0.005 A 
ATOM      6  C5  UNL d   1      -1.778  -5.857   2.120  0.00  0.00     0.003 A 
ATOM      7  C6  UNL d   1      -1.137  -4.635   1.911  0.00  0.00    -0.001 A 
ENDROOT
TORSDOF 0
ENDMDL
