MODEL 1
REMARK minimizedAffinity 17.676527
REMARK minimizedRMSD -1
REMARK  0 active torsions:
REMARK  status: ('A' for Active; 'I' for Inactive)
ROOT
ATOM      1  C   UNL d   1      -5.999  -6.000  -2.244  0.00  0.00     0.078 C 
ATOM      2  C1  UNL d   1      -5.052  -4.905  -2.637  0.00  0.00    -0.077 A 
ATOM      3  C2  UNL d   1      -3.702  -4.952  -2.266  0.00  0.00    -0.001 A 
ATOM      4  C3  UNL d   1      -2.835  -3.921  -2.630  0.00  0.00     0.003 A 
ATOM      5  C4  UNL d   1      -3.307  -2.835  -3.365  0.00  0.00    -0.005 A 
ATOM      6  C5  UNL d   1      -4.649  -2.779  -3.737  0.00  0.00     0.003 A 
ATOM      7  C6  UNL d   1      -5.518  -3.809  -3.374  0.00  0.00    -0.001 A 
ENDROOT
TORSDOF 0
ENDMDL
