MODEL 1
REMARK minimizedAffinity 13.4622831
REMARK minimizedRMSD -1
REMARK  0 active torsions:
REMARK  status: ('A' for Active; 'I' for Inactive)
ROOT
ATOM      1  C   UNL d   1      -4.801  -5.997   1.533  0.00  0.00     0.078 C 
ATOM      2  C1  UNL d   1      -3.483  -5.300   1.696  0.00  0.00    -0.077 A 
ATOM      3  C2  UNL d   1      -2.345  -5.999   2.119  0.00  0.00    -0.001 A 
ATOM      4  C3  UNL d   1      -1.127  -5.336   2.275  0.00  0.00     0.003 A 
ATOM      5  C4  UNL d   1      -1.035  -3.970   2.013  0.00  0.00    -0.005 A 
ATOM      6  C5  UNL d   1      -2.162  -3.266   1.594  0.00  0.00     0.003 A 
ATOM      7  C6  UNL d   1      -3.381  -3.928   1.437  0.00  0.00    -0.001 A 
ENDROOT
TORSDOF 0
ENDMDL
