MODEL 1
REMARK minimizedAffinity 11.1619902
REMARK minimizedRMSD -1
REMARK  0 active torsions:
REMARK  status: ('A' for Active; 'I' for Inactive)
ROOT
ATOM      1  C   UNL d   1      -0.035   3.206  -1.405  0.00  0.00     0.078 C 
ATOM      2  C1  UNL d   1      -1.121   4.166  -1.021  0.00  0.00    -0.077 A 
ATOM      3  C2  UNL d   1      -2.232   4.368  -1.849  0.00  0.00    -0.001 A 
ATOM      4  C3  UNL d   1      -3.230   5.272  -1.483  0.00  0.00     0.003 A 
ATOM      5  C4  UNL d   1      -3.127   5.983  -0.289  0.00  0.00    -0.005 A 
ATOM      6  C5  UNL d   1      -2.023   5.791   0.540  0.00  0.00     0.003 A 
ATOM      7  C6  UNL d   1      -1.024   4.887   0.176  0.00  0.00    -0.001 A 
ENDROOT
TORSDOF 0
ENDMDL
