MODEL 1
REMARK minimizedAffinity 17.7365856
REMARK minimizedRMSD -1
REMARK  0 active torsions:
REMARK  status: ('A' for Active; 'I' for Inactive)
ROOT
ATOM      1  C   UNL d   1       1.499   0.061   1.856  0.00  0.00     0.078 C 
ATOM      2  C1  UNL d   1       0.828  -0.095   3.188  0.00  0.00    -0.077 A 
ATOM      3  C2  UNL d   1       1.180   0.718   4.273  0.00  0.00    -0.001 A 
ATOM      4  C3  UNL d   1       0.553   0.556   5.509  0.00  0.00     0.003 A 
ATOM      5  C4  UNL d   1      -0.429  -0.420   5.673  0.00  0.00    -0.005 A 
ATOM      6  C5  UNL d   1      -0.784  -1.234   4.600  0.00  0.00     0.003 A 
ATOM      7  C6  UNL d   1      -0.159  -1.074   3.363  0.00  0.00    -0.001 A 
ENDROOT
TORSDOF 0
ENDMDL
