MODEL 1
REMARK minimizedAffinity 13.9939928
REMARK minimizedRMSD -1
REMARK  0 active torsions:
REMARK  status: ('A' for Active; 'I' for Inactive)
ROOT
ATOM      1  C   UNL d   1      -5.789  -3.390  -3.563  0.00  0.00     0.078 C 
ATOM      2  C1  UNL d   1      -4.438  -2.940  -3.092  0.00  0.00    -0.077 A 
ATOM      3  C2  UNL d   1      -4.226  -2.568  -1.759  0.00  0.00    -0.001 A 
ATOM      4  C3  UNL d   1      -2.966  -2.142  -1.337  0.00  0.00     0.003 A 
ATOM      5  C4  UNL d   1      -1.908  -2.082  -2.242  0.00  0.00    -0.005 A 
ATOM      6  C5  UNL d   1      -2.110  -2.448  -3.571  0.00  0.00     0.003 A 
ATOM      7  C6  UNL d   1      -3.370  -2.874  -3.995  0.00  0.00    -0.001 A 
ENDROOT
TORSDOF 0
ENDMDL
