MODEL 1
REMARK minimizedAffinity 6.03300476
REMARK minimizedRMSD -1
REMARK  0 active torsions:
REMARK  status: ('A' for Active; 'I' for Inactive)
ROOT
ATOM      1  C   UNL d   1      -2.570  -2.638  -2.730  0.00  0.00     0.078 C 
ATOM      2  C1  UNL d   1      -3.694  -3.624  -2.849  0.00  0.00    -0.077 A 
ATOM      3  C2  UNL d   1      -4.833  -3.330  -3.609  0.00  0.00    -0.001 A 
ATOM      4  C3  UNL d   1      -5.876  -4.253  -3.703  0.00  0.00     0.003 A 
ATOM      5  C4  UNL d   1      -5.792  -5.475  -3.039  0.00  0.00    -0.005 A 
ATOM      6  C5  UNL d   1      -4.663  -5.775  -2.279  0.00  0.00     0.003 A 
ATOM      7  C6  UNL d   1      -3.619  -4.854  -2.184  0.00  0.00    -0.001 A 
ENDROOT
TORSDOF 0
ENDMDL
