MODEL 1
REMARK minimizedAffinity 4.25754261
REMARK minimizedRMSD -1
REMARK  3 active torsions:
REMARK  status: ('A' for Active; 'I' for Inactive)
REMARK    1  A    between atoms: C3'_2  and  C2'_3 
REMARK    2  A    between atoms: C2'_3  and  C1'_4 
REMARK    3  A    between atoms: C1'_4  and  C1_5 
ROOT
ATOM      1  C1  N4B d   1      -3.029  -5.996   3.006  0.00  0.00    -0.075 A 
ATOM      2  C2  N4B d   1      -4.033  -5.998   3.999  0.00  0.00     0.002 A 
ATOM      3  C3  N4B d   1      -5.358  -5.993   3.637  0.00  0.00     0.002 A 
ATOM      4  C4  N4B d   1      -5.701  -5.966   2.294  0.00  0.00    -0.004 A 
ATOM      5  C5  N4B d   1      -4.726  -5.990   1.340  0.00  0.00     0.002 A 
ATOM      6  C6  N4B d   1      -3.391  -6.000   1.690  0.00  0.00     0.002 A 
ENDROOT
BRANCH   1   7
ATOM      7  C1' N4B d   1      -1.568  -5.915   3.353  0.00  0.00     0.057 C 
BRANCH   7   8
ATOM      8  C2' N4B d   1      -0.744  -5.968   2.070  0.00  0.00     0.009 C 
BRANCH   8   9
ATOM      9  C3' N4B d   1      -0.143  -4.616   1.725  0.00  0.00     0.004 C 
ATOM     10  C4' N4B d   1      -1.179  -3.599   1.349  0.00  0.00     0.003 C 
ENDBRANCH   8   9
ENDBRANCH   7   8
ENDBRANCH   1   7
TORSDOF 3
ENDMDL
