MODEL 1
REMARK minimizedAffinity 3.37670302
REMARK minimizedRMSD -1
REMARK  3 active torsions:
REMARK  status: ('A' for Active; 'I' for Inactive)
REMARK    1  A    between atoms: C3'_2  and  C2'_3 
REMARK    2  A    between atoms: C2'_3  and  C1'_4 
REMARK    3  A    between atoms: C1'_4  and  C1_5 
ROOT
ATOM      1  C1  N4B d   1       4.111   0.464  -4.119  0.00  0.00    -0.075 A 
ATOM      2  C2  N4B d   1       5.364   0.963  -3.701  0.00  0.00     0.002 A 
ATOM      3  C3  N4B d   1       5.999   1.932  -4.438  0.00  0.00     0.002 A 
ATOM      4  C4  N4B d   1       5.411   2.403  -5.603  0.00  0.00    -0.004 A 
ATOM      5  C5  N4B d   1       4.188   1.934  -5.986  0.00  0.00     0.002 A 
ATOM      6  C6  N4B d   1       3.537   0.963  -5.253  0.00  0.00     0.002 A 
ENDROOT
BRANCH   1   7
ATOM      7  C1' N4B d   1       3.419  -0.657  -3.392  0.00  0.00     0.057 C 
BRANCH   7   8
ATOM      8  C2' N4B d   1       2.609  -1.477  -4.392  0.00  0.00     0.009 C 
BRANCH   8   9
ATOM      9  C3' N4B d   1       1.243  -1.853  -3.843  0.00  0.00     0.004 C 
ATOM     10  C4' N4B d   1       0.411  -2.615  -4.831  0.00  0.00     0.003 C 
ENDBRANCH   8   9
ENDBRANCH   7   8
ENDBRANCH   1   7
TORSDOF 3
ENDMDL
