MODEL 1
REMARK minimizedAffinity 11.3278637
REMARK minimizedRMSD -1
REMARK  3 active torsions:
REMARK  status: ('A' for Active; 'I' for Inactive)
REMARK    1  A    between atoms: C3'_2  and  C2'_3 
REMARK    2  A    between atoms: C2'_3  and  C1'_4 
REMARK    3  A    between atoms: C1'_4  and  C1_5 
ROOT
ATOM      1  C1  N4B d   1      -5.343   1.218   4.766  0.00  0.00    -0.075 A 
ATOM      2  C2  N4B d   1      -5.362   1.930   5.985  0.00  0.00     0.002 A 
ATOM      3  C3  N4B d   1      -5.697   3.262   5.996  0.00  0.00     0.002 A 
ATOM      4  C4  N4B d   1      -5.996   3.904   4.803  0.00  0.00    -0.004 A 
ATOM      5  C5  N4B d   1      -6.000   3.202   3.633  0.00  0.00     0.002 A 
ATOM      6  C6  N4B d   1      -5.669   1.862   3.608  0.00  0.00     0.002 A 
ENDROOT
BRANCH   1   7
ATOM      7  C1' N4B d   1      -4.900  -0.218   4.693  0.00  0.00     0.057 C 
BRANCH   7   8
ATOM      8  C2' N4B d   1      -4.034  -0.413   3.451  0.00  0.00     0.009 C 
BRANCH   8   9
ATOM      9  C3' N4B d   1      -2.581  -0.674   3.808  0.00  0.00     0.004 C 
ATOM     10  C4' N4B d   1      -1.906  -1.606   2.847  0.00  0.00     0.003 C 
ENDBRANCH   8   9
ENDBRANCH   7   8
ENDBRANCH   1   7
TORSDOF 3
ENDMDL
