MODEL 1
REMARK minimizedAffinity 8.59155655
REMARK minimizedRMSD -1
REMARK  3 active torsions:
REMARK  status: ('A' for Active; 'I' for Inactive)
REMARK    1  A    between atoms: C3'_2  and  C2'_3 
REMARK    2  A    between atoms: C2'_3  and  C1'_4 
REMARK    3  A    between atoms: C1'_4  and  C1_5 
ROOT
ATOM      1  C1  N4B d   1      -0.106  -1.874  -4.088  0.00  0.00    -0.075 A 
ATOM      2  C2  N4B d   1      -0.919  -2.972  -4.444  0.00  0.00     0.002 A 
ATOM      3  C3  N4B d   1      -2.239  -3.000  -4.064  0.00  0.00     0.002 A 
ATOM      4  C4  N4B d   1      -2.759  -1.956  -3.315  0.00  0.00    -0.004 A 
ATOM      5  C5  N4B d   1      -1.973  -0.887  -2.996  0.00  0.00     0.002 A 
ATOM      6  C6  N4B d   1      -0.646  -0.843  -3.375  0.00  0.00     0.002 A 
ENDROOT
BRANCH   1   7
ATOM      7  C1' N4B d   1       1.364  -1.839  -4.407  0.00  0.00     0.057 C 
BRANCH   7   8
ATOM      8  C2' N4B d   1       2.098  -1.081  -3.305  0.00  0.00     0.009 C 
BRANCH   8   9
ATOM      9  C3' N4B d   1       3.558  -0.846  -3.652  0.00  0.00     0.004 C 
ATOM     10  C4' N4B d   1       3.896   0.609  -3.784  0.00  0.00     0.003 C 
ENDBRANCH   8   9
ENDBRANCH   7   8
ENDBRANCH   1   7
TORSDOF 3
ENDMDL
