MODEL 1
REMARK minimizedAffinity 12.5077763
REMARK minimizedRMSD -1
REMARK  3 active torsions:
REMARK  status: ('A' for Active; 'I' for Inactive)
REMARK    1  A    between atoms: C3'_2  and  C2'_3 
REMARK    2  A    between atoms: C2'_3  and  C1'_4 
REMARK    3  A    between atoms: C1'_4  and  C1_5 
ROOT
ATOM      1  C1  N4B d   1      -1.312  -0.109   2.377  0.00  0.00    -0.075 A 
ATOM      2  C2  N4B d   1      -1.046  -0.755   1.150  0.00  0.00     0.002 A 
ATOM      3  C3  N4B d   1      -0.281  -0.131   0.197  0.00  0.00     0.002 A 
ATOM      4  C4  N4B d   1       0.213   1.142   0.439  0.00  0.00    -0.004 A 
ATOM      5  C5  N4B d   1      -0.027   1.750   1.637  0.00  0.00     0.002 A 
ATOM      6  C6  N4B d   1      -0.792   1.132   2.606  0.00  0.00     0.002 A 
ENDROOT
BRANCH   1   7
ATOM      7  C1' N4B d   1      -2.215  -0.716   3.416  0.00  0.00     0.057 C 
BRANCH   7   8
ATOM      8  C2' N4B d   1      -3.458   0.155   3.569  0.00  0.00     0.009 C 
BRANCH   8   9
ATOM      9  C3' N4B d   1      -4.552  -0.548   4.355  0.00  0.00     0.004 C 
ATOM     10  C4' N4B d   1      -5.928  -0.104   3.960  0.00  0.00     0.003 C 
ENDBRANCH   8   9
ENDBRANCH   7   8
ENDBRANCH   1   7
TORSDOF 3
ENDMDL
