MODEL 1
REMARK minimizedAffinity 7.95185041
REMARK minimizedRMSD -1
REMARK  3 active torsions:
REMARK  status: ('A' for Active; 'I' for Inactive)
REMARK    1  A    between atoms: C3'_2  and  C2'_3 
REMARK    2  A    between atoms: C2'_3  and  C1'_4 
REMARK    3  A    between atoms: C1'_4  and  C1_5 
ROOT
ATOM      1  C1  N4B d   1       3.517   1.834   1.456  0.00  0.00    -0.075 A 
ATOM      2  C2  N4B d   1       3.540   3.006   0.667  0.00  0.00     0.002 A 
ATOM      3  C3  N4B d   1       4.675   3.777   0.616  0.00  0.00     0.002 A 
ATOM      4  C4  N4B d   1       5.788   3.409   1.357  0.00  0.00    -0.004 A 
ATOM      5  C5  N4B d   1       5.766   2.263   2.097  0.00  0.00     0.002 A 
ATOM      6  C6  N4B d   1       4.633   1.476   2.154  0.00  0.00     0.002 A 
ENDROOT
BRANCH   1   7
ATOM      7  C1' N4B d   1       2.271   1.006   1.611  0.00  0.00     0.057 C 
BRANCH   7   8
ATOM      8  C2' N4B d   1       1.380   1.207   0.389  0.00  0.00     0.009 C 
BRANCH   8   9
ATOM      9  C3' N4B d   1      -0.088   0.988   0.713  0.00  0.00     0.004 C 
ATOM     10  C4' N4B d   1      -0.377   1.073   2.182  0.00  0.00     0.003 C 
ENDBRANCH   8   9
ENDBRANCH   7   8
ENDBRANCH   1   7
TORSDOF 3
ENDMDL
