MODEL 1
REMARK minimizedAffinity 3.53331971
REMARK minimizedRMSD -1
REMARK  3 active torsions:
REMARK  status: ('A' for Active; 'I' for Inactive)
REMARK    1  A    between atoms: C3'_2  and  C2'_3 
REMARK    2  A    between atoms: C2'_3  and  C1'_4 
REMARK    3  A    between atoms: C1'_4  and  C1_5 
ROOT
ATOM      1  C1  N4B d   1       0.177  -2.167  -4.277  0.00  0.00    -0.075 A 
ATOM      2  C2  N4B d   1      -0.389  -3.441  -4.504  0.00  0.00     0.002 A 
ATOM      3  C3  N4B d   1      -1.710  -3.668  -4.206  0.00  0.00     0.002 A 
ATOM      4  C4  N4B d   1      -2.477  -2.647  -3.665  0.00  0.00    -0.004 A 
ATOM      5  C5  N4B d   1      -1.930  -1.412  -3.473  0.00  0.00     0.002 A 
ATOM      6  C6  N4B d   1      -0.604  -1.168  -3.771  0.00  0.00     0.002 A 
ENDROOT
BRANCH   1   7
ATOM      7  C1' N4B d   1       1.638  -1.895  -4.506  0.00  0.00     0.057 C 
BRANCH   7   8
ATOM      8  C2' N4B d   1       2.181  -1.062  -3.348  0.00  0.00     0.009 C 
BRANCH   8   9
ATOM      9  C3' N4B d   1       3.579  -0.540  -3.630  0.00  0.00     0.004 C 
ATOM     10  C4' N4B d   1       3.646   0.958  -3.654  0.00  0.00     0.003 C 
ENDBRANCH   8   9
ENDBRANCH   7   8
ENDBRANCH   1   7
TORSDOF 3
ENDMDL
