MODEL 1
REMARK minimizedAffinity 7.14982224
REMARK minimizedRMSD -1
REMARK  3 active torsions:
REMARK  status: ('A' for Active; 'I' for Inactive)
REMARK    1  A    between atoms: C3'_2  and  C2'_3 
REMARK    2  A    between atoms: C2'_3  and  C1'_4 
REMARK    3  A    between atoms: C1'_4  and  C1_5 
ROOT
ATOM      1  C1  N4B d   1      -4.648  -1.335   2.889  0.00  0.00    -0.075 A 
ATOM      2  C2  N4B d   1      -4.646  -2.113   1.711  0.00  0.00     0.002 A 
ATOM      3  C3  N4B d   1      -3.460  -2.575   1.196  0.00  0.00     0.002 A 
ATOM      4  C4  N4B d   1      -2.267  -2.258   1.828  0.00  0.00    -0.004 A 
ATOM      5  C5  N4B d   1      -2.280  -1.527   2.980  0.00  0.00     0.002 A 
ATOM      6  C6  N4B d   1      -3.465  -1.059   3.512  0.00  0.00     0.002 A 
ENDROOT
BRANCH   1   7
ATOM      7  C1' N4B d   1      -5.911  -0.735   3.443  0.00  0.00     0.057 C 
BRANCH   7   8
ATOM      8  C2' N4B d   1      -5.609  -0.085   4.790  0.00  0.00     0.009 C 
BRANCH   8   9
ATOM      9  C3' N4B d   1      -5.970   1.391   4.802  0.00  0.00     0.004 C 
ATOM     10  C4' N4B d   1      -5.983   1.997   3.431  0.00  0.00     0.003 C 
ENDBRANCH   8   9
ENDBRANCH   7   8
ENDBRANCH   1   7
TORSDOF 3
ENDMDL
