MODEL 1
REMARK minimizedAffinity 4.25017118
REMARK minimizedRMSD -1
REMARK  3 active torsions:
REMARK  status: ('A' for Active; 'I' for Inactive)
REMARK    1  A    between atoms: C3'_2  and  C2'_3 
REMARK    2  A    between atoms: C2'_3  and  C1'_4 
REMARK    3  A    between atoms: C1'_4  and  C1_5 
ROOT
ATOM      1  C1  N4B d   1      -0.024  -5.999   1.547  0.00  0.00    -0.075 A 
ATOM      2  C2  N4B d   1       1.387  -5.964   1.558  0.00  0.00     0.002 A 
ATOM      3  C3  N4B d   1       2.063  -5.914   2.753  0.00  0.00     0.002 A 
ATOM      4  C4  N4B d   1       1.352  -5.878   3.943  0.00  0.00    -0.004 A 
ATOM      5  C5  N4B d   1      -0.011  -5.937   3.924  0.00  0.00     0.002 A 
ATOM      6  C6  N4B d   1      -0.703  -5.992   2.731  0.00  0.00     0.002 A 
ENDROOT
BRANCH   1   7
ATOM      7  C1' N4B d   1      -0.810  -5.968   0.264  0.00  0.00     0.057 C 
BRANCH   7   8
ATOM      8  C2' N4B d   1      -2.089  -5.165   0.480  0.00  0.00     0.009 C 
BRANCH   8   9
ATOM      9  C3' N4B d   1      -3.325  -5.943   0.061  0.00  0.00     0.004 C 
ATOM     10  C4' N4B d   1      -4.369  -5.996   1.136  0.00  0.00     0.003 C 
ENDBRANCH   8   9
ENDBRANCH   7   8
ENDBRANCH   1   7
TORSDOF 3
ENDMDL
