MODEL 1
REMARK minimizedAffinity 6.78820133
REMARK minimizedRMSD -1
REMARK  3 active torsions:
REMARK  status: ('A' for Active; 'I' for Inactive)
REMARK    1  A    between atoms: C3'_2  and  C2'_3 
REMARK    2  A    between atoms: C2'_3  and  C1'_4 
REMARK    3  A    between atoms: C1'_4  and  C1_5 
ROOT
ATOM      1  C1  N4B d   1       0.428  -5.979   2.884  0.00  0.00    -0.075 A 
ATOM      2  C2  N4B d   1       1.839  -5.935   2.911  0.00  0.00     0.002 A 
ATOM      3  C3  N4B d   1       2.502  -5.897   4.113  0.00  0.00     0.002 A 
ATOM      4  C4  N4B d   1       1.778  -5.885   5.296  0.00  0.00    -0.004 A 
ATOM      5  C5  N4B d   1       0.416  -5.954   5.262  0.00  0.00     0.002 A 
ATOM      6  C6  N4B d   1      -0.263  -5.996   4.061  0.00  0.00     0.002 A 
ENDROOT
BRANCH   1   7
ATOM      7  C1' N4B d   1      -0.344  -5.934   1.594  0.00  0.00     0.057 C 
BRANCH   7   8
ATOM      8  C2' N4B d   1      -1.737  -5.374   1.863  0.00  0.00     0.009 C 
BRANCH   8   9
ATOM      9  C3' N4B d   1      -2.694  -5.655   0.717  0.00  0.00     0.004 C 
ATOM     10  C4' N4B d   1      -4.078  -5.993   1.185  0.00  0.00     0.003 C 
ENDBRANCH   8   9
ENDBRANCH   7   8
ENDBRANCH   1   7
TORSDOF 3
ENDMDL
