MODEL 1
REMARK minimizedAffinity 3.26236153
REMARK minimizedRMSD -1
REMARK  1 active torsions:
REMARK  status: ('A' for Active; 'I' for Inactive)
REMARK    1  A    between atoms: C3_4  and  O_7 
ROOT
ATOM      1  C   UNL d   1       0.360   2.630   0.267  0.00  0.00    -0.033 A 
ATOM      2  C1  UNL d   1       0.406   1.567   1.171  0.00  0.00     0.039 A 
ATOM      3  C2  UNL d   1       0.837   1.781   2.482  0.00  0.00    -0.080 A 
ATOM      4  C3  UNL d   1       1.218   3.061   2.876  0.00  0.00     0.150 A 
ATOM      5  C4  UNL d   1       1.172   4.125   1.982  0.00  0.00    -0.007 A 
ATOM      6  C5  UNL d   1       0.742   3.910   0.673  0.00  0.00     0.039 A 
ENDROOT
BRANCH   4   7
ATOM      7  O   UNL d   1       1.651   3.317   4.143  0.00  0.00    -0.526 OA
ATOM      8  H5  UNL d   1       1.658   2.482   4.641  0.00  0.00     0.418 HD
ENDBRANCH   4   7
TORSDOF 1
ENDMDL
