MODEL 1
REMARK minimizedAffinity 2.14085436
REMARK minimizedRMSD -1
REMARK  1 active torsions:
REMARK  status: ('A' for Active; 'I' for Inactive)
REMARK    1  A    between atoms: C3_4  and  O_7 
ROOT
ATOM      1  C   UNL d   1      -5.999   4.051  -5.099  0.00  0.00    -0.033 A 
ATOM      2  C1  UNL d   1      -6.000   3.836  -3.720  0.00  0.00     0.039 A 
ATOM      3  C2  UNL d   1      -4.793   3.683  -3.035  0.00  0.00    -0.080 A 
ATOM      4  C3  UNL d   1      -3.594   3.750  -3.739  0.00  0.00     0.150 A 
ATOM      5  C4  UNL d   1      -3.586   3.968  -5.113  0.00  0.00    -0.007 A 
ATOM      6  C5  UNL d   1      -4.792   4.119  -5.796  0.00  0.00     0.039 A 
ENDROOT
BRANCH   4   7
ATOM      7  O   UNL d   1      -2.391   3.603  -3.115  0.00  0.00    -0.526 OA
ATOM      8  H5  UNL d   1      -2.553   3.429  -2.172  0.00  0.00     0.418 HD
ENDBRANCH   4   7
TORSDOF 1
ENDMDL
