MODEL 1
REMARK minimizedAffinity -0.230659649
REMARK minimizedRMSD -1
REMARK  1 active torsions:
REMARK  status: ('A' for Active; 'I' for Inactive)
REMARK    1  A    between atoms: C3_4  and  O_7 
ROOT
ATOM      1  C   UNL d   1      -2.959   3.740  -4.306  0.00  0.00    -0.033 A 
ATOM      2  C1  UNL d   1      -3.645   4.242  -5.414  0.00  0.00     0.039 A 
ATOM      3  C2  UNL d   1      -4.673   3.498  -5.997  0.00  0.00    -0.080 A 
ATOM      4  C3  UNL d   1      -5.005   2.257  -5.462  0.00  0.00     0.150 A 
ATOM      5  C4  UNL d   1      -4.329   1.752  -4.357  0.00  0.00    -0.007 A 
ATOM      6  C5  UNL d   1      -3.302   2.495  -3.776  0.00  0.00     0.039 A 
ENDROOT
BRANCH   4   7
ATOM      7  O   UNL d   1      -5.998   1.492  -6.000  0.00  0.00    -0.526 OA
ATOM      8  H5  UNL d   1      -6.357   1.955  -6.775  0.00  0.00     0.418 HD
ENDBRANCH   4   7
TORSDOF 1
ENDMDL
