MODEL 1
REMARK minimizedAffinity 1.47289574
REMARK minimizedRMSD -1
REMARK  1 active torsions:
REMARK  status: ('A' for Active; 'I' for Inactive)
REMARK    1  A    between atoms: C3_4  and  O_7 
ROOT
ATOM      1  C   UNL d   1       0.778   1.946   0.608  0.00  0.00    -0.033 A 
ATOM      2  C1  UNL d   1       0.899   1.004   1.631  0.00  0.00     0.039 A 
ATOM      3  C2  UNL d   1       1.280   1.406   2.913  0.00  0.00    -0.080 A 
ATOM      4  C3  UNL d   1       1.536   2.752   3.158  0.00  0.00     0.150 A 
ATOM      5  C4  UNL d   1       1.415   3.697   2.145  0.00  0.00    -0.007 A 
ATOM      6  C5  UNL d   1       1.035   3.294   0.866  0.00  0.00     0.039 A 
ENDROOT
BRANCH   4   7
ATOM      7  O   UNL d   1       1.916   3.192   4.391  0.00  0.00    -0.526 OA
ATOM      8  H5  UNL d   1       1.986   2.424   4.984  0.00  0.00     0.418 HD
ENDBRANCH   4   7
TORSDOF 1
ENDMDL
