MODEL 1
REMARK minimizedAffinity -0.993211985
REMARK minimizedRMSD -1
REMARK  1 active torsions:
REMARK  status: ('A' for Active; 'I' for Inactive)
REMARK    1  A    between atoms: C3_4  and  O_7 
ROOT
ATOM      1  C   UNL d   1      -0.533   1.721  -0.271  0.00  0.00    -0.033 A 
ATOM      2  C1  UNL d   1       0.360   2.252   0.662  0.00  0.00     0.039 A 
ATOM      3  C2  UNL d   1       0.718   1.509   1.789  0.00  0.00    -0.080 A 
ATOM      4  C3  UNL d   1       0.178   0.239   1.971  0.00  0.00     0.150 A 
ATOM      5  C4  UNL d   1      -0.708  -0.298   1.043  0.00  0.00    -0.007 A 
ATOM      6  C5  UNL d   1      -1.066   0.445  -0.081  0.00  0.00     0.039 A 
ENDROOT
BRANCH   4   7
ATOM      7  O   UNL d   1       0.495  -0.521   3.057  0.00  0.00    -0.526 OA
ATOM      8  H5  UNL d   1       1.095  -0.011   3.626  0.00  0.00     0.418 HD
ENDBRANCH   4   7
TORSDOF 1
ENDMDL
