MODEL 1
REMARK minimizedAffinity -3.73346615
REMARK minimizedRMSD -1
REMARK  1 active torsions:
REMARK  status: ('A' for Active; 'I' for Inactive)
REMARK    1  A    between atoms: C3_4  and  O_7 
ROOT
ATOM      1  C   UNL d   1      -4.123   3.511  -4.151  0.00  0.00    -0.033 A 
ATOM      2  C1  UNL d   1      -2.889   3.658  -3.516  0.00  0.00     0.039 A 
ATOM      3  C2  UNL d   1      -1.873   4.399  -4.124  0.00  0.00    -0.080 A 
ATOM      4  C3  UNL d   1      -2.105   4.989  -5.363  0.00  0.00     0.150 A 
ATOM      5  C4  UNL d   1      -3.334   4.849  -6.000  0.00  0.00    -0.007 A 
ATOM      6  C5  UNL d   1      -4.347   4.108  -5.392  0.00  0.00     0.039 A 
ENDROOT
BRANCH   4   7
ATOM      7  O   UNL d   1      -1.143   5.717  -5.997  0.00  0.00    -0.526 OA
ATOM      8  H5  UNL d   1      -0.338   5.704  -5.453  0.00  0.00     0.418 HD
ENDBRANCH   4   7
TORSDOF 1
ENDMDL
