MODEL 1
REMARK minimizedAffinity -0.185304582
REMARK minimizedRMSD -1
REMARK  1 active torsions:
REMARK  status: ('A' for Active; 'I' for Inactive)
REMARK    1  A    between atoms: C3_4  and  O_7 
ROOT
ATOM      1  C   UNL d   1      -5.954   1.657  -3.914  0.00  0.00    -0.033 A 
ATOM      2  C1  UNL d   1      -5.240   2.626  -3.207  0.00  0.00     0.039 A 
ATOM      3  C2  UNL d   1      -4.566   3.639  -3.892  0.00  0.00    -0.080 A 
ATOM      4  C3  UNL d   1      -4.615   3.672  -5.283  0.00  0.00     0.150 A 
ATOM      5  C4  UNL d   1      -5.328   2.713  -5.994  0.00  0.00    -0.007 A 
ATOM      6  C5  UNL d   1      -5.999   1.701  -5.308  0.00  0.00     0.039 A 
ENDROOT
BRANCH   4   7
ATOM      7  O   UNL d   1      -3.969   4.638  -5.996  0.00  0.00    -0.526 OA
ATOM      8  H5  UNL d   1      -3.495   5.215  -5.374  0.00  0.00     0.418 HD
ENDBRANCH   4   7
TORSDOF 1
ENDMDL
