MODEL 1
REMARK minimizedAffinity 1.00341177
REMARK minimizedRMSD -1
REMARK  1 active torsions:
REMARK  status: ('A' for Active; 'I' for Inactive)
REMARK    1  A    between atoms: C3_4  and  O_7 
ROOT
ATOM      1  C   UNL d   1       0.327   2.793   0.682  0.00  0.00    -0.033 A 
ATOM      2  C1  UNL d   1       0.406   1.517   0.120  0.00  0.00     0.039 A 
ATOM      3  C2  UNL d   1       0.439   0.390   0.945  0.00  0.00    -0.080 A 
ATOM      4  C3  UNL d   1       0.391   0.553   2.326  0.00  0.00     0.150 A 
ATOM      5  C4  UNL d   1       0.309   1.821   2.892  0.00  0.00    -0.007 A 
ATOM      6  C5  UNL d   1       0.277   2.945   2.068  0.00  0.00     0.039 A 
ENDROOT
BRANCH   4   7
ATOM      7  O   UNL d   1       0.425  -0.516   3.171  0.00  0.00    -0.526 OA
ATOM      8  H5  UNL d   1       0.512  -1.326   2.641  0.00  0.00     0.418 HD
ENDBRANCH   4   7
TORSDOF 1
ENDMDL
