MODEL 1
REMARK minimizedAffinity -1.60384691
REMARK minimizedRMSD -1
REMARK  1 active torsions:
REMARK  status: ('A' for Active; 'I' for Inactive)
REMARK    1  A    between atoms: C3_4  and  O_7 
ROOT
ATOM      1  C   UNL d   1      -6.000   3.031  -4.725  0.00  0.00    -0.033 A 
ATOM      2  C1  UNL d   1      -5.821   3.936  -5.773  0.00  0.00     0.039 A 
ATOM      3  C2  UNL d   1      -4.567   4.507  -5.998  0.00  0.00    -0.080 A 
ATOM      4  C3  UNL d   1      -3.501   4.164  -5.170  0.00  0.00     0.150 A 
ATOM      5  C4  UNL d   1      -3.672   3.260  -4.127  0.00  0.00    -0.007 A 
ATOM      6  C5  UNL d   1      -4.925   2.692  -3.903  0.00  0.00     0.039 A 
ENDROOT
BRANCH   4   7
ATOM      7  O   UNL d   1      -2.260   4.699  -5.348  0.00  0.00    -0.526 OA
ATOM      8  H5  UNL d   1      -2.299   5.328  -6.088  0.00  0.00     0.418 HD
ENDBRANCH   4   7
TORSDOF 1
ENDMDL
