MODEL 1
REMARK minimizedAffinity -2.17111897
REMARK minimizedRMSD -1
REMARK  1 active torsions:
REMARK  status: ('A' for Active; 'I' for Inactive)
REMARK    1  A    between atoms: C3_4  and  O_7 
ROOT
ATOM      1  C   UNL d   1      -4.226   1.387  -5.226  0.00  0.00    -0.033 A 
ATOM      2  C1  UNL d   1      -5.386   1.587  -5.976  0.00  0.00     0.039 A 
ATOM      3  C2  UNL d   1      -5.997   2.843  -6.000  0.00  0.00    -0.080 A 
ATOM      4  C3  UNL d   1      -5.437   3.889  -5.271  0.00  0.00     0.150 A 
ATOM      5  C4  UNL d   1      -4.279   3.697  -4.524  0.00  0.00    -0.007 A 
ATOM      6  C5  UNL d   1      -3.671   2.443  -4.501  0.00  0.00     0.039 A 
ENDROOT
BRANCH   4   7
ATOM      7  O   UNL d   1      -6.000   5.130  -5.259  0.00  0.00    -0.526 OA
ATOM      8  H5  UNL d   1      -6.810   5.106  -5.796  0.00  0.00     0.418 HD
ENDBRANCH   4   7
TORSDOF 1
ENDMDL
