MODEL 1
REMARK minimizedAffinity -1.30804729
REMARK minimizedRMSD -1
REMARK  1 active torsions:
REMARK  status: ('A' for Active; 'I' for Inactive)
REMARK    1  A    between atoms: C3_4  and  O_7 
ROOT
ATOM      1  C   UNL d   1      -5.995   3.022  -4.735  0.00  0.00    -0.033 A 
ATOM      2  C1  UNL d   1      -5.980   4.071  -5.656  0.00  0.00     0.039 A 
ATOM      3  C2  UNL d   1      -4.774   4.684  -6.000  0.00  0.00    -0.080 A 
ATOM      4  C3  UNL d   1      -3.591   4.238  -5.416  0.00  0.00     0.150 A 
ATOM      5  C4  UNL d   1      -3.598   3.191  -4.501  0.00  0.00    -0.007 A 
ATOM      6  C5  UNL d   1      -4.804   2.581  -4.158  0.00  0.00     0.039 A 
ENDROOT
BRANCH   4   7
ATOM      7  O   UNL d   1      -2.389   4.808  -5.717  0.00  0.00    -0.526 OA
ATOM      8  H5  UNL d   1      -2.542   5.537  -6.341  0.00  0.00     0.418 HD
ENDBRANCH   4   7
TORSDOF 1
ENDMDL
