MODEL 1
REMARK minimizedAffinity -0.642235935
REMARK minimizedRMSD -1
REMARK  1 active torsions:
REMARK  status: ('A' for Active; 'I' for Inactive)
REMARK    1  A    between atoms: C3_4  and  O_7 
ROOT
ATOM      1  C   UNL d   1      -6.000   2.710  -5.342  0.00  0.00    -0.033 A 
ATOM      2  C1  UNL d   1      -4.811   2.149  -4.872  0.00  0.00     0.039 A 
ATOM      3  C2  UNL d   1      -3.614   2.863  -4.967  0.00  0.00    -0.080 A 
ATOM      4  C3  UNL d   1      -3.621   4.135  -5.532  0.00  0.00     0.150 A 
ATOM      5  C4  UNL d   1      -4.802   4.702  -5.999  0.00  0.00    -0.007 A 
ATOM      6  C5  UNL d   1      -5.996   3.987  -5.905  0.00  0.00     0.039 A 
ENDROOT
BRANCH   4   7
ATOM      7  O   UNL d   1      -2.478   4.868  -5.651  0.00  0.00    -0.526 OA
ATOM      8  H5  UNL d   1      -1.736   4.339  -5.313  0.00  0.00     0.418 HD
ENDBRANCH   4   7
TORSDOF 1
ENDMDL
