MODEL 1
REMARK minimizedAffinity -1.66591322
REMARK minimizedRMSD -1
REMARK  1 active torsions:
REMARK  status: ('A' for Active; 'I' for Inactive)
REMARK    1  A    between atoms: C3_4  and  O_7 
ROOT
ATOM      1  C   UNL d   1       0.400   2.263   0.350  0.00  0.00    -0.033 A 
ATOM      2  C1  UNL d   1       0.027   2.653   1.637  0.00  0.00     0.039 A 
ATOM      3  C2  UNL d   1      -0.059   1.705   2.659  0.00  0.00    -0.080 A 
ATOM      4  C3  UNL d   1       0.232   0.372   2.380  0.00  0.00     0.150 A 
ATOM      5  C4  UNL d   1       0.608  -0.023   1.100  0.00  0.00    -0.007 A 
ATOM      6  C5  UNL d   1       0.692   0.925   0.081  0.00  0.00     0.039 A 
ENDROOT
BRANCH   4   7
ATOM      7  O   UNL d   1       0.158  -0.590   3.343  0.00  0.00    -0.526 OA
ATOM      8  H5  UNL d   1      -0.142  -0.176   4.169  0.00  0.00     0.418 HD
ENDBRANCH   4   7
TORSDOF 1
ENDMDL
