MODEL 1
REMARK minimizedAffinity 0.199598283
REMARK minimizedRMSD -1
REMARK  1 active torsions:
REMARK  status: ('A' for Active; 'I' for Inactive)
REMARK    1  A    between atoms: C3_4  and  O_7 
ROOT
ATOM      1  C   UNL d   1       0.404   1.764   0.022  0.00  0.00    -0.033 A 
ATOM      2  C1  UNL d   1       0.811   0.452  -0.226  0.00  0.00     0.039 A 
ATOM      3  C2  UNL d   1       0.874  -0.471   0.820  0.00  0.00    -0.080 A 
ATOM      4  C3  UNL d   1       0.527  -0.069   2.107  0.00  0.00     0.150 A 
ATOM      5  C4  UNL d   1       0.117   1.236   2.360  0.00  0.00    -0.007 A 
ATOM      6  C5  UNL d   1       0.056   2.156   1.315  0.00  0.00     0.039 A 
ENDROOT
BRANCH   4   7
ATOM      7  O   UNL d   1       0.577  -0.933   3.161  0.00  0.00    -0.526 OA
ATOM      8  H5  UNL d   1       0.904  -1.790   2.841  0.00  0.00     0.418 HD
ENDBRANCH   4   7
TORSDOF 1
ENDMDL
