MODEL 1
REMARK minimizedAffinity -0.406176299
REMARK minimizedRMSD -1
REMARK  1 active torsions:
REMARK  status: ('A' for Active; 'I' for Inactive)
REMARK    1  A    between atoms: C3_4  and  O_7 
ROOT
ATOM      1  C   UNL d   1      -3.899   3.371  -6.000  0.00  0.00    -0.033 A 
ATOM      2  C1  UNL d   1      -5.245   3.740  -5.994  0.00  0.00     0.039 A 
ATOM      3  C2  UNL d   1      -5.968   3.731  -4.800  0.00  0.00    -0.080 A 
ATOM      4  C3  UNL d   1      -5.334   3.353  -3.620  0.00  0.00     0.150 A 
ATOM      5  C4  UNL d   1      -3.992   2.988  -3.617  0.00  0.00    -0.007 A 
ATOM      6  C5  UNL d   1      -3.271   2.997  -4.811  0.00  0.00     0.039 A 
ENDROOT
BRANCH   4   7
ATOM      7  O   UNL d   1      -6.000   3.324  -2.431  0.00  0.00    -0.526 OA
ATOM      8  H5  UNL d   1      -6.926   3.572  -2.590  0.00  0.00     0.418 HD
ENDBRANCH   4   7
TORSDOF 1
ENDMDL
