MODEL 1
REMARK minimizedAffinity -0.666456699
REMARK minimizedRMSD -1
REMARK  1 active torsions:
REMARK  status: ('A' for Active; 'I' for Inactive)
REMARK    1  A    between atoms: C3_4  and  O_7 
ROOT
ATOM      1  C   UNL d   1      -5.983   2.904  -5.203  0.00  0.00    -0.033 A 
ATOM      2  C1  UNL d   1      -4.794   2.425  -4.650  0.00  0.00     0.039 A 
ATOM      3  C2  UNL d   1      -3.617   3.167  -4.772  0.00  0.00    -0.080 A 
ATOM      4  C3  UNL d   1      -3.642   4.384  -5.448  0.00  0.00     0.150 A 
ATOM      5  C4  UNL d   1      -4.824   4.868  -5.998  0.00  0.00    -0.007 A 
ATOM      6  C5  UNL d   1      -5.998   4.126  -5.876  0.00  0.00     0.039 A 
ENDROOT
BRANCH   4   7
ATOM      7  O   UNL d   1      -2.518   5.140  -5.596  0.00  0.00    -0.526 OA
ATOM      8  H5  UNL d   1      -1.773   4.667  -5.191  0.00  0.00     0.418 HD
ENDBRANCH   4   7
TORSDOF 1
ENDMDL
