MODEL 1
REMARK minimizedAffinity 1.6294446
REMARK minimizedRMSD -1
REMARK  1 active torsions:
REMARK  status: ('A' for Active; 'I' for Inactive)
REMARK    1  A    between atoms: C3_4  and  O_7 
ROOT
ATOM      1  C   UNL d   1      -4.660   1.090  -4.219  0.00  0.00    -0.033 A 
ATOM      2  C1  UNL d   1      -5.599   1.066  -5.253  0.00  0.00     0.039 A 
ATOM      3  C2  UNL d   1      -6.000   2.257  -5.862  0.00  0.00    -0.080 A 
ATOM      4  C3  UNL d   1      -5.454   3.463  -5.429  0.00  0.00     0.150 A 
ATOM      5  C4  UNL d   1      -4.516   3.493  -4.403  0.00  0.00    -0.007 A 
ATOM      6  C5  UNL d   1      -4.118   2.303  -3.795  0.00  0.00     0.039 A 
ENDROOT
BRANCH   4   7
ATOM      7  O   UNL d   1      -5.818   4.651  -5.990  0.00  0.00    -0.526 OA
ATOM      8  H5  UNL d   1      -6.495   4.478  -6.666  0.00  0.00     0.418 HD
ENDBRANCH   4   7
TORSDOF 1
ENDMDL
