MODEL 1
REMARK minimizedAffinity 6.9961319
REMARK minimizedRMSD -1
REMARK  2 active torsions:
REMARK  status: ('A' for Active; 'I' for Inactive)
REMARK    1  A    between atoms: C2'_3  and  C1'_4 
REMARK    2  A    between atoms: C1'_4  and  C1_5 
ROOT
ATOM      1  C1  I4B d   1      -2.893  -0.386  -0.972  0.00  0.00    -0.075 A 
ATOM      2  C2  I4B d   1      -2.766   0.472  -2.036  0.00  0.00     0.003 A 
ATOM      3  C3  I4B d   1      -2.938  -0.003  -3.359  0.00  0.00     0.002 A 
ATOM      4  C4  I4B d   1      -3.183  -1.343  -3.574  0.00  0.00    -0.004 A 
ATOM      5  C5  I4B d   1      -3.335  -2.208  -2.493  0.00  0.00     0.002 A 
ATOM      6  C6  I4B d   1      -3.201  -1.724  -1.183  0.00  0.00     0.003 A 
ENDROOT
BRANCH   1   7
ATOM      7  C1' I4B d   1      -2.673   0.141   0.410  0.00  0.00     0.060 C 
BRANCH   7   8
ATOM      8  C2' I4B d   1      -1.324   0.831   0.437  0.00  0.00    -0.013 C 
ATOM      9  C4' I4B d   1      -1.457   2.273   0.850  0.00  0.00     0.013 C 
ATOM     10  C3' I4B d   1      -0.437   0.076   1.382  0.00  0.00     0.013 C 
ENDBRANCH   7   8
ENDBRANCH   1   7
TORSDOF 2
ENDMDL
