MODEL 1
REMARK minimizedAffinity 0.111960433
REMARK minimizedRMSD -1
REMARK  2 active torsions:
REMARK  status: ('A' for Active; 'I' for Inactive)
REMARK    1  A    between atoms: C2'_3  and  C1'_4 
REMARK    2  A    between atoms: C1'_4  and  C1_5 
ROOT
ATOM      1  C1  I4B d   1      -1.722  -2.584   0.592  0.00  0.00    -0.075 A 
ATOM      2  C2  I4B d   1      -0.517  -3.240   0.564  0.00  0.00     0.003 A 
ATOM      3  C3  I4B d   1       0.628  -2.656   1.159  0.00  0.00     0.002 A 
ATOM      4  C4  I4B d   1       0.534  -1.400   1.722  0.00  0.00    -0.004 A 
ATOM      5  C5  I4B d   1      -0.693  -0.746   1.770  0.00  0.00     0.002 A 
ATOM      6  C6  I4B d   1      -1.831  -1.346   1.212  0.00  0.00     0.003 A 
ENDROOT
BRANCH   1   7
ATOM      7  C1' I4B d   1      -2.902  -3.215  -0.075  0.00  0.00     0.060 C 
BRANCH   7   8
ATOM      8  C2' I4B d   1      -2.579  -3.372  -1.547  0.00  0.00    -0.013 C 
ATOM      9  C4' I4B d   1      -3.128  -4.664  -2.091  0.00  0.00     0.013 C 
ATOM     10  C3' I4B d   1      -3.149  -2.192  -2.274  0.00  0.00     0.013 C 
ENDBRANCH   7   8
ENDBRANCH   1   7
TORSDOF 2
ENDMDL
