MODEL 1
REMARK minimizedAffinity 4.92957878
REMARK minimizedRMSD -1
REMARK  2 active torsions:
REMARK  status: ('A' for Active; 'I' for Inactive)
REMARK    1  A    between atoms: C2'_3  and  C1'_4 
REMARK    2  A    between atoms: C1'_4  and  C1_5 
ROOT
ATOM      1  C1  I4B d   1       0.687  -1.915   0.931  0.00  0.00    -0.075 A 
ATOM      2  C2  I4B d   1      -0.262  -2.777   0.441  0.00  0.00     0.003 A 
ATOM      3  C3  I4B d   1      -1.638  -2.468   0.565  0.00  0.00     0.002 A 
ATOM      4  C4  I4B d   1      -2.020  -1.318   1.226  0.00  0.00    -0.004 A 
ATOM      5  C5  I4B d   1      -1.056  -0.434   1.702  0.00  0.00     0.002 A 
ATOM      6  C6  I4B d   1       0.306  -0.728   1.543  0.00  0.00     0.003 A 
ENDROOT
BRANCH   1   7
ATOM      7  C1' I4B d   1       2.130  -2.289   0.812  0.00  0.00     0.060 C 
BRANCH   7   8
ATOM      8  C2' I4B d   1       2.407  -2.629  -0.638  0.00  0.00    -0.013 C 
ATOM      9  C4' I4B d   1       1.631  -3.844  -1.071  0.00  0.00     0.013 C 
ATOM     10  C3' I4B d   1       2.049  -1.433  -1.470  0.00  0.00     0.013 C 
ENDBRANCH   7   8
ENDBRANCH   1   7
TORSDOF 2
ENDMDL
