MODEL 1
REMARK minimizedAffinity 9.76481342
REMARK minimizedRMSD -1
REMARK  0 active torsions:
REMARK  status: ('A' for Active; 'I' for Inactive)
ROOT
ATOM      1  O1  BZF d   1      -2.696   2.094   4.929  0.00  0.00    -0.204 OA
ATOM      2  C2  BZF d   1      -3.588   2.303   5.963  0.00  0.00     0.174 A 
ATOM      3  C3  BZF d   1      -4.515   1.325   6.000  0.00  0.00    -0.012 A 
ATOM      4  C3A BZF d   1      -4.128   0.401   4.979  0.00  0.00    -0.107 A 
ATOM      5  C4  BZF d   1      -4.646  -0.784   4.539  0.00  0.00     0.055 A 
ATOM      6  C5  BZF d   1      -4.072  -1.401   3.473  0.00  0.00    -0.016 A 
ATOM      7  C6  BZF d   1      -2.983  -0.860   2.821  0.00  0.00     0.022 A 
ATOM      8  C7  BZF d   1      -2.431   0.310   3.224  0.00  0.00     0.029 A 
ATOM      9  C7A BZF d   1      -2.989   0.920   4.321  0.00  0.00     0.058 A 
ENDROOT
TORSDOF 0
ENDMDL
