MODEL 1
REMARK minimizedAffinity 9.91708946
REMARK minimizedRMSD -1
REMARK  0 active torsions:
REMARK  status: ('A' for Active; 'I' for Inactive)
ROOT
ATOM      1  O1  BZF d   1      -1.206   0.686   4.564  0.00  0.00    -0.204 OA
ATOM      2  C2  BZF d   1      -2.457   0.777   5.141  0.00  0.00     0.174 A 
ATOM      3  C3  BZF d   1      -3.387   0.188   4.363  0.00  0.00    -0.012 A 
ATOM      4  C3A BZF d   1      -2.658  -0.383   3.272  0.00  0.00    -0.107 A 
ATOM      5  C4  BZF d   1      -3.024  -1.112   2.177  0.00  0.00     0.055 A 
ATOM      6  C5  BZF d   1      -2.077  -1.455   1.264  0.00  0.00    -0.016 A 
ATOM      7  C6  BZF d   1      -0.758  -1.081   1.412  0.00  0.00     0.022 A 
ATOM      8  C7  BZF d   1      -0.346  -0.362   2.485  0.00  0.00     0.029 A 
ATOM      9  C7A BZF d   1      -1.294  -0.043   3.425  0.00  0.00     0.058 A 
ENDROOT
TORSDOF 0
ENDMDL
