MODEL 1
REMARK minimizedAffinity 0.985370874
REMARK minimizedRMSD -1
REMARK  0 active torsions:
REMARK  status: ('A' for Active; 'I' for Inactive)
ROOT
ATOM      1  O1  BZF d   1      -2.151   0.566   3.869  0.00  0.00    -0.204 OA
ATOM      2  C2  BZF d   1      -1.867   1.097   5.112  0.00  0.00     0.174 A 
ATOM      3  C3  BZF d   1      -2.831   0.780   6.000  0.00  0.00    -0.012 A 
ATOM      4  C3A BZF d   1      -3.731  -0.076   5.288  0.00  0.00    -0.107 A 
ATOM      5  C4  BZF d   1      -4.878  -0.729   5.637  0.00  0.00     0.055 A 
ATOM      6  C5  BZF d   1      -5.556  -1.425   4.687  0.00  0.00    -0.016 A 
ATOM      7  C6  BZF d   1      -5.120  -1.484   3.380  0.00  0.00     0.022 A 
ATOM      8  C7  BZF d   1      -3.984  -0.856   2.987  0.00  0.00     0.029 A 
ATOM      9  C7A BZF d   1      -3.279  -0.179   3.952  0.00  0.00     0.058 A 
ENDROOT
TORSDOF 0
ENDMDL
