MODEL 1
REMARK minimizedAffinity -0.29016
REMARK minimizedRMSD -1
REMARK  0 active torsions:
REMARK  status: ('A' for Active; 'I' for Inactive)
ROOT
ATOM      1  O1  BZF d   1      -1.404  -0.547   2.943  0.00  0.00    -0.204 OA
ATOM      2  C2  BZF d   1      -1.190   0.550   3.755  0.00  0.00     0.174 A 
ATOM      3  C3  BZF d   1      -2.360   1.051   4.201  0.00  0.00    -0.012 A 
ATOM      4  C3A BZF d   1      -3.363   0.159   3.707  0.00  0.00    -0.107 A 
ATOM      5  C4  BZF d   1      -4.723   0.116   3.828  0.00  0.00     0.055 A 
ATOM      6  C5  BZF d   1      -5.415  -0.845   3.162  0.00  0.00    -0.016 A 
ATOM      7  C6  BZF d   1      -4.781  -1.775   2.363  0.00  0.00     0.022 A 
ATOM      8  C7  BZF d   1      -3.434  -1.775   2.216  0.00  0.00     0.029 A 
ATOM      9  C7A BZF d   1      -2.729  -0.825   2.914  0.00  0.00     0.058 A 
ENDROOT
TORSDOF 0
ENDMDL
