MODEL 1
REMARK minimizedAffinity 1.09354901
REMARK minimizedRMSD -1
REMARK  0 active torsions:
REMARK  status: ('A' for Active; 'I' for Inactive)
ROOT
ATOM      1  O1  BZF d   1      -1.114   4.526  -3.877  0.00  0.00    -0.204 OA
ATOM      2  C2  BZF d   1      -0.308   4.730  -4.981  0.00  0.00     0.174 A 
ATOM      3  C3  BZF d   1      -1.017   5.257  -6.000  0.00  0.00    -0.012 A 
ATOM      4  C3A BZF d   1      -2.329   5.476  -5.472  0.00  0.00    -0.107 A 
ATOM      5  C4  BZF d   1      -3.478   5.993  -5.998  0.00  0.00     0.055 A 
ATOM      6  C5  BZF d   1      -4.606   6.000  -5.241  0.00  0.00    -0.016 A 
ATOM      7  C6  BZF d   1      -4.623   5.493  -3.958  0.00  0.00     0.022 A 
ATOM      8  C7  BZF d   1      -3.506   4.975  -3.391  0.00  0.00     0.029 A 
ATOM      9  C7A BZF d   1      -2.356   4.996  -4.142  0.00  0.00     0.058 A 
ENDROOT
TORSDOF 0
ENDMDL
