MODEL 1
REMARK minimizedAffinity 6.91352701
REMARK minimizedRMSD -1
REMARK  0 active torsions:
REMARK  status: ('A' for Active; 'I' for Inactive)
ROOT
ATOM      1  O1  BZF d   1       4.431   4.294   1.874  0.00  0.00    -0.204 OA
ATOM      2  C2  BZF d   1       5.696   4.491   1.356  0.00  0.00     0.174 A 
ATOM      3  C3  BZF d   1       6.000   3.533   0.457  0.00  0.00    -0.012 A 
ATOM      4  C3A BZF d   1       4.817   2.736   0.342  0.00  0.00    -0.107 A 
ATOM      5  C4  BZF d   1       4.491   1.642  -0.408  0.00  0.00     0.055 A 
ATOM      6  C5  BZF d   1       3.276   1.058  -0.230  0.00  0.00    -0.016 A 
ATOM      7  C6  BZF d   1       2.367   1.538   0.690  0.00  0.00     0.022 A 
ATOM      8  C7  BZF d   1       2.644   2.624   1.453  0.00  0.00     0.029 A 
ATOM      9  C7A BZF d   1       3.857   3.236   1.253  0.00  0.00     0.058 A 
ENDROOT
TORSDOF 0
ENDMDL
