MODEL 1
REMARK minimizedAffinity 9.48353195
REMARK minimizedRMSD -1
REMARK  0 active torsions:
REMARK  status: ('A' for Active; 'I' for Inactive)
ROOT
ATOM      1  O1  BZF d   1      -1.846   0.997   4.050  0.00  0.00    -0.204 OA
ATOM      2  C2  BZF d   1      -2.064   1.067   2.688  0.00  0.00     0.174 A 
ATOM      3  C3  BZF d   1      -1.556  -0.017   2.066  0.00  0.00    -0.012 A 
ATOM      4  C3A BZF d   1      -1.065  -0.857   3.115  0.00  0.00    -0.107 A 
ATOM      5  C4  BZF d   1      -0.461  -2.082   3.132  0.00  0.00     0.055 A 
ATOM      6  C5  BZF d   1      -0.038  -2.593   4.318  0.00  0.00    -0.016 A 
ATOM      7  C6  BZF d   1      -0.199  -1.906   5.503  0.00  0.00     0.022 A 
ATOM      8  C7  BZF d   1      -0.797  -0.690   5.537  0.00  0.00     0.029 A 
ATOM      9  C7A BZF d   1      -1.254  -0.185   4.345  0.00  0.00     0.058 A 
ENDROOT
TORSDOF 0
ENDMDL
