MODEL 1
REMARK minimizedAffinity 8.73067379
REMARK minimizedRMSD -1
REMARK  0 active torsions:
REMARK  status: ('A' for Active; 'I' for Inactive)
ROOT
ATOM      1  O1  BZF d   1       0.372   4.551   0.534  0.00  0.00    -0.204 OA
ATOM      2  C2  BZF d   1      -0.022   5.545  -0.341  0.00  0.00     0.174 A 
ATOM      3  C3  BZF d   1      -1.305   5.371  -0.717  0.00  0.00    -0.012 A 
ATOM      4  C3A BZF d   1      -1.769   4.246   0.036  0.00  0.00    -0.107 A 
ATOM      5  C4  BZF d   1      -2.967   3.596   0.111  0.00  0.00     0.055 A 
ATOM      6  C5  BZF d   1      -3.070   2.487   0.890  0.00  0.00    -0.016 A 
ATOM      7  C6  BZF d   1      -1.994   1.998   1.601  0.00  0.00     0.022 A 
ATOM      8  C7  BZF d   1      -0.786   2.611   1.562  0.00  0.00     0.029 A 
ATOM      9  C7A BZF d   1      -0.688   3.751   0.802  0.00  0.00     0.058 A 
ENDROOT
TORSDOF 0
ENDMDL
