MODEL 1
REMARK minimizedAffinity 15.0682964
REMARK minimizedRMSD -1
REMARK  0 active torsions:
REMARK  status: ('A' for Active; 'I' for Inactive)
ROOT
ATOM      1  O1  BZF d   1       4.266   2.550  -1.158  0.00  0.00    -0.204 OA
ATOM      2  C2  BZF d   1       3.521   3.710  -1.243  0.00  0.00     0.174 A 
ATOM      3  C3  BZF d   1       2.539   3.582  -2.159  0.00  0.00    -0.012 A 
ATOM      4  C3A BZF d   1       2.622   2.228  -2.613  0.00  0.00    -0.107 A 
ATOM      5  C4  BZF d   1       1.904   1.493  -3.512  0.00  0.00     0.055 A 
ATOM      6  C5  BZF d   1       2.288   0.218  -3.780  0.00  0.00    -0.016 A 
ATOM      7  C6  BZF d   1       3.387  -0.353  -3.171  0.00  0.00     0.022 A 
ATOM      8  C7  BZF d   1       4.128   0.335  -2.268  0.00  0.00     0.029 A 
ATOM      9  C7A BZF d   1       3.722   1.613  -1.971  0.00  0.00     0.058 A 
ENDROOT
TORSDOF 0
ENDMDL
