MODEL 1
REMARK minimizedAffinity 6.2417202
REMARK minimizedRMSD -1
REMARK  0 active torsions:
REMARK  status: ('A' for Active; 'I' for Inactive)
ROOT
ATOM      1  O1  BZF d   1       5.729  -4.649  -0.372  0.00  0.00    -0.204 OA
ATOM      2  C2  BZF d   1       5.260  -5.948  -0.360  0.00  0.00     0.174 A 
ATOM      3  C3  BZF d   1       3.966  -5.986   0.020  0.00  0.00    -0.012 A 
ATOM      4  C3A BZF d   1       3.578  -4.617   0.171  0.00  0.00    -0.107 A 
ATOM      5  C4  BZF d   1       2.407  -4.006   0.517  0.00  0.00     0.055 A 
ATOM      6  C5  BZF d   1       2.380  -2.653   0.644  0.00  0.00    -0.016 A 
ATOM      7  C6  BZF d   1       3.505  -1.882   0.438  0.00  0.00     0.022 A 
ATOM      8  C7  BZF d   1       4.688  -2.443   0.088  0.00  0.00     0.029 A 
ATOM      9  C7A BZF d   1       4.711  -3.807  -0.073  0.00  0.00     0.058 A 
ENDROOT
TORSDOF 0
ENDMDL
