MODEL 1
REMARK minimizedAffinity 5.67899752
REMARK minimizedRMSD -1
REMARK  0 active torsions:
REMARK  status: ('A' for Active; 'I' for Inactive)
ROOT
ATOM      1  O1  BZF d   1       1.979  -4.501   0.026  0.00  0.00    -0.204 OA
ATOM      2  C2  BZF d   1       1.820  -3.129  -0.022  0.00  0.00     0.174 A 
ATOM      3  C3  BZF d   1       3.017  -2.508  -0.007  0.00  0.00    -0.012 A 
ATOM      4  C3A BZF d   1       3.987  -3.559  -0.038  0.00  0.00    -0.107 A 
ATOM      5  C4  BZF d   1       5.353  -3.576  -0.056  0.00  0.00     0.055 A 
ATOM      6  C5  BZF d   1       5.999  -4.771  -0.012  0.00  0.00    -0.016 A 
ATOM      7  C6  BZF d   1       5.312  -5.966   0.056  0.00  0.00     0.022 A 
ATOM      8  C7  BZF d   1       3.957  -5.999   0.071  0.00  0.00     0.029 A 
ATOM      9  C7A BZF d   1       3.301  -4.795  -0.007  0.00  0.00     0.058 A 
ENDROOT
TORSDOF 0
ENDMDL
