MODEL 1
REMARK minimizedAffinity 4.08452511
REMARK minimizedRMSD -1
REMARK  0 active torsions:
REMARK  status: ('A' for Active; 'I' for Inactive)
ROOT
ATOM      1  O1  BZF d   1      -2.230   0.321   2.531  0.00  0.00    -0.204 OA
ATOM      2  C2  BZF d   1      -1.781   1.475   3.144  0.00  0.00     0.174 A 
ATOM      3  C3  BZF d   1      -2.237   2.568   2.499  0.00  0.00    -0.012 A 
ATOM      4  C3A BZF d   1      -3.095   2.067   1.469  0.00  0.00    -0.107 A 
ATOM      5  C4  BZF d   1      -3.855   2.666   0.506  0.00  0.00     0.055 A 
ATOM      6  C5  BZF d   1      -4.519   1.889  -0.389  0.00  0.00    -0.016 A 
ATOM      7  C6  BZF d   1      -4.442   0.512  -0.354  0.00  0.00     0.022 A 
ATOM      8  C7  BZF d   1      -3.705  -0.128   0.586  0.00  0.00     0.029 A 
ATOM      9  C7A BZF d   1      -3.059   0.654   1.513  0.00  0.00     0.058 A 
ENDROOT
TORSDOF 0
ENDMDL
