MODEL 1
REMARK minimizedAffinity 7.0493784
REMARK minimizedRMSD -1
REMARK  0 active torsions:
REMARK  status: ('A' for Active; 'I' for Inactive)
ROOT
ATOM      1  O1  BZF d   1      -3.382   3.731  -0.765  0.00  0.00    -0.204 OA
ATOM      2  C2  BZF d   1      -3.609   2.672   0.092  0.00  0.00     0.174 A 
ATOM      3  C3  BZF d   1      -2.530   2.445   0.869  0.00  0.00    -0.012 A 
ATOM      4  C3A BZF d   1      -1.602   3.482   0.536  0.00  0.00    -0.107 A 
ATOM      5  C4  BZF d   1      -0.352   3.801   0.982  0.00  0.00     0.055 A 
ATOM      6  C5  BZF d   1       0.315   4.832   0.399  0.00  0.00    -0.016 A 
ATOM      7  C6  BZF d   1      -0.236   5.560  -0.636  0.00  0.00     0.022 A 
ATOM      8  C7  BZF d   1      -1.476   5.283  -1.109  0.00  0.00     0.029 A 
ATOM      9  C7A BZF d   1      -2.165   4.263  -0.499  0.00  0.00     0.058 A 
ENDROOT
TORSDOF 0
ENDMDL
