MODEL 1
REMARK minimizedAffinity 10.6155319
REMARK minimizedRMSD -1
REMARK  0 active torsions:
REMARK  status: ('A' for Active; 'I' for Inactive)
ROOT
ATOM      1  O1  BZF d   1       2.931  -3.469  -0.935  0.00  0.00    -0.204 OA
ATOM      2  C2  BZF d   1       1.567  -3.485  -0.716  0.00  0.00     0.174 A 
ATOM      3  C3  BZF d   1       1.232  -2.637   0.277  0.00  0.00    -0.012 A 
ATOM      4  C3A BZF d   1       2.452  -1.986   0.644  0.00  0.00    -0.107 A 
ATOM      5  C4  BZF d   1       2.764  -1.025   1.563  0.00  0.00     0.055 A 
ATOM      6  C5  BZF d   1       4.063  -0.660   1.722  0.00  0.00    -0.016 A 
ATOM      7  C6  BZF d   1       5.075  -1.238   0.984  0.00  0.00     0.022 A 
ATOM      8  C7  BZF d   1       4.814  -2.192   0.057  0.00  0.00     0.029 A 
ATOM      9  C7A BZF d   1       3.499  -2.539  -0.129  0.00  0.00     0.058 A 
ENDROOT
TORSDOF 0
ENDMDL
