MODEL 1
REMARK minimizedAffinity 6.67501163
REMARK minimizedRMSD -1
REMARK  0 active torsions:
REMARK  status: ('A' for Active; 'I' for Inactive)
ROOT
ATOM      1  O1  BZF d   1       4.893  -4.230  -0.479  0.00  0.00    -0.204 OA
ATOM      2  C2  BZF d   1       4.993  -5.574  -0.175  0.00  0.00     0.174 A 
ATOM      3  C3  BZF d   1       3.893  -6.000   0.478  0.00  0.00    -0.012 A 
ATOM      4  C3A BZF d   1       3.013  -4.872   0.507  0.00  0.00    -0.107 A 
ATOM      5  C4  BZF d   1       1.757  -4.674   1.005  0.00  0.00     0.055 A 
ATOM      6  C5  BZF d   1       1.206  -3.433   0.935  0.00  0.00    -0.016 A 
ATOM      7  C6  BZF d   1       1.885  -2.368   0.380  0.00  0.00     0.022 A 
ATOM      8  C7  BZF d   1       3.131  -2.517  -0.132  0.00  0.00     0.029 A 
ATOM      9  C7A BZF d   1       3.676  -3.777  -0.093  0.00  0.00     0.058 A 
ENDROOT
TORSDOF 0
ENDMDL
