MODEL 1
REMARK minimizedAffinity 4.50908422
REMARK minimizedRMSD -1
REMARK  0 active torsions:
REMARK  status: ('A' for Active; 'I' for Inactive)
ROOT
ATOM      1  O1  BZF d   1       5.967  -4.709   0.025  0.00  0.00    -0.204 OA
ATOM      2  C2  BZF d   1       5.512  -5.997   0.236  0.00  0.00     0.174 A 
ATOM      3  C3  BZF d   1       4.189  -6.000   0.497  0.00  0.00    -0.012 A 
ATOM      4  C3A BZF d   1       3.774  -4.638   0.357  0.00  0.00    -0.107 A 
ATOM      5  C4  BZF d   1       2.569  -4.006   0.476  0.00  0.00     0.055 A 
ATOM      6  C5  BZF d   1       2.517  -2.654   0.347  0.00  0.00    -0.016 A 
ATOM      7  C6  BZF d   1       3.648  -1.904   0.105  0.00  0.00     0.022 A 
ATOM      8  C7  BZF d   1       4.865  -2.486  -0.026  0.00  0.00     0.029 A 
ATOM      9  C7A BZF d   1       4.916  -3.855   0.070  0.00  0.00     0.058 A 
ENDROOT
TORSDOF 0
ENDMDL
