MODEL 1
REMARK minimizedAffinity 0.770881474
REMARK minimizedRMSD -1
REMARK  0 active torsions:
REMARK  status: ('A' for Active; 'I' for Inactive)
ROOT
ATOM      1  O1  BZF d   1      -0.491  -1.860   1.913  0.00  0.00    -0.204 OA
ATOM      2  C2  BZF d   1      -1.866  -1.761   1.824  0.00  0.00     0.174 A 
ATOM      3  C3  BZF d   1      -2.336  -2.522   0.815  0.00  0.00    -0.012 A 
ATOM      4  C3A BZF d   1      -1.192  -3.207   0.295  0.00  0.00    -0.107 A 
ATOM      5  C4  BZF d   1      -1.018  -4.118  -0.707  0.00  0.00     0.055 A 
ATOM      6  C5  BZF d   1       0.240  -4.535  -1.009  0.00  0.00    -0.016 A 
ATOM      7  C6  BZF d   1       1.345  -4.059  -0.334  0.00  0.00     0.022 A 
ATOM      8  C7  BZF d   1       1.222  -3.159   0.672  0.00  0.00     0.029 A 
ATOM      9  C7A BZF d   1      -0.051  -2.760   1.001  0.00  0.00     0.058 A 
ENDROOT
TORSDOF 0
ENDMDL
