MODEL 1
REMARK minimizedAffinity 15.6259651
REMARK minimizedRMSD -1
REMARK  0 active torsions:
REMARK  status: ('A' for Active; 'I' for Inactive)
ROOT
ATOM      1  O1  BZF d   1      -4.304   0.361  -2.483  0.00  0.00    -0.204 OA
ATOM      2  C2  BZF d   1      -5.227  -0.660  -2.360  0.00  0.00     0.174 A 
ATOM      3  C3  BZF d   1      -6.000  -0.476  -1.270  0.00  0.00    -0.012 A 
ATOM      4  C3A BZF d   1      -5.592   0.783  -0.726  0.00  0.00    -0.107 A 
ATOM      5  C4  BZF d   1      -6.000   1.518   0.350  0.00  0.00     0.055 A 
ATOM      6  C5  BZF d   1      -5.346   2.671   0.648  0.00  0.00    -0.016 A 
ATOM      7  C6  BZF d   1      -4.278   3.116  -0.103  0.00  0.00     0.022 A 
ATOM      8  C7  BZF d   1      -3.840   2.423  -1.183  0.00  0.00     0.029 A 
ATOM      9  C7A BZF d   1      -4.520   1.275  -1.507  0.00  0.00     0.058 A 
ENDROOT
TORSDOF 0
ENDMDL
