MODEL 1
REMARK minimizedAffinity 1.7944026
REMARK minimizedRMSD -1
REMARK  0 active torsions:
REMARK  status: ('A' for Active; 'I' for Inactive)
ROOT
ATOM      1  O1  BZF d   1      -5.524  -3.523   2.416  0.00  0.00    -0.204 OA
ATOM      2  C2  BZF d   1      -4.976  -4.488   1.594  0.00  0.00     0.174 A 
ATOM      3  C3  BZF d   1      -4.567  -5.554   2.313  0.00  0.00    -0.012 A 
ATOM      4  C3A BZF d   1      -4.963  -5.273   3.659  0.00  0.00    -0.107 A 
ATOM      5  C4  BZF d   1      -4.850  -5.960   4.834  0.00  0.00     0.055 A 
ATOM      6  C5  BZF d   1      -5.274  -5.375   5.985  0.00  0.00    -0.016 A 
ATOM      7  C6  BZF d   1      -5.811  -4.105   5.999  0.00  0.00     0.022 A 
ATOM      8  C7  BZF d   1      -5.948  -3.386   4.858  0.00  0.00     0.029 A 
ATOM      9  C7A BZF d   1      -5.551  -3.987   3.688  0.00  0.00     0.058 A 
ENDROOT
TORSDOF 0
ENDMDL
