MODEL 1
REMARK minimizedAffinity 4.35362148
REMARK minimizedRMSD -1
REMARK  0 active torsions:
REMARK  status: ('A' for Active; 'I' for Inactive)
ROOT
ATOM      1  O1  BZF d   1       4.115   2.152  -2.191  0.00  0.00    -0.204 OA
ATOM      2  C2  BZF d   1       3.331   1.016  -2.259  0.00  0.00     0.174 A 
ATOM      3  C3  BZF d   1       2.492   0.950  -1.206  0.00  0.00    -0.012 A 
ATOM      4  C3A BZF d   1       2.704   2.164  -0.479  0.00  0.00    -0.107 A 
ATOM      5  C4  BZF d   1       2.153   2.687   0.656  0.00  0.00     0.055 A 
ATOM      6  C5  BZF d   1       2.633   3.861   1.143  0.00  0.00    -0.016 A 
ATOM      7  C6  BZF d   1       3.666   4.535   0.525  0.00  0.00     0.022 A 
ATOM      8  C7  BZF d   1       4.241   4.058  -0.606  0.00  0.00     0.029 A 
ATOM      9  C7A BZF d   1       3.736   2.889  -1.119  0.00  0.00     0.058 A 
ENDROOT
TORSDOF 0
ENDMDL
