MODEL 1
REMARK minimizedAffinity -3.49005699
REMARK minimizedRMSD -1
REMARK  0 active torsions:
REMARK  status: ('A' for Active; 'I' for Inactive)
ROOT
ATOM      1  C   UNL d   1      -1.703   1.730   1.865  0.00  0.00    -0.002 A 
ATOM      2  C1  UNL d   1      -1.556   2.628   0.817  0.00  0.00     0.010 A 
ATOM      3  C2  UNL d   1      -0.761   2.309  -0.285  0.00  0.00     0.041 A 
ATOM      4  C3  UNL d   1      -0.112   1.059  -0.319  0.00  0.00    -0.075 A 
ATOM      5  S   UNL d   1       0.910   0.452  -1.568  0.00  0.00     0.015 SA
ATOM      6  C4  UNL d   1       1.174  -1.015  -0.740  0.00  0.00     0.022 A 
ATOM      7  C5  UNL d   1       0.507  -1.057   0.461  0.00  0.00     0.026 A 
ATOM      8  C6  UNL d   1      -0.246   0.137   0.723  0.00  0.00    -0.082 A 
ATOM      9  C7  UNL d   1      -1.058   0.491   1.828  0.00  0.00     0.045 A 
ENDROOT
TORSDOF 0
ENDMDL
