MODEL 1
REMARK minimizedAffinity 0.673797786
REMARK minimizedRMSD -1
REMARK  0 active torsions:
REMARK  status: ('A' for Active; 'I' for Inactive)
ROOT
ATOM      1  C   UNL d   1      -0.031  -0.438  -1.818  0.00  0.00    -0.002 A 
ATOM      2  C1  UNL d   1       0.729  -0.930  -0.767  0.00  0.00     0.010 A 
ATOM      3  C2  UNL d   1       0.578  -0.414   0.522  0.00  0.00     0.041 A 
ATOM      4  C3  UNL d   1      -0.361   0.614   0.738  0.00  0.00    -0.075 A 
ATOM      5  S   UNL d   1      -0.719   1.398   2.232  0.00  0.00     0.015 SA
ATOM      6  C4  UNL d   1      -1.890   2.404   1.509  0.00  0.00     0.022 A 
ATOM      7  C5  UNL d   1      -2.018   2.161   0.162  0.00  0.00     0.026 A 
ATOM      8  C6  UNL d   1      -1.140   1.125  -0.304  0.00  0.00    -0.082 A 
ATOM      9  C7  UNL d   1      -0.962   0.582  -1.600  0.00  0.00     0.045 A 
ENDROOT
TORSDOF 0
ENDMDL
