MODEL 1
REMARK minimizedAffinity -4.29681444
REMARK minimizedRMSD -1
REMARK  0 active torsions:
REMARK  status: ('A' for Active; 'I' for Inactive)
ROOT
ATOM      1  C   UNL d   1      -1.659   2.138   1.692  0.00  0.00    -0.002 A 
ATOM      2  C1  UNL d   1      -2.325   2.005   0.482  0.00  0.00     0.010 A 
ATOM      3  C2  UNL d   1      -1.868   1.109  -0.486  0.00  0.00     0.041 A 
ATOM      4  C3  UNL d   1      -0.719   0.340  -0.215  0.00  0.00    -0.075 A 
ATOM      5  S   UNL d   1       0.023  -0.821  -1.250  0.00  0.00     0.015 SA
ATOM      6  C4  UNL d   1       1.242  -1.169  -0.111  0.00  0.00     0.022 A 
ATOM      7  C5  UNL d   1       1.101  -0.426   1.037  0.00  0.00     0.026 A 
ATOM      8  C6  UNL d   1      -0.031   0.456   0.997  0.00  0.00    -0.082 A 
ATOM      9  C7  UNL d   1      -0.520   1.373   1.958  0.00  0.00     0.045 A 
ENDROOT
TORSDOF 0
ENDMDL
