MODEL 1
REMARK minimizedAffinity -3.71680355
REMARK minimizedRMSD -1
REMARK  0 active torsions:
REMARK  status: ('A' for Active; 'I' for Inactive)
ROOT
ATOM      1  C   UNL d   1      -0.004  -1.148  -0.753  0.00  0.00    -0.002 A 
ATOM      2  C1  UNL d   1       0.695  -1.409   0.417  0.00  0.00     0.010 A 
ATOM      3  C2  UNL d   1       0.518  -0.605   1.545  0.00  0.00     0.041 A 
ATOM      4  C3  UNL d   1      -0.383   0.476   1.477  0.00  0.00    -0.075 A 
ATOM      5  S   UNL d   1      -0.762   1.595   2.732  0.00  0.00     0.015 SA
ATOM      6  C4  UNL d   1      -1.860   2.445   1.745  0.00  0.00     0.022 A 
ATOM      7  C5  UNL d   1      -1.948   1.903   0.485  0.00  0.00     0.026 A 
ATOM      8  C6  UNL d   1      -1.099   0.758   0.310  0.00  0.00    -0.082 A 
ATOM      9  C7  UNL d   1      -0.897  -0.075  -0.817  0.00  0.00     0.045 A 
ENDROOT
TORSDOF 0
ENDMDL
