MODEL 1
REMARK minimizedAffinity -2.08015966
REMARK minimizedRMSD -1
REMARK  0 active torsions:
REMARK  status: ('A' for Active; 'I' for Inactive)
ROOT
ATOM      1  C   UNL d   1      -2.658   1.929   0.859  0.00  0.00    -0.002 A 
ATOM      2  C1  UNL d   1      -2.064   2.119   2.098  0.00  0.00     0.010 A 
ATOM      3  C2  UNL d   1      -0.840   1.517   2.399  0.00  0.00     0.041 A 
ATOM      4  C3  UNL d   1      -0.217   0.715   1.423  0.00  0.00    -0.075 A 
ATOM      5  S   UNL d   1       1.284  -0.120   1.568  0.00  0.00     0.015 SA
ATOM      6  C4  UNL d   1       1.173  -0.748  -0.012  0.00  0.00     0.022 A 
ATOM      7  C5  UNL d   1       0.025  -0.340  -0.649  0.00  0.00     0.026 A 
ATOM      8  C6  UNL d   1      -0.795   0.510   0.167  0.00  0.00    -0.082 A 
ATOM      9  C7  UNL d   1      -2.036   1.133  -0.107  0.00  0.00     0.045 A 
ENDROOT
TORSDOF 0
ENDMDL
