MODEL 1
REMARK minimizedAffinity -4.45030403
REMARK minimizedRMSD -1
REMARK  0 active torsions:
REMARK  status: ('A' for Active; 'I' for Inactive)
ROOT
ATOM      1  C   UNL d   1      -1.527   2.406   2.101  0.00  0.00    -0.002 A 
ATOM      2  C1  UNL d   1      -1.511   1.044   2.365  0.00  0.00     0.010 A 
ATOM      3  C2  UNL d   1      -0.774   0.173   1.560  0.00  0.00     0.041 A 
ATOM      4  C3  UNL d   1      -0.044   0.700   0.476  0.00  0.00    -0.075 A 
ATOM      5  S   UNL d   1       0.932  -0.176  -0.644  0.00  0.00     0.015 SA
ATOM      6  C4  UNL d   1       1.351   1.238  -1.498  0.00  0.00     0.022 A 
ATOM      7  C5  UNL d   1       0.770   2.360  -0.956  0.00  0.00     0.026 A 
ATOM      8  C6  UNL d   1      -0.043   2.068   0.191  0.00  0.00    -0.082 A 
ATOM      9  C7  UNL d   1      -0.801   2.925   1.025  0.00  0.00     0.045 A 
ENDROOT
TORSDOF 0
ENDMDL
