MODEL 1
REMARK minimizedAffinity 0.779004216
REMARK minimizedRMSD -1
REMARK  0 active torsions:
REMARK  status: ('A' for Active; 'I' for Inactive)
ROOT
ATOM      1  C   UNL d   1      -1.487   1.943  -0.495  0.00  0.00    -0.002 A 
ATOM      2  C1  UNL d   1      -1.703   2.079   0.869  0.00  0.00     0.010 A 
ATOM      3  C2  UNL d   1      -1.148   1.169   1.770  0.00  0.00     0.041 A 
ATOM      4  C3  UNL d   1      -0.362   0.110   1.273  0.00  0.00    -0.075 A 
ATOM      5  S   UNL d   1       0.419  -1.123   2.190  0.00  0.00     0.015 SA
ATOM      6  C4  UNL d   1       1.060  -1.859   0.793  0.00  0.00     0.022 A 
ATOM      7  C5  UNL d   1       0.696  -1.194  -0.354  0.00  0.00     0.026 A 
ATOM      8  C6  UNL d   1      -0.129  -0.047  -0.096  0.00  0.00    -0.082 A 
ATOM      9  C7  UNL d   1      -0.707   0.891  -0.984  0.00  0.00     0.045 A 
ENDROOT
TORSDOF 0
ENDMDL
