MODEL 1
REMARK minimizedAffinity -2.41618204
REMARK minimizedRMSD -1
REMARK  0 active torsions:
REMARK  status: ('A' for Active; 'I' for Inactive)
ROOT
ATOM      1  C   UNL d   1       1.138  -4.112  -2.790  0.00  0.00    -0.002 A 
ATOM      2  C1  UNL d   1       0.346  -3.425  -3.700  0.00  0.00     0.010 A 
ATOM      3  C2  UNL d   1      -0.154  -2.159  -3.391  0.00  0.00     0.041 A 
ATOM      4  C3  UNL d   1       0.160  -1.588  -2.142  0.00  0.00    -0.075 A 
ATOM      5  S   UNL d   1      -0.339  -0.049  -1.547  0.00  0.00     0.015 SA
ATOM      6  C4  UNL d   1       0.487  -0.267  -0.073  0.00  0.00     0.022 A 
ATOM      7  C5  UNL d   1       1.134  -1.478  -0.018  0.00  0.00     0.026 A 
ATOM      8  C6  UNL d   1       0.957  -2.260  -1.210  0.00  0.00    -0.082 A 
ATOM      9  C7  UNL d   1       1.448  -3.543  -1.552  0.00  0.00     0.045 A 
ENDROOT
TORSDOF 0
ENDMDL
