MODEL 1
REMARK minimizedAffinity -3.36678267
REMARK minimizedRMSD -1
REMARK  0 active torsions:
REMARK  status: ('A' for Active; 'I' for Inactive)
ROOT
ATOM      1  C   UNL d   1      -2.935   1.075   1.426  0.00  0.00    -0.002 A 
ATOM      2  C1  UNL d   1      -2.173   2.223   1.260  0.00  0.00     0.010 A 
ATOM      3  C2  UNL d   1      -0.888   2.150   0.718  0.00  0.00     0.041 A 
ATOM      4  C3  UNL d   1      -0.378   0.892   0.341  0.00  0.00    -0.075 A 
ATOM      5  S   UNL d   1       1.169   0.561  -0.345  0.00  0.00     0.015 SA
ATOM      6  C4  UNL d   1       0.855  -1.112  -0.434  0.00  0.00     0.022 A 
ATOM      7  C5  UNL d   1      -0.396  -1.428   0.043  0.00  0.00     0.026 A 
ATOM      8  C6  UNL d   1      -1.127  -0.278   0.497  0.00  0.00    -0.082 A 
ATOM      9  C7  UNL d   1      -2.425  -0.171   1.050  0.00  0.00     0.045 A 
ENDROOT
TORSDOF 0
ENDMDL
