MODEL 1
REMARK minimizedAffinity -4.17910671
REMARK minimizedRMSD -1
REMARK  0 active torsions:
REMARK  status: ('A' for Active; 'I' for Inactive)
ROOT
ATOM      1  C   UNL d   1       0.759  -0.350  -0.760  0.00  0.00     0.172 C 
ATOM      2  N   UNL d   1       0.090   0.249   0.370  0.00  0.00    -0.070 N 
ATOM      3  C1  UNL d   1      -1.233   0.096   0.688  0.00  0.00    -0.004 A 
ATOM      4  C2  UNL d   1      -1.479   0.824   1.832  0.00  0.00    -0.047 A 
ATOM      5  C3  UNL d   1      -0.262   1.436   2.215  0.00  0.00    -0.047 A 
ATOM      6  C4  UNL d   1       0.693   1.064   1.292  0.00  0.00    -0.004 A 
ENDROOT
TORSDOF 0
ENDMDL
