MODEL 1
REMARK minimizedAffinity -2.36170435
REMARK minimizedRMSD -1
REMARK  0 active torsions:
REMARK  status: ('A' for Active; 'I' for Inactive)
ROOT
ATOM      1  C   UNL d   1       0.303  -0.278  -0.873  0.00  0.00     0.172 C 
ATOM      2  N   UNL d   1      -0.220   0.353   0.316  0.00  0.00    -0.070 N 
ATOM      3  C1  UNL d   1      -1.210  -0.149   1.117  0.00  0.00    -0.004 A 
ATOM      4  C2  UNL d   1      -1.418   0.746   2.143  0.00  0.00    -0.047 A 
ATOM      5  C3  UNL d   1      -0.523   1.825   1.952  0.00  0.00    -0.047 A 
ATOM      6  C4  UNL d   1       0.207   1.556   0.813  0.00  0.00    -0.004 A 
ENDROOT
TORSDOF 0
ENDMDL
