MODEL 1
REMARK minimizedAffinity -3.70205975
REMARK minimizedRMSD -1
REMARK  0 active torsions:
REMARK  status: ('A' for Active; 'I' for Inactive)
ROOT
ATOM      1  C   UNL d   1      -1.079   1.472   2.213  0.00  0.00     0.172 C 
ATOM      2  N   UNL d   1      -0.617   0.693   1.089  0.00  0.00    -0.070 N 
ATOM      3  C1  UNL d   1      -1.387   0.276   0.036  0.00  0.00    -0.004 A 
ATOM      4  C2  UNL d   1      -0.578  -0.437  -0.822  0.00  0.00    -0.047 A 
ATOM      5  C3  UNL d   1       0.723  -0.449  -0.266  0.00  0.00    -0.047 A 
ATOM      6  C4  UNL d   1       0.670   0.258   0.917  0.00  0.00    -0.004 A 
ENDROOT
TORSDOF 0
ENDMDL
