MODEL 1
REMARK minimizedAffinity -2.95316935
REMARK minimizedRMSD -1
REMARK  0 active torsions:
REMARK  status: ('A' for Active; 'I' for Inactive)
ROOT
ATOM      1  C   UNL d   1       0.735  -1.105  -1.296  0.00  0.00     0.172 C 
ATOM      2  N   UNL d   1       0.102  -0.347  -0.242  0.00  0.00    -0.070 N 
ATOM      3  C1  UNL d   1       0.748   0.279   0.790  0.00  0.00    -0.004 A 
ATOM      4  C2  UNL d   1      -0.205   0.890   1.576  0.00  0.00    -0.047 A 
ATOM      5  C3  UNL d   1      -1.468   0.621   0.996  0.00  0.00    -0.047 A 
ATOM      6  C4  UNL d   1      -1.249  -0.147  -0.128  0.00  0.00    -0.004 A 
ENDROOT
TORSDOF 0
ENDMDL
