MODEL 1
REMARK minimizedAffinity -3.23566604
REMARK minimizedRMSD -1
REMARK  0 active torsions:
REMARK  status: ('A' for Active; 'I' for Inactive)
ROOT
ATOM      1  C   UNL d   1      -0.741   2.047   2.179  0.00  0.00     0.172 C 
ATOM      2  N   UNL d   1      -0.362   1.076   1.180  0.00  0.00    -0.070 N 
ATOM      3  C1  UNL d   1       0.917   0.666   0.909  0.00  0.00    -0.004 A 
ATOM      4  C2  UNL d   1       0.856  -0.264  -0.106  0.00  0.00    -0.047 A 
ATOM      5  C3  UNL d   1      -0.506  -0.419  -0.457  0.00  0.00    -0.047 A 
ATOM      6  C4  UNL d   1      -1.238   0.422   0.354  0.00  0.00    -0.004 A 
ENDROOT
TORSDOF 0
ENDMDL
