MODEL 1
REMARK minimizedAffinity -3.09889174
REMARK minimizedRMSD -1
REMARK  0 active torsions:
REMARK  status: ('A' for Active; 'I' for Inactive)
ROOT
ATOM      1  C   UNL d   1       0.281  -0.004  -1.155  0.00  0.00     0.172 C 
ATOM      2  N   UNL d   1      -0.455   0.424   0.011  0.00  0.00    -0.070 N 
ATOM      3  C1  UNL d   1       0.047   0.522   1.281  0.00  0.00    -0.004 A 
ATOM      4  C2  UNL d   1      -0.967   0.964   2.103  0.00  0.00    -0.047 A 
ATOM      5  C3  UNL d   1      -2.119   1.136   1.299  0.00  0.00    -0.047 A 
ATOM      6  C4  UNL d   1      -1.774   0.794   0.009  0.00  0.00    -0.004 A 
ENDROOT
TORSDOF 0
ENDMDL
