MODEL 1
REMARK minimizedAffinity -2.3363862
REMARK minimizedRMSD -1
REMARK  0 active torsions:
REMARK  status: ('A' for Active; 'I' for Inactive)
ROOT
ATOM      1  C   UNL d   1      -2.434  -0.164   0.001  0.00  0.00     0.172 C 
ATOM      2  N   UNL d   1      -1.386   0.626   0.604  0.00  0.00    -0.070 N 
ATOM      3  C1  UNL d   1      -0.268   1.091  -0.035  0.00  0.00    -0.004 A 
ATOM      4  C2  UNL d   1       0.479   1.799   0.882  0.00  0.00    -0.047 A 
ATOM      5  C3  UNL d   1      -0.215   1.758   2.115  0.00  0.00    -0.047 A 
ATOM      6  C4  UNL d   1      -1.366   1.026   1.915  0.00  0.00    -0.004 A 
ENDROOT
TORSDOF 0
ENDMDL
