MODEL 1
REMARK minimizedAffinity 11.9648285
REMARK minimizedRMSD -1
REMARK  0 active torsions:
REMARK  status: ('A' for Active; 'I' for Inactive)
ROOT
ATOM      1  O1  BZF d   1       0.062  -3.419   0.635  0.00  0.00    -0.204 OA
ATOM      2  C2  BZF d   1       0.989  -3.983   1.491  0.00  0.00     0.174 A 
ATOM      3  C3  BZF d   1       2.238  -3.587   1.172  0.00  0.00    -0.012 A 
ATOM      4  C3A BZF d   1       2.074  -2.648   0.104  0.00  0.00    -0.107 A 
ATOM      5  C4  BZF d   1       2.948  -1.897  -0.628  0.00  0.00     0.055 A 
ATOM      6  C5  BZF d   1       2.471  -1.136  -1.648  0.00  0.00    -0.016 A 
ATOM      7  C6  BZF d   1       1.129  -1.107  -1.966  0.00  0.00     0.022 A 
ATOM      8  C7  BZF d   1       0.223  -1.831  -1.265  0.00  0.00     0.029 A 
ATOM      9  C7A BZF d   1       0.698  -2.576  -0.213  0.00  0.00     0.058 A 
ENDROOT
TORSDOF 0
ENDMDL
