MODEL 1
REMARK minimizedAffinity 1.71609998
REMARK minimizedRMSD -1
REMARK  0 active torsions:
REMARK  status: ('A' for Active; 'I' for Inactive)
ROOT
ATOM      1  O1  BZF d   1       0.741   1.348  -2.068  0.00  0.00    -0.204 OA
ATOM      2  C2  BZF d   1       1.222   2.603  -2.389  0.00  0.00     0.174 A 
ATOM      3  C3  BZF d   1       2.568   2.632  -2.316  0.00  0.00    -0.012 A 
ATOM      4  C3A BZF d   1       2.958   1.289  -2.016  0.00  0.00    -0.107 A 
ATOM      5  C4  BZF d   1       4.168   0.681  -1.835  0.00  0.00     0.055 A 
ATOM      6  C5  BZF d   1       4.201  -0.631  -1.481  0.00  0.00    -0.016 A 
ATOM      7  C6  BZF d   1       3.046  -1.362  -1.294  0.00  0.00     0.022 A 
ATOM      8  C7  BZF d   1       1.823  -0.803  -1.467  0.00  0.00     0.029 A 
ATOM      9  C7A BZF d   1       1.787   0.513  -1.857  0.00  0.00     0.058 A 
ENDROOT
TORSDOF 0
ENDMDL
