MODEL 1
REMARK minimizedAffinity 8.14020157
REMARK minimizedRMSD -1
REMARK  0 active torsions:
REMARK  status: ('A' for Active; 'I' for Inactive)
ROOT
ATOM      1  O1  BZF d   1       0.333   1.004  -1.167  0.00  0.00    -0.204 OA
ATOM      2  C2  BZF d   1       0.297   2.265  -1.730  0.00  0.00     0.174 A 
ATOM      3  C3  BZF d   1       1.437   2.521  -2.403  0.00  0.00    -0.012 A 
ATOM      4  C3A BZF d   1       2.197   1.311  -2.329  0.00  0.00    -0.107 A 
ATOM      5  C4  BZF d   1       3.415   0.935  -2.821  0.00  0.00     0.055 A 
ATOM      6  C5  BZF d   1       3.903  -0.294  -2.508  0.00  0.00    -0.016 A 
ATOM      7  C6  BZF d   1       3.204  -1.169  -1.703  0.00  0.00     0.022 A 
ATOM      8  C7  BZF d   1       1.989  -0.844  -1.197  0.00  0.00     0.029 A 
ATOM      9  C7A BZF d   1       1.479   0.385  -1.538  0.00  0.00     0.058 A 
ENDROOT
TORSDOF 0
ENDMDL
