MODEL 1
REMARK minimizedAffinity 13.0556593
REMARK minimizedRMSD -1
REMARK  0 active torsions:
REMARK  status: ('A' for Active; 'I' for Inactive)
ROOT
ATOM      1  O1  BZF d   1       2.638   1.022  -2.697  0.00  0.00    -0.204 OA
ATOM      2  C2  BZF d   1       1.933   2.209  -2.745  0.00  0.00     0.174 A 
ATOM      3  C3  BZF d   1       0.715   2.065  -2.183  0.00  0.00    -0.012 A 
ATOM      4  C3A BZF d   1       0.692   0.728  -1.674  0.00  0.00    -0.107 A 
ATOM      5  C4  BZF d   1      -0.241  -0.002  -0.995  0.00  0.00     0.055 A 
ATOM      6  C5  BZF d   1       0.019  -1.304  -0.708  0.00  0.00    -0.016 A 
ATOM      7  C6  BZF d   1       1.199  -1.910  -1.090  0.00  0.00     0.022 A 
ATOM      8  C7  BZF d   1       2.157  -1.225  -1.761  0.00  0.00     0.029 A 
ATOM      9  C7A BZF d   1       1.910   0.100  -2.023  0.00  0.00     0.058 A 
ENDROOT
TORSDOF 0
ENDMDL
