MODEL 1
REMARK minimizedAffinity 3.51477551
REMARK minimizedRMSD -1
REMARK  0 active torsions:
REMARK  status: ('A' for Active; 'I' for Inactive)
ROOT
ATOM      1  O1  BZF d   1      -3.249  -1.499   4.778  0.00  0.00    -0.204 OA
ATOM      2  C2  BZF d   1      -2.648  -1.332   3.546  0.00  0.00     0.174 A 
ATOM      3  C3  BZF d   1      -3.247  -0.343   2.851  0.00  0.00    -0.012 A 
ATOM      4  C3A BZF d   1      -4.228   0.200   3.739  0.00  0.00    -0.107 A 
ATOM      5  C4  BZF d   1      -5.133   1.217   3.630  0.00  0.00     0.055 A 
ATOM      6  C5  BZF d   1      -5.998   1.444   4.653  0.00  0.00    -0.016 A 
ATOM      7  C6  BZF d   1      -5.988   0.673   5.797  0.00  0.00     0.022 A 
ATOM      8  C7  BZF d   1      -5.106  -0.344   5.953  0.00  0.00     0.029 A 
ATOM      9  C7A BZF d   1      -4.209  -0.555   4.934  0.00  0.00     0.058 A 
ENDROOT
TORSDOF 0
ENDMDL
