MODEL 1
REMARK minimizedAffinity 6.92670822
REMARK minimizedRMSD -1
REMARK  0 active torsions:
REMARK  status: ('A' for Active; 'I' for Inactive)
ROOT
ATOM      1  O1  BZF d   1       1.054   0.097  -0.440  0.00  0.00    -0.204 OA
ATOM      2  C2  BZF d   1       1.775  -1.052  -0.700  0.00  0.00     0.174 A 
ATOM      3  C3  BZF d   1       2.384  -0.972  -1.901  0.00  0.00    -0.012 A 
ATOM      4  C3A BZF d   1       2.096   0.344  -2.382  0.00  0.00    -0.107 A 
ATOM      5  C4  BZF d   1       2.438   1.024  -3.516  0.00  0.00     0.055 A 
ATOM      6  C5  BZF d   1       1.933   2.270  -3.716  0.00  0.00    -0.016 A 
ATOM      7  C6  BZF d   1       1.080   2.862  -2.808  0.00  0.00     0.022 A 
ATOM      8  C7  BZF d   1       0.716   2.228  -1.666  0.00  0.00     0.029 A 
ATOM      9  C7A BZF d   1       1.251   0.983  -1.446  0.00  0.00     0.058 A 
ENDROOT
TORSDOF 0
ENDMDL
