MODEL 1
REMARK minimizedAffinity 2.48732519
REMARK minimizedRMSD -1
REMARK  0 active torsions:
REMARK  status: ('A' for Active; 'I' for Inactive)
ROOT
ATOM      1  O1  BZF d   1      -4.937   1.265   5.561  0.00  0.00    -0.204 OA
ATOM      2  C2  BZF d   1      -4.059   2.238   5.999  0.00  0.00     0.174 A 
ATOM      3  C3  BZF d   1      -2.811   1.994   5.548  0.00  0.00    -0.012 A 
ATOM      4  C3A BZF d   1      -2.934   0.845   4.704  0.00  0.00    -0.107 A 
ATOM      5  C4  BZF d   1      -2.043   0.131   3.955  0.00  0.00     0.055 A 
ATOM      6  C5  BZF d   1      -2.470  -0.983   3.304  0.00  0.00    -0.016 A 
ATOM      7  C6  BZF d   1      -3.778  -1.414   3.385  0.00  0.00     0.022 A 
ATOM      8  C7  BZF d   1      -4.699  -0.736   4.112  0.00  0.00     0.029 A 
ATOM      9  C7A BZF d   1      -4.278   0.408   4.744  0.00  0.00     0.058 A 
ENDROOT
TORSDOF 0
ENDMDL
