MODEL 1
REMARK minimizedAffinity 3.81142998
REMARK minimizedRMSD -1
REMARK  0 active torsions:
REMARK  status: ('A' for Active; 'I' for Inactive)
ROOT
ATOM      1  O1  BZF d   1       0.946   0.673  -3.935  0.00  0.00    -0.204 OA
ATOM      2  C2  BZF d   1       1.037   1.411  -2.771  0.00  0.00     0.174 A 
ATOM      3  C3  BZF d   1       0.985   0.608  -1.689  0.00  0.00    -0.012 A 
ATOM      4  C3A BZF d   1       0.947  -0.724  -2.211  0.00  0.00    -0.107 A 
ATOM      5  C4  BZF d   1       0.904  -1.959  -1.630  0.00  0.00     0.055 A 
ATOM      6  C5  BZF d   1       0.800  -3.058  -2.422  0.00  0.00    -0.016 A 
ATOM      7  C6  BZF d   1       0.731  -2.959  -3.796  0.00  0.00     0.022 A 
ATOM      8  C7  BZF d   1       0.775  -1.756  -4.419  0.00  0.00     0.029 A 
ATOM      9  C7A BZF d   1       0.913  -0.645  -3.623  0.00  0.00     0.058 A 
ENDROOT
TORSDOF 0
ENDMDL
