MODEL 1
REMARK minimizedAffinity 5.76489925
REMARK minimizedRMSD -1
REMARK  0 active torsions:
REMARK  status: ('A' for Active; 'I' for Inactive)
ROOT
ATOM      1  O1  BZF d   1       1.164  -0.583  -3.253  0.00  0.00    -0.204 OA
ATOM      2  C2  BZF d   1       1.906   0.583  -3.230  0.00  0.00     0.174 A 
ATOM      3  C3  BZF d   1       2.773   0.577  -2.197  0.00  0.00    -0.012 A 
ATOM      4  C3A BZF d   1       2.625  -0.709  -1.588  0.00  0.00    -0.107 A 
ATOM      5  C4  BZF d   1       3.228  -1.319  -0.525  0.00  0.00     0.055 A 
ATOM      6  C5  BZF d   1       2.803  -2.553  -0.144  0.00  0.00    -0.016 A 
ATOM      7  C6  BZF d   1       1.776  -3.201  -0.798  0.00  0.00     0.022 A 
ATOM      8  C7  BZF d   1       1.151  -2.638  -1.861  0.00  0.00     0.029 A 
ATOM      9  C7A BZF d   1       1.601  -1.406  -2.269  0.00  0.00     0.058 A 
ENDROOT
TORSDOF 0
ENDMDL
