MODEL 1
REMARK minimizedAffinity -2.18600798
REMARK minimizedRMSD -1
REMARK  0 active torsions:
REMARK  status: ('A' for Active; 'I' for Inactive)
ROOT
ATOM      1  O1  BZF d   1      -0.257   1.043  -1.057  0.00  0.00    -0.204 OA
ATOM      2  C2  BZF d   1      -0.770  -0.066  -0.413  0.00  0.00     0.174 A 
ATOM      3  C3  BZF d   1       0.059  -1.122  -0.543  0.00  0.00    -0.012 A 
ATOM      4  C3A BZF d   1       1.204  -0.617  -1.238  0.00  0.00    -0.107 A 
ATOM      5  C4  BZF d   1       2.377  -1.182  -1.648  0.00  0.00     0.055 A 
ATOM      6  C5  BZF d   1       3.255  -0.434  -2.367  0.00  0.00    -0.016 A 
ATOM      7  C6  BZF d   1       2.989   0.879  -2.697  0.00  0.00     0.022 A 
ATOM      8  C7  BZF d   1       1.841   1.484  -2.308  0.00  0.00     0.029 A 
ATOM      9  C7A BZF d   1       0.967   0.741  -1.553  0.00  0.00     0.058 A 
ENDROOT
TORSDOF 0
ENDMDL
