MODEL 1
REMARK minimizedAffinity 5.93293905
REMARK minimizedRMSD -1
REMARK  0 active torsions:
REMARK  status: ('A' for Active; 'I' for Inactive)
ROOT
ATOM      1  O1  BZF d   1       2.874   0.264  -1.564  0.00  0.00    -0.204 OA
ATOM      2  C2  BZF d   1       2.655   1.367  -2.367  0.00  0.00     0.174 A 
ATOM      3  C3  BZF d   1       1.780   1.076  -3.351  0.00  0.00    -0.012 A 
ATOM      4  C3A BZF d   1       1.361  -0.268  -3.097  0.00  0.00    -0.107 A 
ATOM      5  C4  BZF d   1       0.488  -1.114  -3.720  0.00  0.00     0.055 A 
ATOM      6  C5  BZF d   1       0.360  -2.387  -3.262  0.00  0.00    -0.016 A 
ATOM      7  C6  BZF d   1       1.093  -2.849  -2.188  0.00  0.00     0.022 A 
ATOM      8  C7  BZF d   1       1.968  -2.046  -1.535  0.00  0.00     0.029 A 
ATOM      9  C7A BZF d   1       2.075  -0.749  -1.975  0.00  0.00     0.058 A 
ENDROOT
TORSDOF 0
ENDMDL
