MODEL 1
REMARK minimizedAffinity 4.26401091
REMARK minimizedRMSD -1
REMARK  0 active torsions:
REMARK  status: ('A' for Active; 'I' for Inactive)
ROOT
ATOM      1  O1  BZF d   1       1.072   1.435  -4.694  0.00  0.00    -0.204 OA
ATOM      2  C2  BZF d   1       1.281   1.100  -3.371  0.00  0.00     0.174 A 
ATOM      3  C3  BZF d   1       1.761   2.153  -2.680  0.00  0.00    -0.012 A 
ATOM      4  C3A BZF d   1       1.772   3.240  -3.610  0.00  0.00    -0.107 A 
ATOM      5  C4  BZF d   1       2.129   4.555  -3.515  0.00  0.00     0.055 A 
ATOM      6  C5  BZF d   1       2.091   5.332  -4.628  0.00  0.00    -0.016 A 
ATOM      7  C6  BZF d   1       1.705   4.828  -5.853  0.00  0.00     0.022 A 
ATOM      8  C7  BZF d   1       1.337   3.532  -5.997  0.00  0.00     0.029 A 
ATOM      9  C7A BZF d   1       1.343   2.751  -4.866  0.00  0.00     0.058 A 
ENDROOT
TORSDOF 0
ENDMDL
