MODEL 1
REMARK minimizedAffinity -1.36727417
REMARK minimizedRMSD -1
REMARK  0 active torsions:
REMARK  status: ('A' for Active; 'I' for Inactive)
ROOT
ATOM      1  O1  BZF d   1       0.745   1.723  -2.912  0.00  0.00    -0.204 OA
ATOM      2  C2  BZF d   1       2.077   1.582  -3.254  0.00  0.00     0.174 A 
ATOM      3  C3  BZF d   1       2.868   1.747  -2.175  0.00  0.00    -0.012 A 
ATOM      4  C3A BZF d   1       1.971   1.915  -1.073  0.00  0.00    -0.107 A 
ATOM      5  C4  BZF d   1       2.155   2.105   0.267  0.00  0.00     0.055 A 
ATOM      6  C5  BZF d   1       1.070   2.306   1.061  0.00  0.00    -0.016 A 
ATOM      7  C6  BZF d   1      -0.210   2.330   0.548  0.00  0.00     0.022 A 
ATOM      8  C7  BZF d   1      -0.443   2.142  -0.774  0.00  0.00     0.029 A 
ATOM      9  C7A BZF d   1       0.649   1.905  -1.573  0.00  0.00     0.058 A 
ENDROOT
TORSDOF 0
ENDMDL
