MODEL 1
REMARK minimizedAffinity 6.970541
REMARK minimizedRMSD -1
REMARK  0 active torsions:
REMARK  status: ('A' for Active; 'I' for Inactive)
ROOT
ATOM      1  O1  BZF d   1       0.292   1.909  -2.341  0.00  0.00    -0.204 OA
ATOM      2  C2  BZF d   1       1.461   2.485  -2.800  0.00  0.00     0.174 A 
ATOM      3  C3  BZF d   1       2.509   1.659  -2.605  0.00  0.00    -0.012 A 
ATOM      4  C3A BZF d   1       1.948   0.457  -2.069  0.00  0.00    -0.107 A 
ATOM      5  C4  BZF d   1       2.482  -0.739  -1.684  0.00  0.00     0.055 A 
ATOM      6  C5  BZF d   1       1.670  -1.679  -1.134  0.00  0.00    -0.016 A 
ATOM      7  C6  BZF d   1       0.321  -1.455  -0.950  0.00  0.00     0.022 A 
ATOM      8  C7  BZF d   1      -0.256  -0.286  -1.321  0.00  0.00     0.029 A 
ATOM      9  C7A BZF d   1       0.557   0.653  -1.907  0.00  0.00     0.058 A 
ENDROOT
TORSDOF 0
ENDMDL
