MODEL 1
REMARK minimizedAffinity 6.29738569
REMARK minimizedRMSD -1
REMARK  0 active torsions:
REMARK  status: ('A' for Active; 'I' for Inactive)
ROOT
ATOM      1  O1  BZF d   1       2.385   1.183  -1.265  0.00  0.00    -0.204 OA
ATOM      2  C2  BZF d   1       1.995   0.792  -2.531  0.00  0.00     0.174 A 
ATOM      3  C3  BZF d   1       0.660   0.919  -2.681  0.00  0.00    -0.012 A 
ATOM      4  C3A BZF d   1       0.199   1.508  -1.462  0.00  0.00    -0.107 A 
ATOM      5  C4  BZF d   1      -1.032   1.894  -1.013  0.00  0.00     0.055 A 
ATOM      6  C5  BZF d   1      -1.153   2.368   0.255  0.00  0.00    -0.016 A 
ATOM      7  C6  BZF d   1      -0.068   2.465   1.101  0.00  0.00     0.022 A 
ATOM      8  C7  BZF d   1       1.174   2.100   0.698  0.00  0.00     0.029 A 
ATOM      9  C7A BZF d   1       1.305   1.651  -0.593  0.00  0.00     0.058 A 
ENDROOT
TORSDOF 0
ENDMDL
