MODEL 1
REMARK minimizedAffinity 4.21734381
REMARK minimizedRMSD -1
REMARK  0 active torsions:
REMARK  status: ('A' for Active; 'I' for Inactive)
ROOT
ATOM      1  O1  BZF d   1       2.849   1.050  -1.389  0.00  0.00    -0.204 OA
ATOM      2  C2  BZF d   1       2.331   0.530  -2.560  0.00  0.00     0.174 A 
ATOM      3  C3  BZF d   1       0.984   0.586  -2.553  0.00  0.00    -0.012 A 
ATOM      4  C3A BZF d   1       0.642   1.264  -1.340  0.00  0.00    -0.107 A 
ATOM      5  C4  BZF d   1      -0.544   1.636  -0.775  0.00  0.00     0.055 A 
ATOM      6  C5  BZF d   1      -0.537   2.217   0.453  0.00  0.00    -0.016 A 
ATOM      7  C6  BZF d   1       0.635   2.436   1.147  0.00  0.00     0.022 A 
ATOM      8  C7  BZF d   1       1.837   2.087   0.625  0.00  0.00     0.029 A 
ATOM      9  C7A BZF d   1       1.836   1.530  -0.630  0.00  0.00     0.058 A 
ENDROOT
TORSDOF 0
ENDMDL
