MODEL 1
REMARK minimizedAffinity 8.92232513
REMARK minimizedRMSD -1
REMARK  0 active torsions:
REMARK  status: ('A' for Active; 'I' for Inactive)
ROOT
ATOM      1  O1  BZF d   1       3.245  -1.033  -0.394  0.00  0.00    -0.204 OA
ATOM      2  C2  BZF d   1       3.034   0.053  -1.221  0.00  0.00     0.174 A 
ATOM      3  C3  BZF d   1       1.806   0.002  -1.775  0.00  0.00    -0.012 A 
ATOM      4  C3A BZF d   1       1.176  -1.142  -1.189  0.00  0.00    -0.107 A 
ATOM      5  C4  BZF d   1      -0.059  -1.707  -1.327  0.00  0.00     0.055 A 
ATOM      6  C5  BZF d   1      -0.333  -2.864  -0.669  0.00  0.00    -0.016 A 
ATOM      7  C6  BZF d   1       0.605  -3.484   0.130  0.00  0.00     0.022 A 
ATOM      8  C7  BZF d   1       1.842  -2.959   0.301  0.00  0.00     0.029 A 
ATOM      9  C7A BZF d   1       2.111  -1.773  -0.336  0.00  0.00     0.058 A 
ENDROOT
TORSDOF 0
ENDMDL
