MODEL 1
REMARK minimizedAffinity 3.78756642
REMARK minimizedRMSD -1
REMARK  0 active torsions:
REMARK  status: ('A' for Active; 'I' for Inactive)
ROOT
ATOM      1  O1  BZF d   1      -0.558   3.382  -0.831  0.00  0.00    -0.204 OA
ATOM      2  C2  BZF d   1      -0.692   2.874   0.446  0.00  0.00     0.174 A 
ATOM      3  C3  BZF d   1      -0.026   1.708   0.570  0.00  0.00    -0.012 A 
ATOM      4  C3A BZF d   1       0.637   1.518  -0.684  0.00  0.00    -0.107 A 
ATOM      5  C4  BZF d   1       1.465   0.548  -1.171  0.00  0.00     0.055 A 
ATOM      6  C5  BZF d   1       1.882   0.622  -2.463  0.00  0.00    -0.016 A 
ATOM      7  C6  BZF d   1       1.486   1.648  -3.296  0.00  0.00     0.022 A 
ATOM      8  C7  BZF d   1       0.669   2.636  -2.856  0.00  0.00     0.029 A 
ATOM      9  C7A BZF d   1       0.272   2.582  -1.542  0.00  0.00     0.058 A 
ENDROOT
TORSDOF 0
ENDMDL
