MODEL 1
REMARK minimizedAffinity 4.2814374
REMARK minimizedRMSD -1
REMARK  0 active torsions:
REMARK  status: ('A' for Active; 'I' for Inactive)
ROOT
ATOM      1  O1  BZF d   1       3.111  -1.300  -2.109  0.00  0.00    -0.204 OA
ATOM      2  C2  BZF d   1       2.201  -2.015  -1.355  0.00  0.00     0.174 A 
ATOM      3  C3  BZF d   1       1.176  -1.229  -0.971  0.00  0.00    -0.012 A 
ATOM      4  C3A BZF d   1       1.416   0.036  -1.596  0.00  0.00    -0.107 A 
ATOM      5  C4  BZF d   1       0.738   1.221  -1.608  0.00  0.00     0.055 A 
ATOM      6  C5  BZF d   1       1.279   2.285  -2.258  0.00  0.00    -0.016 A 
ATOM      7  C6  BZF d   1       2.497   2.200  -2.902  0.00  0.00     0.022 A 
ATOM      8  C7  BZF d   1       3.203   1.043  -2.922  0.00  0.00     0.029 A 
ATOM      9  C7A BZF d   1       2.643  -0.042  -2.294  0.00  0.00     0.058 A 
ENDROOT
TORSDOF 0
ENDMDL
