MODEL 1
REMARK minimizedAffinity 10.1947012
REMARK minimizedRMSD -1
REMARK  1 active torsions:
REMARK  status: ('A' for Active; 'I' for Inactive)
REMARK    1  A    between atoms: C1_2  and  C2_3 
ROOT
ATOM      1  C2  UNL d   1      -3.676   0.315  -5.257  0.00  0.00    -0.073 A 
ATOM      2  C3  UNL d   1      -5.038   0.001  -5.193  0.00  0.00    -0.002 A 
ATOM      3  C4  UNL d   1      -6.000   0.995  -5.381  0.00  0.00     0.004 A 
ATOM      4  C5  UNL d   1      -5.610   2.308  -5.642  0.00  0.00    -0.004 A 
ATOM      5  C6  UNL d   1      -4.254   2.639  -5.721  0.00  0.00    -0.075 A 
ATOM      6  C7  UNL d   1      -3.818   4.048  -5.998  0.00  0.00     0.076 C 
ATOM      7  C8  UNL d   1      -3.294   1.636  -5.528  0.00  0.00     0.001 A 
ENDROOT
BRANCH   1   8
ATOM      8  C1  UNL d   1      -2.634  -0.756  -5.060  0.00  0.00     0.053 C 
ATOM      9  C   UNL d   1      -1.922  -0.620  -3.724  0.00  0.00     0.018 C 
ENDBRANCH   1   8
TORSDOF 1
ENDMDL
