MODEL 1
REMARK minimizedAffinity 6.49588299
REMARK minimizedRMSD -1
REMARK  1 active torsions:
REMARK  status: ('A' for Active; 'I' for Inactive)
REMARK    1  A    between atoms: C1_2  and  C2_3 
ROOT
ATOM      1  C2  UNL d   1       3.014   0.487   0.835  0.00  0.00    -0.073 A 
ATOM      2  C3  UNL d   1       3.671   1.710   0.657  0.00  0.00    -0.002 A 
ATOM      3  C4  UNL d   1       2.947   2.903   0.645  0.00  0.00     0.004 A 
ATOM      4  C5  UNL d   1       1.563   2.886   0.817  0.00  0.00    -0.004 A 
ATOM      5  C6  UNL d   1       0.890   1.675   1.008  0.00  0.00    -0.075 A 
ATOM      6  C7  UNL d   1      -0.598   1.640   1.193  0.00  0.00     0.076 C 
ATOM      7  C8  UNL d   1       1.624   0.481   1.016  0.00  0.00     0.001 A 
ENDROOT
BRANCH   1   8
ATOM      8  C1  UNL d   1       3.792  -0.804   0.855  0.00  0.00     0.053 C 
ATOM      9  C   UNL d   1       2.975  -1.970   0.322  0.00  0.00     0.018 C 
ENDBRANCH   1   8
TORSDOF 1
ENDMDL
