MODEL 1
REMARK minimizedAffinity 6.36347151
REMARK minimizedRMSD -1
REMARK  1 active torsions:
REMARK  status: ('A' for Active; 'I' for Inactive)
REMARK    1  A    between atoms: C1_2  and  C2_3 
ROOT
ATOM      1  C2  UNL d   1       2.165   0.152   0.163  0.00  0.00    -0.073 A 
ATOM      2  C3  UNL d   1       2.455  -1.084   0.753  0.00  0.00    -0.002 A 
ATOM      3  C4  UNL d   1       2.175  -2.271   0.075  0.00  0.00     0.004 A 
ATOM      4  C5  UNL d   1       1.610  -2.235  -1.200  0.00  0.00    -0.004 A 
ATOM      5  C6  UNL d   1       1.324  -1.010  -1.810  0.00  0.00    -0.075 A 
ATOM      6  C7  UNL d   1       0.714  -0.954  -3.180  0.00  0.00     0.076 C 
ATOM      7  C8  UNL d   1       1.605   0.178  -1.122  0.00  0.00     0.001 A 
ENDROOT
BRANCH   1   8
ATOM      8  C1  UNL d   1       2.471   1.436   0.889  0.00  0.00     0.053 C 
ATOM      9  C   UNL d   1       1.791   2.632   0.243  0.00  0.00     0.018 C 
ENDBRANCH   1   8
TORSDOF 1
ENDMDL
