MODEL 1
REMARK minimizedAffinity 0.917868257
REMARK minimizedRMSD -1
REMARK  1 active torsions:
REMARK  status: ('A' for Active; 'I' for Inactive)
REMARK    1  A    between atoms: C1_2  and  C2_3 
ROOT
ATOM      1  C2  UNL d   1       2.910   0.072   0.856  0.00  0.00    -0.073 A 
ATOM      2  C3  UNL d   1       4.059   0.869   0.808  0.00  0.00    -0.002 A 
ATOM      3  C4  UNL d   1       3.952   2.260   0.778  0.00  0.00     0.004 A 
ATOM      4  C5  UNL d   1       2.697   2.868   0.802  0.00  0.00    -0.004 A 
ATOM      5  C6  UNL d   1       1.537   2.089   0.863  0.00  0.00    -0.075 A 
ATOM      6  C7  UNL d   1       0.179   2.727   0.888  0.00  0.00     0.076 C 
ATOM      7  C8  UNL d   1       1.653   0.692   0.890  0.00  0.00     0.001 A 
ENDROOT
BRANCH   1   8
ATOM      8  C1  UNL d   1       3.021  -1.430   0.896  0.00  0.00     0.053 C 
ATOM      9  C   UNL d   1       2.070  -2.098  -0.085  0.00  0.00     0.018 C 
ENDBRANCH   1   8
TORSDOF 1
ENDMDL
