MODEL 1
REMARK minimizedAffinity 7.25180054
REMARK minimizedRMSD -1
REMARK  1 active torsions:
REMARK  status: ('A' for Active; 'I' for Inactive)
REMARK    1  A    between atoms: C1_2  and  C2_3 
ROOT
ATOM      1  C2  UNL d   1       1.955  -0.237   0.078  0.00  0.00    -0.073 A 
ATOM      2  C3  UNL d   1       0.590  -0.015  -0.142  0.00  0.00    -0.002 A 
ATOM      3  C4  UNL d   1       0.075   1.282  -0.122  0.00  0.00     0.004 A 
ATOM      4  C5  UNL d   1       0.918   2.369   0.111  0.00  0.00    -0.004 A 
ATOM      5  C6  UNL d   1       2.286   2.168   0.321  0.00  0.00    -0.075 A 
ATOM      6  C7  UNL d   1       3.205   3.326   0.575  0.00  0.00     0.076 C 
ATOM      7  C8  UNL d   1       2.795   0.863   0.302  0.00  0.00     0.001 A 
ENDROOT
BRANCH   1   8
ATOM      8  C1  UNL d   1       2.517  -1.635   0.051  0.00  0.00     0.053 C 
ATOM      9  C   UNL d   1       1.465  -2.679   0.391  0.00  0.00     0.018 C 
ENDBRANCH   1   8
TORSDOF 1
ENDMDL
