MODEL 1
REMARK minimizedAffinity 1.39597797
REMARK minimizedRMSD -1
REMARK  1 active torsions:
REMARK  status: ('A' for Active; 'I' for Inactive)
REMARK    1  A    between atoms: C1_2  and  C2_3 
ROOT
ATOM      1  C2  UNL d   1      -1.168  -0.127   0.779  0.00  0.00    -0.073 A 
ATOM      2  C3  UNL d   1      -0.891   1.020   1.532  0.00  0.00    -0.002 A 
ATOM      3  C4  UNL d   1       0.422   1.328   1.889  0.00  0.00     0.004 A 
ATOM      4  C5  UNL d   1       1.471   0.499   1.492  0.00  0.00    -0.004 A 
ATOM      5  C6  UNL d   1       1.215  -0.646   0.730  0.00  0.00    -0.075 A 
ATOM      6  C7  UNL d   1       2.332  -1.550   0.297  0.00  0.00     0.076 C 
ATOM      7  C8  UNL d   1      -0.106  -0.950   0.377  0.00  0.00     0.001 A 
ENDROOT
BRANCH   1   8
ATOM      8  C1  UNL d   1      -2.584  -0.461   0.386  0.00  0.00     0.053 C 
ATOM      9  C   UNL d   1      -2.772  -0.460  -1.123  0.00  0.00     0.018 C 
ENDBRANCH   1   8
TORSDOF 1
ENDMDL
