MODEL 1
REMARK minimizedAffinity 4.1978507
REMARK minimizedRMSD -1
REMARK  1 active torsions:
REMARK  status: ('A' for Active; 'I' for Inactive)
REMARK    1  A    between atoms: C1_2  and  C2_3 
ROOT
ATOM      1  C2  UNL d   1       0.807   0.210   1.910  0.00  0.00    -0.073 A 
ATOM      2  C3  UNL d   1       0.678   1.236   2.852  0.00  0.00    -0.002 A 
ATOM      3  C4  UNL d   1      -0.585   1.718   3.201  0.00  0.00     0.004 A 
ATOM      4  C5  UNL d   1      -1.729   1.176   2.616  0.00  0.00    -0.004 A 
ATOM      5  C6  UNL d   1      -1.621   0.141   1.681  0.00  0.00    -0.075 A 
ATOM      6  C7  UNL d   1      -2.842  -0.451   1.042  0.00  0.00     0.076 C 
ATOM      7  C8  UNL d   1      -0.350  -0.336   1.334  0.00  0.00     0.001 A 
ENDROOT
BRANCH   1   8
ATOM      8  C1  UNL d   1       2.168  -0.319   1.535  0.00  0.00     0.053 C 
ATOM      9  C   UNL d   1       2.147  -1.055   0.205  0.00  0.00     0.018 C 
ENDBRANCH   1   8
TORSDOF 1
ENDMDL
