MODEL 1
REMARK minimizedAffinity 7.03053713
REMARK minimizedRMSD -1
REMARK  1 active torsions:
REMARK  status: ('A' for Active; 'I' for Inactive)
REMARK    1  A    between atoms: C1_2  and  C2_3 
ROOT
ATOM      1  C2  UNL d   1       1.518  -0.640  -2.168  0.00  0.00    -0.073 A 
ATOM      2  C3  UNL d   1       2.559   0.296  -2.173  0.00  0.00    -0.002 A 
ATOM      3  C4  UNL d   1       2.749   1.131  -3.275  0.00  0.00     0.004 A 
ATOM      4  C5  UNL d   1       1.898   1.045  -4.376  0.00  0.00    -0.004 A 
ATOM      5  C6  UNL d   1       0.845   0.125  -4.385  0.00  0.00    -0.075 A 
ATOM      6  C7  UNL d   1      -0.077   0.018  -5.563  0.00  0.00     0.076 C 
ATOM      7  C8  UNL d   1       0.662  -0.713  -3.276  0.00  0.00     0.001 A 
ENDROOT
BRANCH   1   8
ATOM      8  C1  UNL d   1       1.305  -1.540  -0.978  0.00  0.00     0.053 C 
ATOM      9  C   UNL d   1       2.222  -1.182   0.180  0.00  0.00     0.018 C 
ENDBRANCH   1   8
TORSDOF 1
ENDMDL
