MODEL 1
REMARK minimizedAffinity -4.6771102
REMARK minimizedRMSD -1
REMARK  0 active torsions:
REMARK  status: ('A' for Active; 'I' for Inactive)
ROOT
ATOM      1  C2' OXE d   1       1.140  -1.648  -0.538  0.00  0.00     0.078 C 
ATOM      2  C1' OXE d   1      -0.074   0.883  -0.556  0.00  0.00     0.078 C 
ATOM      3  C1  OXE d   1      -0.679  -0.181   0.325  0.00  0.00    -0.078 A 
ATOM      4  C2  OXE d   1      -0.106  -1.430   0.292  0.00  0.00    -0.078 A 
ATOM      5  C3  OXE d   1      -0.592  -2.433   1.126  0.00  0.00     0.003 A 
ATOM      6  C4  OXE d   1      -1.751  -2.226   1.883  0.00  0.00    -0.002 A 
ATOM      7  C5  OXE d   1      -2.373  -0.973   1.901  0.00  0.00    -0.002 A 
ATOM      8  C6  OXE d   1      -1.826   0.070   1.162  0.00  0.00     0.003 A 
ENDROOT
TORSDOF 0
ENDMDL
