MODEL 1
REMARK minimizedAffinity -2.56581116
REMARK minimizedRMSD -1
REMARK  0 active torsions:
REMARK  status: ('A' for Active; 'I' for Inactive)
ROOT
ATOM      1  C2' OXE d   1       0.398   1.435  -0.503  0.00  0.00     0.078 C 
ATOM      2  C1' OXE d   1      -1.876   1.324   1.138  0.00  0.00     0.078 C 
ATOM      3  C1  OXE d   1      -1.023   0.084   1.033  0.00  0.00    -0.078 A 
ATOM      4  C2  OXE d   1       0.062   0.133   0.191  0.00  0.00    -0.078 A 
ATOM      5  C3  OXE d   1       0.913  -0.964   0.100  0.00  0.00     0.003 A 
ATOM      6  C4  OXE d   1       0.590  -2.168   0.738  0.00  0.00    -0.002 A 
ATOM      7  C5  OXE d   1      -0.533  -2.251   1.569  0.00  0.00    -0.002 A 
ATOM      8  C6  OXE d   1      -1.324  -1.124   1.761  0.00  0.00     0.003 A 
ENDROOT
TORSDOF 0
ENDMDL
