MODEL 1
REMARK minimizedAffinity -1.38353801
REMARK minimizedRMSD -1
REMARK  0 active torsions:
REMARK  status: ('A' for Active; 'I' for Inactive)
ROOT
ATOM      1  C2' OXE d   1      -0.747   3.005  -2.645  0.00  0.00     0.078 C 
ATOM      2  C1' OXE d   1       0.577   2.172  -0.314  0.00  0.00     0.078 C 
ATOM      3  C1  OXE d   1       1.370   2.216  -1.596  0.00  0.00    -0.078 A 
ATOM      4  C2  OXE d   1       0.702   2.580  -2.741  0.00  0.00    -0.078 A 
ATOM      5  C3  OXE d   1       1.399   2.690  -3.940  0.00  0.00     0.003 A 
ATOM      6  C4  OXE d   1       2.737   2.285  -4.022  0.00  0.00    -0.002 A 
ATOM      7  C5  OXE d   1       3.426   1.874  -2.876  0.00  0.00    -0.002 A 
ATOM      8  C6  OXE d   1       2.770   1.874  -1.650  0.00  0.00     0.003 A 
ENDROOT
TORSDOF 0
ENDMDL
