MODEL 1
REMARK minimizedAffinity -3.9396956
REMARK minimizedRMSD -1
REMARK  0 active torsions:
REMARK  status: ('A' for Active; 'I' for Inactive)
ROOT
ATOM      1  C2' OXE d   1       2.178  -1.096   0.396  0.00  0.00     0.078 C 
ATOM      2  C1' OXE d   1       0.638   1.182  -0.168  0.00  0.00     0.078 C 
ATOM      3  C1  OXE d   1      -0.077  -0.038   0.356  0.00  0.00    -0.078 A 
ATOM      4  C2  OXE d   1       0.678  -1.163   0.585  0.00  0.00    -0.078 A 
ATOM      5  C3  OXE d   1       0.077  -2.299   1.120  0.00  0.00     0.003 A 
ATOM      6  C4  OXE d   1      -1.312  -2.357   1.282  0.00  0.00    -0.002 A 
ATOM      7  C5  OXE d   1      -2.105  -1.235   1.017  0.00  0.00    -0.002 A 
ATOM      8  C6  OXE d   1      -1.499  -0.057   0.595  0.00  0.00     0.003 A 
ENDROOT
TORSDOF 0
ENDMDL
