MODEL 1
REMARK minimizedAffinity -2.56711531
REMARK minimizedRMSD -1
REMARK  0 active torsions:
REMARK  status: ('A' for Active; 'I' for Inactive)
ROOT
ATOM      1  C2' OXE d   1      -2.550  -0.681   2.751  0.00  0.00     0.078 C 
ATOM      2  C1' OXE d   1      -1.922   1.518   1.124  0.00  0.00     0.078 C 
ATOM      3  C1  OXE d   1      -1.113   0.258   0.945  0.00  0.00    -0.078 A 
ATOM      4  C2  OXE d   1      -1.396  -0.798   1.778  0.00  0.00    -0.078 A 
ATOM      5  C3  OXE d   1      -0.717  -2.003   1.619  0.00  0.00     0.003 A 
ATOM      6  C4  OXE d   1       0.355  -2.100   0.723  0.00  0.00    -0.002 A 
ATOM      7  C5  OXE d   1       0.686  -1.023  -0.106  0.00  0.00    -0.002 A 
ATOM      8  C6  OXE d   1      -0.064   0.146  -0.038  0.00  0.00     0.003 A 
ENDROOT
TORSDOF 0
ENDMDL
