MODEL 1
REMARK minimizedAffinity -5.25043344
REMARK minimizedRMSD -1
REMARK  0 active torsions:
REMARK  status: ('A' for Active; 'I' for Inactive)
ROOT
ATOM      1  C2' OXE d   1       0.679   1.008  -0.001  0.00  0.00     0.078 C 
ATOM      2  C1' OXE d   1      -1.651   0.605   1.510  0.00  0.00     0.078 C 
ATOM      3  C1  OXE d   1      -0.774  -0.591   1.237  0.00  0.00    -0.078 A 
ATOM      4  C2  OXE d   1       0.340  -0.394   0.458  0.00  0.00    -0.078 A 
ATOM      5  C3  OXE d   1       1.213  -1.452   0.221  0.00  0.00     0.003 A 
ATOM      6  C4  OXE d   1       0.886  -2.747   0.641  0.00  0.00    -0.002 A 
ATOM      7  C5  OXE d   1      -0.264  -2.978   1.403  0.00  0.00    -0.002 A 
ATOM      8  C6  OXE d   1      -1.081  -1.906   1.745  0.00  0.00     0.003 A 
ENDROOT
TORSDOF 0
ENDMDL
