MODEL 1
REMARK minimizedAffinity -3.09924722
REMARK minimizedRMSD -1
REMARK  0 active torsions:
REMARK  status: ('A' for Active; 'I' for Inactive)
ROOT
ATOM      1  C2' OXE d   1       0.705  -1.583  -0.561  0.00  0.00     0.078 C 
ATOM      2  C1' OXE d   1      -0.550   0.906  -0.227  0.00  0.00     0.078 C 
ATOM      3  C1  OXE d   1      -1.021  -0.240   0.632  0.00  0.00    -0.078 A 
ATOM      4  C2  OXE d   1      -0.433  -1.466   0.430  0.00  0.00    -0.078 A 
ATOM      5  C3  OXE d   1      -0.792  -2.544   1.233  0.00  0.00     0.003 A 
ATOM      6  C4  OXE d   1      -1.853  -2.429   2.140  0.00  0.00    -0.002 A 
ATOM      7  C5  OXE d   1      -2.492  -1.200   2.334  0.00  0.00    -0.002 A 
ATOM      8  C6  OXE d   1      -2.060  -0.088   1.620  0.00  0.00     0.003 A 
ENDROOT
TORSDOF 0
ENDMDL
