MODEL 1
REMARK minimizedAffinity -2.37571549
REMARK minimizedRMSD -1
REMARK  0 active torsions:
REMARK  status: ('A' for Active; 'I' for Inactive)
ROOT
ATOM      1  C2' OXE d   1      -0.281  -2.352   1.052  0.00  0.00     0.078 C 
ATOM      2  C1' OXE d   1      -1.781  -1.815  -1.259  0.00  0.00     0.078 C 
ATOM      3  C1  OXE d   1      -0.731  -0.811  -0.853  0.00  0.00    -0.078 A 
ATOM      4  C2  OXE d   1      -0.034  -1.059   0.305  0.00  0.00    -0.078 A 
ATOM      5  C3  OXE d   1       0.984  -0.194   0.696  0.00  0.00     0.003 A 
ATOM      6  C4  OXE d   1       1.199   1.005   0.006  0.00  0.00    -0.002 A 
ATOM      7  C5  OXE d   1       0.473   1.297  -1.154  0.00  0.00    -0.002 A 
ATOM      8  C6  OXE d   1      -0.464   0.381  -1.619  0.00  0.00     0.003 A 
ENDROOT
TORSDOF 0
ENDMDL
