MODEL 1
REMARK minimizedAffinity -1.97127032
REMARK minimizedRMSD -1
REMARK  0 active torsions:
REMARK  status: ('A' for Active; 'I' for Inactive)
ROOT
ATOM      1  C2' OXE d   1       0.129  -2.447   1.242  0.00  0.00     0.078 C 
ATOM      2  C1' OXE d   1       2.610  -2.034  -0.004  0.00  0.00     0.078 C 
ATOM      3  C1  OXE d   1       1.594  -0.921  -0.073  0.00  0.00    -0.078 A 
ATOM      4  C2  OXE d   1       0.366  -1.150   0.499  0.00  0.00    -0.078 A 
ATOM      5  C3  OXE d   1      -0.588  -0.137   0.512  0.00  0.00     0.003 A 
ATOM      6  C4  OXE d   1      -0.365   1.056  -0.186  0.00  0.00    -0.002 A 
ATOM      7  C5  OXE d   1       0.865   1.294  -0.810  0.00  0.00    -0.002 A 
ATOM      8  C6  OXE d   1       1.868   0.335  -0.727  0.00  0.00     0.003 A 
ENDROOT
TORSDOF 0
ENDMDL
