MODEL 1
REMARK minimizedAffinity -3.85963964
REMARK minimizedRMSD -1
REMARK  0 active torsions:
REMARK  status: ('A' for Active; 'I' for Inactive)
ROOT
ATOM      1  C2' OXE d   1      -0.684   1.792   0.854  0.00  0.00     0.078 C 
ATOM      2  C1' OXE d   1       0.779   1.540  -1.529  0.00  0.00     0.078 C 
ATOM      3  C1  OXE d   1       0.612   0.310  -0.672  0.00  0.00    -0.078 A 
ATOM      4  C2  OXE d   1      -0.065   0.453   0.515  0.00  0.00    -0.078 A 
ATOM      5  C3  OXE d   1      -0.295  -0.661   1.317  0.00  0.00     0.003 A 
ATOM      6  C4  OXE d   1       0.290  -1.894   1.001  0.00  0.00    -0.002 A 
ATOM      7  C5  OXE d   1       1.017  -2.052  -0.183  0.00  0.00    -0.002 A 
ATOM      8  C6  OXE d   1       1.152  -0.973  -1.050  0.00  0.00     0.003 A 
ENDROOT
TORSDOF 0
ENDMDL
