MODEL 1
REMARK minimizedAffinity -5.11699438
REMARK minimizedRMSD -1
REMARK  0 active torsions:
REMARK  status: ('A' for Active; 'I' for Inactive)
ROOT
ATOM      1  C2' OXE d   1       1.815  -1.792  -0.101  0.00  0.00     0.078 C 
ATOM      2  C1' OXE d   1      -0.704  -2.512   0.905  0.00  0.00     0.078 C 
ATOM      3  C1  OXE d   1      -0.428  -1.046   0.684  0.00  0.00    -0.078 A 
ATOM      4  C2  OXE d   1       0.824  -0.699   0.235  0.00  0.00    -0.078 A 
ATOM      5  C3  OXE d   1       1.113   0.635  -0.037  0.00  0.00     0.003 A 
ATOM      6  C4  OXE d   1       0.194   1.640   0.287  0.00  0.00    -0.002 A 
ATOM      7  C5  OXE d   1      -1.072   1.311   0.782  0.00  0.00    -0.002 A 
ATOM      8  C6  OXE d   1      -1.414  -0.027   0.946  0.00  0.00     0.003 A 
ENDROOT
TORSDOF 0
ENDMDL
