MODEL 1
REMARK minimizedAffinity -3.42266703
REMARK minimizedRMSD -1
REMARK  0 active torsions:
REMARK  status: ('A' for Active; 'I' for Inactive)
ROOT
ATOM      1  C2' OXE d   1       0.725   1.876  -2.608  0.00  0.00     0.078 C 
ATOM      2  C1' OXE d   1       0.179   2.321   0.109  0.00  0.00     0.078 C 
ATOM      3  C1  OXE d   1       0.219   0.893  -0.376  0.00  0.00    -0.078 A 
ATOM      4  C2  OXE d   1       0.441   0.687  -1.716  0.00  0.00    -0.078 A 
ATOM      5  C3  OXE d   1       0.542  -0.612  -2.206  0.00  0.00     0.003 A 
ATOM      6  C4  OXE d   1       0.268  -1.706  -1.376  0.00  0.00    -0.002 A 
ATOM      7  C5  OXE d   1       0.001  -1.516  -0.016  0.00  0.00    -0.002 A 
ATOM      8  C6  OXE d   1       0.015  -0.228   0.508  0.00  0.00     0.003 A 
ENDROOT
TORSDOF 0
ENDMDL
