MODEL 1
REMARK minimizedAffinity -5.42682791
REMARK minimizedRMSD -1
REMARK  0 active torsions:
REMARK  status: ('A' for Active; 'I' for Inactive)
ROOT
ATOM      1  C2' OXE d   1      -0.403   1.818   0.660  0.00  0.00     0.078 C 
ATOM      2  C1' OXE d   1       0.442   1.240  -1.954  0.00  0.00     0.078 C 
ATOM      3  C1  OXE d   1       0.282   0.087  -0.995  0.00  0.00    -0.078 A 
ATOM      4  C2  OXE d   1      -0.087   0.383   0.295  0.00  0.00    -0.078 A 
ATOM      5  C3  OXE d   1      -0.302  -0.648   1.205  0.00  0.00     0.003 A 
ATOM      6  C4  OXE d   1       0.003  -1.971   0.862  0.00  0.00    -0.002 A 
ATOM      7  C5  OXE d   1       0.418  -2.290  -0.435  0.00  0.00    -0.002 A 
ATOM      8  C6  OXE d   1       0.522  -1.281  -1.386  0.00  0.00     0.003 A 
ENDROOT
TORSDOF 0
ENDMDL
