MODEL 1
REMARK minimizedAffinity -1.85733998
REMARK minimizedRMSD -1
REMARK  0 active torsions:
REMARK  status: ('A' for Active; 'I' for Inactive)
ROOT
ATOM      1  C2' OXE d   1      -2.555   0.440   1.019  0.00  0.00     0.078 C 
ATOM      2  C1' OXE d   1      -0.999  -1.822   1.605  0.00  0.00     0.078 C 
ATOM      3  C1  OXE d   1      -0.477  -0.859   0.568  0.00  0.00    -0.078 A 
ATOM      4  C2  OXE d   1      -1.267   0.221   0.254  0.00  0.00    -0.078 A 
ATOM      5  C3  OXE d   1      -0.809   1.169  -0.656  0.00  0.00     0.003 A 
ATOM      6  C4  OXE d   1       0.378   0.954  -1.367  0.00  0.00    -0.002 A 
ATOM      7  C5  OXE d   1       1.178  -0.160  -1.091  0.00  0.00    -0.002 A 
ATOM      8  C6  OXE d   1       0.787  -1.052  -0.098  0.00  0.00     0.003 A 
ENDROOT
TORSDOF 0
ENDMDL
