MODEL 1
REMARK minimizedAffinity -3.25201011
REMARK minimizedRMSD -1
REMARK  0 active torsions:
REMARK  status: ('A' for Active; 'I' for Inactive)
ROOT
ATOM      1  C2' OXE d   1       0.359   2.339   0.533  0.00  0.00     0.078 C 
ATOM      2  C1' OXE d   1       0.576   1.613  -2.169  0.00  0.00     0.078 C 
ATOM      3  C1  OXE d   1       0.153   0.549  -1.187  0.00  0.00    -0.078 A 
ATOM      4  C2  OXE d   1       0.094   0.902   0.140  0.00  0.00    -0.078 A 
ATOM      5  C3  OXE d   1      -0.343  -0.026   1.081  0.00  0.00     0.003 A 
ATOM      6  C4  OXE d   1      -0.576  -1.356   0.710  0.00  0.00    -0.002 A 
ATOM      7  C5  OXE d   1      -0.484  -1.746  -0.630  0.00  0.00    -0.002 A 
ATOM      8  C6  OXE d   1      -0.163  -0.797  -1.595  0.00  0.00     0.003 A 
ENDROOT
TORSDOF 0
ENDMDL
