MODEL 1
REMARK minimizedAffinity -3.47788787
REMARK minimizedRMSD -1
REMARK  0 active torsions:
REMARK  status: ('A' for Active; 'I' for Inactive)
ROOT
ATOM      1  C2' OXE d   1      -1.696  -2.740   1.056  0.00  0.00     0.078 C 
ATOM      2  C1' OXE d   1      -2.657  -0.178   1.684  0.00  0.00     0.078 C 
ATOM      3  C1  OXE d   1      -1.422  -0.275   0.824  0.00  0.00    -0.078 A 
ATOM      4  C2  OXE d   1      -0.932  -1.531   0.561  0.00  0.00    -0.078 A 
ATOM      5  C3  OXE d   1       0.173  -1.679  -0.273  0.00  0.00     0.003 A 
ATOM      6  C4  OXE d   1       0.880  -0.556  -0.719  0.00  0.00    -0.002 A 
ATOM      7  C5  OXE d   1       0.421   0.733  -0.429  0.00  0.00    -0.002 A 
ATOM      8  C6  OXE d   1      -0.750   0.890   0.304  0.00  0.00     0.003 A 
ENDROOT
TORSDOF 0
ENDMDL
