MODEL 1
REMARK minimizedAffinity -5.62047768
REMARK minimizedRMSD -1
REMARK  0 active torsions:
REMARK  status: ('A' for Active; 'I' for Inactive)
ROOT
ATOM      1  C2' OXE d   1       0.814  -1.692  -1.946  0.00  0.00     0.078 C 
ATOM      2  C1' OXE d   1       0.890   1.057  -1.379  0.00  0.00     0.078 C 
ATOM      3  C1  OXE d   1      -0.096   0.208  -0.617  0.00  0.00    -0.078 A 
ATOM      4  C2  OXE d   1      -0.159  -1.127  -0.934  0.00  0.00    -0.078 A 
ATOM      5  C3  OXE d   1      -1.013  -1.965  -0.223  0.00  0.00     0.003 A 
ATOM      6  C4  OXE d   1      -1.918  -1.434   0.705  0.00  0.00    -0.002 A 
ATOM      7  C5  OXE d   1      -1.898  -0.070   1.014  0.00  0.00    -0.002 A 
ATOM      8  C6  OXE d   1      -0.966   0.756   0.394  0.00  0.00     0.003 A 
ENDROOT
TORSDOF 0
ENDMDL
