MODEL 1
REMARK minimizedAffinity 3.443542
REMARK minimizedRMSD -1
REMARK  0 active torsions:
REMARK  status: ('A' for Active; 'I' for Inactive)
ROOT
ATOM      1  C   UNL d   1       4.498   4.490   2.470  0.00  0.00     0.172 C 
ATOM      2  N   UNL d   1       4.420   4.662   3.902  0.00  0.00    -0.070 N 
ATOM      3  C1  UNL d   1       5.297   5.382   4.669  0.00  0.00    -0.004 A 
ATOM      4  C2  UNL d   1       4.876   5.302   5.979  0.00  0.00    -0.047 A 
ATOM      5  C3  UNL d   1       3.706   4.506   6.000  0.00  0.00    -0.047 A 
ATOM      6  C4  UNL d   1       3.446   4.123   4.701  0.00  0.00    -0.004 A 
ENDROOT
TORSDOF 0
ENDMDL
