MODEL 1
REMARK minimizedAffinity 0.477520913
REMARK minimizedRMSD -1
REMARK  0 active torsions:
REMARK  status: ('A' for Active; 'I' for Inactive)
ROOT
ATOM      1  C   UNL d   1       5.575   2.662  -2.684  0.00  0.00     0.172 C 
ATOM      2  N   UNL d   1       4.973   1.633  -1.870  0.00  0.00    -0.070 N 
ATOM      3  C1  UNL d   1       4.186   0.610  -2.330  0.00  0.00    -0.004 A 
ATOM      4  C2  UNL d   1       3.811  -0.154  -1.246  0.00  0.00    -0.047 A 
ATOM      5  C3  UNL d   1       4.391   0.431  -0.095  0.00  0.00    -0.047 A 
ATOM      6  C4  UNL d   1       5.104   1.535  -0.510  0.00  0.00    -0.004 A 
ENDROOT
TORSDOF 0
ENDMDL
