MODEL 1
REMARK minimizedAffinity 1.44600213
REMARK minimizedRMSD -1
REMARK  0 active torsions:
REMARK  status: ('A' for Active; 'I' for Inactive)
ROOT
ATOM      1  C   UNL d   1      -5.653   2.196  -3.352  0.00  0.00     0.172 C 
ATOM      2  N   UNL d   1      -4.457   1.474  -3.715  0.00  0.00    -0.070 N 
ATOM      3  C1  UNL d   1      -4.231   0.856  -4.916  0.00  0.00    -0.004 A 
ATOM      4  C2  UNL d   1      -2.978   0.283  -4.866  0.00  0.00    -0.047 A 
ATOM      5  C3  UNL d   1      -2.433   0.565  -3.591  0.00  0.00    -0.047 A 
ATOM      6  C4  UNL d   1      -3.370   1.304  -2.899  0.00  0.00    -0.004 A 
ENDROOT
TORSDOF 0
ENDMDL
