MODEL 1
REMARK minimizedAffinity 2.00030565
REMARK minimizedRMSD -1
REMARK  0 active torsions:
REMARK  status: ('A' for Active; 'I' for Inactive)
ROOT
ATOM      1  C   UNL d   1      -2.060   0.830  -2.646  0.00  0.00     0.172 C 
ATOM      2  N   UNL d   1      -3.364   0.841  -3.266  0.00  0.00    -0.070 N 
ATOM      3  C1  UNL d   1      -3.609   0.944  -4.609  0.00  0.00    -0.004 A 
ATOM      4  C2  UNL d   1      -4.974   0.916  -4.793  0.00  0.00    -0.047 A 
ATOM      5  C3  UNL d   1      -5.571   0.793  -3.516  0.00  0.00    -0.047 A 
ATOM      6  C4  UNL d   1      -4.551   0.749  -2.589  0.00  0.00    -0.004 A 
ENDROOT
TORSDOF 0
ENDMDL
