MODEL 1
REMARK minimizedAffinity 5.17923069
REMARK minimizedRMSD -1
REMARK  0 active torsions:
REMARK  status: ('A' for Active; 'I' for Inactive)
ROOT
ATOM      1  C   UNL d   1       5.256   4.864   2.507  0.00  0.00     0.172 C 
ATOM      2  N   UNL d   1       4.889   5.025   3.894  0.00  0.00    -0.070 N 
ATOM      3  C1  UNL d   1       5.449   5.917   4.769  0.00  0.00    -0.004 A 
ATOM      4  C2  UNL d   1       4.827   5.760   5.989  0.00  0.00    -0.047 A 
ATOM      5  C3  UNL d   1       3.860   4.737   5.842  0.00  0.00    -0.047 A 
ATOM      6  C4  UNL d   1       3.920   4.300   4.535  0.00  0.00    -0.004 A 
ENDROOT
TORSDOF 0
ENDMDL
