MODEL 1
REMARK minimizedAffinity 3.98368335
REMARK minimizedRMSD -1
REMARK  0 active torsions:
REMARK  status: ('A' for Active; 'I' for Inactive)
ROOT
ATOM      1  C   UNL d   1       4.550   4.903   6.000  0.00  0.00     0.172 C 
ATOM      2  N   UNL d   1       4.573   4.821   4.558  0.00  0.00    -0.070 N 
ATOM      3  C1  UNL d   1       4.197   5.815   3.696  0.00  0.00    -0.004 A 
ATOM      4  C2  UNL d   1       4.366   5.346   2.411  0.00  0.00    -0.047 A 
ATOM      5  C3  UNL d   1       4.860   4.023   2.505  0.00  0.00    -0.047 A 
ATOM      6  C4  UNL d   1       4.979   3.724   3.846  0.00  0.00    -0.004 A 
ENDROOT
TORSDOF 0
ENDMDL
