MODEL 1
REMARK minimizedAffinity 5.48665476
REMARK minimizedRMSD -1
REMARK  0 active torsions:
REMARK  status: ('A' for Active; 'I' for Inactive)
ROOT
ATOM      1  C   UNL d   1       2.528  -0.386  -1.176  0.00  0.00     0.172 C 
ATOM      2  N   UNL d   1       3.685   0.264  -1.745  0.00  0.00    -0.070 N 
ATOM      3  C1  UNL d   1       4.226  -0.001  -2.975  0.00  0.00    -0.004 A 
ATOM      4  C2  UNL d   1       5.315   0.827  -3.145  0.00  0.00    -0.047 A 
ATOM      5  C3  UNL d   1       5.433   1.616  -1.976  0.00  0.00    -0.047 A 
ATOM      6  C4  UNL d   1       4.412   1.247  -1.126  0.00  0.00    -0.004 A 
ENDROOT
TORSDOF 0
ENDMDL
