MODEL 1
REMARK minimizedAffinity 6.467659
REMARK minimizedRMSD -1
REMARK  0 active torsions:
REMARK  status: ('A' for Active; 'I' for Inactive)
ROOT
ATOM      1  C   UNL d   1      -6.000  -1.223  -4.498  0.00  0.00     0.172 C 
ATOM      2  N   UNL d   1      -5.295   0.036  -4.447  0.00  0.00    -0.070 N 
ATOM      3  C1  UNL d   1      -5.336   0.933  -3.413  0.00  0.00    -0.004 A 
ATOM      4  C2  UNL d   1      -4.532   2.001  -3.748  0.00  0.00    -0.047 A 
ATOM      5  C3  UNL d   1      -3.989   1.737  -5.028  0.00  0.00    -0.047 A 
ATOM      6  C4  UNL d   1      -4.478   0.514  -5.438  0.00  0.00    -0.004 A 
ENDROOT
TORSDOF 0
ENDMDL
