MODEL 1
REMARK minimizedAffinity 2.17742872
REMARK minimizedRMSD -1
REMARK  0 active torsions:
REMARK  status: ('A' for Active; 'I' for Inactive)
ROOT
ATOM      1  C   UNL d   1       3.433  -1.740   0.550  0.00  0.00     0.172 C 
ATOM      2  N   UNL d   1       2.095  -1.707   0.010  0.00  0.00    -0.070 N 
ATOM      3  C1  UNL d   1       1.615  -2.515  -0.986  0.00  0.00    -0.004 A 
ATOM      4  C2  UNL d   1       0.300  -2.171  -1.213  0.00  0.00    -0.047 A 
ATOM      5  C3  UNL d   1      -0.022  -1.119  -0.323  0.00  0.00    -0.047 A 
ATOM      6  C4  UNL d   1       1.107  -0.851   0.422  0.00  0.00    -0.004 A 
ENDROOT
TORSDOF 0
ENDMDL
