MODEL 1
REMARK minimizedAffinity 1.7762711
REMARK minimizedRMSD -1
REMARK  0 active torsions:
REMARK  status: ('A' for Active; 'I' for Inactive)
ROOT
ATOM      1  C   UNL d   1      -0.748  -2.316  -3.342  0.00  0.00     0.172 C 
ATOM      2  N   UNL d   1      -0.444  -1.695  -2.075  0.00  0.00    -0.070 N 
ATOM      3  C1  UNL d   1      -0.793  -0.423  -1.705  0.00  0.00    -0.004 A 
ATOM      4  C2  UNL d   1      -0.321  -0.211  -0.427  0.00  0.00    -0.047 A 
ATOM      5  C3  UNL d   1       0.335  -1.395  -0.016  0.00  0.00    -0.047 A 
ATOM      6  C4  UNL d   1       0.244  -2.297  -1.055  0.00  0.00    -0.004 A 
ENDROOT
TORSDOF 0
ENDMDL
