MODEL 1
REMARK minimizedAffinity 13.8050327
REMARK minimizedRMSD -1
REMARK  1 active torsions:
REMARK  status: ('A' for Active; 'I' for Inactive)
REMARK    1  A    between atoms: N_2  and  C1_3 
ROOT
ATOM      1  C1  UNL d   1       1.817   0.995  -1.966  0.00  0.00     0.143 A 
ATOM      2  C2  UNL d   1       2.414   1.104  -0.705  0.00  0.00    -0.057 A 
ATOM      3  C3  UNL d   1       2.578  -0.016   0.119  0.00  0.00     0.033 A 
ATOM      4  C4  UNL d   1       2.122  -1.264  -0.293  0.00  0.00    -0.042 A 
ATOM      5  C5  UNL d   1       1.503  -1.391  -1.531  0.00  0.00     0.033 A 
ATOM      6  C6  UNL d   1       1.348  -0.270  -2.353  0.00  0.00    -0.057 A 
ENDROOT
BRANCH   1   7
ATOM      7  N   UNL d   1       1.536   2.087  -2.790  0.00  0.00    -0.732 N 
ATOM      8  C   UNL d   1       1.268   3.391  -2.221  0.00  0.00     0.284 C 
ATOM      9  H3  UNL d   1       2.124   2.109  -3.620  0.00  0.00     0.395 HD
ENDBRANCH   1   7
TORSDOF 1
ENDMDL
