MODEL 1
REMARK minimizedAffinity 8.20443153
REMARK minimizedRMSD -1
REMARK  1 active torsions:
REMARK  status: ('A' for Active; 'I' for Inactive)
REMARK    1  A    between atoms: N_2  and  C1_3 
ROOT
ATOM      1  C1  UNL d   1       3.336   3.232   1.858  0.00  0.00     0.143 A 
ATOM      2  C2  UNL d   1       2.227   2.627   2.459  0.00  0.00    -0.057 A 
ATOM      3  C3  UNL d   1       1.851   1.317   2.136  0.00  0.00     0.033 A 
ATOM      4  C4  UNL d   1       2.562   0.597   1.183  0.00  0.00    -0.042 A 
ATOM      5  C5  UNL d   1       3.654   1.187   0.554  0.00  0.00     0.033 A 
ATOM      6  C6  UNL d   1       4.028   2.493   0.886  0.00  0.00    -0.057 A 
ENDROOT
BRANCH   1   7
ATOM      7  N   UNL d   1       3.702   4.564   2.064  0.00  0.00    -0.732 N 
ATOM      8  C   UNL d   1       5.091   4.966   1.998  0.00  0.00     0.284 C 
ATOM      9  H3  UNL d   1       3.059   5.216   1.621  0.00  0.00     0.395 HD
ENDBRANCH   1   7
TORSDOF 1
ENDMDL
