MODEL 1
REMARK minimizedAffinity 8.00241756
REMARK minimizedRMSD -1
REMARK  1 active torsions:
REMARK  status: ('A' for Active; 'I' for Inactive)
REMARK    1  A    between atoms: N_2  and  C1_3 
ROOT
ATOM      1  C1  UNL d   1      -5.986  -2.995   2.668  0.00  0.00     0.143 A 
ATOM      2  C2  UNL d   1      -5.961  -4.089   1.797  0.00  0.00    -0.057 A 
ATOM      3  C3  UNL d   1      -5.980  -5.403   2.280  0.00  0.00     0.033 A 
ATOM      4  C4  UNL d   1      -5.996  -5.646   3.650  0.00  0.00    -0.042 A 
ATOM      5  C5  UNL d   1      -5.997  -4.573   4.535  0.00  0.00     0.033 A 
ATOM      6  C6  UNL d   1      -5.984  -3.264   4.045  0.00  0.00    -0.057 A 
ENDROOT
BRANCH   1   7
ATOM      7  N   UNL d   1      -5.869  -1.666   2.251  0.00  0.00    -0.732 N 
ATOM      8  C   UNL d   1      -5.970  -0.583   3.206  0.00  0.00     0.284 C 
ATOM      9  H3  UNL d   1      -5.138  -1.540   1.555  0.00  0.00     0.395 HD
ENDBRANCH   1   7
TORSDOF 1
ENDMDL
