MODEL 1
REMARK minimizedAffinity 5.69525051
REMARK minimizedRMSD -1
REMARK  1 active torsions:
REMARK  status: ('A' for Active; 'I' for Inactive)
REMARK    1  A    between atoms: N_2  and  C1_3 
ROOT
ATOM      1  C1  UNL d   1       2.896  -4.082  -1.983  0.00  0.00     0.143 A 
ATOM      2  C2  UNL d   1       3.606  -5.258  -2.246  0.00  0.00    -0.057 A 
ATOM      3  C3  UNL d   1       4.564  -5.744  -1.348  0.00  0.00     0.033 A 
ATOM      4  C4  UNL d   1       4.850  -5.044  -0.180  0.00  0.00    -0.042 A 
ATOM      5  C5  UNL d   1       4.174  -3.859   0.090  0.00  0.00     0.033 A 
ATOM      6  C6  UNL d   1       3.213  -3.383  -0.808  0.00  0.00    -0.057 A 
ENDROOT
BRANCH   1   7
ATOM      7  N   UNL d   1       2.002  -3.495  -2.883  0.00  0.00    -0.732 N 
ATOM      8  C   UNL d   1       2.463  -3.000  -4.162  0.00  0.00     0.284 C 
ATOM      9  H3  UNL d   1       1.113  -3.987  -2.923  0.00  0.00     0.395 HD
ENDBRANCH   1   7
TORSDOF 1
ENDMDL
