MODEL 1
REMARK minimizedAffinity 7.77046871
REMARK minimizedRMSD -1
REMARK  1 active torsions:
REMARK  status: ('A' for Active; 'I' for Inactive)
REMARK    1  A    between atoms: N_2  and  C1_3 
ROOT
ATOM      1  C1  UNL d   1      -1.217   1.323   2.199  0.00  0.00     0.143 A 
ATOM      2  C2  UNL d   1      -0.949   2.663   1.901  0.00  0.00    -0.057 A 
ATOM      3  C3  UNL d   1       0.364   3.148   1.856  0.00  0.00     0.033 A 
ATOM      4  C4  UNL d   1       1.433   2.304   2.138  0.00  0.00    -0.042 A 
ATOM      5  C5  UNL d   1       1.189   0.974   2.461  0.00  0.00     0.033 A 
ATOM      6  C6  UNL d   1      -0.124   0.494   2.498  0.00  0.00    -0.057 A 
ENDROOT
BRANCH   1   7
ATOM      7  N   UNL d   1      -2.505   0.804   2.356  0.00  0.00    -0.732 N 
ATOM      8  C   UNL d   1      -2.866   0.078   3.555  0.00  0.00     0.284 C 
ATOM      9  H3  UNL d   1      -3.224   1.442   2.023  0.00  0.00     0.395 HD
ENDBRANCH   1   7
TORSDOF 1
ENDMDL
