MODEL 1
REMARK minimizedAffinity 10.7573986
REMARK minimizedRMSD -1
REMARK  1 active torsions:
REMARK  status: ('A' for Active; 'I' for Inactive)
REMARK    1  A    between atoms: N_2  and  C1_3 
ROOT
ATOM      1  C1  UNL d   1       0.284  -2.160  -1.833  0.00  0.00     0.143 A 
ATOM      2  C2  UNL d   1      -0.906  -1.467  -2.079  0.00  0.00    -0.057 A 
ATOM      3  C3  UNL d   1      -2.105  -2.148  -2.321  0.00  0.00     0.033 A 
ATOM      4  C4  UNL d   1      -2.129  -3.538  -2.351  0.00  0.00    -0.042 A 
ATOM      5  C5  UNL d   1      -0.953  -4.247  -2.134  0.00  0.00     0.033 A 
ATOM      6  C6  UNL d   1       0.240  -3.562  -1.886  0.00  0.00    -0.057 A 
ENDROOT
BRANCH   1   7
ATOM      7  N   UNL d   1       1.528  -1.541  -1.683  0.00  0.00    -0.732 N 
ATOM      8  C   UNL d   1       1.645  -0.099  -1.738  0.00  0.00     0.284 C 
ATOM      9  H3  UNL d   1       2.093  -1.976  -0.958  0.00  0.00     0.395 HD
ENDBRANCH   1   7
TORSDOF 1
ENDMDL
