MODEL 1
REMARK minimizedAffinity 15.2005014
REMARK minimizedRMSD -1
REMARK  1 active torsions:
REMARK  status: ('A' for Active; 'I' for Inactive)
REMARK    1  A    between atoms: N_2  and  C1_3 
ROOT
ATOM      1  C1  UNL d   1       2.747   2.206   3.875  0.00  0.00     0.143 A 
ATOM      2  C2  UNL d   1       3.465   1.650   4.939  0.00  0.00    -0.057 A 
ATOM      3  C3  UNL d   1       3.922   2.443   5.999  0.00  0.00     0.033 A 
ATOM      4  C4  UNL d   1       3.693   3.815   5.999  0.00  0.00    -0.042 A 
ATOM      5  C5  UNL d   1       3.003   4.392   4.939  0.00  0.00     0.033 A 
ATOM      6  C6  UNL d   1       2.543   3.595   3.887  0.00  0.00    -0.057 A 
ENDROOT
BRANCH   1   7
ATOM      7  N   UNL d   1       2.351   1.487   2.744  0.00  0.00    -0.732 N 
ATOM      8  C   UNL d   1       3.092   1.596   1.506  0.00  0.00     0.284 C 
ATOM      9  H3  UNL d   1       2.055   0.540   2.970  0.00  0.00     0.395 HD
ENDBRANCH   1   7
TORSDOF 1
ENDMDL
