MODEL 1
REMARK minimizedAffinity 6.40423298
REMARK minimizedRMSD -1
REMARK  1 active torsions:
REMARK  status: ('A' for Active; 'I' for Inactive)
REMARK    1  A    between atoms: N_2  and  C1_3 
ROOT
ATOM      1  C1  UNL d   1       1.211  -3.383  -0.898  0.00  0.00     0.143 A 
ATOM      2  C2  UNL d   1       0.467  -4.491  -1.319  0.00  0.00    -0.057 A 
ATOM      3  C3  UNL d   1      -0.721  -4.336  -2.043  0.00  0.00     0.033 A 
ATOM      4  C4  UNL d   1      -1.203  -3.064  -2.335  0.00  0.00    -0.042 A 
ATOM      5  C5  UNL d   1      -0.494  -1.948  -1.905  0.00  0.00     0.033 A 
ATOM      6  C6  UNL d   1       0.696  -2.110  -1.188  0.00  0.00    -0.057 A 
ENDROOT
BRANCH   1   7
ATOM      7  N   UNL d   1       2.348  -3.471  -0.091  0.00  0.00    -0.732 N 
ATOM      8  C   UNL d   1       3.670  -3.348  -0.664  0.00  0.00     0.284 C 
ATOM      9  H3  UNL d   1       2.232  -2.986   0.796  0.00  0.00     0.395 HD
ENDBRANCH   1   7
TORSDOF 1
ENDMDL
