MODEL 1
REMARK minimizedAffinity 10.181016
REMARK minimizedRMSD -1
REMARK  1 active torsions:
REMARK  status: ('A' for Active; 'I' for Inactive)
REMARK    1  A    between atoms: N_2  and  C1_3 
ROOT
ATOM      1  C1  UNL d   1      -5.881  -1.417   2.935  0.00  0.00     0.143 A 
ATOM      2  C2  UNL d   1      -5.951  -2.053   4.179  0.00  0.00    -0.057 A 
ATOM      3  C3  UNL d   1      -5.962  -3.449   4.282  0.00  0.00     0.033 A 
ATOM      4  C4  UNL d   1      -5.933  -4.237   3.136  0.00  0.00    -0.042 A 
ATOM      5  C5  UNL d   1      -5.889  -3.627   1.887  0.00  0.00     0.033 A 
ATOM      6  C6  UNL d   1      -5.871  -2.232   1.792  0.00  0.00    -0.057 A 
ENDROOT
BRANCH   1   7
ATOM      7  N   UNL d   1      -5.967  -0.034   2.762  0.00  0.00    -0.732 N 
ATOM      8  C   UNL d   1      -5.999   0.543   1.435  0.00  0.00     0.284 C 
ATOM      9  H3  UNL d   1      -6.610   0.401   3.420  0.00  0.00     0.395 HD
ENDBRANCH   1   7
TORSDOF 1
ENDMDL
