MODEL 1
REMARK minimizedAffinity 6.52619457
REMARK minimizedRMSD -1
REMARK  1 active torsions:
REMARK  status: ('A' for Active; 'I' for Inactive)
REMARK    1  A    between atoms: N_2  and  C1_3 
ROOT
ATOM      1  C1  UNL d   1       0.109  -2.708  -2.254  0.00  0.00     0.143 A 
ATOM      2  C2  UNL d   1      -0.646  -3.884  -2.314  0.00  0.00    -0.057 A 
ATOM      3  C3  UNL d   1      -1.974  -3.873  -2.758  0.00  0.00     0.033 A 
ATOM      4  C4  UNL d   1      -2.581  -2.676  -3.124  0.00  0.00    -0.042 A 
ATOM      5  C5  UNL d   1      -1.858  -1.491  -3.049  0.00  0.00     0.033 A 
ATOM      6  C6  UNL d   1      -0.530  -1.510  -2.611  0.00  0.00    -0.057 A 
ENDROOT
BRANCH   1   7
ATOM      7  N   UNL d   1       1.401  -2.639  -1.729  0.00  0.00    -0.732 N 
ATOM      8  C   UNL d   1       1.619  -2.689  -0.299  0.00  0.00     0.284 C 
ATOM      9  H3  UNL d   1       2.071  -3.181  -2.271  0.00  0.00     0.395 HD
ENDBRANCH   1   7
TORSDOF 1
ENDMDL
