MODEL 1
REMARK minimizedAffinity 5.89362621
REMARK minimizedRMSD -1
REMARK  1 active torsions:
REMARK  status: ('A' for Active; 'I' for Inactive)
REMARK    1  A    between atoms: N_2  and  C1_3 
ROOT
ATOM      1  C1  UNL d   1       1.661   3.144  -1.976  0.00  0.00     0.143 A 
ATOM      2  C2  UNL d   1       2.401   2.138  -1.345  0.00  0.00    -0.057 A 
ATOM      3  C3  UNL d   1       2.384   0.820  -1.816  0.00  0.00     0.033 A 
ATOM      4  C4  UNL d   1       1.602   0.477  -2.914  0.00  0.00    -0.042 A 
ATOM      5  C5  UNL d   1       0.839   1.455  -3.542  0.00  0.00     0.033 A 
ATOM      6  C6  UNL d   1       0.865   2.771  -3.071  0.00  0.00    -0.057 A 
ENDROOT
BRANCH   1   7
ATOM      7  N   UNL d   1       1.559   4.452  -1.496  0.00  0.00    -0.732 N 
ATOM      8  C   UNL d   1       2.173   5.549  -2.212  0.00  0.00     0.284 C 
ATOM      9  H3  UNL d   1       0.632   4.660  -1.131  0.00  0.00     0.395 HD
ENDBRANCH   1   7
TORSDOF 1
ENDMDL
