MODEL 1
REMARK minimizedAffinity 10.7211876
REMARK minimizedRMSD -1
REMARK  1 active torsions:
REMARK  status: ('A' for Active; 'I' for Inactive)
REMARK    1  A    between atoms: N_2  and  C1_3 
ROOT
ATOM      1  C1  UNL d   1      -1.403  -3.799  -2.162  0.00  0.00     0.143 A 
ATOM      2  C2  UNL d   1      -0.433  -2.811  -1.962  0.00  0.00    -0.057 A 
ATOM      3  C3  UNL d   1      -0.679  -1.474  -2.295  0.00  0.00     0.033 A 
ATOM      4  C4  UNL d   1      -1.894  -1.104  -2.863  0.00  0.00    -0.042 A 
ATOM      5  C5  UNL d   1      -2.864  -2.073  -3.093  0.00  0.00     0.033 A 
ATOM      6  C6  UNL d   1      -2.615  -3.406  -2.752  0.00  0.00    -0.057 A 
ENDROOT
BRANCH   1   7
ATOM      7  N   UNL d   1      -1.184  -5.161  -1.943  0.00  0.00    -0.732 N 
ATOM      8  C   UNL d   1      -0.647  -6.000  -2.993  0.00  0.00     0.284 C 
ATOM      9  H3  UNL d   1      -0.794  -5.349  -1.022  0.00  0.00     0.395 HD
ENDBRANCH   1   7
TORSDOF 1
ENDMDL
