MODEL 1
REMARK minimizedAffinity 12.9407539
REMARK minimizedRMSD -1
REMARK  1 active torsions:
REMARK  status: ('A' for Active; 'I' for Inactive)
REMARK    1  A    between atoms: N_2  and  C1_3 
ROOT
ATOM      1  C1  UNL d   1       2.715   1.061  -0.630  0.00  0.00     0.143 A 
ATOM      2  C2  UNL d   1       2.290  -0.248  -0.884  0.00  0.00    -0.057 A 
ATOM      3  C3  UNL d   1       1.617  -0.575  -2.068  0.00  0.00     0.033 A 
ATOM      4  C4  UNL d   1       1.331   0.409  -3.007  0.00  0.00    -0.042 A 
ATOM      5  C5  UNL d   1       1.722   1.721  -2.764  0.00  0.00     0.033 A 
ATOM      6  C6  UNL d   1       2.400   2.041  -1.584  0.00  0.00    -0.057 A 
ENDROOT
BRANCH   1   7
ATOM      7  N   UNL d   1       3.301   1.468   0.571  0.00  0.00    -0.732 N 
ATOM      8  C   UNL d   1       2.488   1.988   1.649  0.00  0.00     0.284 C 
ATOM      9  H3  UNL d   1       4.042   0.840   0.875  0.00  0.00     0.395 HD
ENDBRANCH   1   7
TORSDOF 1
ENDMDL
