MODEL 1
REMARK minimizedAffinity -4.18569136
REMARK minimizedRMSD -1
REMARK  0 active torsions:
REMARK  status: ('A' for Active; 'I' for Inactive)
ROOT
ATOM      1  C4' PXY d   1      -3.263   2.787  -3.345  0.00  0.00     0.077 C 
ATOM      2  C1' PXY d   1       0.402   0.171   0.280  0.00  0.00     0.077 C 
ATOM      3  C1  PXY d   1      -0.569   0.853  -0.664  0.00  0.00    -0.082 A 
ATOM      4  C2  PXY d   1      -0.201   1.110  -1.908  0.00  0.00     0.003 A 
ATOM      5  C3  PXY d   1      -1.055   1.754  -2.765  0.00  0.00     0.003 A 
ATOM      6  C4  PXY d   1      -2.319   2.092  -2.360  0.00  0.00    -0.082 A 
ATOM      7  C5  PXY d   1      -2.706   1.823  -1.095  0.00  0.00     0.003 A 
ATOM      8  C6  PXY d   1      -1.809   1.205  -0.228  0.00  0.00     0.003 A 
ENDROOT
TORSDOF 0
ENDMDL
