MODEL 1
REMARK minimizedAffinity -0.37127772
REMARK minimizedRMSD -1
REMARK  0 active torsions:
REMARK  status: ('A' for Active; 'I' for Inactive)
ROOT
ATOM      1  C4' PXY d   1       1.484   0.792   2.556  0.00  0.00     0.077 C 
ATOM      2  C1' PXY d   1      -2.750   1.554  -1.305  0.00  0.00     0.077 C 
ATOM      3  C1  PXY d   1      -1.634   1.345  -0.300  0.00  0.00    -0.082 A 
ATOM      4  C2  PXY d   1      -1.819   1.692   0.963  0.00  0.00     0.003 A 
ATOM      5  C3  PXY d   1      -0.810   1.539   1.879  0.00  0.00     0.003 A 
ATOM      6  C4  PXY d   1       0.382   0.976   1.509  0.00  0.00    -0.082 A 
ATOM      7  C5  PXY d   1       0.575   0.610   0.224  0.00  0.00     0.003 A 
ATOM      8  C6  PXY d   1      -0.448   0.811  -0.699  0.00  0.00     0.003 A 
ENDROOT
TORSDOF 0
ENDMDL
