MODEL 1
REMARK minimizedAffinity 5.5530529
REMARK minimizedRMSD -1
REMARK  0 active torsions:
REMARK  status: ('A' for Active; 'I' for Inactive)
ROOT
ATOM      1  C4' PXY d   1       2.998  -1.162   2.694  0.00  0.00     0.077 C 
ATOM      2  C1' PXY d   1      -1.069   0.806  -0.913  0.00  0.00     0.077 C 
ATOM      3  C1  PXY d   1      -0.006   0.299   0.042  0.00  0.00    -0.082 A 
ATOM      4  C2  PXY d   1       1.044  -0.352  -0.433  0.00  0.00     0.003 A 
ATOM      5  C3  PXY d   1       1.998  -0.845   0.418  0.00  0.00     0.003 A 
ATOM      6  C4  PXY d   1       1.905  -0.624   1.766  0.00  0.00    -0.082 A 
ATOM      7  C5  PXY d   1       0.843   0.048   2.258  0.00  0.00     0.003 A 
ATOM      8  C6  PXY d   1      -0.136   0.505   1.381  0.00  0.00     0.003 A 
ENDROOT
TORSDOF 0
ENDMDL
