MODEL 1
REMARK minimizedAffinity 11.0846272
REMARK minimizedRMSD -1
REMARK  0 active torsions:
REMARK  status: ('A' for Active; 'I' for Inactive)
ROOT
ATOM      1  C4' PXY d   1      -6.000   3.340  -5.986  0.00  0.00     0.077 C 
ATOM      2  C1' PXY d   1      -3.525   5.916  -1.441  0.00  0.00     0.077 C 
ATOM      3  C1  PXY d   1      -4.180   5.252  -2.636  0.00  0.00    -0.082 A 
ATOM      4  C2  PXY d   1      -4.365   3.941  -2.636  0.00  0.00     0.003 A 
ATOM      5  C3  PXY d   1      -4.926   3.320  -3.722  0.00  0.00     0.003 A 
ATOM      6  C4  PXY d   1      -5.351   4.055  -4.797  0.00  0.00    -0.082 A 
ATOM      7  C5  PXY d   1      -5.176   5.393  -4.800  0.00  0.00     0.003 A 
ATOM      8  C6  PXY d   1      -4.566   5.999  -3.705  0.00  0.00     0.003 A 
ENDROOT
TORSDOF 0
ENDMDL
