MODEL 1
REMARK minimizedAffinity 0.177791372
REMARK minimizedRMSD -1
REMARK  0 active torsions:
REMARK  status: ('A' for Active; 'I' for Inactive)
ROOT
ATOM      1  C4' PXY d   1       1.432  -1.106   3.471  0.00  0.00     0.077 C 
ATOM      2  C1' PXY d   1      -0.480   1.747  -1.178  0.00  0.00     0.077 C 
ATOM      3  C1  PXY d   1       0.022   1.010   0.048  0.00  0.00    -0.082 A 
ATOM      4  C2  PXY d   1       0.678  -0.130  -0.097  0.00  0.00     0.003 A 
ATOM      5  C3  PXY d   1       1.110  -0.826   1.003  0.00  0.00     0.003 A 
ATOM      6  C4  PXY d   1       0.916  -0.323   2.261  0.00  0.00    -0.082 A 
ATOM      7  C5  PXY d   1       0.257   0.845   2.417  0.00  0.00     0.003 A 
ATOM      8  C6  PXY d   1      -0.210   1.515   1.290  0.00  0.00     0.003 A 
ENDROOT
TORSDOF 0
ENDMDL
