MODEL 1
REMARK minimizedAffinity 2.91192055
REMARK minimizedRMSD -1
REMARK  0 active torsions:
REMARK  status: ('A' for Active; 'I' for Inactive)
ROOT
ATOM      1  C4' PXY d   1       0.853  -0.703   4.336  0.00  0.00     0.077 C 
ATOM      2  C1' PXY d   1       0.376   2.624  -0.368  0.00  0.00     0.077 C 
ATOM      3  C1  PXY d   1       0.495   1.761   0.873  0.00  0.00    -0.082 A 
ATOM      4  C2  PXY d   1       1.446   0.844   0.943  0.00  0.00     0.003 A 
ATOM      5  C3  PXY d   1       1.548   0.033   2.044  0.00  0.00     0.003 A 
ATOM      6  C4  PXY d   1       0.701   0.198   3.107  0.00  0.00    -0.082 A 
ATOM      7  C5  PXY d   1      -0.265   1.138   3.047  0.00  0.00     0.003 A 
ATOM      8  C6  PXY d   1      -0.378   1.923   1.904  0.00  0.00     0.003 A 
ENDROOT
TORSDOF 0
ENDMDL
