MODEL 1
REMARK minimizedAffinity -1.57325816
REMARK minimizedRMSD -1
REMARK  0 active torsions:
REMARK  status: ('A' for Active; 'I' for Inactive)
ROOT
ATOM      1  C   UNL d   1      -0.897  -0.031   0.939  0.00  0.00     0.124 A 
ATOM      2  C1  UNL d   1      -1.193  -0.818  -0.165  0.00  0.00     0.062 A 
ATOM      3  C2  UNL d   1      -0.427  -0.717  -1.323  0.00  0.00     0.162 A 
ATOM      4  C3  UNL d   1       0.644   0.174  -1.382  0.00  0.00    -0.034 A 
ATOM      5  C4  UNL d   1       0.936   0.963  -0.268  0.00  0.00     0.162 A 
ATOM      6  C5  UNL d   1       0.167   0.859   0.887  0.00  0.00     0.062 A 
ATOM      7  F   UNL d   1       0.455   1.620   1.952  0.00  0.00    -0.097 F 
ATOM      8  F1  UNL d   1       1.959   1.831  -0.291  0.00  0.00    -0.096 F 
ATOM      9  I   UNL d   1       1.792   0.328  -3.111  0.00  0.00    -0.060 I 
ATOM     10  F2  UNL d   1      -0.736  -1.490  -2.374  0.00  0.00    -0.096 F 
ATOM     11  F3  UNL d   1      -2.221  -1.678  -0.117  0.00  0.00    -0.097 F 
ATOM     12  F4  UNL d   1      -1.636  -0.129   2.051  0.00  0.00    -0.092 F 
ENDROOT
TORSDOF 0
ENDMDL
