MODEL 1
REMARK minimizedAffinity -3.15337372
REMARK minimizedRMSD -1
REMARK  0 active torsions:
REMARK  status: ('A' for Active; 'I' for Inactive)
ROOT
ATOM      1  C   UNL d   1      -0.237   0.951   2.197  0.00  0.00     0.124 A 
ATOM      2  C1  UNL d   1      -1.322   0.940   1.332  0.00  0.00     0.062 A 
ATOM      3  C2  UNL d   1      -1.179   0.458   0.035  0.00  0.00     0.162 A 
ATOM      4  C3  UNL d   1       0.056  -0.020  -0.406  0.00  0.00    -0.034 A 
ATOM      5  C4  UNL d   1       1.143  -0.005   0.470  0.00  0.00     0.162 A 
ATOM      6  C5  UNL d   1       0.994   0.479   1.765  0.00  0.00     0.062 A 
ATOM      7  F   UNL d   1       2.044   0.488   2.600  0.00  0.00    -0.097 F 
ATOM      8  F1  UNL d   1       2.344  -0.456   0.079  0.00  0.00    -0.096 F 
ATOM      9  I   UNL d   1       0.275  -0.742  -2.345  0.00  0.00    -0.060 I 
ATOM     10  F2  UNL d   1      -2.245   0.459  -0.780  0.00  0.00    -0.096 F 
ATOM     11  F3  UNL d   1      -2.513   1.397   1.747  0.00  0.00    -0.097 F 
ATOM     12  F4  UNL d   1      -0.378   1.417   3.445  0.00  0.00    -0.092 F 
ENDROOT
TORSDOF 0
ENDMDL
