MODEL 1
REMARK minimizedAffinity 7.49110222
REMARK minimizedRMSD -1
REMARK  0 active torsions:
REMARK  status: ('A' for Active; 'I' for Inactive)
ROOT
ATOM      1  C   UNL d   1       1.762   1.023   1.734  0.00  0.00     0.124 A 
ATOM      2  C1  UNL d   1       2.026  -0.261   1.277  0.00  0.00     0.062 A 
ATOM      3  C2  UNL d   1       1.351  -0.761   0.167  0.00  0.00     0.162 A 
ATOM      4  C3  UNL d   1       0.406   0.023  -0.495  0.00  0.00    -0.034 A 
ATOM      5  C4  UNL d   1       0.146   1.313  -0.029  0.00  0.00     0.162 A 
ATOM      6  C5  UNL d   1       0.823   1.808   1.080  0.00  0.00     0.062 A 
ATOM      7  F   UNL d   1       0.567   3.049   1.520  0.00  0.00    -0.097 F 
ATOM      8  F1  UNL d   1      -0.756   2.094  -0.642  0.00  0.00    -0.096 F 
ATOM      9  I   UNL d   1      -0.605  -0.722  -2.155  0.00  0.00    -0.060 I 
ATOM     10  F2  UNL d   1       1.626  -2.006  -0.252  0.00  0.00    -0.096 F 
ATOM     11  F3  UNL d   1       2.932  -1.022   1.907  0.00  0.00    -0.097 F 
ATOM     12  F4  UNL d   1       2.412   1.502   2.802  0.00  0.00    -0.092 F 
ENDROOT
TORSDOF 0
ENDMDL
