MODEL 1
REMARK minimizedAffinity 2.93772745
REMARK minimizedRMSD -1
REMARK  0 active torsions:
REMARK  status: ('A' for Active; 'I' for Inactive)
ROOT
ATOM      1  C   UNL d   1      -0.555   0.756   2.070  0.00  0.00     0.124 A 
ATOM      2  C1  UNL d   1       0.710   0.700   1.503  0.00  0.00     0.062 A 
ATOM      3  C2  UNL d   1       0.863   0.357   0.163  0.00  0.00     0.162 A 
ATOM      4  C3  UNL d   1      -0.254   0.068  -0.621  0.00  0.00    -0.034 A 
ATOM      5  C4  UNL d   1      -1.524   0.126  -0.044  0.00  0.00     0.162 A 
ATOM      6  C5  UNL d   1      -1.671   0.470   1.296  0.00  0.00     0.062 A 
ATOM      7  F   UNL d   1      -2.895   0.524   1.842  0.00  0.00    -0.097 F 
ATOM      8  F1  UNL d   1      -2.620  -0.145  -0.769  0.00  0.00    -0.096 F 
ATOM      9  I   UNL d   1      -0.031  -0.445  -2.625  0.00  0.00    -0.060 I 
ATOM     10  F2  UNL d   1       2.098   0.310  -0.358  0.00  0.00    -0.096 F 
ATOM     11  F3  UNL d   1       1.790   0.976   2.249  0.00  0.00    -0.097 F 
ATOM     12  F4  UNL d   1      -0.699   1.086   3.360  0.00  0.00    -0.092 F 
ENDROOT
TORSDOF 0
ENDMDL
