MODEL 1
REMARK minimizedAffinity -3.91269636
REMARK minimizedRMSD -1
REMARK  0 active torsions:
REMARK  status: ('A' for Active; 'I' for Inactive)
ROOT
ATOM      1  C   UNL d   1      -0.301   0.200   2.368  0.00  0.00     0.124 A 
ATOM      2  C1  UNL d   1       0.836  -0.446   1.905  0.00  0.00     0.062 A 
ATOM      3  C2  UNL d   1       1.055  -0.583   0.537  0.00  0.00     0.162 A 
ATOM      4  C3  UNL d   1       0.134  -0.071  -0.378  0.00  0.00    -0.034 A 
ATOM      5  C4  UNL d   1      -1.007   0.577   0.096  0.00  0.00     0.162 A 
ATOM      6  C5  UNL d   1      -1.222   0.711   1.464  0.00  0.00     0.062 A 
ATOM      7  F   UNL d   1      -2.321   1.336   1.911  0.00  0.00    -0.097 F 
ATOM      8  F1  UNL d   1      -1.913   1.081  -0.755  0.00  0.00    -0.096 F 
ATOM      9  I   UNL d   1       0.458  -0.273  -2.424  0.00  0.00    -0.060 I 
ATOM     10  F2  UNL d   1       2.163  -1.212   0.117  0.00  0.00    -0.096 F 
ATOM     11  F3  UNL d   1       1.727  -0.941   2.776  0.00  0.00    -0.097 F 
ATOM     12  F4  UNL d   1      -0.509   0.330   3.685  0.00  0.00    -0.092 F 
ENDROOT
TORSDOF 0
ENDMDL
