MODEL 1
REMARK minimizedAffinity -3.13651466
REMARK minimizedRMSD -1
REMARK  0 active torsions:
REMARK  status: ('A' for Active; 'I' for Inactive)
ROOT
ATOM      1  C   UNL d   1      -0.314   0.854   1.974  0.00  0.00     0.124 A 
ATOM      2  C1  UNL d   1       0.906   0.563   1.379  0.00  0.00     0.062 A 
ATOM      3  C2  UNL d   1       0.951   0.076   0.076  0.00  0.00     0.162 A 
ATOM      4  C3  UNL d   1      -0.228  -0.123  -0.642  0.00  0.00    -0.034 A 
ATOM      5  C4  UNL d   1      -1.451   0.171  -0.036  0.00  0.00     0.162 A 
ATOM      6  C5  UNL d   1      -1.491   0.657   1.266  0.00  0.00     0.062 A 
ATOM      7  F   UNL d   1      -2.670   0.938   1.839  0.00  0.00    -0.097 F 
ATOM      8  F1  UNL d   1      -2.604  -0.009  -0.698  0.00  0.00    -0.096 F 
ATOM      9  I   UNL d   1      -0.166  -0.851  -2.591  0.00  0.00    -0.060 I 
ATOM     10  F2  UNL d   1       2.144  -0.197  -0.474  0.00  0.00    -0.096 F 
ATOM     11  F3  UNL d   1       2.045   0.751   2.061  0.00  0.00    -0.097 F 
ATOM     12  F4  UNL d   1      -0.354   1.321   3.228  0.00  0.00    -0.092 F 
ENDROOT
TORSDOF 0
ENDMDL
