MODEL 1
REMARK minimizedAffinity -0.293874115
REMARK minimizedRMSD -1
REMARK  0 active torsions:
REMARK  status: ('A' for Active; 'I' for Inactive)
ROOT
ATOM      1  C   UNL d   1      -0.078   0.769   1.954  0.00  0.00     0.124 A 
ATOM      2  C1  UNL d   1       1.100   0.632   1.233  0.00  0.00     0.062 A 
ATOM      3  C2  UNL d   1       1.063   0.217  -0.095  0.00  0.00     0.162 A 
ATOM      4  C3  UNL d   1      -0.156  -0.063  -0.712  0.00  0.00    -0.034 A 
ATOM      5  C4  UNL d   1      -1.337   0.075   0.020  0.00  0.00     0.162 A 
ATOM      6  C5  UNL d   1      -1.295   0.490   1.347  0.00  0.00     0.062 A 
ATOM      7  F   UNL d   1      -2.434   0.621   2.043  0.00  0.00    -0.097 F 
ATOM      8  F1  UNL d   1      -2.526  -0.187  -0.541  0.00  0.00    -0.096 F 
ATOM      9  I   UNL d   1      -0.215  -0.684  -2.698  0.00  0.00    -0.060 I 
ATOM     10  F2  UNL d   1       2.217   0.094  -0.768  0.00  0.00    -0.096 F 
ATOM     11  F3  UNL d   1       2.276   0.900   1.817  0.00  0.00    -0.097 F 
ATOM     12  F4  UNL d   1      -0.040   1.167   3.232  0.00  0.00    -0.092 F 
ENDROOT
TORSDOF 0
ENDMDL
