MODEL 1
REMARK minimizedAffinity 1.09673095
REMARK minimizedRMSD -1
REMARK  0 active torsions:
REMARK  status: ('A' for Active; 'I' for Inactive)
ROOT
ATOM      1  C   UNL d   1      -0.436   0.708   2.028  0.00  0.00     0.124 A 
ATOM      2  C1  UNL d   1      -1.544   0.722   1.191  0.00  0.00     0.062 A 
ATOM      3  C2  UNL d   1      -1.417   0.351  -0.145  0.00  0.00     0.162 A 
ATOM      4  C3  UNL d   1      -0.177  -0.037  -0.653  0.00  0.00    -0.034 A 
ATOM      5  C4  UNL d   1       0.932  -0.047   0.195  0.00  0.00     0.162 A 
ATOM      6  C5  UNL d   1       0.800   0.324   1.529  0.00  0.00     0.062 A 
ATOM      7  F   UNL d   1       1.872   0.310   2.335  0.00  0.00    -0.097 F 
ATOM      8  F1  UNL d   1       2.139  -0.415  -0.261  0.00  0.00    -0.096 F 
ATOM      9  I   UNL d   1       0.017  -0.591  -2.649  0.00  0.00    -0.060 I 
ATOM     10  F2  UNL d   1      -2.504   0.374  -0.930  0.00  0.00    -0.096 F 
ATOM     11  F3  UNL d   1      -2.740   1.093   1.670  0.00  0.00    -0.097 F 
ATOM     12  F4  UNL d   1      -0.561   1.065   3.312  0.00  0.00    -0.092 F 
ENDROOT
TORSDOF 0
ENDMDL
