MODEL 1
REMARK minimizedAffinity -1.96164322
REMARK minimizedRMSD -1
REMARK  0 active torsions:
REMARK  status: ('A' for Active; 'I' for Inactive)
ROOT
ATOM      1  C   UNL d   1      -0.679  -0.830  -0.714  0.00  0.00     0.124 A 
ATOM      2  C1  UNL d   1       0.524  -0.441  -0.142  0.00  0.00     0.062 A 
ATOM      3  C2  UNL d   1       0.531   0.349   1.004  0.00  0.00     0.162 A 
ATOM      4  C3  UNL d   1      -0.669   0.755   1.587  0.00  0.00    -0.034 A 
ATOM      5  C4  UNL d   1      -1.875   0.360   1.005  0.00  0.00     0.162 A 
ATOM      6  C5  UNL d   1      -1.877  -0.429  -0.140  0.00  0.00     0.062 A 
ATOM      7  F   UNL d   1      -3.041  -0.804  -0.692  0.00  0.00    -0.097 F 
ATOM      8  F1  UNL d   1      -3.048   0.733   1.539  0.00  0.00    -0.096 F 
ATOM      9  I   UNL d   1      -0.663   1.936   3.300  0.00  0.00    -0.060 I 
ATOM     10  F2  UNL d   1       1.709   0.709   1.536  0.00  0.00    -0.096 F 
ATOM     11  F3  UNL d   1       1.683  -0.827  -0.694  0.00  0.00    -0.097 F 
ATOM     12  F4  UNL d   1      -0.683  -1.590  -1.817  0.00  0.00    -0.092 F 
ENDROOT
TORSDOF 0
ENDMDL
