MODEL 1
REMARK minimizedAffinity -4.53986788
REMARK minimizedRMSD -1
REMARK  0 active torsions:
REMARK  status: ('A' for Active; 'I' for Inactive)
ROOT
ATOM      1  C   UNL d   1      -1.902  -1.001  -0.833  0.00  0.00     0.124 A 
ATOM      2  C1  UNL d   1      -2.292  -0.031   0.079  0.00  0.00     0.062 A 
ATOM      3  C2  UNL d   1      -1.391   0.439   1.030  0.00  0.00     0.162 A 
ATOM      4  C3  UNL d   1      -0.089  -0.061   1.073  0.00  0.00    -0.034 A 
ATOM      5  C4  UNL d   1       0.295  -1.038   0.153  0.00  0.00     0.162 A 
ATOM      6  C5  UNL d   1      -0.609  -1.504  -0.795  0.00  0.00     0.062 A 
ATOM      7  F   UNL d   1      -0.231  -2.442  -1.676  0.00  0.00    -0.097 F 
ATOM      8  F1  UNL d   1       1.539  -1.540   0.167  0.00  0.00    -0.096 F 
ATOM      9  I   UNL d   1       1.262   0.638   2.493  0.00  0.00    -0.060 I 
ATOM     10  F2  UNL d   1      -1.795   1.377   1.899  0.00  0.00    -0.096 F 
ATOM     11  F3  UNL d   1      -3.541   0.456   0.045  0.00  0.00    -0.097 F 
ATOM     12  F4  UNL d   1      -2.772  -1.452  -1.746  0.00  0.00    -0.092 F 
ENDROOT
TORSDOF 0
ENDMDL
