MODEL 1
REMARK minimizedAffinity -0.922622204
REMARK minimizedRMSD -1
REMARK  0 active torsions:
REMARK  status: ('A' for Active; 'I' for Inactive)
ROOT
ATOM      1  C   UNL d   1      -0.893   0.635   2.990  0.00  0.00     0.124 A 
ATOM      2  C1  UNL d   1       0.421   0.733   2.554  0.00  0.00     0.062 A 
ATOM      3  C2  UNL d   1       0.770   0.297   1.279  0.00  0.00     0.162 A 
ATOM      4  C3  UNL d   1      -0.197  -0.240   0.430  0.00  0.00    -0.034 A 
ATOM      5  C4  UNL d   1      -1.517  -0.336   0.876  0.00  0.00     0.162 A 
ATOM      6  C5  UNL d   1      -1.860   0.101   2.151  0.00  0.00     0.062 A 
ATOM      7  F   UNL d   1      -3.130   0.006   2.570  0.00  0.00    -0.097 F 
ATOM      8  F1  UNL d   1      -2.472  -0.848   0.085  0.00  0.00    -0.096 F 
ATOM      9  I   UNL d   1       0.320  -0.894  -1.477  0.00  0.00    -0.060 I 
ATOM     10  F2  UNL d   1       2.048   0.404   0.884  0.00  0.00    -0.096 F 
ATOM     11  F3  UNL d   1       1.358   1.248   3.363  0.00  0.00    -0.097 F 
ATOM     12  F4  UNL d   1      -1.226   1.055   4.217  0.00  0.00    -0.092 F 
ENDROOT
TORSDOF 0
ENDMDL
