MODEL 1
REMARK minimizedAffinity -4.70097923
REMARK minimizedRMSD -1
REMARK  0 active torsions:
REMARK  status: ('A' for Active; 'I' for Inactive)
ROOT
ATOM      1  C4' PXY d   1       1.015   0.001  -2.027  0.00  0.00     0.077 C 
ATOM      2  C1' PXY d   1      -2.358   1.008   2.559  0.00  0.00     0.077 C 
ATOM      3  C1  PXY d   1      -1.463   0.747   1.363  0.00  0.00    -0.082 A 
ATOM      4  C2  PXY d   1      -1.955   0.859   0.141  0.00  0.00     0.003 A 
ATOM      5  C3  PXY d   1      -1.169   0.595  -0.951  0.00  0.00     0.003 A 
ATOM      6  C4  PXY d   1       0.150   0.265  -0.791  0.00  0.00    -0.082 A 
ATOM      7  C5  PXY d   1       0.663   0.159   0.454  0.00  0.00     0.003 A 
ATOM      8  C6  PXY d   1      -0.163   0.391   1.550  0.00  0.00     0.003 A 
ENDROOT
TORSDOF 0
ENDMDL
