MODEL 1
REMARK minimizedAffinity -1.05240965
REMARK minimizedRMSD -1
REMARK  0 active torsions:
REMARK  status: ('A' for Active; 'I' for Inactive)
ROOT
ATOM      1  C4' PXY d   1       2.990  -2.157  -3.909  0.00  0.00     0.077 C 
ATOM      2  C1' PXY d   1      -1.269   1.328  -2.140  0.00  0.00     0.077 C 
ATOM      3  C1  PXY d   1      -0.159   0.404  -2.602  0.00  0.00    -0.082 A 
ATOM      4  C2  PXY d   1       1.097   0.816  -2.555  0.00  0.00     0.003 A 
ATOM      5  C3  PXY d   1       2.110   0.005  -2.999  0.00  0.00     0.003 A 
ATOM      6  C4  PXY d   1       1.839  -1.261  -3.445  0.00  0.00    -0.082 A 
ATOM      7  C5  PXY d   1       0.560  -1.693  -3.486  0.00  0.00     0.003 A 
ATOM      8  C6  PXY d   1      -0.457  -0.839  -3.070  0.00  0.00     0.003 A 
ENDROOT
TORSDOF 0
ENDMDL
