MODEL 1
REMARK minimizedAffinity -1.72512364
REMARK minimizedRMSD -1
REMARK  0 active torsions:
REMARK  status: ('A' for Active; 'I' for Inactive)
ROOT
ATOM      1  C4' PXY d   1      -1.480   0.626   3.298  0.00  0.00     0.077 C 
ATOM      2  C1' PXY d   1       0.850   0.165  -1.972  0.00  0.00     0.077 C 
ATOM      3  C1  PXY d   1       0.250   0.281  -0.585  0.00  0.00    -0.082 A 
ATOM      4  C2  PXY d   1      -1.065   0.255  -0.437  0.00  0.00     0.003 A 
ATOM      5  C3  PXY d   1      -1.625   0.391   0.807  0.00  0.00     0.003 A 
ATOM      6  C4  PXY d   1      -0.830   0.502   1.917  0.00  0.00    -0.082 A 
ATOM      7  C5  PXY d   1       0.512   0.519   1.775  0.00  0.00     0.003 A 
ATOM      8  C6  PXY d   1       1.060   0.420   0.499  0.00  0.00     0.003 A 
ENDROOT
TORSDOF 0
ENDMDL
