MODEL 1
REMARK minimizedAffinity -4.27113342
REMARK minimizedRMSD -1
REMARK  0 active torsions:
REMARK  status: ('A' for Active; 'I' for Inactive)
ROOT
ATOM      1  C4' PXY d   1       0.613   0.087  -2.274  0.00  0.00     0.077 C 
ATOM      2  C1' PXY d   1      -1.621   0.854   3.002  0.00  0.00     0.077 C 
ATOM      3  C1  PXY d   1      -1.047   0.649   1.614  0.00  0.00    -0.082 A 
ATOM      4  C2  PXY d   1       0.245   0.402   1.470  0.00  0.00     0.003 A 
ATOM      5  C3  PXY d   1       0.786   0.246   0.220  0.00  0.00     0.003 A 
ATOM      6  C4  PXY d   1      -0.012   0.291  -0.891  0.00  0.00    -0.082 A 
ATOM      7  C5  PXY d   1      -1.333   0.532  -0.752  0.00  0.00     0.003 A 
ATOM      8  C6  PXY d   1      -1.856   0.728   0.523  0.00  0.00     0.003 A 
ENDROOT
TORSDOF 0
ENDMDL
