MODEL 1
REMARK minimizedAffinity -2.03358889
REMARK minimizedRMSD -1
REMARK  0 active torsions:
REMARK  status: ('A' for Active; 'I' for Inactive)
ROOT
ATOM      1  C4' PXY d   1      -3.421   1.180   2.129  0.00  0.00     0.077 C 
ATOM      2  C1' PXY d   1       2.116  -0.277   1.333  0.00  0.00     0.077 C 
ATOM      3  C1  PXY d   1       0.663   0.109   1.529  0.00  0.00    -0.082 A 
ATOM      4  C2  PXY d   1       0.218   0.384   2.744  0.00  0.00     0.003 A 
ATOM      5  C3  PXY d   1      -1.101   0.704   2.944  0.00  0.00     0.003 A 
ATOM      6  C4  PXY d   1      -1.960   0.795   1.882  0.00  0.00    -0.082 A 
ATOM      7  C5  PXY d   1      -1.511   0.526   0.638  0.00  0.00     0.003 A 
ATOM      8  C6  PXY d   1      -0.179   0.163   0.461  0.00  0.00     0.003 A 
ENDROOT
TORSDOF 0
ENDMDL
