MODEL 1
REMARK minimizedAffinity -1.70685279
REMARK minimizedRMSD -1
REMARK  0 active torsions:
REMARK  status: ('A' for Active; 'I' for Inactive)
ROOT
ATOM      1  C4' PXY d   1       0.798  -0.308  -3.161  0.00  0.00     0.077 C 
ATOM      2  C1' PXY d   1       0.069   0.647   2.494  0.00  0.00     0.077 C 
ATOM      3  C1  PXY d   1       0.247   0.395   1.010  0.00  0.00    -0.082 A 
ATOM      4  C2  PXY d   1       1.413  -0.034   0.554  0.00  0.00     0.003 A 
ATOM      5  C3  PXY d   1       1.602  -0.237  -0.789  0.00  0.00     0.003 A 
ATOM      6  C4  PXY d   1       0.570  -0.049  -1.669  0.00  0.00    -0.082 A 
ATOM      7  C5  PXY d   1      -0.626   0.379  -1.211  0.00  0.00     0.003 A 
ATOM      8  C6  PXY d   1      -0.784   0.618   0.151  0.00  0.00     0.003 A 
ENDROOT
TORSDOF 0
ENDMDL
