MODEL 1
REMARK minimizedAffinity 1.36551929
REMARK minimizedRMSD -1
REMARK  0 active torsions:
REMARK  status: ('A' for Active; 'I' for Inactive)
ROOT
ATOM      1  C4' PXY d   1       2.392  -2.259  -4.619  0.00  0.00     0.077 C 
ATOM      2  C1' PXY d   1      -0.734   0.865  -0.893  0.00  0.00     0.077 C 
ATOM      3  C1  PXY d   1       0.078   0.035  -1.868  0.00  0.00    -0.082 A 
ATOM      4  C2  PXY d   1       1.327   0.379  -2.137  0.00  0.00     0.003 A 
ATOM      5  C3  PXY d   1       2.066  -0.341  -3.041  0.00  0.00     0.003 A 
ATOM      6  C4  PXY d   1       1.538  -1.456  -3.634  0.00  0.00    -0.082 A 
ATOM      7  C5  PXY d   1       0.268  -1.820  -3.356  0.00  0.00     0.003 A 
ATOM      8  C6  PXY d   1      -0.478  -1.052  -2.468  0.00  0.00     0.003 A 
ENDROOT
TORSDOF 0
ENDMDL
