MODEL 1
REMARK minimizedAffinity -3.97227526
REMARK minimizedRMSD -1
REMARK  0 active torsions:
REMARK  status: ('A' for Active; 'I' for Inactive)
ROOT
ATOM      1  C4' PXY d   1      -3.281   0.603  -0.452  0.00  0.00     0.077 C 
ATOM      2  C1' PXY d   1       1.904   0.383   2.094  0.00  0.00     0.077 C 
ATOM      3  C1  PXY d   1       0.539   0.438   1.438  0.00  0.00    -0.082 A 
ATOM      4  C2  PXY d   1       0.434   0.260   0.131  0.00  0.00     0.003 A 
ATOM      5  C3  PXY d   1      -0.790   0.338  -0.484  0.00  0.00     0.003 A 
ATOM      6  C4  PXY d   1      -1.924   0.547   0.255  0.00  0.00    -0.082 A 
ATOM      7  C5  PXY d   1      -1.826   0.718   1.590  0.00  0.00     0.003 A 
ATOM      8  C6  PXY d   1      -0.570   0.676   2.189  0.00  0.00     0.003 A 
ENDROOT
TORSDOF 0
ENDMDL
