MODEL 1
REMARK minimizedAffinity -0.299842924
REMARK minimizedRMSD -1
REMARK  0 active torsions:
REMARK  status: ('A' for Active; 'I' for Inactive)
ROOT
ATOM      1  C4' PXY d   1      -2.473   3.409   3.656  0.00  0.00     0.077 C 
ATOM      2  C1' PXY d   1       1.229  -0.732   2.057  0.00  0.00     0.077 C 
ATOM      3  C1  PXY d   1       0.268   0.359   2.484  0.00  0.00    -0.082 A 
ATOM      4  C2  PXY d   1      -1.035   0.133   2.451  0.00  0.00     0.003 A 
ATOM      5  C3  PXY d   1      -1.920   1.119   2.803  0.00  0.00     0.003 A 
ATOM      6  C4  PXY d   1      -1.465   2.333   3.244  0.00  0.00    -0.082 A 
ATOM      7  C5  PXY d   1      -0.137   2.568   3.291  0.00  0.00     0.003 A 
ATOM      8  C6  PXY d   1       0.744   1.568   2.890  0.00  0.00     0.003 A 
ENDROOT
TORSDOF 0
ENDMDL
