MODEL 1
REMARK minimizedAffinity -3.20158577
REMARK minimizedRMSD -1
REMARK  0 active torsions:
REMARK  status: ('A' for Active; 'I' for Inactive)
ROOT
ATOM      1  C4' PXY d   1       1.108   0.361  -1.883  0.00  0.00     0.077 C 
ATOM      2  C1' PXY d   1      -2.765   0.864   2.378  0.00  0.00     0.077 C 
ATOM      3  C1  PXY d   1      -1.740   0.736   1.269  0.00  0.00    -0.082 A 
ATOM      4  C2  PXY d   1      -2.126   0.830   0.007  0.00  0.00     0.003 A 
ATOM      5  C3  PXY d   1      -1.218   0.684  -1.009  0.00  0.00     0.003 A 
ATOM      6  C4  PXY d   1       0.109   0.493  -0.730  0.00  0.00    -0.082 A 
ATOM      7  C5  PXY d   1       0.513   0.407   0.555  0.00  0.00     0.003 A 
ATOM      8  C6  PXY d   1      -0.432   0.516   1.571  0.00  0.00     0.003 A 
ENDROOT
TORSDOF 0
ENDMDL
