MODEL 1
REMARK minimizedAffinity -3.02118301
REMARK minimizedRMSD -1
REMARK  0 active torsions:
REMARK  status: ('A' for Active; 'I' for Inactive)
ROOT
ATOM      1  C4' PXY d   1       0.727   0.183  -2.338  0.00  0.00     0.077 C 
ATOM      2  C1' PXY d   1      -0.733   0.362   3.252  0.00  0.00     0.077 C 
ATOM      3  C1  PXY d   1      -0.361   0.309   1.783  0.00  0.00    -0.082 A 
ATOM      4  C2  PXY d   1       0.914   0.322   1.430  0.00  0.00     0.003 A 
ATOM      5  C3  PXY d   1       1.266   0.307   0.105  0.00  0.00     0.003 A 
ATOM      6  C4  PXY d   1       0.306   0.225  -0.867  0.00  0.00    -0.082 A 
ATOM      7  C5  PXY d   1      -0.997   0.201  -0.514  0.00  0.00     0.003 A 
ATOM      8  C6  PXY d   1      -1.336   0.258   0.835  0.00  0.00     0.003 A 
ENDROOT
TORSDOF 0
ENDMDL
