MODEL 1
REMARK minimizedAffinity -1.46532619
REMARK minimizedRMSD -1
REMARK  0 active torsions:
REMARK  status: ('A' for Active; 'I' for Inactive)
ROOT
ATOM      1  C4' PXY d   1       1.164  -3.220  -3.512  0.00  0.00     0.077 C 
ATOM      2  C1' PXY d   1       0.860   1.391  -0.038  0.00  0.00     0.077 C 
ATOM      3  C1  PXY d   1       0.938   0.189  -0.960  0.00  0.00    -0.082 A 
ATOM      4  C2  PXY d   1       0.698  -1.020  -0.479  0.00  0.00     0.003 A 
ATOM      5  C3  PXY d   1       0.794  -2.121  -1.291  0.00  0.00     0.003 A 
ATOM      6  C4  PXY d   1       1.088  -1.977  -2.621  0.00  0.00    -0.082 A 
ATOM      7  C5  PXY d   1       1.324  -0.746  -3.121  0.00  0.00     0.003 A 
ATOM      8  C6  PXY d   1       1.261   0.355  -2.271  0.00  0.00     0.003 A 
ENDROOT
TORSDOF 0
ENDMDL
