MODEL 1
REMARK minimizedAffinity -1.50463676
REMARK minimizedRMSD -1
REMARK  0 active torsions:
REMARK  status: ('A' for Active; 'I' for Inactive)
ROOT
ATOM      1  C4' PXY d   1       0.448  -0.020  -2.897  0.00  0.00     0.077 C 
ATOM      2  C1' PXY d   1       0.481   0.367   2.871  0.00  0.00     0.077 C 
ATOM      3  C1  PXY d   1       0.460   0.260   1.359  0.00  0.00    -0.082 A 
ATOM      4  C2  PXY d   1       1.601   0.219   0.690  0.00  0.00     0.003 A 
ATOM      5  C3  PXY d   1       1.601   0.154  -0.679  0.00  0.00     0.003 A 
ATOM      6  C4  PXY d   1       0.421   0.078  -1.369  0.00  0.00    -0.082 A 
ATOM      7  C5  PXY d   1      -0.748   0.109  -0.694  0.00  0.00     0.003 A 
ATOM      8  C6  PXY d   1      -0.726   0.216   0.694  0.00  0.00     0.003 A 
ENDROOT
TORSDOF 0
ENDMDL
