MODEL 1
REMARK minimizedAffinity -3.30696607
REMARK minimizedRMSD -1
REMARK  0 active torsions:
REMARK  status: ('A' for Active; 'I' for Inactive)
ROOT
ATOM      1  C4' PXY d   1       1.157   0.491  -2.711  0.00  0.00     0.077 C 
ATOM      2  C1' PXY d   1      -0.307  -0.037   2.856  0.00  0.00     0.077 C 
ATOM      3  C1  PXY d   1       0.066   0.096   1.392  0.00  0.00    -0.082 A 
ATOM      4  C2  PXY d   1       1.340   0.186   1.048  0.00  0.00     0.003 A 
ATOM      5  C3  PXY d   1       1.693   0.339  -0.269  0.00  0.00     0.003 A 
ATOM      6  C4  PXY d   1       0.735   0.346  -1.247  0.00  0.00    -0.082 A 
ATOM      7  C5  PXY d   1      -0.567   0.244  -0.904  0.00  0.00     0.003 A 
ATOM      8  C6  PXY d   1      -0.907   0.131   0.441  0.00  0.00     0.003 A 
ENDROOT
TORSDOF 0
ENDMDL
