MODEL 1
REMARK minimizedAffinity -2.94040799
REMARK minimizedRMSD -1
REMARK  0 active torsions:
REMARK  status: ('A' for Active; 'I' for Inactive)
ROOT
ATOM      1  C4' PXY d   1      -2.948   1.164   2.978  0.00  0.00     0.077 C 
ATOM      2  C1' PXY d   1       0.721  -0.242  -1.262  0.00  0.00     0.077 C 
ATOM      3  C1  PXY d   1      -0.233   0.122  -0.141  0.00  0.00    -0.082 A 
ATOM      4  C2  PXY d   1      -1.517   0.301  -0.407  0.00  0.00     0.003 A 
ATOM      5  C3  PXY d   1      -2.388   0.661   0.588  0.00  0.00     0.003 A 
ATOM      6  C4  PXY d   1      -1.950   0.787   1.880  0.00  0.00    -0.082 A 
ATOM      7  C5  PXY d   1      -0.644   0.595   2.161  0.00  0.00     0.003 A 
ATOM      8  C6  PXY d   1       0.232   0.271   1.129  0.00  0.00     0.003 A 
ENDROOT
TORSDOF 0
ENDMDL
