MODEL 1
REMARK minimizedAffinity -2.636554
REMARK minimizedRMSD -1
REMARK  0 active torsions:
REMARK  status: ('A' for Active; 'I' for Inactive)
ROOT
ATOM      1  C4' PXY d   1      -0.562   0.426   2.915  0.00  0.00     0.077 C 
ATOM      2  C1' PXY d   1       1.081  -0.494  -2.550  0.00  0.00     0.077 C 
ATOM      3  C1  PXY d   1       0.639  -0.248  -1.121  0.00  0.00    -0.082 A 
ATOM      4  C2  PXY d   1       1.548  -0.102  -0.171  0.00  0.00     0.003 A 
ATOM      5  C3  PXY d   1       1.165   0.090   1.132  0.00  0.00     0.003 A 
ATOM      6  C4  PXY d   1      -0.162   0.185   1.457  0.00  0.00    -0.082 A 
ATOM      7  C5  PXY d   1      -1.095   0.048   0.492  0.00  0.00     0.003 A 
ATOM      8  C6  PXY d   1      -0.686  -0.187  -0.818  0.00  0.00     0.003 A 
ENDROOT
TORSDOF 0
ENDMDL
