MODEL 1
REMARK minimizedAffinity -3.68294764
REMARK minimizedRMSD -1
REMARK  0 active torsions:
REMARK  status: ('A' for Active; 'I' for Inactive)
ROOT
ATOM      1  C4' PXY d   1       0.883   0.205  -1.544  0.00  0.00     0.077 C 
ATOM      2  C1' PXY d   1      -3.192   0.938   2.489  0.00  0.00     0.077 C 
ATOM      3  C1  PXY d   1      -2.114   0.749   1.440  0.00  0.00    -0.082 A 
ATOM      4  C2  PXY d   1      -2.433   0.807   0.157  0.00  0.00     0.003 A 
ATOM      5  C3  PXY d   1      -1.477   0.607  -0.805  0.00  0.00     0.003 A 
ATOM      6  C4  PXY d   1      -0.170   0.399  -0.451  0.00  0.00    -0.082 A 
ATOM      7  C5  PXY d   1       0.165   0.349   0.856  0.00  0.00     0.003 A 
ATOM      8  C6  PXY d   1      -0.828   0.514   1.817  0.00  0.00     0.003 A 
ENDROOT
TORSDOF 0
ENDMDL
