MODEL 1
REMARK minimizedAffinity -3.10115623
REMARK minimizedRMSD -1
REMARK  0 active torsions:
REMARK  status: ('A' for Active; 'I' for Inactive)
ROOT
ATOM      1  C4' PXY d   1       0.636  -1.139  -2.990  0.00  0.00     0.077 C 
ATOM      2  C1' PXY d   1      -0.086   0.303   2.561  0.00  0.00     0.077 C 
ATOM      3  C1  PXY d   1       0.098  -0.064   1.102  0.00  0.00    -0.082 A 
ATOM      4  C2  PXY d   1       0.253  -1.333   0.761  0.00  0.00     0.003 A 
ATOM      5  C3  PXY d   1       0.452  -1.680  -0.550  0.00  0.00     0.003 A 
ATOM      6  C4  PXY d   1       0.439  -0.723  -1.529  0.00  0.00    -0.082 A 
ATOM      7  C5  PXY d   1       0.269   0.573  -1.191  0.00  0.00     0.003 A 
ATOM      8  C6  PXY d   1       0.110   0.908   0.150  0.00  0.00     0.003 A 
ENDROOT
TORSDOF 0
ENDMDL
