MODEL 1
REMARK minimizedAffinity -2.78243899
REMARK minimizedRMSD -1
REMARK  0 active torsions:
REMARK  status: ('A' for Active; 'I' for Inactive)
ROOT
ATOM      1  C4' PXY d   1       1.170  -0.478  -2.706  0.00  0.00     0.077 C 
ATOM      2  C1' PXY d   1       0.062   0.471   2.888  0.00  0.00     0.077 C 
ATOM      3  C1  PXY d   1       0.341   0.219   1.419  0.00  0.00    -0.082 A 
ATOM      4  C2  PXY d   1       1.572  -0.062   1.025  0.00  0.00     0.003 A 
ATOM      5  C3  PXY d   1       1.847  -0.262  -0.303  0.00  0.00     0.003 A 
ATOM      6  C4  PXY d   1       0.842  -0.225  -1.232  0.00  0.00    -0.082 A 
ATOM      7  C5  PXY d   1      -0.419   0.051  -0.837  0.00  0.00     0.003 A 
ATOM      8  C6  PXY d   1      -0.670   0.291   0.511  0.00  0.00     0.003 A 
ENDROOT
TORSDOF 0
ENDMDL
