MODEL 1
REMARK minimizedAffinity -3.20504189
REMARK minimizedRMSD -1
REMARK  2 active torsions:
REMARK  status: ('A' for Active; 'I' for Inactive)
REMARK    1  A    between atoms: C2'_3  and  C1'_4 
REMARK    2  A    between atoms: C1'_4  and  C1_5 
ROOT
ATOM      1  C1  I4B d   1      -0.588   0.899  -1.141  0.00  0.00    -0.075 A 
ATOM      2  C2  I4B d   1      -0.494   2.266  -1.223  0.00  0.00     0.003 A 
ATOM      3  C3  I4B d   1      -1.101   2.959  -2.299  0.00  0.00     0.002 A 
ATOM      4  C4  I4B d   1      -1.744   2.246  -3.290  0.00  0.00    -0.004 A 
ATOM      5  C5  I4B d   1      -1.858   0.863  -3.193  0.00  0.00     0.002 A 
ATOM      6  C6  I4B d   1      -1.288   0.185  -2.106  0.00  0.00     0.003 A 
ENDROOT
BRANCH   1   7
ATOM      7  C1' I4B d   1       0.092   0.196  -0.010  0.00  0.00     0.060 C 
BRANCH   7   8
ATOM      8  C2' I4B d   1       1.583   0.207  -0.283  0.00  0.00    -0.013 C 
ATOM      9  C4' I4B d   1       2.307   1.113   0.677  0.00  0.00     0.013 C 
ATOM     10  C3' I4B d   1       2.082  -1.204  -0.178  0.00  0.00     0.013 C 
ENDBRANCH   7   8
ENDBRANCH   1   7
TORSDOF 2
ENDMDL
