MODEL 1
REMARK minimizedAffinity -0.837807
REMARK minimizedRMSD -1
REMARK  2 active torsions:
REMARK  status: ('A' for Active; 'I' for Inactive)
REMARK    1  A    between atoms: C2'_3  and  C1'_4 
REMARK    2  A    between atoms: C1'_4  and  C1_5 
ROOT
ATOM      1  C1  I4B d   1       0.422   0.490  -0.673  0.00  0.00    -0.075 A 
ATOM      2  C2  I4B d   1       1.169  -0.077  -1.676  0.00  0.00     0.003 A 
ATOM      3  C3  I4B d   1       1.994  -1.196  -1.405  0.00  0.00     0.002 A 
ATOM      4  C4  I4B d   1       2.081  -1.680  -0.115  0.00  0.00    -0.004 A 
ATOM      5  C5  I4B d   1       1.306  -1.118   0.895  0.00  0.00     0.002 A 
ATOM      6  C6  I4B d   1       0.462  -0.034   0.613  0.00  0.00     0.003 A 
ENDROOT
BRANCH   1   7
ATOM      7  C1' I4B d   1      -0.413   1.690  -0.987  0.00  0.00     0.060 C 
BRANCH   7   8
ATOM      8  C2' I4B d   1      -0.564   1.773  -2.492  0.00  0.00    -0.013 C 
ATOM      9  C4' I4B d   1      -1.994   1.548  -2.910  0.00  0.00     0.013 C 
ATOM     10  C3' I4B d   1      -0.077   3.121  -2.933  0.00  0.00     0.013 C 
ENDBRANCH   7   8
ENDBRANCH   1   7
TORSDOF 2
ENDMDL
