MODEL 1
REMARK minimizedAffinity 0.906921864
REMARK minimizedRMSD -1
REMARK  2 active torsions:
REMARK  status: ('A' for Active; 'I' for Inactive)
REMARK    1  A    between atoms: C2'_3  and  C1'_4 
REMARK    2  A    between atoms: C1'_4  and  C1_5 
ROOT
ATOM      1  C1  I4B d   1      -0.750   0.981  -0.808  0.00  0.00    -0.075 A 
ATOM      2  C2  I4B d   1      -0.748   1.918  -1.811  0.00  0.00     0.003 A 
ATOM      3  C3  I4B d   1      -1.813   1.967  -2.742  0.00  0.00     0.002 A 
ATOM      4  C4  I4B d   1      -2.827   1.034  -2.666  0.00  0.00    -0.004 A 
ATOM      5  C5  I4B d   1      -2.839   0.099  -1.635  0.00  0.00     0.002 A 
ATOM      6  C6  I4B d   1      -1.800   0.079  -0.692  0.00  0.00     0.003 A 
ENDROOT
BRANCH   1   7
ATOM      7  C1' I4B d   1       0.407   0.936   0.139  0.00  0.00     0.060 C 
BRANCH   7   8
ATOM      8  C2' I4B d   1       1.680   1.061  -0.673  0.00  0.00    -0.013 C 
ATOM      9  C4' I4B d   1       2.763   1.753   0.113  0.00  0.00     0.013 C 
ATOM     10  C3' I4B d   1       2.105  -0.317  -1.082  0.00  0.00     0.013 C 
ENDBRANCH   7   8
ENDBRANCH   1   7
TORSDOF 2
ENDMDL
