MODEL 1
REMARK minimizedAffinity -4.82314205
REMARK minimizedRMSD -1
REMARK  2 active torsions:
REMARK  status: ('A' for Active; 'I' for Inactive)
REMARK    1  A    between atoms: C2'_3  and  C1'_4 
REMARK    2  A    between atoms: C1'_4  and  C1_5 
ROOT
ATOM      1  C1  I4B d   1       0.216  -0.436  -0.269  0.00  0.00    -0.075 A 
ATOM      2  C2  I4B d   1      -0.900   0.359  -0.190  0.00  0.00     0.003 A 
ATOM      3  C3  I4B d   1      -0.772   1.770  -0.188  0.00  0.00     0.002 A 
ATOM      4  C4  I4B d   1       0.485   2.338  -0.214  0.00  0.00    -0.004 A 
ATOM      5  C5  I4B d   1       1.615   1.530  -0.318  0.00  0.00     0.002 A 
ATOM      6  C6  I4B d   1       1.479   0.135  -0.358  0.00  0.00     0.003 A 
ENDROOT
BRANCH   1   7
ATOM      7  C1' I4B d   1       0.046  -1.922  -0.237  0.00  0.00     0.060 C 
BRANCH   7   8
ATOM      8  C2' I4B d   1       0.249  -2.383   1.192  0.00  0.00    -0.013 C 
ATOM      9  C4' I4B d   1       1.710  -2.405   1.556  0.00  0.00     0.013 C 
ATOM     10  C3' I4B d   1      -0.519  -1.460   2.090  0.00  0.00     0.013 C 
ENDBRANCH   7   8
ENDBRANCH   1   7
TORSDOF 2
ENDMDL
