MODEL 1
REMARK minimizedAffinity 6.84889746
REMARK minimizedRMSD -1
REMARK  2 active torsions:
REMARK  status: ('A' for Active; 'I' for Inactive)
REMARK    1  A    between atoms: C2'_3  and  C1'_4 
REMARK    2  A    between atoms: C1'_4  and  C1_5 
ROOT
ATOM      1  C1  I4B d   1      -2.177   1.561   0.318  0.00  0.00    -0.075 A 
ATOM      2  C2  I4B d   1      -1.591   2.579  -0.392  0.00  0.00     0.003 A 
ATOM      3  C3  I4B d   1      -1.838   2.714  -1.780  0.00  0.00     0.002 A 
ATOM      4  C4  I4B d   1      -2.632   1.786  -2.422  0.00  0.00    -0.004 A 
ATOM      5  C5  I4B d   1      -3.244   0.768  -1.696  0.00  0.00     0.002 A 
ATOM      6  C6  I4B d   1      -3.025   0.662  -0.315  0.00  0.00     0.003 A 
ENDROOT
BRANCH   1   7
ATOM      7  C1' I4B d   1      -1.868   1.428   1.776  0.00  0.00     0.060 C 
BRANCH   7   8
ATOM      8  C2' I4B d   1      -1.872  -0.047   2.121  0.00  0.00    -0.013 C 
ATOM      9  C4' I4B d   1      -0.492  -0.638   2.005  0.00  0.00     0.013 C 
ATOM     10  C3' I4B d   1      -2.409  -0.195   3.514  0.00  0.00     0.013 C 
ENDBRANCH   7   8
ENDBRANCH   1   7
TORSDOF 2
ENDMDL
