MODEL 1
REMARK minimizedAffinity 7.08768225
REMARK minimizedRMSD -1
REMARK  2 active torsions:
REMARK  status: ('A' for Active; 'I' for Inactive)
REMARK    1  A    between atoms: C2'_3  and  C1'_4 
REMARK    2  A    between atoms: C1'_4  and  C1_5 
ROOT
ATOM      1  C1  I4B d   1      -3.092   1.267  -1.529  0.00  0.00    -0.075 A 
ATOM      2  C2  I4B d   1      -1.857   1.866  -1.529  0.00  0.00     0.003 A 
ATOM      3  C3  I4B d   1      -1.452   2.662  -2.627  0.00  0.00     0.002 A 
ATOM      4  C4  I4B d   1      -2.286   2.790  -3.719  0.00  0.00    -0.004 A 
ATOM      5  C5  I4B d   1      -3.546   2.201  -3.708  0.00  0.00     0.002 A 
ATOM      6  C6  I4B d   1      -3.958   1.444  -2.601  0.00  0.00     0.003 A 
ENDROOT
BRANCH   1   7
ATOM      7  C1' I4B d   1      -3.476   0.406  -0.367  0.00  0.00     0.060 C 
BRANCH   7   8
ATOM      8  C2' I4B d   1      -3.260   1.208   0.900  0.00  0.00    -0.013 C 
ATOM      9  C4' I4B d   1      -4.377   0.983   1.884  0.00  0.00     0.013 C 
ATOM     10  C3' I4B d   1      -1.937   0.808   1.481  0.00  0.00     0.013 C 
ENDBRANCH   7   8
ENDBRANCH   1   7
TORSDOF 2
ENDMDL
