MODEL 1
REMARK minimizedAffinity 8.86944962
REMARK minimizedRMSD -1
REMARK  2 active torsions:
REMARK  status: ('A' for Active; 'I' for Inactive)
REMARK    1  A    between atoms: C2'_3  and  C1'_4 
REMARK    2  A    between atoms: C1'_4  and  C1_5 
ROOT
ATOM      1  C1  I4B d   1       1.305  -1.013   1.061  0.00  0.00    -0.075 A 
ATOM      2  C2  I4B d   1       1.668  -2.309   0.793  0.00  0.00     0.003 A 
ATOM      3  C3  I4B d   1       2.649  -2.585  -0.190  0.00  0.00     0.002 A 
ATOM      4  C4  I4B d   1       3.200  -1.546  -0.911  0.00  0.00    -0.004 A 
ATOM      5  C5  I4B d   1       2.847  -0.231  -0.622  0.00  0.00     0.002 A 
ATOM      6  C6  I4B d   1       1.903   0.039   0.379  0.00  0.00     0.003 A 
ENDROOT
BRANCH   1   7
ATOM      7  C1' I4B d   1       0.242  -0.759   2.083  0.00  0.00     0.060 C 
BRANCH   7   8
ATOM      8  C2' I4B d   1      -1.088  -0.679   1.362  0.00  0.00    -0.013 C 
ATOM      9  C4' I4B d   1      -1.879  -1.949   1.537  0.00  0.00     0.013 C 
ATOM     10  C3' I4B d   1      -1.837   0.503   1.901  0.00  0.00     0.013 C 
ENDBRANCH   7   8
ENDBRANCH   1   7
TORSDOF 2
ENDMDL
