MODEL 1
REMARK minimizedAffinity 4.91002083
REMARK minimizedRMSD -1
REMARK  2 active torsions:
REMARK  status: ('A' for Active; 'I' for Inactive)
REMARK    1  A    between atoms: C2'_3  and  C1'_4 
REMARK    2  A    between atoms: C1'_4  and  C1_5 
ROOT
ATOM      1  C1  I4B d   1       2.434  -1.439  -0.097  0.00  0.00    -0.075 A 
ATOM      2  C2  I4B d   1       2.304  -1.702   1.244  0.00  0.00     0.003 A 
ATOM      3  C3  I4B d   1       1.789  -2.947   1.680  0.00  0.00     0.002 A 
ATOM      4  C4  I4B d   1       1.372  -3.874   0.746  0.00  0.00    -0.004 A 
ATOM      5  C5  I4B d   1       1.526  -3.615  -0.612  0.00  0.00     0.002 A 
ATOM      6  C6  I4B d   1       2.072  -2.395  -1.037  0.00  0.00     0.003 A 
ENDROOT
BRANCH   1   7
ATOM      7  C1' I4B d   1       2.951  -0.101  -0.523  0.00  0.00     0.060 C 
BRANCH   7   8
ATOM      8  C2' I4B d   1       3.454  -0.227  -1.947  0.00  0.00    -0.013 C 
ATOM      9  C4' I4B d   1       3.925   1.101  -2.477  0.00  0.00     0.013 C 
ATOM     10  C3' I4B d   1       4.561  -1.239  -1.959  0.00  0.00     0.013 C 
ENDBRANCH   7   8
ENDBRANCH   1   7
TORSDOF 2
ENDMDL
