MODEL 1
REMARK minimizedAffinity 4.13628817
REMARK minimizedRMSD -1
REMARK  2 active torsions:
REMARK  status: ('A' for Active; 'I' for Inactive)
REMARK    1  A    between atoms: C2'_3  and  C1'_4 
REMARK    2  A    between atoms: C1'_4  and  C1_5 
ROOT
ATOM      1  C1  I4B d   1       1.087  -0.872   0.798  0.00  0.00    -0.075 A 
ATOM      2  C2  I4B d   1       1.061  -2.224   0.563  0.00  0.00     0.003 A 
ATOM      3  C3  I4B d   1       1.807  -2.776  -0.506  0.00  0.00     0.002 A 
ATOM      4  C4  I4B d   1       2.520  -1.940  -1.340  0.00  0.00    -0.004 A 
ATOM      5  C5  I4B d   1       2.564  -0.572  -1.087  0.00  0.00     0.002 A 
ATOM      6  C6  I4B d   1       1.853  -0.036  -0.004  0.00  0.00     0.003 A 
ENDROOT
BRANCH   1   7
ATOM      7  C1' I4B d   1       0.261  -0.318   1.915  0.00  0.00     0.060 C 
BRANCH   7   8
ATOM      8  C2' I4B d   1      -0.835   0.534   1.308  0.00  0.00    -0.013 C 
ATOM      9  C4' I4B d   1      -2.105   0.443   2.112  0.00  0.00     0.013 C 
ATOM     10  C3' I4B d   1      -0.338   1.947   1.239  0.00  0.00     0.013 C 
ENDBRANCH   7   8
ENDBRANCH   1   7
TORSDOF 2
ENDMDL
