MODEL 1
REMARK minimizedAffinity 3.49146962
REMARK minimizedRMSD -1
REMARK  2 active torsions:
REMARK  status: ('A' for Active; 'I' for Inactive)
REMARK    1  A    between atoms: C2'_3  and  C1'_4 
REMARK    2  A    between atoms: C1'_4  and  C1_5 
ROOT
ATOM      1  C1  I4B d   1      -2.774   0.711  -0.574  0.00  0.00    -0.075 A 
ATOM      2  C2  I4B d   1      -3.954   0.833   0.116  0.00  0.00     0.003 A 
ATOM      3  C3  I4B d   1      -3.952   0.862   1.532  0.00  0.00     0.002 A 
ATOM      4  C4  I4B d   1      -2.761   0.716   2.213  0.00  0.00    -0.004 A 
ATOM      5  C5  I4B d   1      -1.563   0.615   1.511  0.00  0.00     0.002 A 
ATOM      6  C6  I4B d   1      -1.568   0.626   0.109  0.00  0.00     0.003 A 
ENDROOT
BRANCH   1   7
ATOM      7  C1' I4B d   1      -2.817   0.651  -2.068  0.00  0.00     0.060 C 
BRANCH   7   8
ATOM      8  C2' I4B d   1      -2.998   2.063  -2.587  0.00  0.00    -0.013 C 
ATOM      9  C4' I4B d   1      -1.825   2.489  -3.431  0.00  0.00     0.013 C 
ATOM     10  C3' I4B d   1      -4.275   2.108  -3.372  0.00  0.00     0.013 C 
ENDBRANCH   7   8
ENDBRANCH   1   7
TORSDOF 2
ENDMDL
