MODEL 1
REMARK minimizedAffinity 5.18044329
REMARK minimizedRMSD -1
REMARK  2 active torsions:
REMARK  status: ('A' for Active; 'I' for Inactive)
REMARK    1  A    between atoms: C2'_3  and  C1'_4 
REMARK    2  A    between atoms: C1'_4  and  C1_5 
ROOT
ATOM      1  C1  I4B d   1      -2.810   0.102  -1.234  0.00  0.00    -0.075 A 
ATOM      2  C2  I4B d   1      -2.645  -1.237  -0.981  0.00  0.00     0.003 A 
ATOM      3  C3  I4B d   1      -2.471  -1.695   0.348  0.00  0.00     0.002 A 
ATOM      4  C4  I4B d   1      -2.419  -0.781   1.380  0.00  0.00    -0.004 A 
ATOM      5  C5  I4B d   1      -2.610   0.574   1.124  0.00  0.00     0.002 A 
ATOM      6  C6  I4B d   1      -2.819   1.018  -0.190  0.00  0.00     0.003 A 
ENDROOT
BRANCH   1   7
ATOM      7  C1' I4B d   1      -2.958   0.554  -2.652  0.00  0.00     0.060 C 
BRANCH   7   8
ATOM      8  C2' I4B d   1      -3.373   2.011  -2.637  0.00  0.00    -0.013 C 
ATOM      9  C4' I4B d   1      -2.270   2.898  -3.152  0.00  0.00     0.013 C 
ATOM     10  C3' I4B d   1      -4.612   2.148  -3.470  0.00  0.00     0.013 C 
ENDBRANCH   7   8
ENDBRANCH   1   7
TORSDOF 2
ENDMDL
