MODEL 1
REMARK minimizedAffinity 0.474225789
REMARK minimizedRMSD -1
REMARK  1 active torsions:
REMARK  status: ('A' for Active; 'I' for Inactive)
REMARK    1  A    between atoms: C1_2  and  C2_3 
ROOT
ATOM      1  C2  UNL d   1      -4.123  -0.517  -3.791  0.00  0.00    -0.077 A 
ATOM      2  C3  UNL d   1      -3.195  -0.087  -4.749  0.00  0.00     0.002 A 
ATOM      3  C4  UNL d   1      -3.612   0.667  -5.848  0.00  0.00     0.002 A 
ATOM      4  C5  UNL d   1      -4.957   1.000  -5.997  0.00  0.00    -0.004 A 
ATOM      5  C6  UNL d   1      -5.888   0.575  -5.050  0.00  0.00     0.002 A 
ATOM      6  C7  UNL d   1      -5.473  -0.179  -3.951  0.00  0.00     0.002 A 
ENDROOT
BRANCH   1   7
ATOM      7  C1  UNL d   1      -3.668  -1.288  -2.579  0.00  0.00     0.055 C 
ATOM      8  C   UNL d   1      -3.266  -0.353  -1.448  0.00  0.00     0.019 C 
ENDBRANCH   1   7
TORSDOF 1
ENDMDL
