MODEL 1
REMARK minimizedAffinity 2.53967404
REMARK minimizedRMSD -1
REMARK  1 active torsions:
REMARK  status: ('A' for Active; 'I' for Inactive)
REMARK    1  A    between atoms: C1_2  and  C2_3 
ROOT
ATOM      1  C2  UNL d   1      -3.660   0.109  -5.032  0.00  0.00    -0.077 A 
ATOM      2  C3  UNL d   1      -2.773  -0.556  -5.890  0.00  0.00     0.002 A 
ATOM      3  C4  UNL d   1      -1.886  -1.510  -5.389  0.00  0.00     0.002 A 
ATOM      4  C5  UNL d   1      -1.881  -1.812  -4.029  0.00  0.00    -0.004 A 
ATOM      5  C6  UNL d   1      -2.758  -1.155  -3.166  0.00  0.00     0.002 A 
ATOM      6  C7  UNL d   1      -3.644  -0.200  -3.666  0.00  0.00     0.002 A 
ENDROOT
BRANCH   1   7
ATOM      7  C1  UNL d   1      -4.651   1.103  -5.578  0.00  0.00     0.055 C 
ATOM      8  C   UNL d   1      -5.990   0.999  -4.864  0.00  0.00     0.019 C 
ENDBRANCH   1   7
TORSDOF 1
ENDMDL
