MODEL 1
REMARK minimizedAffinity -3.84219265
REMARK minimizedRMSD -1
REMARK  1 active torsions:
REMARK  status: ('A' for Active; 'I' for Inactive)
REMARK    1  A    between atoms: C1_2  and  C2_3 
ROOT
ATOM      1  C2  UNL d   1      -3.727  -0.780  -3.520  0.00  0.00    -0.077 A 
ATOM      2  C3  UNL d   1      -2.738  -0.197  -4.324  0.00  0.00     0.002 A 
ATOM      3  C4  UNL d   1      -3.071   0.367  -5.557  0.00  0.00     0.002 A 
ATOM      4  C5  UNL d   1      -4.394   0.358  -5.994  0.00  0.00    -0.004 A 
ATOM      5  C6  UNL d   1      -5.385  -0.220  -5.202  0.00  0.00     0.002 A 
ATOM      6  C7  UNL d   1      -5.053  -0.786  -3.970  0.00  0.00     0.002 A 
ENDROOT
BRANCH   1   7
ATOM      7  C1  UNL d   1      -3.377  -1.345  -2.168  0.00  0.00     0.055 C 
ATOM      8  C   UNL d   1      -2.753  -0.286  -1.270  0.00  0.00     0.019 C 
ENDBRANCH   1   7
TORSDOF 1
ENDMDL
