MODEL 1
REMARK minimizedAffinity 7.58428431
REMARK minimizedRMSD -1
REMARK  1 active torsions:
REMARK  status: ('A' for Active; 'I' for Inactive)
REMARK    1  A    between atoms: C1_2  and  C2_3 
ROOT
ATOM      1  C2  UNL d   1       2.221  -0.771   0.152  0.00  0.00    -0.077 A 
ATOM      2  C3  UNL d   1       3.559  -0.631  -0.242  0.00  0.00     0.002 A 
ATOM      3  C4  UNL d   1       4.077   0.628  -0.552  0.00  0.00     0.002 A 
ATOM      4  C5  UNL d   1       3.265   1.757  -0.467  0.00  0.00    -0.004 A 
ATOM      5  C6  UNL d   1       1.932   1.628  -0.078  0.00  0.00     0.002 A 
ATOM      6  C7  UNL d   1       1.413   0.371   0.231  0.00  0.00     0.002 A 
ENDROOT
BRANCH   1   7
ATOM      7  C1  UNL d   1       1.675  -2.121   0.534  0.00  0.00     0.055 C 
ATOM      8  C   UNL d   1       2.790  -3.144   0.696  0.00  0.00     0.019 C 
ENDBRANCH   1   7
TORSDOF 1
ENDMDL
