MODEL 1
REMARK minimizedAffinity 2.43158865
REMARK minimizedRMSD -1
REMARK  1 active torsions:
REMARK  status: ('A' for Active; 'I' for Inactive)
REMARK    1  A    between atoms: C1_2  and  C2_3 
ROOT
ATOM      1  C2  UNL d   1       4.504  -4.614   3.257  0.00  0.00    -0.077 A 
ATOM      2  C3  UNL d   1       4.751  -3.384   3.882  0.00  0.00     0.002 A 
ATOM      3  C4  UNL d   1       5.036  -3.331   5.248  0.00  0.00     0.002 A 
ATOM      4  C5  UNL d   1       5.082  -4.504   5.998  0.00  0.00    -0.004 A 
ATOM      5  C6  UNL d   1       4.836  -5.732   5.386  0.00  0.00     0.002 A 
ATOM      6  C7  UNL d   1       4.549  -5.787   4.021  0.00  0.00     0.002 A 
ENDROOT
BRANCH   1   7
ATOM      7  C1  UNL d   1       4.244  -4.678   1.774  0.00  0.00     0.055 C 
ATOM      8  C   UNL d   1       2.980  -3.919   1.400  0.00  0.00     0.019 C 
ENDBRANCH   1   7
TORSDOF 1
ENDMDL
