MODEL 1
REMARK minimizedAffinity -1.43124628
REMARK minimizedRMSD -1
REMARK  1 active torsions:
REMARK  status: ('A' for Active; 'I' for Inactive)
REMARK    1  A    between atoms: C1_2  and  C2_3 
ROOT
ATOM      1  C2  UNL d   1      -3.963   0.783  -4.199  0.00  0.00    -0.077 A 
ATOM      2  C3  UNL d   1      -3.684   1.023  -5.552  0.00  0.00     0.002 A 
ATOM      3  C4  UNL d   1      -3.250   2.282  -5.971  0.00  0.00     0.002 A 
ATOM      4  C5  UNL d   1      -3.086   3.309  -5.043  0.00  0.00    -0.004 A 
ATOM      5  C6  UNL d   1      -3.363   3.081  -3.696  0.00  0.00     0.002 A 
ATOM      6  C7  UNL d   1      -3.799   1.823  -3.275  0.00  0.00     0.002 A 
ENDROOT
BRANCH   1   7
ATOM      7  C1  UNL d   1      -4.384  -0.588  -3.738  0.00  0.00     0.055 C 
ATOM      8  C   UNL d   1      -3.514  -1.077  -2.589  0.00  0.00     0.019 C 
ENDBRANCH   1   7
TORSDOF 1
ENDMDL
