MODEL 1
REMARK minimizedAffinity -1.25903392
REMARK minimizedRMSD -1
REMARK  1 active torsions:
REMARK  status: ('A' for Active; 'I' for Inactive)
REMARK    1  A    between atoms: C1_2  and  C2_3 
ROOT
ATOM      1  C2  UNL d   1      -4.582   0.142  -4.873  0.00  0.00    -0.077 A 
ATOM      2  C3  UNL d   1      -3.617   0.232  -5.885  0.00  0.00     0.002 A 
ATOM      3  C4  UNL d   1      -2.401  -0.443  -5.764  0.00  0.00     0.002 A 
ATOM      4  C5  UNL d   1      -2.141  -1.217  -4.635  0.00  0.00    -0.004 A 
ATOM      5  C6  UNL d   1      -3.094  -1.312  -3.622  0.00  0.00     0.002 A 
ATOM      6  C7  UNL d   1      -4.309  -0.636  -3.740  0.00  0.00     0.002 A 
ENDROOT
BRANCH   1   7
ATOM      7  C1  UNL d   1      -5.913   0.830  -5.023  0.00  0.00     0.055 C 
ATOM      8  C   UNL d   1      -5.744   2.267  -5.495  0.00  0.00     0.019 C 
ENDBRANCH   1   7
TORSDOF 1
ENDMDL
