MODEL 1
REMARK minimizedAffinity 2.8610549
REMARK minimizedRMSD -1
REMARK  1 active torsions:
REMARK  status: ('A' for Active; 'I' for Inactive)
REMARK    1  A    between atoms: C1_2  and  C2_3 
ROOT
ATOM      1  C2  UNL d   1      -3.736  -0.786  -4.084  0.00  0.00    -0.077 A 
ATOM      2  C3  UNL d   1      -2.639  -1.043  -4.918  0.00  0.00     0.002 A 
ATOM      3  C4  UNL d   1      -2.242  -0.103  -5.872  0.00  0.00     0.002 A 
ATOM      4  C5  UNL d   1      -2.932   1.101  -5.996  0.00  0.00    -0.004 A 
ATOM      5  C6  UNL d   1      -4.025   1.365  -5.172  0.00  0.00     0.002 A 
ATOM      6  C7  UNL d   1      -4.425   0.426  -4.219  0.00  0.00     0.002 A 
ENDROOT
BRANCH   1   7
ATOM      7  C1  UNL d   1      -4.136  -1.777  -3.022  0.00  0.00     0.055 C 
ATOM      8  C   UNL d   1      -3.429  -1.491  -1.704  0.00  0.00     0.019 C 
ENDBRANCH   1   7
TORSDOF 1
ENDMDL
