MODEL 1
REMARK minimizedAffinity -2.39786577
REMARK minimizedRMSD -1
REMARK  2 active torsions:
REMARK  status: ('A' for Active; 'I' for Inactive)
REMARK    1  A    between atoms: C2'_3  and  C1'_4 
REMARK    2  A    between atoms: C1'_4  and  C1_5 
ROOT
ATOM      1  C1  I4B d   1      -3.410  -3.699  -4.558  0.00  0.00    -0.075 A 
ATOM      2  C2  I4B d   1      -3.529  -4.829  -3.787  0.00  0.00     0.003 A 
ATOM      3  C3  I4B d   1      -2.789  -5.993  -4.109  0.00  0.00     0.002 A 
ATOM      4  C4  I4B d   1      -1.988  -6.000  -5.232  0.00  0.00    -0.004 A 
ATOM      5  C5  I4B d   1      -1.850  -4.847  -5.999  0.00  0.00     0.002 A 
ATOM      6  C6  I4B d   1      -2.556  -3.685  -5.654  0.00  0.00     0.003 A 
ENDROOT
BRANCH   1   7
ATOM      7  C1' I4B d   1      -4.230  -2.498  -4.209  0.00  0.00     0.060 C 
BRANCH   7   8
ATOM      8  C2' I4B d   1      -5.681  -2.825  -4.497  0.00  0.00    -0.013 C 
ATOM      9  C4' I4B d   1      -5.945  -2.878  -5.979  0.00  0.00     0.013 C 
ATOM     10  C3' I4B d   1      -6.000  -4.136  -3.842  0.00  0.00     0.013 C 
ENDBRANCH   7   8
ENDBRANCH   1   7
TORSDOF 2
ENDMDL
