MODEL 1
REMARK minimizedAffinity -4.12736273
REMARK minimizedRMSD -1
REMARK  2 active torsions:
REMARK  status: ('A' for Active; 'I' for Inactive)
REMARK    1  A    between atoms: C2'_3  and  C1'_4 
REMARK    2  A    between atoms: C1'_4  and  C1_5 
ROOT
ATOM      1  C1  I4B d   1      -3.980  -4.886  -4.561  0.00  0.00    -0.075 A 
ATOM      2  C2  I4B d   1      -4.784  -4.777  -5.668  0.00  0.00     0.003 A 
ATOM      3  C3  I4B d   1      -5.790  -3.782  -5.724  0.00  0.00     0.002 A 
ATOM      4  C4  I4B d   1      -5.989  -2.955  -4.636  0.00  0.00    -0.004 A 
ATOM      5  C5  I4B d   1      -5.158  -3.052  -3.524  0.00  0.00     0.002 A 
ATOM      6  C6  I4B d   1      -4.139  -4.015  -3.490  0.00  0.00     0.003 A 
ENDROOT
BRANCH   1   7
ATOM      7  C1' I4B d   1      -2.950  -5.969  -4.522  0.00  0.00     0.060 C 
BRANCH   7   8
ATOM      8  C2' I4B d   1      -1.907  -5.659  -5.577  0.00  0.00    -0.013 C 
ATOM      9  C4' I4B d   1      -1.971  -4.215  -5.999  0.00  0.00     0.013 C 
ATOM     10  C3' I4B d   1      -0.561  -5.999  -5.011  0.00  0.00     0.013 C 
ENDBRANCH   7   8
ENDBRANCH   1   7
TORSDOF 2
ENDMDL
