MODEL 1
REMARK minimizedAffinity 1.55248594
REMARK minimizedRMSD -1
REMARK  2 active torsions:
REMARK  status: ('A' for Active; 'I' for Inactive)
REMARK    1  A    between atoms: C2'_3  and  C1'_4 
REMARK    2  A    between atoms: C1'_4  and  C1_5 
ROOT
ATOM      1  C1  I4B d   1      -4.537  -4.573  -4.109  0.00  0.00    -0.075 A 
ATOM      2  C2  I4B d   1      -3.867  -5.062  -3.015  0.00  0.00     0.003 A 
ATOM      3  C3  I4B d   1      -2.548  -5.560  -3.152  0.00  0.00     0.002 A 
ATOM      4  C4  I4B d   1      -1.961  -5.596  -4.400  0.00  0.00    -0.004 A 
ATOM      5  C5  I4B d   1      -2.634  -5.078  -5.504  0.00  0.00     0.002 A 
ATOM      6  C6  I4B d   1      -3.925  -4.552  -5.355  0.00  0.00     0.003 A 
ENDROOT
BRANCH   1   7
ATOM      7  C1' I4B d   1      -5.941  -4.085  -3.934  0.00  0.00     0.060 C 
BRANCH   7   8
ATOM      8  C2' I4B d   1      -5.998  -2.648  -4.412  0.00  0.00    -0.013 C 
ATOM      9  C4' I4B d   1      -4.854  -1.843  -3.855  0.00  0.00     0.013 C 
ATOM     10  C3' I4B d   1      -5.975  -2.657  -5.911  0.00  0.00     0.013 C 
ENDBRANCH   7   8
ENDBRANCH   1   7
TORSDOF 2
ENDMDL
