MODEL 1
REMARK minimizedAffinity -4.11453629
REMARK minimizedRMSD -1
REMARK  2 active torsions:
REMARK  status: ('A' for Active; 'I' for Inactive)
REMARK    1  A    between atoms: C2'_3  and  C1'_4 
REMARK    2  A    between atoms: C1'_4  and  C1_5 
ROOT
ATOM      1  C1  I4B d   1      -4.393  -4.407  -4.800  0.00  0.00    -0.075 A 
ATOM      2  C2  I4B d   1      -3.324  -3.653  -4.383  0.00  0.00     0.003 A 
ATOM      3  C3  I4B d   1      -2.002  -4.062  -4.685  0.00  0.00     0.002 A 
ATOM      4  C4  I4B d   1      -1.795  -5.249  -5.357  0.00  0.00    -0.004 A 
ATOM      5  C5  I4B d   1      -2.880  -6.000  -5.799  0.00  0.00     0.002 A 
ATOM      6  C6  I4B d   1      -4.187  -5.570  -5.530  0.00  0.00     0.003 A 
ENDROOT
BRANCH   1   7
ATOM      7  C1' I4B d   1      -5.774  -3.963  -4.436  0.00  0.00     0.060 C 
BRANCH   7   8
ATOM      8  C2' I4B d   1      -5.985  -2.576  -5.009  0.00  0.00    -0.013 C 
ATOM      9  C4' I4B d   1      -5.998  -1.533  -3.923  0.00  0.00     0.013 C 
ATOM     10  C3' I4B d   1      -4.890  -2.313  -5.999  0.00  0.00     0.013 C 
ENDBRANCH   7   8
ENDBRANCH   1   7
TORSDOF 2
ENDMDL
