MODEL 1
REMARK minimizedAffinity -2.38683367
REMARK minimizedRMSD -1
REMARK  2 active torsions:
REMARK  status: ('A' for Active; 'I' for Inactive)
REMARK    1  A    between atoms: C2'_3  and  C1'_4 
REMARK    2  A    between atoms: C1'_4  and  C1_5 
ROOT
ATOM      1  C1  I4B d   1      -4.166  -4.301  -5.648  0.00  0.00    -0.075 A 
ATOM      2  C2  I4B d   1      -5.497  -4.065  -5.883  0.00  0.00     0.003 A 
ATOM      3  C3  I4B d   1      -5.996  -2.739  -5.889  0.00  0.00     0.002 A 
ATOM      4  C4  I4B d   1      -5.143  -1.691  -5.607  0.00  0.00    -0.004 A 
ATOM      5  C5  I4B d   1      -3.789  -1.931  -5.392  0.00  0.00     0.002 A 
ATOM      6  C6  I4B d   1      -3.294  -3.243  -5.425  0.00  0.00     0.003 A 
ENDROOT
BRANCH   1   7
ATOM      7  C1' I4B d   1      -3.680  -5.716  -5.617  0.00  0.00     0.060 C 
BRANCH   7   8
ATOM      8  C2' I4B d   1      -3.161  -6.000  -4.222  0.00  0.00    -0.013 C 
ATOM      9  C4' I4B d   1      -1.680  -5.742  -4.128  0.00  0.00     0.013 C 
ATOM     10  C3' I4B d   1      -3.922  -5.138  -3.260  0.00  0.00     0.013 C 
ENDBRANCH   7   8
ENDBRANCH   1   7
TORSDOF 2
ENDMDL
