MODEL 1
REMARK minimizedAffinity 0.186422423
REMARK minimizedRMSD -1
REMARK  2 active torsions:
REMARK  status: ('A' for Active; 'I' for Inactive)
REMARK    1  A    between atoms: C2'_3  and  C1'_4 
REMARK    2  A    between atoms: C1'_4  and  C1_5 
ROOT
ATOM      1  C1  I4B d   1      -4.927  -4.064  -4.462  0.00  0.00    -0.075 A 
ATOM      2  C2  I4B d   1      -3.805  -4.104  -3.671  0.00  0.00     0.003 A 
ATOM      3  C3  I4B d   1      -2.798  -5.069  -3.912  0.00  0.00     0.002 A 
ATOM      4  C4  I4B d   1      -2.974  -6.000  -4.915  0.00  0.00    -0.004 A 
ATOM      5  C5  I4B d   1      -4.100  -5.943  -5.731  0.00  0.00     0.002 A 
ATOM      6  C6  I4B d   1      -5.077  -4.961  -5.511  0.00  0.00     0.003 A 
ENDROOT
BRANCH   1   7
ATOM      7  C1' I4B d   1      -5.986  -3.053  -4.158  0.00  0.00     0.060 C 
BRANCH   7   8
ATOM      8  C2' I4B d   1      -5.925  -1.978  -5.225  0.00  0.00    -0.013 C 
ATOM      9  C4' I4B d   1      -6.000  -0.602  -4.617  0.00  0.00     0.013 C 
ATOM     10  C3' I4B d   1      -4.652  -2.162  -5.995  0.00  0.00     0.013 C 
ENDBRANCH   7   8
ENDBRANCH   1   7
TORSDOF 2
ENDMDL
