MODEL 1
REMARK minimizedAffinity -1.41762471
REMARK minimizedRMSD -1
REMARK  2 active torsions:
REMARK  status: ('A' for Active; 'I' for Inactive)
REMARK    1  A    between atoms: C2'_3  and  C1'_4 
REMARK    2  A    between atoms: C1'_4  and  C1_5 
ROOT
ATOM      1  C1  I4B d   1      -3.802  -2.755  -3.952  0.00  0.00    -0.075 A 
ATOM      2  C2  I4B d   1      -4.352  -4.000  -3.771  0.00  0.00     0.003 A 
ATOM      3  C3  I4B d   1      -5.452  -4.415  -4.560  0.00  0.00     0.002 A 
ATOM      4  C4  I4B d   1      -5.999  -3.541  -5.478  0.00  0.00    -0.004 A 
ATOM      5  C5  I4B d   1      -5.426  -2.288  -5.676  0.00  0.00     0.002 A 
ATOM      6  C6  I4B d   1      -4.313  -1.897  -4.917  0.00  0.00     0.003 A 
ENDROOT
BRANCH   1   7
ATOM      7  C1' I4B d   1      -2.663  -2.337  -3.079  0.00  0.00     0.060 C 
BRANCH   7   8
ATOM      8  C2' I4B d   1      -3.239  -1.679  -1.842  0.00  0.00    -0.013 C 
ATOM      9  C4' I4B d   1      -2.703  -2.315  -0.586  0.00  0.00     0.013 C 
ATOM     10  C3' I4B d   1      -2.905  -0.218  -1.895  0.00  0.00     0.013 C 
ENDBRANCH   7   8
ENDBRANCH   1   7
TORSDOF 2
ENDMDL
