MODEL 1
REMARK minimizedAffinity -3.46866059
REMARK minimizedRMSD -1
REMARK  2 active torsions:
REMARK  status: ('A' for Active; 'I' for Inactive)
REMARK    1  A    between atoms: C2'_3  and  C1'_4 
REMARK    2  A    between atoms: C1'_4  and  C1_5 
ROOT
ATOM      1  C1  I4B d   1      -5.758  -3.893  -5.031  0.00  0.00    -0.075 A 
ATOM      2  C2  I4B d   1      -5.831  -3.570  -3.699  0.00  0.00     0.003 A 
ATOM      3  C3  I4B d   1      -5.971  -2.219  -3.300  0.00  0.00     0.002 A 
ATOM      4  C4  I4B d   1      -5.982  -1.225  -4.257  0.00  0.00    -0.004 A 
ATOM      5  C5  I4B d   1      -5.931  -1.556  -5.608  0.00  0.00     0.002 A 
ATOM      6  C6  I4B d   1      -5.831  -2.899  -5.999  0.00  0.00     0.003 A 
ENDROOT
BRANCH   1   7
ATOM      7  C1' I4B d   1      -5.578  -5.327  -5.417  0.00  0.00     0.060 C 
BRANCH   7   8
ATOM      8  C2' I4B d   1      -4.097  -5.642  -5.363  0.00  0.00    -0.013 C 
ATOM      9  C4' I4B d   1      -3.274  -4.484  -5.862  0.00  0.00     0.013 C 
ATOM     10  C3' I4B d   1      -3.747  -5.983  -3.945  0.00  0.00     0.013 C 
ENDBRANCH   7   8
ENDBRANCH   1   7
TORSDOF 2
ENDMDL
