MODEL 1
REMARK minimizedAffinity -1.96298099
REMARK minimizedRMSD -1
REMARK  2 active torsions:
REMARK  status: ('A' for Active; 'I' for Inactive)
REMARK    1  A    between atoms: C2'_3  and  C1'_4 
REMARK    2  A    between atoms: C1'_4  and  C1_5 
ROOT
ATOM      1  C1  I4B d   1      -3.084  -3.625  -4.741  0.00  0.00    -0.075 A 
ATOM      2  C2  I4B d   1      -3.392  -4.873  -4.259  0.00  0.00     0.003 A 
ATOM      3  C3  I4B d   1      -2.612  -5.994  -4.634  0.00  0.00     0.002 A 
ATOM      4  C4  I4B d   1      -1.572  -5.831  -5.525  0.00  0.00    -0.004 A 
ATOM      5  C5  I4B d   1      -1.246  -4.562  -5.995  0.00  0.00     0.002 A 
ATOM      6  C6  I4B d   1      -1.999  -3.450  -5.590  0.00  0.00     0.003 A 
ENDROOT
BRANCH   1   7
ATOM      7  C1' I4B d   1      -3.948  -2.469  -4.351  0.00  0.00     0.060 C 
BRANCH   7   8
ATOM      8  C2' I4B d   1      -5.197  -2.510  -5.207  0.00  0.00    -0.013 C 
ATOM      9  C4' I4B d   1      -6.000  -3.756  -4.941  0.00  0.00     0.013 C 
ATOM     10  C3' I4B d   1      -5.999  -1.277  -4.915  0.00  0.00     0.013 C 
ENDBRANCH   7   8
ENDBRANCH   1   7
TORSDOF 2
ENDMDL
