MODEL 1
REMARK minimizedAffinity -1.66695416
REMARK minimizedRMSD -1
REMARK  2 active torsions:
REMARK  status: ('A' for Active; 'I' for Inactive)
REMARK    1  A    between atoms: C2'_3  and  C1'_4 
REMARK    2  A    between atoms: C1'_4  and  C1_5 
ROOT
ATOM      1  C1  I4B d   1      -3.694  -4.733  -5.960  0.00  0.00    -0.075 A 
ATOM      2  C2  I4B d   1      -2.987  -3.557  -5.976  0.00  0.00     0.003 A 
ATOM      3  C3  I4B d   1      -1.571  -3.576  -5.997  0.00  0.00     0.002 A 
ATOM      4  C4  I4B d   1      -0.908  -4.785  -5.951  0.00  0.00    -0.004 A 
ATOM      5  C5  I4B d   1      -1.626  -5.977  -5.957  0.00  0.00     0.002 A 
ATOM      6  C6  I4B d   1      -3.028  -5.952  -5.975  0.00  0.00     0.003 A 
ENDROOT
BRANCH   1   7
ATOM      7  C1' I4B d   1      -5.188  -4.675  -5.904  0.00  0.00     0.060 C 
BRANCH   7   8
ATOM      8  C2' I4B d   1      -5.577  -3.538  -4.981  0.00  0.00    -0.013 C 
ATOM      9  C4' I4B d   1      -4.438  -3.161  -4.071  0.00  0.00     0.013 C 
ATOM     10  C3' I4B d   1      -6.000  -2.377  -5.831  0.00  0.00     0.013 C 
ENDBRANCH   7   8
ENDBRANCH   1   7
TORSDOF 2
ENDMDL
