MODEL 1
REMARK minimizedAffinity -2.44389915
REMARK minimizedRMSD -1
REMARK  2 active torsions:
REMARK  status: ('A' for Active; 'I' for Inactive)
REMARK    1  A    between atoms: C2'_3  and  C1'_4 
REMARK    2  A    between atoms: C1'_4  and  C1_5 
ROOT
ATOM      1  C1  I4B d   1      -3.777  -3.714  -5.149  0.00  0.00    -0.075 A 
ATOM      2  C2  I4B d   1      -4.857  -4.338  -5.720  0.00  0.00     0.003 A 
ATOM      3  C3  I4B d   1      -5.995  -4.653  -4.938  0.00  0.00     0.002 A 
ATOM      4  C4  I4B d   1      -5.988  -4.374  -3.587  0.00  0.00    -0.004 A 
ATOM      5  C5  I4B d   1      -4.901  -3.720  -3.013  0.00  0.00     0.002 A 
ATOM      6  C6  I4B d   1      -3.793  -3.377  -3.801  0.00  0.00     0.003 A 
ENDROOT
BRANCH   1   7
ATOM      7  C1' I4B d   1      -2.579  -3.425  -5.997  0.00  0.00     0.060 C 
BRANCH   7   8
ATOM      8  C2' I4B d   1      -1.700  -4.659  -5.999  0.00  0.00    -0.013 C 
ATOM      9  C4' I4B d   1      -0.743  -4.649  -4.836  0.00  0.00     0.013 C 
ATOM     10  C3' I4B d   1      -2.593  -5.863  -5.955  0.00  0.00     0.013 C 
ENDBRANCH   7   8
ENDBRANCH   1   7
TORSDOF 2
ENDMDL
