MODEL 1
REMARK minimizedAffinity -2.44662666
REMARK minimizedRMSD -1
REMARK  2 active torsions:
REMARK  status: ('A' for Active; 'I' for Inactive)
REMARK    1  A    between atoms: C2'_3  and  C1'_4 
REMARK    2  A    between atoms: C1'_4  and  C1_5 
ROOT
ATOM      1  C1  I4B d   1      -3.509  -5.120  -5.922  0.00  0.00    -0.075 A 
ATOM      2  C2  I4B d   1      -4.672  -5.836  -5.787  0.00  0.00     0.003 A 
ATOM      3  C3  I4B d   1      -5.914  -5.165  -5.680  0.00  0.00     0.002 A 
ATOM      4  C4  I4B d   1      -5.942  -3.785  -5.663  0.00  0.00    -0.004 A 
ATOM      5  C5  I4B d   1      -4.764  -3.061  -5.823  0.00  0.00     0.002 A 
ATOM      6  C6  I4B d   1      -3.541  -3.732  -5.966  0.00  0.00     0.003 A 
ENDROOT
BRANCH   1   7
ATOM      7  C1' I4B d   1      -2.211  -5.860  -5.999  0.00  0.00     0.060 C 
BRANCH   7   8
ATOM      8  C2' I4B d   1      -1.377  -5.466  -4.797  0.00  0.00    -0.013 C 
ATOM      9  C4' I4B d   1      -1.976  -5.997  -3.521  0.00  0.00     0.013 C 
ATOM     10  C3' I4B d   1       0.011  -5.993  -5.004  0.00  0.00     0.013 C 
ENDBRANCH   7   8
ENDBRANCH   1   7
TORSDOF 2
ENDMDL
