MODEL 1
REMARK minimizedAffinity 6.34191227
REMARK minimizedRMSD -1
REMARK  2 active torsions:
REMARK  status: ('A' for Active; 'I' for Inactive)
REMARK    1  A    between atoms: C2'_3  and  C1'_4 
REMARK    2  A    between atoms: C1'_4  and  C1_5 
ROOT
ATOM      1  C1  I4B d   1      -3.380  -3.058  -5.233  0.00  0.00    -0.075 A 
ATOM      2  C2  I4B d   1      -4.101  -3.414  -4.120  0.00  0.00     0.003 A 
ATOM      3  C3  I4B d   1      -5.240  -2.664  -3.739  0.00  0.00     0.002 A 
ATOM      4  C4  I4B d   1      -5.589  -1.544  -4.464  0.00  0.00    -0.004 A 
ATOM      5  C5  I4B d   1      -4.871  -1.197  -5.604  0.00  0.00     0.002 A 
ATOM      6  C6  I4B d   1      -3.766  -1.966  -5.999  0.00  0.00     0.003 A 
ENDROOT
BRANCH   1   7
ATOM      7  C1' I4B d   1      -2.163  -3.853  -5.588  0.00  0.00     0.060 C 
BRANCH   7   8
ATOM      8  C2' I4B d   1      -2.381  -5.276  -5.116  0.00  0.00    -0.013 C 
ATOM      9  C4' I4B d   1      -3.362  -6.000  -6.000  0.00  0.00     0.013 C 
ATOM     10  C3' I4B d   1      -1.051  -5.969  -5.103  0.00  0.00     0.013 C 
ENDBRANCH   7   8
ENDBRANCH   1   7
TORSDOF 2
ENDMDL
