MODEL 1
REMARK minimizedAffinity 0.284883082
REMARK minimizedRMSD -1
REMARK  2 active torsions:
REMARK  status: ('A' for Active; 'I' for Inactive)
REMARK    1  A    between atoms: C2'_3  and  C1'_4 
REMARK    2  A    between atoms: C1'_4  and  C1_5 
ROOT
ATOM      1  C1  I4B d   1      -3.734  -3.472  -4.767  0.00  0.00    -0.075 A 
ATOM      2  C2  I4B d   1      -2.641  -3.906  -4.059  0.00  0.00     0.003 A 
ATOM      3  C3  I4B d   1      -2.079  -5.178  -4.327  0.00  0.00     0.002 A 
ATOM      4  C4  I4B d   1      -2.668  -5.998  -5.268  0.00  0.00    -0.004 A 
ATOM      5  C5  I4B d   1      -3.762  -5.546  -6.000  0.00  0.00     0.002 A 
ATOM      6  C6  I4B d   1      -4.291  -4.271  -5.757  0.00  0.00     0.003 A 
ENDROOT
BRANCH   1   7
ATOM      7  C1' I4B d   1      -4.323  -2.137  -4.436  0.00  0.00     0.060 C 
BRANCH   7   8
ATOM      8  C2' I4B d   1      -5.729  -2.362  -3.919  0.00  0.00    -0.013 C 
ATOM      9  C4' I4B d   1      -6.000  -3.827  -3.696  0.00  0.00     0.013 C 
ATOM     10  C3' I4B d   1      -5.885  -1.583  -2.648  0.00  0.00     0.013 C 
ENDBRANCH   7   8
ENDBRANCH   1   7
TORSDOF 2
ENDMDL
