MODEL 1
REMARK minimizedAffinity -1.90526688
REMARK minimizedRMSD -1
REMARK  2 active torsions:
REMARK  status: ('A' for Active; 'I' for Inactive)
REMARK    1  A    between atoms: C2'_3  and  C1'_4 
REMARK    2  A    between atoms: C1'_4  and  C1_5 
ROOT
ATOM      1  C1  I4B d   1      -3.764  -4.859  -5.693  0.00  0.00    -0.075 A 
ATOM      2  C2  I4B d   1      -3.058  -5.997  -5.994  0.00  0.00     0.003 A 
ATOM      3  C3  I4B d   1      -1.644  -5.998  -5.922  0.00  0.00     0.002 A 
ATOM      4  C4  I4B d   1      -0.979  -4.834  -5.595  0.00  0.00    -0.004 A 
ATOM      5  C5  I4B d   1      -1.698  -3.688  -5.268  0.00  0.00     0.002 A 
ATOM      6  C6  I4B d   1      -3.100  -3.703  -5.305  0.00  0.00     0.003 A 
ENDROOT
BRANCH   1   7
ATOM      7  C1' I4B d   1      -5.255  -4.884  -5.812  0.00  0.00     0.060 C 
BRANCH   7   8
ATOM      8  C2' I4B d   1      -5.826  -4.017  -4.708  0.00  0.00    -0.013 C 
ATOM      9  C4' I4B d   1      -4.986  -4.100  -3.461  0.00  0.00     0.013 C 
ATOM     10  C3' I4B d   1      -5.901  -2.608  -5.217  0.00  0.00     0.013 C 
ENDBRANCH   7   8
ENDBRANCH   1   7
TORSDOF 2
ENDMDL
