MODEL 1
REMARK minimizedAffinity 0.694070697
REMARK minimizedRMSD -1
REMARK  1 active torsions:
REMARK  status: ('A' for Active; 'I' for Inactive)
REMARK    1  A    between atoms: C3_4  and  O_7 
ROOT
ATOM      1  C   UNL d   1      -1.045   0.804  -5.925  0.00  0.00    -0.033 A 
ATOM      2  C1  UNL d   1       0.316   0.499  -6.000  0.00  0.00     0.039 A 
ATOM      3  C2  UNL d   1       0.807  -0.661  -5.398  0.00  0.00    -0.080 A 
ATOM      4  C3  UNL d   1      -0.072  -1.507  -4.726  0.00  0.00     0.150 A 
ATOM      5  C4  UNL d   1      -1.429  -1.211  -4.651  0.00  0.00    -0.007 A 
ATOM      6  C5  UNL d   1      -1.917  -0.052  -5.252  0.00  0.00     0.039 A 
ENDROOT
BRANCH   4   7
ATOM      7  O   UNL d   1       0.362  -2.648  -4.119  0.00  0.00    -0.526 OA
ATOM      8  H5  UNL d   1       1.326  -2.708  -4.229  0.00  0.00     0.418 HD
ENDBRANCH   4   7
TORSDOF 1
ENDMDL
