MODEL 1
REMARK minimizedAffinity 4.47035503
REMARK minimizedRMSD -1
REMARK  1 active torsions:
REMARK  status: ('A' for Active; 'I' for Inactive)
REMARK    1  A    between atoms: C3_4  and  O_7 
ROOT
ATOM      1  C   UNL d   1       0.039   0.469  -4.836  0.00  0.00    -0.033 A 
ATOM      2  C1  UNL d   1      -0.688   0.778  -3.684  0.00  0.00     0.039 A 
ATOM      3  C2  UNL d   1      -2.081   0.679  -3.689  0.00  0.00    -0.080 A 
ATOM      4  C3  UNL d   1      -2.733   0.270  -4.848  0.00  0.00     0.150 A 
ATOM      5  C4  UNL d   1      -2.015  -0.044  -5.997  0.00  0.00    -0.007 A 
ATOM      6  C5  UNL d   1      -0.624   0.056  -5.992  0.00  0.00     0.039 A 
ENDROOT
BRANCH   4   7
ATOM      7  O   UNL d   1      -4.091   0.163  -4.902  0.00  0.00    -0.526 OA
ATOM      8  H5  UNL d   1      -4.456   0.439  -4.044  0.00  0.00     0.418 HD
ENDBRANCH   4   7
TORSDOF 1
ENDMDL
