MODEL 1
REMARK minimizedAffinity 0.185712561
REMARK minimizedRMSD -1
REMARK  1 active torsions:
REMARK  status: ('A' for Active; 'I' for Inactive)
REMARK    1  A    between atoms: C3_4  and  O_7 
ROOT
ATOM      1  C   UNL d   1      -1.009  -0.414   2.162  0.00  0.00    -0.033 A 
ATOM      2  C1  UNL d   1      -1.471   0.647   2.943  0.00  0.00     0.039 A 
ATOM      3  C2  UNL d   1      -2.723   1.210   2.690  0.00  0.00    -0.080 A 
ATOM      4  C3  UNL d   1      -3.504   0.702   1.655  0.00  0.00     0.150 A 
ATOM      5  C4  UNL d   1      -3.052  -0.357   0.876  0.00  0.00    -0.007 A 
ATOM      6  C5  UNL d   1      -1.801  -0.917   1.129  0.00  0.00     0.039 A 
ENDROOT
BRANCH   4   7
ATOM      7  O   UNL d   1      -4.731   1.222   1.368  0.00  0.00    -0.526 OA
ATOM      8  H5  UNL d   1      -4.899   1.966   1.969  0.00  0.00     0.418 HD
ENDBRANCH   4   7
TORSDOF 1
ENDMDL
