MODEL 1
REMARK minimizedAffinity -3.42618155
REMARK minimizedRMSD -1
REMARK  1 active torsions:
REMARK  status: ('A' for Active; 'I' for Inactive)
REMARK    1  A    between atoms: C3_4  and  O_7 
ROOT
ATOM      1  C   UNL d   1      -1.245   0.823  -4.436  0.00  0.00    -0.033 A 
ATOM      2  C1  UNL d   1      -1.001   0.139  -5.629  0.00  0.00     0.039 A 
ATOM      3  C2  UNL d   1       0.307  -0.181  -5.998  0.00  0.00    -0.080 A 
ATOM      4  C3  UNL d   1       1.361   0.187  -5.167  0.00  0.00     0.150 A 
ATOM      5  C4  UNL d   1       1.125   0.865  -3.975  0.00  0.00    -0.007 A 
ATOM      6  C5  UNL d   1      -0.181   1.185  -3.608  0.00  0.00     0.039 A 
ENDROOT
BRANCH   4   7
ATOM      7  O   UNL d   1       2.654  -0.099  -5.487  0.00  0.00    -0.526 OA
ATOM      8  H5  UNL d   1       2.666  -0.544  -6.351  0.00  0.00     0.418 HD
ENDBRANCH   4   7
TORSDOF 1
ENDMDL
