MODEL 1
REMARK minimizedAffinity -3.81573629
REMARK minimizedRMSD -1
REMARK  1 active torsions:
REMARK  status: ('A' for Active; 'I' for Inactive)
REMARK    1  A    between atoms: C3_4  and  O_7 
ROOT
ATOM      1  C   UNL d   1       1.215  -0.030  -4.441  0.00  0.00    -0.033 A 
ATOM      2  C1  UNL d   1       0.368   0.307  -3.383  0.00  0.00     0.039 A 
ATOM      3  C2  UNL d   1      -0.965   0.640  -3.633  0.00  0.00    -0.080 A 
ATOM      4  C3  UNL d   1      -1.438   0.630  -4.942  0.00  0.00     0.150 A 
ATOM      5  C4  UNL d   1      -0.601   0.291  -6.000  0.00  0.00    -0.007 A 
ATOM      6  C5  UNL d   1       0.730  -0.039  -5.749  0.00  0.00     0.039 A 
ENDROOT
BRANCH   4   7
ATOM      7  O   UNL d   1      -2.730   0.952  -5.235  0.00  0.00    -0.526 OA
ATOM      8  H5  UNL d   1      -3.183   1.192  -4.409  0.00  0.00     0.418 HD
ENDBRANCH   4   7
TORSDOF 1
ENDMDL
