MODEL 1
REMARK minimizedAffinity -0.0545833446
REMARK minimizedRMSD -1
REMARK  1 active torsions:
REMARK  status: ('A' for Active; 'I' for Inactive)
REMARK    1  A    between atoms: C3_4  and  O_7 
ROOT
ATOM      1  C   UNL d   1      -1.270  -0.848   1.898  0.00  0.00    -0.033 A 
ATOM      2  C1  UNL d   1      -2.000  -0.967   0.714  0.00  0.00     0.039 A 
ATOM      3  C2  UNL d   1      -3.152  -0.201   0.522  0.00  0.00    -0.080 A 
ATOM      4  C3  UNL d   1      -3.561   0.679   1.519  0.00  0.00     0.150 A 
ATOM      5  C4  UNL d   1      -2.836   0.806   2.700  0.00  0.00    -0.007 A 
ATOM      6  C5  UNL d   1      -1.687   0.039   2.890  0.00  0.00     0.039 A 
ENDROOT
BRANCH   4   7
ATOM      7  O   UNL d   1      -4.681   1.444   1.380  0.00  0.00    -0.526 OA
ATOM      8  H5  UNL d   1      -5.095   1.230   0.527  0.00  0.00     0.418 HD
ENDBRANCH   4   7
TORSDOF 1
ENDMDL
