MODEL 1
REMARK minimizedAffinity -2.84238482
REMARK minimizedRMSD -1
REMARK  1 active torsions:
REMARK  status: ('A' for Active; 'I' for Inactive)
REMARK    1  A    between atoms: C3_4  and  O_7 
ROOT
ATOM      1  C   UNL d   1      -3.486   0.388   2.520  0.00  0.00    -0.033 A 
ATOM      2  C1  UNL d   1      -3.969   0.519   1.217  0.00  0.00     0.039 A 
ATOM      3  C2  UNL d   1      -3.217   0.041   0.141  0.00  0.00    -0.080 A 
ATOM      4  C3  UNL d   1      -1.988  -0.565   0.382  0.00  0.00     0.150 A 
ATOM      5  C4  UNL d   1      -1.503  -0.702   1.679  0.00  0.00    -0.007 A 
ATOM      6  C5  UNL d   1      -2.254  -0.224   2.751  0.00  0.00     0.039 A 
ENDROOT
BRANCH   4   7
ATOM      7  O   UNL d   1      -1.217  -1.042  -0.636  0.00  0.00    -0.526 OA
ATOM      8  H5  UNL d   1      -1.665  -0.853  -1.477  0.00  0.00     0.418 HD
ENDBRANCH   4   7
TORSDOF 1
ENDMDL
