MODEL 1
REMARK minimizedAffinity -4.26252985
REMARK minimizedRMSD -1
REMARK  1 active torsions:
REMARK  status: ('A' for Active; 'I' for Inactive)
REMARK    1  A    between atoms: C3_4  and  O_7 
ROOT
ATOM      1  C   UNL d   1      -2.072  -1.262   0.004  0.00  0.00    -0.033 A 
ATOM      2  C1  UNL d   1      -3.350  -0.703  -0.055  0.00  0.00     0.039 A 
ATOM      3  C2  UNL d   1      -3.509   0.684  -0.021  0.00  0.00    -0.080 A 
ATOM      4  C3  UNL d   1      -2.384   1.499   0.071  0.00  0.00     0.150 A 
ATOM      5  C4  UNL d   1      -1.108   0.949   0.126  0.00  0.00    -0.007 A 
ATOM      6  C5  UNL d   1      -0.951  -0.436   0.093  0.00  0.00     0.039 A 
ENDROOT
BRANCH   4   7
ATOM      7  O   UNL d   1      -2.490   2.858   0.112  0.00  0.00    -0.526 OA
ATOM      8  H5  UNL d   1      -3.432   3.094   0.095  0.00  0.00     0.418 HD
ENDBRANCH   4   7
TORSDOF 1
ENDMDL
