MODEL 1
REMARK minimizedAffinity 12.7886744
REMARK minimizedRMSD -1
REMARK  3 active torsions:
REMARK  status: ('A' for Active; 'I' for Inactive)
REMARK    1  A    between atoms: C3'_2  and  C2'_3 
REMARK    2  A    between atoms: C2'_3  and  C1'_4 
REMARK    3  A    between atoms: C1'_4  and  C1_5 
ROOT
ATOM      1  C1  N4B d   1       4.878   3.348   2.628  0.00  0.00    -0.075 A 
ATOM      2  C2  N4B d   1       4.075   3.901   1.606  0.00  0.00     0.002 A 
ATOM      3  C3  N4B d   1       4.234   5.217   1.245  0.00  0.00     0.002 A 
ATOM      4  C4  N4B d   1       5.172   6.000   1.901  0.00  0.00    -0.004 A 
ATOM      5  C5  N4B d   1       5.961   5.451   2.870  0.00  0.00     0.002 A 
ATOM      6  C6  N4B d   1       5.815   4.129   3.240  0.00  0.00     0.002 A 
ENDROOT
BRANCH   1   7
ATOM      7  C1' N4B d   1       4.682   1.939   3.116  0.00  0.00     0.057 C 
BRANCH   7   8
ATOM      8  C2' N4B d   1       3.389   1.381   2.531  0.00  0.00     0.009 C 
BRANCH   8   9
ATOM      9  C3' N4B d   1       2.567   0.640   3.571  0.00  0.00     0.004 C 
ATOM     10  C4' N4B d   1       1.380  -0.062   2.982  0.00  0.00     0.003 C 
ENDBRANCH   8   9
ENDBRANCH   7   8
ENDBRANCH   1   7
TORSDOF 3
ENDMDL
