MODEL 1
REMARK minimizedAffinity 10.2969847
REMARK minimizedRMSD -1
REMARK  3 active torsions:
REMARK  status: ('A' for Active; 'I' for Inactive)
REMARK    1  A    between atoms: C3'_2  and  C2'_3 
REMARK    2  A    between atoms: C2'_3  and  C1'_4 
REMARK    3  A    between atoms: C1'_4  and  C1_5 
ROOT
ATOM      1  C1  N4B d   1       4.908   5.927   2.476  0.00  0.00    -0.075 A 
ATOM      2  C2  N4B d   1       3.591   5.943   2.988  0.00  0.00     0.002 A 
ATOM      3  C3  N4B d   1       3.383   5.975   4.345  0.00  0.00     0.002 A 
ATOM      4  C4  N4B d   1       4.470   5.973   5.206  0.00  0.00    -0.004 A 
ATOM      5  C5  N4B d   1       5.738   5.983   4.703  0.00  0.00     0.002 A 
ATOM      6  C6  N4B d   1       5.963   5.954   3.342  0.00  0.00     0.002 A 
ENDROOT
BRANCH   1   7
ATOM      7  C1' N4B d   1       5.185   5.805   1.003  0.00  0.00     0.057 C 
BRANCH   7   8
ATOM      8  C2' N4B d   1       5.338   4.331   0.642  0.00  0.00     0.009 C 
BRANCH   8   9
ATOM      9  C3' N4B d   1       5.837   3.507   1.817  0.00  0.00     0.004 C 
ATOM     10  C4' N4B d   1       4.726   3.032   2.706  0.00  0.00     0.003 C 
ENDBRANCH   8   9
ENDBRANCH   7   8
ENDBRANCH   1   7
TORSDOF 3
ENDMDL
