MODEL 1
REMARK minimizedAffinity 17.7567081
REMARK minimizedRMSD -1
REMARK  3 active torsions:
REMARK  status: ('A' for Active; 'I' for Inactive)
REMARK    1  A    between atoms: C3'_2  and  C2'_3 
REMARK    2  A    between atoms: C2'_3  and  C1'_4 
REMARK    3  A    between atoms: C1'_4  and  C1_5 
ROOT
ATOM      1  C1  N4B d   1      -0.736   0.916   3.006  0.00  0.00    -0.075 A 
ATOM      2  C2  N4B d   1      -0.160   0.981   4.294  0.00  0.00     0.002 A 
ATOM      3  C3  N4B d   1       0.977   0.263   4.574  0.00  0.00     0.002 A 
ATOM      4  C4  N4B d   1       1.541  -0.538   3.593  0.00  0.00    -0.004 A 
ATOM      5  C5  N4B d   1       0.993  -0.575   2.344  0.00  0.00     0.002 A 
ATOM      6  C6  N4B d   1      -0.147   0.144   2.047  0.00  0.00     0.002 A 
ENDROOT
BRANCH   1   7
ATOM      7  C1' N4B d   1      -2.027   1.616   2.678  0.00  0.00     0.057 C 
BRANCH   7   8
ATOM      8  C2' N4B d   1      -2.980   0.624   2.017  0.00  0.00     0.009 C 
BRANCH   8   9
ATOM      9  C3' N4B d   1      -3.519  -0.392   3.008  0.00  0.00     0.004 C 
ATOM     10  C4' N4B d   1      -3.546  -1.786   2.454  0.00  0.00     0.003 C 
ENDBRANCH   8   9
ENDBRANCH   7   8
ENDBRANCH   1   7
TORSDOF 3
ENDMDL
