MODEL 1
REMARK minimizedAffinity 9.47139454
REMARK minimizedRMSD -1
REMARK  3 active torsions:
REMARK  status: ('A' for Active; 'I' for Inactive)
REMARK    1  A    between atoms: C3'_2  and  C2'_3 
REMARK    2  A    between atoms: C2'_3  and  C1'_4 
REMARK    3  A    between atoms: C1'_4  and  C1_5 
ROOT
ATOM      1  C1  N4B d   1       0.381   0.752   3.468  0.00  0.00    -0.075 A 
ATOM      2  C2  N4B d   1       1.474   0.273   4.223  0.00  0.00     0.002 A 
ATOM      3  C3  N4B d   1       1.757  -1.071   4.244  0.00  0.00     0.002 A 
ATOM      4  C4  N4B d   1       0.954  -1.952   3.537  0.00  0.00    -0.004 A 
ATOM      5  C5  N4B d   1      -0.085  -1.479   2.789  0.00  0.00     0.002 A 
ATOM      6  C6  N4B d   1      -0.379  -0.131   2.756  0.00  0.00     0.002 A 
ENDROOT
BRANCH   1   7
ATOM      7  C1' N4B d   1      -0.020   2.202   3.483  0.00  0.00     0.057 C 
BRANCH   7   8
ATOM      8  C2' N4B d   1      -0.978   2.445   4.645  0.00  0.00     0.009 C 
BRANCH   8   9
ATOM      9  C3' N4B d   1      -0.295   2.271   5.990  0.00  0.00     0.004 C 
ATOM     10  C4' N4B d   1       1.114   2.784   5.997  0.00  0.00     0.003 C 
ENDBRANCH   8   9
ENDBRANCH   7   8
ENDBRANCH   1   7
TORSDOF 3
ENDMDL
