MODEL 1
REMARK minimizedAffinity 16.8873215
REMARK minimizedRMSD -1
REMARK  3 active torsions:
REMARK  status: ('A' for Active; 'I' for Inactive)
REMARK    1  A    between atoms: C3'_2  and  C2'_3 
REMARK    2  A    between atoms: C2'_3  and  C1'_4 
REMARK    3  A    between atoms: C1'_4  and  C1_5 
ROOT
ATOM      1  C1  N4B d   1      -0.521  -3.404  -5.696  0.00  0.00    -0.075 A 
ATOM      2  C2  N4B d   1       0.368  -4.494  -5.572  0.00  0.00     0.002 A 
ATOM      3  C3  N4B d   1      -0.108  -5.780  -5.647  0.00  0.00     0.002 A 
ATOM      4  C4  N4B d   1      -1.465  -6.000  -5.826  0.00  0.00    -0.004 A 
ATOM      5  C5  N4B d   1      -2.314  -4.941  -5.971  0.00  0.00     0.002 A 
ATOM      6  C6  N4B d   1      -1.849  -3.644  -5.902  0.00  0.00     0.002 A 
ENDROOT
BRANCH   1   7
ATOM      7  C1' N4B d   1      -0.061  -1.981  -5.535  0.00  0.00     0.057 C 
BRANCH   7   8
ATOM      8  C2' N4B d   1       0.702  -1.847  -4.221  0.00  0.00     0.009 C 
BRANCH   8   9
ATOM      9  C3' N4B d   1       0.010  -0.900  -3.256  0.00  0.00     0.004 C 
ATOM     10  C4' N4B d   1      -0.859  -1.614  -2.264  0.00  0.00     0.003 C 
ENDBRANCH   8   9
ENDBRANCH   7   8
ENDBRANCH   1   7
TORSDOF 3
ENDMDL
