MODEL 1
REMARK minimizedAffinity 16.1236668
REMARK minimizedRMSD -1
REMARK  3 active torsions:
REMARK  status: ('A' for Active; 'I' for Inactive)
REMARK    1  A    between atoms: C3'_2  and  C2'_3 
REMARK    2  A    between atoms: C2'_3  and  C1'_4 
REMARK    3  A    between atoms: C1'_4  and  C1_5 
ROOT
ATOM      1  C1  N4B d   1       2.481  -0.175  -4.547  0.00  0.00    -0.075 A 
ATOM      2  C2  N4B d   1       1.130   0.232  -4.475  0.00  0.00     0.002 A 
ATOM      3  C3  N4B d   1       0.132  -0.709  -4.416  0.00  0.00     0.002 A 
ATOM      4  C4  N4B d   1       0.457  -2.057  -4.445  0.00  0.00    -0.004 A 
ATOM      5  C5  N4B d   1       1.766  -2.442  -4.488  0.00  0.00     0.002 A 
ATOM      6  C6  N4B d   1       2.779  -1.507  -4.544  0.00  0.00     0.002 A 
ENDROOT
BRANCH   1   7
ATOM      7  C1' N4B d   1       3.602   0.816  -4.700  0.00  0.00     0.057 C 
BRANCH   7   8
ATOM      8  C2' N4B d   1       4.402   0.477  -5.954  0.00  0.00     0.009 C 
BRANCH   8   9
ATOM      9  C3' N4B d   1       5.806   1.054  -5.905  0.00  0.00     0.004 C 
ATOM     10  C4' N4B d   1       5.999   2.018  -4.773  0.00  0.00     0.003 C 
ENDBRANCH   8   9
ENDBRANCH   7   8
ENDBRANCH   1   7
TORSDOF 3
ENDMDL
