MODEL 1
REMARK minimizedAffinity -0.0662305355
REMARK minimizedRMSD -1
REMARK  2 active torsions:
REMARK  status: ('A' for Active; 'I' for Inactive)
REMARK    1  A    between atoms: C1_2  and  C2_3 
REMARK    2  A    between atoms: C2_3  and  C3_4 
ROOT
ATOM      1  C3  UNL d   1      -3.358  -0.431  -4.501  0.00  0.00    -0.075 A 
ATOM      2  C4  UNL d   1      -2.920   0.663  -5.261  0.00  0.00     0.002 A 
ATOM      3  C5  UNL d   1      -3.829   1.421  -6.000  0.00  0.00     0.002 A 
ATOM      4  C6  UNL d   1      -5.182   1.090  -5.996  0.00  0.00    -0.004 A 
ATOM      5  C7  UNL d   1      -5.626  -0.005  -5.258  0.00  0.00     0.002 A 
ATOM      6  C8  UNL d   1      -4.719  -0.763  -4.514  0.00  0.00     0.002 A 
ENDROOT
BRANCH   1   7
ATOM      7  C2  UNL d   1      -2.383  -1.238  -3.677  0.00  0.00     0.056 C 
BRANCH   7   8
ATOM      8  C1  UNL d   1      -2.226  -0.742  -2.235  0.00  0.00     0.007 C 
ATOM      9  C   UNL d   1      -2.983   0.550  -1.959  0.00  0.00     0.009 C 
ENDBRANCH   7   8
ENDBRANCH   1   7
TORSDOF 2
ENDMDL
