MODEL 1
REMARK minimizedAffinity 2.98599434
REMARK minimizedRMSD -1
REMARK  2 active torsions:
REMARK  status: ('A' for Active; 'I' for Inactive)
REMARK    1  A    between atoms: C1_2  and  C2_3 
REMARK    2  A    between atoms: C2_3  and  C3_4 
ROOT
ATOM      1  C3  UNL d   1      -2.438   4.289  -5.592  0.00  0.00    -0.075 A 
ATOM      2  C4  UNL d   1      -3.195   3.406  -4.808  0.00  0.00     0.002 A 
ATOM      3  C5  UNL d   1      -4.509   3.718  -4.459  0.00  0.00     0.002 A 
ATOM      4  C6  UNL d   1      -5.078   4.918  -4.878  0.00  0.00    -0.004 A 
ATOM      5  C7  UNL d   1      -4.330   5.810  -5.644  0.00  0.00     0.002 A 
ATOM      6  C8  UNL d   1      -3.016   5.498  -5.999  0.00  0.00     0.002 A 
ENDROOT
BRANCH   1   7
ATOM      7  C2  UNL d   1      -1.025   3.943  -5.999  0.00  0.00     0.056 C 
BRANCH   7   8
ATOM      8  C1  UNL d   1      -0.066   5.138  -5.998  0.00  0.00     0.007 C 
ATOM      9  C   UNL d   1       1.401   4.731  -5.989  0.00  0.00     0.009 C 
ENDBRANCH   7   8
ENDBRANCH   1   7
TORSDOF 2
ENDMDL
