MODEL 1
REMARK minimizedAffinity 1.29530478
REMARK minimizedRMSD -1
REMARK  2 active torsions:
REMARK  status: ('A' for Active; 'I' for Inactive)
REMARK    1  A    between atoms: C1_2  and  C2_3 
REMARK    2  A    between atoms: C2_3  and  C3_4 
ROOT
ATOM      1  C3  UNL d   1       4.520  -1.915   0.407  0.00  0.00    -0.075 A 
ATOM      2  C4  UNL d   1       3.416  -2.764   0.572  0.00  0.00     0.002 A 
ATOM      3  C5  UNL d   1       2.122  -2.298   0.342  0.00  0.00     0.002 A 
ATOM      4  C6  UNL d   1       1.914  -0.976  -0.046  0.00  0.00    -0.004 A 
ATOM      5  C7  UNL d   1       3.001  -0.118  -0.197  0.00  0.00     0.002 A 
ATOM      6  C8  UNL d   1       4.298  -0.584   0.029  0.00  0.00     0.002 A 
ENDROOT
BRANCH   1   7
ATOM      7  C2  UNL d   1       5.925  -2.422   0.626  0.00  0.00     0.056 C 
BRANCH   7   8
ATOM      8  C1  UNL d   1       5.999  -3.736   1.410  0.00  0.00     0.007 C 
ATOM      9  C   UNL d   1       6.000  -4.969   0.517  0.00  0.00     0.009 C 
ENDBRANCH   7   8
ENDBRANCH   1   7
TORSDOF 2
ENDMDL
