MODEL 1
REMARK minimizedAffinity 2.34113002
REMARK minimizedRMSD -1
REMARK  2 active torsions:
REMARK  status: ('A' for Active; 'I' for Inactive)
REMARK    1  A    between atoms: C1_2  and  C2_3 
REMARK    2  A    between atoms: C2_3  and  C3_4 
ROOT
ATOM      1  C3  UNL d   1      -3.569  -0.511  -4.273  0.00  0.00    -0.075 A 
ATOM      2  C4  UNL d   1      -3.153   0.651  -4.939  0.00  0.00     0.002 A 
ATOM      3  C5  UNL d   1      -4.080   1.464  -5.592  0.00  0.00     0.002 A 
ATOM      4  C6  UNL d   1      -5.430   1.121  -5.596  0.00  0.00    -0.004 A 
ATOM      5  C7  UNL d   1      -5.853  -0.039  -4.952  0.00  0.00     0.002 A 
ATOM      6  C8  UNL d   1      -4.928  -0.852  -4.294  0.00  0.00     0.002 A 
ENDROOT
BRANCH   1   7
ATOM      7  C2  UNL d   1      -2.575  -1.379  -3.539  0.00  0.00     0.056 C 
BRANCH   7   8
ATOM      8  C1  UNL d   1      -1.504  -2.000  -4.442  0.00  0.00     0.007 C 
ATOM      9  C   UNL d   1      -2.066  -2.564  -5.740  0.00  0.00     0.009 C 
ENDBRANCH   7   8
ENDBRANCH   1   7
TORSDOF 2
ENDMDL
