MODEL 1
REMARK minimizedAffinity 1.53098142
REMARK minimizedRMSD -1
REMARK  2 active torsions:
REMARK  status: ('A' for Active; 'I' for Inactive)
REMARK    1  A    between atoms: C1_2  and  C2_3 
REMARK    2  A    between atoms: C2_3  and  C3_4 
ROOT
ATOM      1  C3  UNL d   1      -4.197   0.568  -3.567  0.00  0.00    -0.075 A 
ATOM      2  C4  UNL d   1      -3.601   0.798  -2.318  0.00  0.00     0.002 A 
ATOM      3  C5  UNL d   1      -3.268  -0.270  -1.484  0.00  0.00     0.002 A 
ATOM      4  C6  UNL d   1      -3.535  -1.578  -1.882  0.00  0.00    -0.004 A 
ATOM      5  C7  UNL d   1      -4.142  -1.817  -3.113  0.00  0.00     0.002 A 
ATOM      6  C8  UNL d   1      -4.472  -0.751  -3.952  0.00  0.00     0.002 A 
ENDROOT
BRANCH   1   7
ATOM      7  C2  UNL d   1      -4.533   1.717  -4.486  0.00  0.00     0.056 C 
BRANCH   7   8
ATOM      8  C1  UNL d   1      -3.346   2.635  -4.796  0.00  0.00     0.007 C 
ATOM      9  C   UNL d   1      -3.145   3.730  -3.756  0.00  0.00     0.009 C 
ENDBRANCH   7   8
ENDBRANCH   1   7
TORSDOF 2
ENDMDL
