MODEL 1
REMARK minimizedAffinity -0.276474267
REMARK minimizedRMSD -1
REMARK  2 active torsions:
REMARK  status: ('A' for Active; 'I' for Inactive)
REMARK    1  A    between atoms: C1_2  and  C2_3 
REMARK    2  A    between atoms: C2_3  and  C3_4 
ROOT
ATOM      1  C3  UNL d   1      -4.338   0.442  -4.992  0.00  0.00    -0.075 A 
ATOM      2  C4  UNL d   1      -4.386  -0.376  -3.854  0.00  0.00     0.002 A 
ATOM      3  C5  UNL d   1      -3.371  -1.299  -3.601  0.00  0.00     0.002 A 
ATOM      4  C6  UNL d   1      -2.302  -1.423  -4.486  0.00  0.00    -0.004 A 
ATOM      5  C7  UNL d   1      -2.252  -0.628  -5.628  0.00  0.00     0.002 A 
ATOM      6  C8  UNL d   1      -3.264   0.300  -5.882  0.00  0.00     0.002 A 
ENDROOT
BRANCH   1   7
ATOM      7  C2  UNL d   1      -5.418   1.463  -5.256  0.00  0.00     0.056 C 
BRANCH   7   8
ATOM      8  C1  UNL d   1      -4.924   2.914  -5.237  0.00  0.00     0.007 C 
ATOM      9  C   UNL d   1      -6.000   3.920  -5.621  0.00  0.00     0.009 C 
ENDBRANCH   7   8
ENDBRANCH   1   7
TORSDOF 2
ENDMDL
