MODEL 1
REMARK minimizedAffinity -5.39746332
REMARK minimizedRMSD -1
REMARK  0 active torsions:
REMARK  status: ('A' for Active; 'I' for Inactive)
ROOT
ATOM      1  C4' PXY d   1       0.575  -0.809  -1.995  0.00  0.00     0.077 C 
ATOM      2  C1' PXY d   1      -0.733   1.616   3.087  0.00  0.00     0.077 C 
ATOM      3  C1  PXY d   1      -0.402   0.976   1.753  0.00  0.00    -0.082 A 
ATOM      4  C2  PXY d   1       0.852   0.663   1.471  0.00  0.00     0.003 A 
ATOM      5  C3  PXY d   1       1.173   0.112   0.257  0.00  0.00     0.003 A 
ATOM      6  C4  PXY d   1       0.193  -0.170  -0.657  0.00  0.00    -0.082 A 
ATOM      7  C5  PXY d   1      -1.090   0.137  -0.372  0.00  0.00     0.003 A 
ATOM      8  C6  PXY d   1      -1.390   0.733   0.849  0.00  0.00     0.003 A 
ENDROOT
TORSDOF 0
ENDMDL
