MODEL 1
REMARK minimizedAffinity 0.933478415
REMARK minimizedRMSD -1
REMARK  0 active torsions:
REMARK  status: ('A' for Active; 'I' for Inactive)
ROOT
ATOM      1  C4' PXY d   1      -0.424  -0.904  -2.025  0.00  0.00     0.077 C 
ATOM      2  C1' PXY d   1       2.030   1.426   2.662  0.00  0.00     0.077 C 
ATOM      3  C1  PXY d   1       1.376   0.823   1.435  0.00  0.00    -0.082 A 
ATOM      4  C2  PXY d   1       1.747  -0.377   1.019  0.00  0.00     0.003 A 
ATOM      5  C3  PXY d   1       1.189  -0.925  -0.107  0.00  0.00     0.003 A 
ATOM      6  C4  PXY d   1       0.202  -0.259  -0.785  0.00  0.00    -0.082 A 
ATOM      7  C5  PXY d   1      -0.189   0.961  -0.361  0.00  0.00     0.003 A 
ATOM      8  C6  PXY d   1       0.419   1.517   0.760  0.00  0.00     0.003 A 
ENDROOT
TORSDOF 0
ENDMDL
