MODEL 1
REMARK minimizedAffinity -1.30024672
REMARK minimizedRMSD -1
REMARK  0 active torsions:
REMARK  status: ('A' for Active; 'I' for Inactive)
ROOT
ATOM      1  C4' PXY d   1       2.505   0.242   1.868  0.00  0.00     0.077 C 
ATOM      2  C1' PXY d   1      -2.684   0.133  -0.676  0.00  0.00     0.077 C 
ATOM      3  C1  PXY d   1      -1.326   0.173  -0.003  0.00  0.00    -0.082 A 
ATOM      4  C2  PXY d   1      -0.311  -0.483  -0.540  0.00  0.00     0.003 A 
ATOM      5  C3  PXY d   1       0.916  -0.484   0.072  0.00  0.00     0.003 A 
ATOM      6  C4  PXY d   1       1.119   0.238   1.218  0.00  0.00    -0.082 A 
ATOM      7  C5  PXY d   1       0.090   0.919   1.766  0.00  0.00     0.003 A 
ATOM      8  C6  PXY d   1      -1.157   0.873   1.151  0.00  0.00     0.003 A 
ENDROOT
TORSDOF 0
ENDMDL
