MODEL 1
REMARK minimizedAffinity -4.47057962
REMARK minimizedRMSD -1
REMARK  0 active torsions:
REMARK  status: ('A' for Active; 'I' for Inactive)
ROOT
ATOM      1  C4' PXY d   1      -0.659   1.418   3.083  0.00  0.00     0.077 C 
ATOM      2  C1' PXY d   1       0.681  -0.815  -2.078  0.00  0.00     0.077 C 
ATOM      3  C1  PXY d   1       0.341  -0.235  -0.720  0.00  0.00    -0.082 A 
ATOM      4  C2  PXY d   1      -0.915   0.068  -0.434  0.00  0.00     0.003 A 
ATOM      5  C3  PXY d   1      -1.237   0.623   0.778  0.00  0.00     0.003 A 
ATOM      6  C4  PXY d   1      -0.270   0.821   1.727  0.00  0.00    -0.082 A 
ATOM      7  C5  PXY d   1       1.012   0.504   1.448  0.00  0.00     0.003 A 
ATOM      8  C6  PXY d   1       1.324  -0.020   0.196  0.00  0.00     0.003 A 
ENDROOT
TORSDOF 0
ENDMDL
