MODEL 1
REMARK minimizedAffinity -4.04315042
REMARK minimizedRMSD -1
REMARK  0 active torsions:
REMARK  status: ('A' for Active; 'I' for Inactive)
ROOT
ATOM      1  C4' PXY d   1      -1.165   1.199   2.720  0.00  0.00     0.077 C 
ATOM      2  C1' PXY d   1       0.421  -1.024  -2.374  0.00  0.00     0.077 C 
ATOM      3  C1  PXY d   1      -0.006  -0.436  -1.044  0.00  0.00    -0.082 A 
ATOM      4  C2  PXY d   1       0.909  -0.150  -0.131  0.00  0.00     0.003 A 
ATOM      5  C3  PXY d   1       0.538   0.352   1.089  0.00  0.00     0.003 A 
ATOM      6  C4  PXY d   1      -0.779   0.614   1.359  0.00  0.00    -0.082 A 
ATOM      7  C5  PXY d   1      -1.717   0.334   0.430  0.00  0.00     0.003 A 
ATOM      8  C6  PXY d   1      -1.323  -0.213  -0.788  0.00  0.00     0.003 A 
ENDROOT
TORSDOF 0
ENDMDL
