MODEL 1
REMARK minimizedAffinity -4.9742527
REMARK minimizedRMSD -1
REMARK  0 active torsions:
REMARK  status: ('A' for Active; 'I' for Inactive)
ROOT
ATOM      1  C4' PXY d   1       0.284  -0.965  -2.495  0.00  0.00     0.077 C 
ATOM      2  C1' PXY d   1      -0.844   1.272   2.715  0.00  0.00     0.077 C 
ATOM      3  C1  PXY d   1      -0.537   0.691   1.348  0.00  0.00    -0.082 A 
ATOM      4  C2  PXY d   1      -1.530   0.328   0.554  0.00  0.00     0.003 A 
ATOM      5  C3  PXY d   1      -1.269  -0.229  -0.672  0.00  0.00     0.003 A 
ATOM      6  C4  PXY d   1       0.020  -0.365  -1.111  0.00  0.00    -0.082 A 
ATOM      7  C5  PXY d   1       1.039   0.014  -0.310  0.00  0.00     0.003 A 
ATOM      8  C6  PXY d   1       0.754   0.538   0.947  0.00  0.00     0.003 A 
ENDROOT
TORSDOF 0
ENDMDL
