MODEL 1
REMARK minimizedAffinity -3.69103742
REMARK minimizedRMSD -1
REMARK  0 active torsions:
REMARK  status: ('A' for Active; 'I' for Inactive)
ROOT
ATOM      1  C4' PXY d   1      -1.360   1.355   2.585  0.00  0.00     0.077 C 
ATOM      2  C1' PXY d   1       0.738  -0.815  -2.345  0.00  0.00     0.077 C 
ATOM      3  C1  PXY d   1       0.177  -0.242  -1.059  0.00  0.00    -0.082 A 
ATOM      4  C2  PXY d   1       1.002   0.135  -0.096  0.00  0.00     0.003 A 
ATOM      5  C3  PXY d   1       0.511   0.625   1.087  0.00  0.00     0.003 A 
ATOM      6  C4  PXY d   1      -0.838   0.780   1.265  0.00  0.00    -0.082 A 
ATOM      7  C5  PXY d   1      -1.686   0.409   0.283  0.00  0.00     0.003 A 
ATOM      8  C6  PXY d   1      -1.169  -0.125  -0.894  0.00  0.00     0.003 A 
ENDROOT
TORSDOF 0
ENDMDL
