MODEL 1
REMARK minimizedAffinity 2.2346549
REMARK minimizedRMSD -1
REMARK  0 active torsions:
REMARK  status: ('A' for Active; 'I' for Inactive)
ROOT
ATOM      1  C4' PXY d   1      -2.992   0.543   0.217  0.00  0.00     0.077 C 
ATOM      2  C1' PXY d   1       2.500   0.334   2.008  0.00  0.00     0.077 C 
ATOM      3  C1  PXY d   1       1.056   0.391   1.550  0.00  0.00    -0.082 A 
ATOM      4  C2  PXY d   1       0.693  -0.246   0.449  0.00  0.00     0.003 A 
ATOM      5  C3  PXY d   1      -0.602  -0.179   0.004  0.00  0.00     0.003 A 
ATOM      6  C4  PXY d   1      -1.547   0.505   0.721  0.00  0.00    -0.082 A 
ATOM      7  C5  PXY d   1      -1.187   1.149   1.851  0.00  0.00     0.003 A 
ATOM      8  C6  PXY d   1       0.142   1.102   2.264  0.00  0.00     0.003 A 
ENDROOT
TORSDOF 0
ENDMDL
