MODEL 1
REMARK minimizedAffinity -4.98260021
REMARK minimizedRMSD -1
REMARK  0 active torsions:
REMARK  status: ('A' for Active; 'I' for Inactive)
ROOT
ATOM      1  C4' PXY d   1      -3.125  -0.806  -0.583  0.00  0.00     0.077 C 
ATOM      2  C1' PXY d   1       2.306  -0.761   1.396  0.00  0.00     0.077 C 
ATOM      3  C1  PXY d   1       0.877  -0.771   0.889  0.00  0.00    -0.082 A 
ATOM      4  C2  PXY d   1       0.596  -1.362  -0.260  0.00  0.00     0.003 A 
ATOM      5  C3  PXY d   1      -0.686  -1.353  -0.749  0.00  0.00     0.003 A 
ATOM      6  C4  PXY d   1      -1.698  -0.780  -0.028  0.00  0.00    -0.082 A 
ATOM      7  C5  PXY d   1      -1.420  -0.184   1.151  0.00  0.00     0.003 A 
ATOM      8  C6  PXY d   1      -0.106  -0.168   1.610  0.00  0.00     0.003 A 
ENDROOT
TORSDOF 0
ENDMDL
