MODEL 1
REMARK minimizedAffinity 6.42400742
REMARK minimizedRMSD -1
REMARK  0 active torsions:
REMARK  status: ('A' for Active; 'I' for Inactive)
ROOT
ATOM      1  C   UNL d   1      -0.551   0.847   0.007  0.00  0.00     0.078 C 
ATOM      2  C1  UNL d   1       0.457   0.119   0.845  0.00  0.00    -0.077 A 
ATOM      3  C2  UNL d   1       0.577   0.378   2.216  0.00  0.00    -0.001 A 
ATOM      4  C3  UNL d   1       1.527  -0.299   2.982  0.00  0.00     0.003 A 
ATOM      5  C4  UNL d   1       2.365  -1.239   2.386  0.00  0.00    -0.005 A 
ATOM      6  C5  UNL d   1       2.255  -1.502   1.022  0.00  0.00     0.003 A 
ATOM      7  C6  UNL d   1       1.306  -0.825   0.255  0.00  0.00    -0.001 A 
ENDROOT
TORSDOF 0
ENDMDL
