MODEL 1
REMARK minimizedAffinity 1.54572642
REMARK minimizedRMSD -1
REMARK  0 active torsions:
REMARK  status: ('A' for Active; 'I' for Inactive)
ROOT
ATOM      1  C   UNL d   1      -4.434   3.417  -5.111  0.00  0.00     0.078 C 
ATOM      2  C1  UNL d   1      -4.105   2.094  -4.486  0.00  0.00    -0.077 A 
ATOM      3  C2  UNL d   1      -4.385   0.893  -5.149  0.00  0.00    -0.001 A 
ATOM      4  C3  UNL d   1      -4.082  -0.331  -4.551  0.00  0.00     0.003 A 
ATOM      5  C4  UNL d   1      -3.499  -0.367  -3.286  0.00  0.00    -0.005 A 
ATOM      6  C5  UNL d   1      -3.219   0.823  -2.617  0.00  0.00     0.003 A 
ATOM      7  C6  UNL d   1      -3.521   2.048  -3.214  0.00  0.00    -0.001 A 
ENDROOT
TORSDOF 0
ENDMDL
