MODEL 1
REMARK minimizedAffinity 4.13405466
REMARK minimizedRMSD -1
REMARK  0 active torsions:
REMARK  status: ('A' for Active; 'I' for Inactive)
ROOT
ATOM      1  C   UNL d   1      -5.948  -2.820   5.567  0.00  0.00     0.078 C 
ATOM      2  C1  UNL d   1      -5.959  -2.143   4.230  0.00  0.00    -0.077 A 
ATOM      3  C2  UNL d   1      -5.972  -0.746   4.129  0.00  0.00    -0.001 A 
ATOM      4  C3  UNL d   1      -5.992  -0.129   2.877  0.00  0.00     0.003 A 
ATOM      5  C4  UNL d   1      -6.000  -0.900   1.717  0.00  0.00    -0.005 A 
ATOM      6  C5  UNL d   1      -5.989  -2.290   1.807  0.00  0.00     0.003 A 
ATOM      7  C6  UNL d   1      -5.969  -2.910   3.058  0.00  0.00    -0.001 A 
ENDROOT
TORSDOF 0
ENDMDL
