MODEL 1
REMARK minimizedAffinity 0.835086763
REMARK minimizedRMSD -1
REMARK  0 active torsions:
REMARK  status: ('A' for Active; 'I' for Inactive)
ROOT
ATOM      1  C   UNL d   1      -1.271   1.952  -1.343  0.00  0.00     0.078 C 
ATOM      2  C1  UNL d   1      -0.359   1.143  -0.470  0.00  0.00    -0.077 A 
ATOM      3  C2  UNL d   1      -0.368   1.298   0.922  0.00  0.00    -0.001 A 
ATOM      4  C3  UNL d   1       0.493   0.546   1.722  0.00  0.00     0.003 A 
ATOM      5  C4  UNL d   1       1.371  -0.366   1.140  0.00  0.00    -0.005 A 
ATOM      6  C5  UNL d   1       1.389  -0.525  -0.244  0.00  0.00     0.003 A 
ATOM      7  C6  UNL d   1       0.529   0.226  -1.046  0.00  0.00    -0.001 A 
ENDROOT
TORSDOF 0
ENDMDL
