MODEL 1
REMARK minimizedAffinity -0.175807208
REMARK minimizedRMSD -1
REMARK  0 active torsions:
REMARK  status: ('A' for Active; 'I' for Inactive)
ROOT
ATOM      1  C   UNL d   1       0.137   0.834  -1.158  0.00  0.00     0.078 C 
ATOM      2  C1  UNL d   1       0.571   0.707   0.272  0.00  0.00    -0.077 A 
ATOM      3  C2  UNL d   1       0.318   1.729   1.195  0.00  0.00    -0.001 A 
ATOM      4  C3  UNL d   1       0.736   1.602   2.521  0.00  0.00     0.003 A 
ATOM      5  C4  UNL d   1       1.410   0.455   2.935  0.00  0.00    -0.005 A 
ATOM      6  C5  UNL d   1       1.668  -0.566   2.022  0.00  0.00     0.003 A 
ATOM      7  C6  UNL d   1       1.251  -0.441   0.696  0.00  0.00    -0.001 A 
ENDROOT
TORSDOF 0
ENDMDL
