MODEL 1
REMARK minimizedAffinity -2.62878251
REMARK minimizedRMSD -1
REMARK  1 active torsions:
REMARK  status: ('A' for Active; 'I' for Inactive)
REMARK    1  A    between atoms: C3_4  and  O_7 
ROOT
ATOM      1  C   UNL d   1      -0.394   1.714   1.122  0.00  0.00    -0.033 A 
ATOM      2  C1  UNL d   1       0.361   2.044  -0.004  0.00  0.00     0.039 A 
ATOM      3  C2  UNL d   1       0.710   1.056  -0.928  0.00  0.00    -0.080 A 
ATOM      4  C3  UNL d   1       0.296  -0.255  -0.713  0.00  0.00     0.150 A 
ATOM      5  C4  UNL d   1      -0.461  -0.590   0.405  0.00  0.00    -0.007 A 
ATOM      6  C5  UNL d   1      -0.807   0.397   1.326  0.00  0.00     0.039 A 
ENDROOT
BRANCH   4   7
ATOM      7  O   UNL d   1       0.615  -1.255  -1.584  0.00  0.00    -0.526 OA
ATOM      8  H5  UNL d   1       1.164  -0.881  -2.293  0.00  0.00     0.418 HD
ENDBRANCH   4   7
TORSDOF 1
ENDMDL
