MODEL 1
REMARK minimizedAffinity -4.15780783
REMARK minimizedRMSD -1
REMARK  1 active torsions:
REMARK  status: ('A' for Active; 'I' for Inactive)
REMARK    1  A    between atoms: C3_4  and  O_7 
ROOT
ATOM      1  C   UNL d   1      -0.075   0.606  -0.706  0.00  0.00    -0.033 A 
ATOM      2  C1  UNL d   1      -0.290   0.377   0.655  0.00  0.00     0.039 A 
ATOM      3  C2  UNL d   1      -0.114  -0.902   1.186  0.00  0.00    -0.080 A 
ATOM      4  C3  UNL d   1       0.276  -1.942   0.347  0.00  0.00     0.150 A 
ATOM      5  C4  UNL d   1       0.496  -1.721  -1.009  0.00  0.00    -0.007 A 
ATOM      6  C5  UNL d   1       0.319  -0.443  -1.537  0.00  0.00     0.039 A 
ENDROOT
BRANCH   4   7
ATOM      7  O   UNL d   1       0.456  -3.209   0.818  0.00  0.00    -0.526 OA
ATOM      8  H5  UNL d   1       0.241  -3.218   1.766  0.00  0.00     0.418 HD
ENDBRANCH   4   7
TORSDOF 1
ENDMDL
