MODEL 1
REMARK minimizedAffinity -2.48148513
REMARK minimizedRMSD -1
REMARK  1 active torsions:
REMARK  status: ('A' for Active; 'I' for Inactive)
REMARK    1  A    between atoms: C3_4  and  O_7 
ROOT
ATOM      1  C   UNL d   1       0.400   0.716   0.080  0.00  0.00    -0.033 A 
ATOM      2  C1  UNL d   1       1.100  -0.292  -0.587  0.00  0.00     0.039 A 
ATOM      3  C2  UNL d   1       0.676  -1.619  -0.492  0.00  0.00    -0.080 A 
ATOM      4  C3  UNL d   1      -0.448  -1.924   0.270  0.00  0.00     0.150 A 
ATOM      5  C4  UNL d   1      -1.152  -0.925   0.934  0.00  0.00    -0.007 A 
ATOM      6  C5  UNL d   1      -0.727   0.399   0.839  0.00  0.00     0.039 A 
ENDROOT
BRANCH   4   7
ATOM      7  O   UNL d   1      -0.896  -3.205   0.395  0.00  0.00    -0.526 OA
ATOM      8  H5  UNL d   1      -0.295  -3.792  -0.094  0.00  0.00     0.418 HD
ENDBRANCH   4   7
TORSDOF 1
ENDMDL
