MODEL 1
REMARK minimizedAffinity -4.15075588
REMARK minimizedRMSD -1
REMARK  1 active torsions:
REMARK  status: ('A' for Active; 'I' for Inactive)
REMARK    1  A    between atoms: C3_4  and  O_7 
ROOT
ATOM      1  C   UNL d   1      -0.079  -3.189   0.851  0.00  0.00    -0.033 A 
ATOM      2  C1  UNL d   1       0.912  -2.675   0.012  0.00  0.00     0.039 A 
ATOM      3  C2  UNL d   1       0.880  -1.332  -0.367  0.00  0.00    -0.080 A 
ATOM      4  C3  UNL d   1      -0.146  -0.514   0.099  0.00  0.00     0.150 A 
ATOM      5  C4  UNL d   1      -1.134  -1.018   0.938  0.00  0.00    -0.007 A 
ATOM      6  C5  UNL d   1      -1.102  -2.360   1.315  0.00  0.00     0.039 A 
ENDROOT
BRANCH   4   7
ATOM      7  O   UNL d   1      -0.221   0.802  -0.248  0.00  0.00    -0.526 OA
ATOM      8  H5  UNL d   1       0.511   1.003  -0.854  0.00  0.00     0.418 HD
ENDBRANCH   4   7
TORSDOF 1
ENDMDL
