MODEL 1
REMARK minimizedAffinity -4.7999835
REMARK minimizedRMSD -1
REMARK  1 active torsions:
REMARK  status: ('A' for Active; 'I' for Inactive)
REMARK    1  A    between atoms: C3_4  and  O_7 
ROOT
ATOM      1  C   UNL d   1       0.139   0.106  -0.579  0.00  0.00    -0.033 A 
ATOM      2  C1  UNL d   1       0.717  -0.921  -1.329  0.00  0.00     0.039 A 
ATOM      3  C2  UNL d   1       0.671  -2.237  -0.866  0.00  0.00    -0.080 A 
ATOM      4  C3  UNL d   1       0.044  -2.514   0.346  0.00  0.00     0.150 A 
ATOM      5  C4  UNL d   1      -0.537  -1.496   1.096  0.00  0.00    -0.007 A 
ATOM      6  C5  UNL d   1      -0.489  -0.182   0.633  0.00  0.00     0.039 A 
ENDROOT
BRANCH   4   7
ATOM      7  O   UNL d   1      -0.022  -3.782   0.841  0.00  0.00    -0.526 OA
ATOM      8  H5  UNL d   1       0.446  -4.376   0.231  0.00  0.00     0.418 HD
ENDBRANCH   4   7
TORSDOF 1
ENDMDL
