MODEL 1
REMARK minimizedAffinity -5.34373426
REMARK minimizedRMSD -1
REMARK  1 active torsions:
REMARK  status: ('A' for Active; 'I' for Inactive)
REMARK    1  A    between atoms: C3_4  and  O_7 
ROOT
ATOM      1  C   UNL d   1      -0.409   0.317   0.070  0.00  0.00    -0.033 A 
ATOM      2  C1  UNL d   1       0.661  -0.264  -0.614  0.00  0.00     0.039 A 
ATOM      3  C2  UNL d   1       0.981  -1.607  -0.401  0.00  0.00    -0.080 A 
ATOM      4  C3  UNL d   1       0.224  -2.356   0.495  0.00  0.00     0.150 A 
ATOM      5  C4  UNL d   1      -0.845  -1.785   1.177  0.00  0.00    -0.007 A 
ATOM      6  C5  UNL d   1      -1.163  -0.444   0.965  0.00  0.00     0.039 A 
ENDROOT
BRANCH   4   7
ATOM      7  O   UNL d   1       0.501  -3.668   0.739  0.00  0.00    -0.526 OA
ATOM      8  H5  UNL d   1       1.283  -3.919   0.219  0.00  0.00     0.418 HD
ENDBRANCH   4   7
TORSDOF 1
ENDMDL
