MODEL 1
REMARK minimizedAffinity -4.46099854
REMARK minimizedRMSD -1
REMARK  1 active torsions:
REMARK  status: ('A' for Active; 'I' for Inactive)
REMARK    1  A    between atoms: C3_4  and  O_7 
ROOT
ATOM      1  C   UNL d   1      -0.709  -2.669   0.351  0.00  0.00    -0.033 A 
ATOM      2  C1  UNL d   1      -1.368  -1.843   1.263  0.00  0.00     0.039 A 
ATOM      3  C2  UNL d   1      -1.251  -0.455   1.162  0.00  0.00    -0.080 A 
ATOM      4  C3  UNL d   1      -0.474   0.093   0.145  0.00  0.00     0.150 A 
ATOM      5  C4  UNL d   1       0.182  -0.724  -0.770  0.00  0.00    -0.007 A 
ATOM      6  C5  UNL d   1       0.064  -2.109  -0.667  0.00  0.00     0.039 A 
ENDROOT
BRANCH   4   7
ATOM      7  O   UNL d   1      -0.326   1.441   0.009  0.00  0.00    -0.526 OA
ATOM      8  H5  UNL d   1      -0.812   1.878   0.729  0.00  0.00     0.418 HD
ENDBRANCH   4   7
TORSDOF 1
ENDMDL
