MODEL 1
REMARK minimizedAffinity -1.06226671
REMARK minimizedRMSD -1
REMARK  1 active torsions:
REMARK  status: ('A' for Active; 'I' for Inactive)
REMARK    1  A    between atoms: C3_4  and  O_7 
ROOT
ATOM      1  C   UNL d   1      -0.201   1.119   0.489  0.00  0.00    -0.033 A 
ATOM      2  C1  UNL d   1      -0.037  -0.261   0.619  0.00  0.00     0.039 A 
ATOM      3  C2  UNL d   1       0.257  -1.040  -0.502  0.00  0.00    -0.080 A 
ATOM      4  C3  UNL d   1       0.384  -0.427  -1.745  0.00  0.00     0.150 A 
ATOM      5  C4  UNL d   1       0.226   0.948  -1.882  0.00  0.00    -0.007 A 
ATOM      6  C5  UNL d   1      -0.068   1.724  -0.761  0.00  0.00     0.039 A 
ENDROOT
BRANCH   4   7
ATOM      7  O   UNL d   1       0.665  -1.146  -2.869  0.00  0.00    -0.526 OA
ATOM      8  H5  UNL d   1       0.719  -2.086  -2.628  0.00  0.00     0.418 HD
ENDBRANCH   4   7
TORSDOF 1
ENDMDL
