MODEL 1
REMARK minimizedAffinity -4.98101091
REMARK minimizedRMSD -1
REMARK  1 active torsions:
REMARK  status: ('A' for Active; 'I' for Inactive)
REMARK    1  A    between atoms: C3_4  and  O_7 
ROOT
ATOM      1  C   UNL d   1      -0.412   0.424  -0.084  0.00  0.00    -0.033 A 
ATOM      2  C1  UNL d   1      -1.129  -0.229   0.920  0.00  0.00     0.039 A 
ATOM      3  C2  UNL d   1      -0.927  -1.591   1.152  0.00  0.00    -0.080 A 
ATOM      4  C3  UNL d   1      -0.004  -2.286   0.376  0.00  0.00     0.150 A 
ATOM      5  C4  UNL d   1       0.717  -1.641  -0.623  0.00  0.00    -0.007 A 
ATOM      6  C5  UNL d   1       0.513  -0.282  -0.855  0.00  0.00     0.039 A 
ENDROOT
BRANCH   4   7
ATOM      7  O   UNL d   1       0.224  -3.617   0.562  0.00  0.00    -0.526 OA
ATOM      8  H5  UNL d   1      -0.366  -3.935   1.266  0.00  0.00     0.418 HD
ENDBRANCH   4   7
TORSDOF 1
ENDMDL
