MODEL 1
REMARK minimizedAffinity -4.48144913
REMARK minimizedRMSD -1
REMARK  1 active torsions:
REMARK  status: ('A' for Active; 'I' for Inactive)
REMARK    1  A    between atoms: C3_4  and  O_7 
ROOT
ATOM      1  C   UNL d   1      -0.370  -1.675   1.119  0.00  0.00    -0.033 A 
ATOM      2  C1  UNL d   1      -0.004  -1.886  -0.212  0.00  0.00     0.039 A 
ATOM      3  C2  UNL d   1       0.118  -0.804  -1.085  0.00  0.00    -0.080 A 
ATOM      4  C3  UNL d   1      -0.128   0.484  -0.616  0.00  0.00     0.150 A 
ATOM      5  C4  UNL d   1      -0.490   0.702   0.709  0.00  0.00    -0.007 A 
ATOM      6  C5  UNL d   1      -0.612  -0.380   1.580  0.00  0.00     0.039 A 
ENDROOT
BRANCH   4   7
ATOM      7  O   UNL d   1      -0.027   1.571  -1.432  0.00  0.00    -0.526 OA
ATOM      8  H5  UNL d   1       0.202   1.265  -2.325  0.00  0.00     0.418 HD
ENDBRANCH   4   7
TORSDOF 1
ENDMDL
