MODEL 1
REMARK minimizedAffinity -5.58151197
REMARK minimizedRMSD -1
REMARK  1 active torsions:
REMARK  status: ('A' for Active; 'I' for Inactive)
REMARK    1  A    between atoms: C3_4  and  O_7 
ROOT
ATOM      1  C   UNL d   1      -0.660   0.147   0.066  0.00  0.00    -0.033 A 
ATOM      2  C1  UNL d   1       0.174  -0.560  -0.802  0.00  0.00     0.039 A 
ATOM      3  C2  UNL d   1       0.440  -1.911  -0.572  0.00  0.00    -0.080 A 
ATOM      4  C3  UNL d   1      -0.134  -2.543   0.528  0.00  0.00     0.150 A 
ATOM      5  C4  UNL d   1      -0.968  -1.846   1.395  0.00  0.00    -0.007 A 
ATOM      6  C5  UNL d   1      -1.232  -0.496   1.164  0.00  0.00     0.039 A 
ENDROOT
BRANCH   4   7
ATOM      7  O   UNL d   1       0.100  -3.859   0.796  0.00  0.00    -0.526 OA
ATOM      8  H5  UNL d   1       0.717  -4.204   0.129  0.00  0.00     0.418 HD
ENDBRANCH   4   7
TORSDOF 1
ENDMDL
