MODEL 1
REMARK minimizedAffinity -4.67074919
REMARK minimizedRMSD -1
REMARK  1 active torsions:
REMARK  status: ('A' for Active; 'I' for Inactive)
REMARK    1  A    between atoms: C3_4  and  O_7 
ROOT
ATOM      1  C   UNL d   1      -0.737   0.482   0.320  0.00  0.00    -0.033 A 
ATOM      2  C1  UNL d   1       0.221  -0.139  -0.484  0.00  0.00     0.039 A 
ATOM      3  C2  UNL d   1       0.468  -1.506  -0.349  0.00  0.00    -0.080 A 
ATOM      4  C3  UNL d   1      -0.249  -2.241   0.591  0.00  0.00     0.150 A 
ATOM      5  C4  UNL d   1      -1.208  -1.631   1.392  0.00  0.00    -0.007 A 
ATOM      6  C5  UNL d   1      -1.453  -0.265   1.257  0.00  0.00     0.039 A 
ENDROOT
BRANCH   4   7
ATOM      7  O   UNL d   1      -0.039  -3.577   0.762  0.00  0.00    -0.526 OA
ATOM      8  H5  UNL d   1       0.671  -3.857   0.160  0.00  0.00     0.418 HD
ENDBRANCH   4   7
TORSDOF 1
ENDMDL
