MODEL 1
REMARK minimizedAffinity -5.70687962
REMARK minimizedRMSD -1
REMARK  1 active torsions:
REMARK  status: ('A' for Active; 'I' for Inactive)
REMARK    1  A    between atoms: C3_4  and  O_7 
ROOT
ATOM      1  C   UNL d   1      -0.040  -3.412  -0.711  0.00  0.00    -0.033 A 
ATOM      2  C1  UNL d   1       0.257  -2.703  -1.876  0.00  0.00     0.039 A 
ATOM      3  C2  UNL d   1       0.295  -1.307  -1.856  0.00  0.00    -0.080 A 
ATOM      4  C3  UNL d   1       0.035  -0.634  -0.665  0.00  0.00     0.150 A 
ATOM      5  C4  UNL d   1      -0.258  -1.335   0.500  0.00  0.00    -0.007 A 
ATOM      6  C5  UNL d   1      -0.296  -2.728   0.477  0.00  0.00     0.039 A 
ENDROOT
BRANCH   4   7
ATOM      7  O   UNL d   1       0.056   0.727  -0.597  0.00  0.00    -0.526 OA
ATOM      8  H5  UNL d   1       0.245   1.077  -1.484  0.00  0.00     0.418 HD
ENDBRANCH   4   7
TORSDOF 1
ENDMDL
