MODEL 1
REMARK minimizedAffinity -5.02843046
REMARK minimizedRMSD -1
REMARK  1 active torsions:
REMARK  status: ('A' for Active; 'I' for Inactive)
REMARK    1  A    between atoms: C3_4  and  O_7 
ROOT
ATOM      1  C   UNL d   1       0.219  -0.345  -0.794  0.00  0.00    -0.033 A 
ATOM      2  C1  UNL d   1      -0.431  -0.477   0.434  0.00  0.00     0.039 A 
ATOM      3  C2  UNL d   1      -0.560  -1.735   1.026  0.00  0.00    -0.080 A 
ATOM      4  C3  UNL d   1      -0.033  -2.851   0.382  0.00  0.00     0.150 A 
ATOM      5  C4  UNL d   1       0.620  -2.726  -0.840  0.00  0.00    -0.007 A 
ATOM      6  C5  UNL d   1       0.746  -1.469  -1.431  0.00  0.00     0.039 A 
ENDROOT
BRANCH   4   7
ATOM      7  O   UNL d   1      -0.138  -4.099   0.918  0.00  0.00    -0.526 OA
ATOM      8  H5  UNL d   1      -0.638  -4.036   1.749  0.00  0.00     0.418 HD
ENDBRANCH   4   7
TORSDOF 1
ENDMDL
