MODEL 1
REMARK minimizedAffinity -2.25940728
REMARK minimizedRMSD -1
REMARK  1 active torsions:
REMARK  status: ('A' for Active; 'I' for Inactive)
REMARK    1  A    between atoms: C3_4  and  O_7 
ROOT
ATOM      1  C   UNL d   1      -1.137  -1.832   1.494  0.00  0.00    -0.033 A 
ATOM      2  C1  UNL d   1       0.074  -2.006   0.821  0.00  0.00     0.039 A 
ATOM      3  C2  UNL d   1       0.586  -0.979   0.025  0.00  0.00    -0.080 A 
ATOM      4  C3  UNL d   1      -0.120   0.215  -0.087  0.00  0.00     0.150 A 
ATOM      5  C4  UNL d   1      -1.325   0.397   0.584  0.00  0.00    -0.007 A 
ATOM      6  C5  UNL d   1      -1.836  -0.630   1.377  0.00  0.00     0.039 A 
ENDROOT
BRANCH   4   7
ATOM      7  O   UNL d   1       0.338   1.244  -0.855  0.00  0.00    -0.526 OA
ATOM      8  H5  UNL d   1       1.165   0.966  -1.281  0.00  0.00     0.418 HD
ENDBRANCH   4   7
TORSDOF 1
ENDMDL
