MODEL 1
REMARK minimizedAffinity -4.25077391
REMARK minimizedRMSD -1
REMARK  1 active torsions:
REMARK  status: ('A' for Active; 'I' for Inactive)
REMARK    1  A    between atoms: C3_4  and  O_7 
ROOT
ATOM      1  C   UNL d   1      -0.530  -2.578   0.820  0.00  0.00    -0.033 A 
ATOM      2  C1  UNL d   1      -1.223  -1.560   1.479  0.00  0.00     0.039 A 
ATOM      3  C2  UNL d   1      -0.831  -0.230   1.321  0.00  0.00    -0.080 A 
ATOM      4  C3  UNL d   1       0.253   0.070   0.501  0.00  0.00     0.150 A 
ATOM      5  C4  UNL d   1       0.946  -0.938  -0.162  0.00  0.00    -0.007 A 
ATOM      6  C5  UNL d   1       0.553  -2.266  -0.002  0.00  0.00     0.039 A 
ENDROOT
BRANCH   4   7
ATOM      7  O   UNL d   1       0.676   1.353   0.318  0.00  0.00    -0.526 OA
ATOM      8  H5  UNL d   1       0.122   1.939   0.860  0.00  0.00     0.418 HD
ENDBRANCH   4   7
TORSDOF 1
ENDMDL
