MODEL 1
REMARK minimizedAffinity -2.30101442
REMARK minimizedRMSD -1
REMARK  0 active torsions:
REMARK  status: ('A' for Active; 'I' for Inactive)
ROOT
ATOM      1  C1  BNZ d   1      -0.602   0.067   0.789  0.00  0.00     0.000 A 
ATOM      2  C2  BNZ d   1      -0.044  -0.963   1.497  0.00  0.00     0.000 A 
ATOM      3  C3  BNZ d   1       1.202  -1.432   1.186  0.00  0.00     0.000 A 
ATOM      4  C4  BNZ d   1       1.871  -0.897   0.144  0.00  0.00     0.000 A 
ATOM      5  C5  BNZ d   1       1.317   0.136  -0.586  0.00  0.00     0.000 A 
ATOM      6  C6  BNZ d   1       0.079   0.631  -0.245  0.00  0.00     0.000 A 
ENDROOT
TORSDOF 0
ENDMDL
