MODEL 1
REMARK minimizedAffinity -3.42251539
REMARK minimizedRMSD -1
REMARK  0 active torsions:
REMARK  status: ('A' for Active; 'I' for Inactive)
ROOT
ATOM      1  C1  BNZ d   1      -2.821   1.435  -1.054  0.00  0.00     0.000 A 
ATOM      2  C2  BNZ d   1      -3.481   1.228  -2.237  0.00  0.00     0.000 A 
ATOM      3  C3  BNZ d   1      -2.930   1.623  -3.424  0.00  0.00     0.000 A 
ATOM      4  C4  BNZ d   1      -1.741   2.259  -3.424  0.00  0.00     0.000 A 
ATOM      5  C5  BNZ d   1      -1.068   2.483  -2.240  0.00  0.00     0.000 A 
ATOM      6  C6  BNZ d   1      -1.607   2.049  -1.050  0.00  0.00     0.000 A 
ENDROOT
TORSDOF 0
ENDMDL
