MODEL 1
REMARK minimizedAffinity -2.4311862
REMARK minimizedRMSD -1
REMARK  0 active torsions:
REMARK  status: ('A' for Active; 'I' for Inactive)
ROOT
ATOM      1  C1  BNZ d   1       0.005   1.496  -0.609  0.00  0.00     0.000 A 
ATOM      2  C2  BNZ d   1       1.346   1.552  -0.879  0.00  0.00     0.000 A 
ATOM      3  C3  BNZ d   1       2.173   0.519  -0.536  0.00  0.00     0.000 A 
ATOM      4  C4  BNZ d   1       1.666  -0.550   0.111  0.00  0.00     0.000 A 
ATOM      5  C5  BNZ d   1       0.317  -0.618   0.398  0.00  0.00     0.000 A 
ATOM      6  C6  BNZ d   1      -0.519   0.407   0.017  0.00  0.00     0.000 A 
ENDROOT
TORSDOF 0
ENDMDL
