MODEL 1
REMARK minimizedAffinity -4.18280983
REMARK minimizedRMSD -1
REMARK  0 active torsions:
REMARK  status: ('A' for Active; 'I' for Inactive)
ROOT
ATOM      1  C1  BNZ d   1       0.931  -0.452   0.346  0.00  0.00     0.000 A 
ATOM      2  C2  BNZ d   1      -0.124   0.374   0.063  0.00  0.00     0.000 A 
ATOM      3  C3  BNZ d   1      -1.166   0.503   0.938  0.00  0.00     0.000 A 
ATOM      4  C4  BNZ d   1      -1.171  -0.222   2.075  0.00  0.00     0.000 A 
ATOM      5  C5  BNZ d   1      -0.119  -1.066   2.370  0.00  0.00     0.000 A 
ATOM      6  C6  BNZ d   1       0.947  -1.164   1.505  0.00  0.00     0.000 A 
ENDROOT
TORSDOF 0
ENDMDL
