MODEL 1
REMARK minimizedAffinity -3.81259537
REMARK minimizedRMSD -1
REMARK  0 active torsions:
REMARK  status: ('A' for Active; 'I' for Inactive)
ROOT
ATOM      1  C1  BNZ d   1       0.074  -0.073  -1.101  0.00  0.00     0.000 A 
ATOM      2  C2  BNZ d   1      -0.994   0.757  -1.313  0.00  0.00     0.000 A 
ATOM      3  C3  BNZ d   1      -1.855   1.063  -0.296  0.00  0.00     0.000 A 
ATOM      4  C4  BNZ d   1      -1.671   0.507   0.919  0.00  0.00     0.000 A 
ATOM      5  C5  BNZ d   1      -0.604  -0.339   1.146  0.00  0.00     0.000 A 
ATOM      6  C6  BNZ d   1       0.283  -0.614   0.130  0.00  0.00     0.000 A 
ENDROOT
TORSDOF 0
ENDMDL
