MODEL 1
REMARK minimizedAffinity -4.51921988
REMARK minimizedRMSD -1
REMARK  0 active torsions:
REMARK  status: ('A' for Active; 'I' for Inactive)
ROOT
ATOM      1  C1  BNZ d   1       1.773  -0.240  -0.340  0.00  0.00     0.000 A 
ATOM      2  C2  BNZ d   1       0.477   0.194  -0.251  0.00  0.00     0.000 A 
ATOM      3  C3  BNZ d   1      -0.351  -0.270   0.732  0.00  0.00     0.000 A 
ATOM      4  C4  BNZ d   1       0.104  -1.196   1.600  0.00  0.00     0.000 A 
ATOM      5  C5  BNZ d   1       1.405  -1.651   1.518  0.00  0.00     0.000 A 
ATOM      6  C6  BNZ d   1       2.248  -1.153   0.551  0.00  0.00     0.000 A 
ENDROOT
TORSDOF 0
ENDMDL
