MODEL 1
REMARK minimizedAffinity -4.03831005
REMARK minimizedRMSD -1
REMARK  0 active torsions:
REMARK  status: ('A' for Active; 'I' for Inactive)
ROOT
ATOM      1  C1  BNZ d   1      -0.313  -0.572   1.742  0.00  0.00     0.000 A 
ATOM      2  C2  BNZ d   1       0.117  -1.500   2.653  0.00  0.00     0.000 A 
ATOM      3  C3  BNZ d   1       1.310  -2.145   2.485  0.00  0.00     0.000 A 
ATOM      4  C4  BNZ d   1       2.051  -1.893   1.387  0.00  0.00     0.000 A 
ATOM      5  C5  BNZ d   1       1.627  -0.967   0.454  0.00  0.00     0.000 A 
ATOM      6  C6  BNZ d   1       0.444  -0.291   0.647  0.00  0.00     0.000 A 
ENDROOT
TORSDOF 0
ENDMDL
