MODEL 1
REMARK minimizedAffinity 3.18794799
REMARK minimizedRMSD -1
REMARK  0 active torsions:
REMARK  status: ('A' for Active; 'I' for Inactive)
ROOT
ATOM      1  C1  BNZ d   1      -4.368  -4.849   0.325  0.00  0.00     0.000 A 
ATOM      2  C2  BNZ d   1      -5.606  -5.403   0.137  0.00  0.00     0.000 A 
ATOM      3  C3  BNZ d   1      -5.934  -5.996  -1.049  0.00  0.00     0.000 A 
ATOM      4  C4  BNZ d   1      -5.040  -6.000  -2.059  0.00  0.00     0.000 A 
ATOM      5  C5  BNZ d   1      -3.791  -5.437  -1.888  0.00  0.00     0.000 A 
ATOM      6  C6  BNZ d   1      -3.450  -4.875  -0.679  0.00  0.00     0.000 A 
ENDROOT
TORSDOF 0
ENDMDL
