MODEL 1
REMARK minimizedAffinity 1.50819659
REMARK minimizedRMSD -1
REMARK  0 active torsions:
REMARK  status: ('A' for Active; 'I' for Inactive)
ROOT
ATOM      1  C1  BNZ d   1       2.746  -1.420   1.494  0.00  0.00     0.000 A 
ATOM      2  C2  BNZ d   1       2.915  -0.847   0.261  0.00  0.00     0.000 A 
ATOM      3  C3  BNZ d   1       1.931  -0.078  -0.294  0.00  0.00     0.000 A 
ATOM      4  C4  BNZ d   1       0.766   0.086   0.365  0.00  0.00     0.000 A 
ATOM      5  C5  BNZ d   1       0.576  -0.493   1.604  0.00  0.00     0.000 A 
ATOM      6  C6  BNZ d   1       1.583  -1.235   2.177  0.00  0.00     0.000 A 
ENDROOT
TORSDOF 0
ENDMDL
