MODEL 1
REMARK minimizedAffinity -2.40331197
REMARK minimizedRMSD -1
REMARK  0 active torsions:
REMARK  status: ('A' for Active; 'I' for Inactive)
ROOT
ATOM      1  C1  BNZ d   1       2.007  -2.049   1.956  0.00  0.00     0.000 A 
ATOM      2  C2  BNZ d   1       2.578  -1.568   0.808  0.00  0.00     0.000 A 
ATOM      3  C3  BNZ d   1       1.967  -0.585   0.081  0.00  0.00     0.000 A 
ATOM      4  C4  BNZ d   1       0.768  -0.114   0.480  0.00  0.00     0.000 A 
ATOM      5  C5  BNZ d   1       0.175  -0.595   1.630  0.00  0.00     0.000 A 
ATOM      6  C6  BNZ d   1       0.811  -1.556   2.381  0.00  0.00     0.000 A 
ENDROOT
TORSDOF 0
ENDMDL
