MODEL 1
REMARK minimizedAffinity -5.20218658
REMARK minimizedRMSD -1
REMARK  0 active torsions:
REMARK  status: ('A' for Active; 'I' for Inactive)
ROOT
ATOM      1  C1  BNZ d   1       1.488  -2.852   0.914  0.00  0.00     0.000 A 
ATOM      2  C2  BNZ d   1       1.067  -2.852   2.217  0.00  0.00     0.000 A 
ATOM      3  C3  BNZ d   1      -0.024  -2.123   2.600  0.00  0.00     0.000 A 
ATOM      4  C4  BNZ d   1      -0.668  -1.365   1.689  0.00  0.00     0.000 A 
ATOM      5  C5  BNZ d   1      -0.249  -1.347   0.373  0.00  0.00     0.000 A 
ATOM      6  C6  BNZ d   1       0.826  -2.113  -0.016  0.00  0.00     0.000 A 
ENDROOT
TORSDOF 0
ENDMDL
