MODEL 1
REMARK minimizedAffinity -1.44729578
REMARK minimizedRMSD -1
REMARK  0 active torsions:
REMARK  status: ('A' for Active; 'I' for Inactive)
ROOT
ATOM      1  C1  BNZ d   1       0.158   1.362  -0.004  0.00  0.00     0.000 A 
ATOM      2  C2  BNZ d   1       1.454   1.012  -0.277  0.00  0.00     0.000 A 
ATOM      3  C3  BNZ d   1       2.007  -0.110   0.274  0.00  0.00     0.000 A 
ATOM      4  C4  BNZ d   1       1.278  -0.858   1.127  0.00  0.00     0.000 A 
ATOM      5  C5  BNZ d   1      -0.027  -0.513   1.419  0.00  0.00     0.000 A 
ATOM      6  C6  BNZ d   1      -0.592   0.595   0.833  0.00  0.00     0.000 A 
ENDROOT
TORSDOF 0
ENDMDL
