MODEL 1
REMARK minimizedAffinity -1.81617343
REMARK minimizedRMSD -1
REMARK  0 active torsions:
REMARK  status: ('A' for Active; 'I' for Inactive)
ROOT
ATOM      1  C1  BNZ d   1      -1.689   0.861  -1.458  0.00  0.00     0.000 A 
ATOM      2  C2  BNZ d   1      -2.452  -0.001  -0.717  0.00  0.00     0.000 A 
ATOM      3  C3  BNZ d   1      -2.093  -0.334   0.559  0.00  0.00     0.000 A 
ATOM      4  C4  BNZ d   1      -0.952   0.164   1.078  0.00  0.00     0.000 A 
ATOM      5  C5  BNZ d   1      -0.167   1.028   0.340  0.00  0.00     0.000 A 
ATOM      6  C6  BNZ d   1      -0.552   1.391  -0.930  0.00  0.00     0.000 A 
ENDROOT
TORSDOF 0
ENDMDL
