MODEL 1
REMARK minimizedAffinity -3.07904792
REMARK minimizedRMSD -1
REMARK  0 active torsions:
REMARK  status: ('A' for Active; 'I' for Inactive)
ROOT
ATOM      1  C   UNL d   1       0.441  -1.328  -0.831  0.00  0.00     0.172 C 
ATOM      2  N   UNL d   1       0.309  -0.113  -0.061  0.00  0.00    -0.070 N 
ATOM      3  C1  UNL d   1       0.719   0.061   1.234  0.00  0.00    -0.004 A 
ATOM      4  C2  UNL d   1       0.417   1.354   1.603  0.00  0.00    -0.047 A 
ATOM      5  C3  UNL d   1      -0.197   1.979   0.491  0.00  0.00    -0.047 A 
ATOM      6  C4  UNL d   1      -0.251   1.048  -0.525  0.00  0.00    -0.004 A 
ENDROOT
TORSDOF 0
ENDMDL
