MODEL 1
REMARK minimizedAffinity 0.973889172
REMARK minimizedRMSD -1
REMARK  0 active torsions:
REMARK  status: ('A' for Active; 'I' for Inactive)
ROOT
ATOM      1  C   UNL d   1       0.637  -0.830  -0.718  0.00  0.00     0.172 C 
ATOM      2  N   UNL d   1      -0.073  -2.051  -1.017  0.00  0.00    -0.070 N 
ATOM      3  C1  UNL d   1      -1.118  -2.173  -1.894  0.00  0.00    -0.004 A 
ATOM      4  C2  UNL d   1      -1.516  -3.493  -1.896  0.00  0.00    -0.047 A 
ATOM      5  C3  UNL d   1      -0.681  -4.188  -0.988  0.00  0.00    -0.047 A 
ATOM      6  C4  UNL d   1       0.203  -3.271  -0.459  0.00  0.00    -0.004 A 
ENDROOT
TORSDOF 0
ENDMDL
