MODEL 1
REMARK minimizedAffinity -1.73419428
REMARK minimizedRMSD -1
REMARK  0 active torsions:
REMARK  status: ('A' for Active; 'I' for Inactive)
ROOT
ATOM      1  C   UNL d   1      -0.121   1.453   2.147  0.00  0.00     0.172 C 
ATOM      2  N   UNL d   1       0.038   0.612   0.984  0.00  0.00    -0.070 N 
ATOM      3  C1  UNL d   1      -0.573   0.801  -0.227  0.00  0.00    -0.004 A 
ATOM      4  C2  UNL d   1      -0.163  -0.210  -1.068  0.00  0.00    -0.047 A 
ATOM      5  C3  UNL d   1       0.724  -1.036  -0.337  0.00  0.00    -0.047 A 
ATOM      6  C4  UNL d   1       0.830  -0.504   0.930  0.00  0.00    -0.004 A 
ENDROOT
TORSDOF 0
ENDMDL
