MODEL 1
REMARK minimizedAffinity -0.847672164
REMARK minimizedRMSD -1
REMARK  0 active torsions:
REMARK  status: ('A' for Active; 'I' for Inactive)
ROOT
ATOM      1  C   UNL d   1       1.188  -1.113  -0.716  0.00  0.00     0.172 C 
ATOM      2  N   UNL d   1       0.554  -2.345  -1.122  0.00  0.00    -0.070 N 
ATOM      3  C1  UNL d   1       1.203  -3.476  -1.540  0.00  0.00    -0.004 A 
ATOM      4  C2  UNL d   1       0.249  -4.426  -1.835  0.00  0.00    -0.047 A 
ATOM      5  C3  UNL d   1      -1.018  -3.845  -1.587  0.00  0.00    -0.047 A 
ATOM      6  C4  UNL d   1      -0.799  -2.556  -1.147  0.00  0.00    -0.004 A 
ENDROOT
TORSDOF 0
ENDMDL
