MODEL 1
REMARK minimizedAffinity -3.35848856
REMARK minimizedRMSD -1
REMARK  0 active torsions:
REMARK  status: ('A' for Active; 'I' for Inactive)
ROOT
ATOM      1  C   UNL d   1       0.123  -1.272  -0.668  0.00  0.00     0.172 C 
ATOM      2  N   UNL d   1      -0.101  -0.194   0.266  0.00  0.00    -0.070 N 
ATOM      3  C1  UNL d   1       0.180  -0.228   1.606  0.00  0.00    -0.004 A 
ATOM      4  C2  UNL d   1      -0.176   0.991   2.143  0.00  0.00    -0.047 A 
ATOM      5  C3  UNL d   1      -0.688   1.784   1.089  0.00  0.00    -0.047 A 
ATOM      6  C4  UNL d   1      -0.630   1.026  -0.062  0.00  0.00    -0.004 A 
ENDROOT
TORSDOF 0
ENDMDL
