MODEL 1
REMARK minimizedAffinity -2.95486736
REMARK minimizedRMSD -1
REMARK  0 active torsions:
REMARK  status: ('A' for Active; 'I' for Inactive)
ROOT
ATOM      1  C   UNL d   1       0.382  -0.008   0.957  0.00  0.00     0.172 C 
ATOM      2  N   UNL d   1       0.182   1.327   0.443  0.00  0.00    -0.070 N 
ATOM      3  C1  UNL d   1      -0.027   2.450   1.198  0.00  0.00    -0.004 A 
ATOM      4  C2  UNL d   1      -0.171   3.517   0.337  0.00  0.00    -0.047 A 
ATOM      5  C3  UNL d   1      -0.045   3.017  -0.981  0.00  0.00    -0.047 A 
ATOM      6  C4  UNL d   1       0.173   1.659  -0.886  0.00  0.00    -0.004 A 
ENDROOT
TORSDOF 0
ENDMDL
