MODEL 1
REMARK minimizedAffinity -3.17582035
REMARK minimizedRMSD -1
REMARK  0 active torsions:
REMARK  status: ('A' for Active; 'I' for Inactive)
ROOT
ATOM      1  C   UNL d   1       0.015   1.530   1.837  0.00  0.00     0.172 C 
ATOM      2  N   UNL d   1       0.357   0.630   0.761  0.00  0.00    -0.070 N 
ATOM      3  C1  UNL d   1       1.086  -0.522   0.885  0.00  0.00    -0.004 A 
ATOM      4  C2  UNL d   1       1.192  -1.091  -0.366  0.00  0.00    -0.047 A 
ATOM      5  C3  UNL d   1       0.503  -0.252  -1.273  0.00  0.00    -0.047 A 
ATOM      6  C4  UNL d   1      -0.004   0.807  -0.549  0.00  0.00    -0.004 A 
ENDROOT
TORSDOF 0
ENDMDL
