MODEL 1
REMARK minimizedAffinity -2.14960575
REMARK minimizedRMSD -1
REMARK  0 active torsions:
REMARK  status: ('A' for Active; 'I' for Inactive)
ROOT
ATOM      1  C   UNL d   1      -0.154   1.955   1.823  0.00  0.00     0.172 C 
ATOM      2  N   UNL d   1       0.133   0.887   0.896  0.00  0.00    -0.070 N 
ATOM      3  C1  UNL d   1       0.855  -0.242   1.177  0.00  0.00    -0.004 A 
ATOM      4  C2  UNL d   1       0.902  -1.009   0.033  0.00  0.00    -0.047 A 
ATOM      5  C3  UNL d   1       0.186  -0.316  -0.971  0.00  0.00    -0.047 A 
ATOM      6  C4  UNL d   1      -0.279   0.855  -0.410  0.00  0.00    -0.004 A 
ENDROOT
TORSDOF 0
ENDMDL
