MODEL 1
REMARK minimizedAffinity 0.247780636
REMARK minimizedRMSD -1
REMARK  0 active torsions:
REMARK  status: ('A' for Active; 'I' for Inactive)
ROOT
ATOM      1  C   UNL d   1       0.657   4.507  -0.089  0.00  0.00     0.172 C 
ATOM      2  N   UNL d   1       1.112   3.983   1.177  0.00  0.00    -0.070 N 
ATOM      3  C1  UNL d   1       0.459   3.048   1.935  0.00  0.00    -0.004 A 
ATOM      4  C2  UNL d   1       1.215   2.817   3.064  0.00  0.00    -0.047 A 
ATOM      5  C3  UNL d   1       2.362   3.642   2.982  0.00  0.00    -0.047 A 
ATOM      6  C4  UNL d   1       2.273   4.353   1.804  0.00  0.00    -0.004 A 
ENDROOT
TORSDOF 0
ENDMDL
