MODEL 1
REMARK minimizedAffinity 4.06924677
REMARK minimizedRMSD -1
REMARK  0 active torsions:
REMARK  status: ('A' for Active; 'I' for Inactive)
ROOT
ATOM      1  C   UNL d   1       1.624  -0.337  -0.447  0.00  0.00     0.023 A 
ATOM      2  C1  UNL d   1       0.574  -0.485   0.459  0.00  0.00     0.003 A 
ATOM      3  C2  UNL d   1      -0.503  -1.320   0.151  0.00  0.00     0.048 A 
ATOM      4  C3  UNL d   1      -0.522  -2.004  -1.064  0.00  0.00     0.023 A 
ATOM      5  C4  UNL d   1       0.527  -1.859  -1.973  0.00  0.00     0.048 A 
ATOM      6  C5  UNL d   1       1.600  -1.023  -1.662  0.00  0.00     0.003 A 
ATOM      7  I   UNL d   1      -2.123  -3.247  -1.523  0.00  0.00    -0.146 I 
ENDROOT
TORSDOF 0
ENDMDL
