MODEL 1
REMARK minimizedAffinity 4.30230808
REMARK minimizedRMSD -1
REMARK  0 active torsions:
REMARK  status: ('A' for Active; 'I' for Inactive)
ROOT
ATOM      1  C   UNL d   1      -1.632  -3.953  -1.650  0.00  0.00     0.023 A 
ATOM      2  C1  UNL d   1      -0.679  -3.383  -2.494  0.00  0.00     0.003 A 
ATOM      3  C2  UNL d   1       0.136  -2.348  -2.031  0.00  0.00     0.048 A 
ATOM      4  C3  UNL d   1      -0.008  -1.888  -0.722  0.00  0.00     0.023 A 
ATOM      5  C4  UNL d   1      -0.960  -2.455   0.126  0.00  0.00     0.048 A 
ATOM      6  C5  UNL d   1      -1.773  -3.490  -0.342  0.00  0.00     0.003 A 
ATOM      7  I   UNL d   1       1.204  -0.347  -0.031  0.00  0.00    -0.146 I 
ENDROOT
TORSDOF 0
ENDMDL
