MODEL 1
REMARK minimizedAffinity -1.1839397
REMARK minimizedRMSD -1
REMARK  0 active torsions:
REMARK  status: ('A' for Active; 'I' for Inactive)
ROOT
ATOM      1  C   UNL d   1      -2.539   1.484   1.088  0.00  0.00     0.023 A 
ATOM      2  C1  UNL d   1      -1.662   2.568   1.036  0.00  0.00     0.003 A 
ATOM      3  C2  UNL d   1      -0.298   2.355   0.831  0.00  0.00     0.048 A 
ATOM      4  C3  UNL d   1       0.184   1.056   0.676  0.00  0.00     0.023 A 
ATOM      5  C4  UNL d   1      -0.690  -0.032   0.726  0.00  0.00     0.048 A 
ATOM      6  C5  UNL d   1      -2.053   0.186   0.932  0.00  0.00     0.003 A 
ATOM      7  I   UNL d   1       2.214   0.736   0.370  0.00  0.00    -0.146 I 
ENDROOT
TORSDOF 0
ENDMDL
