MODEL 1
REMARK minimizedAffinity 1.02780485
REMARK minimizedRMSD -1
REMARK  0 active torsions:
REMARK  status: ('A' for Active; 'I' for Inactive)
ROOT
ATOM      1  C   UNL d   1      -1.432   5.109  -5.992  0.00  0.00     0.023 A 
ATOM      2  C1  UNL d   1      -2.506   5.999  -5.988  0.00  0.00     0.003 A 
ATOM      3  C2  UNL d   1      -3.816   5.515  -5.990  0.00  0.00     0.048 A 
ATOM      4  C3  UNL d   1      -4.044   4.139  -5.996  0.00  0.00     0.023 A 
ATOM      5  C4  UNL d   1      -2.973   3.245  -5.999  0.00  0.00     0.048 A 
ATOM      6  C5  UNL d   1      -1.665   3.733  -5.998  0.00  0.00     0.003 A 
ATOM      7  I   UNL d   1      -5.993   3.416  -5.999  0.00  0.00    -0.146 I 
ENDROOT
TORSDOF 0
ENDMDL
