MODEL 1
REMARK minimizedAffinity -0.867578626
REMARK minimizedRMSD -1
REMARK  0 active torsions:
REMARK  status: ('A' for Active; 'I' for Inactive)
ROOT
ATOM      1  C   UNL d   1      -5.214   5.197  -5.996  0.00  0.00     0.023 A 
ATOM      2  C1  UNL d   1      -5.255   3.802  -5.998  0.00  0.00     0.003 A 
ATOM      3  C2  UNL d   1      -4.067   3.067  -5.999  0.00  0.00     0.048 A 
ATOM      4  C3  UNL d   1      -2.842   3.734  -5.998  0.00  0.00     0.023 A 
ATOM      5  C4  UNL d   1      -2.796   5.129  -5.995  0.00  0.00     0.048 A 
ATOM      6  C5  UNL d   1      -3.986   5.859  -5.995  0.00  0.00     0.003 A 
ATOM      7  I   UNL d   1      -1.073   2.642  -5.999  0.00  0.00    -0.146 I 
ENDROOT
TORSDOF 0
ENDMDL
