MODEL 1
REMARK minimizedAffinity -2.62919021
REMARK minimizedRMSD -1
REMARK  0 active torsions:
REMARK  status: ('A' for Active; 'I' for Inactive)
ROOT
ATOM      1  C   UNL d   1      -1.770   3.659  -5.003  0.00  0.00     0.023 A 
ATOM      2  C1  UNL d   1      -1.924   4.994  -4.629  0.00  0.00     0.003 A 
ATOM      3  C2  UNL d   1      -3.114   5.668  -4.915  0.00  0.00     0.048 A 
ATOM      4  C3  UNL d   1      -4.145   5.000  -5.573  0.00  0.00     0.023 A 
ATOM      5  C4  UNL d   1      -3.996   3.664  -5.949  0.00  0.00     0.048 A 
ATOM      6  C5  UNL d   1      -2.805   2.995  -5.662  0.00  0.00     0.003 A 
ATOM      7  I   UNL d   1      -5.917   6.000  -5.999  0.00  0.00    -0.146 I 
ENDROOT
TORSDOF 0
ENDMDL
