MODEL 1
REMARK minimizedAffinity 0.161763832
REMARK minimizedRMSD -1
REMARK  0 active torsions:
REMARK  status: ('A' for Active; 'I' for Inactive)
ROOT
ATOM      1  C   UNL d   1      -4.181   5.559  -5.998  0.00  0.00     0.023 A 
ATOM      2  C1  UNL d   1      -2.856   5.996  -5.998  0.00  0.00     0.003 A 
ATOM      3  C2  UNL d   1      -1.813   5.068  -5.999  0.00  0.00     0.048 A 
ATOM      4  C3  UNL d   1      -2.102   3.704  -5.999  0.00  0.00     0.023 A 
ATOM      5  C4  UNL d   1      -3.426   3.262  -6.000  0.00  0.00     0.048 A 
ATOM      6  C5  UNL d   1      -4.465   4.194  -5.999  0.00  0.00     0.003 A 
ATOM      7  I   UNL d   1      -0.552   2.319  -6.000  0.00  0.00    -0.146 I 
ENDROOT
TORSDOF 0
ENDMDL
