MODEL 1
REMARK minimizedAffinity 8.46360397
REMARK minimizedRMSD -1
REMARK  0 active torsions:
REMARK  status: ('A' for Active; 'I' for Inactive)
ROOT
ATOM      1  C   UNL d   1       0.434   2.450   1.303  0.00  0.00     0.023 A 
ATOM      2  C1  UNL d   1      -0.958   2.357   1.349  0.00  0.00     0.003 A 
ATOM      3  C2  UNL d   1      -1.592   1.169   0.981  0.00  0.00     0.048 A 
ATOM      4  C3  UNL d   1      -0.830   0.077   0.570  0.00  0.00     0.023 A 
ATOM      5  C4  UNL d   1       0.563   0.164   0.523  0.00  0.00     0.048 A 
ATOM      6  C5  UNL d   1       1.193   1.355   0.890  0.00  0.00     0.003 A 
ATOM      7  I   UNL d   1      -1.772  -1.693   0.022  0.00  0.00    -0.146 I 
ENDROOT
TORSDOF 0
ENDMDL
