MODEL 1
REMARK minimizedAffinity 6.59572458
REMARK minimizedRMSD -1
REMARK  0 active torsions:
REMARK  status: ('A' for Active; 'I' for Inactive)
ROOT
ATOM      1  C   UNL d   1      -1.192   1.905   0.680  0.00  0.00     0.023 A 
ATOM      2  C1  UNL d   1      -1.209   3.031   1.503  0.00  0.00     0.003 A 
ATOM      3  C2  UNL d   1      -0.029   3.479   2.101  0.00  0.00     0.048 A 
ATOM      4  C3  UNL d   1       1.165   2.795   1.870  0.00  0.00     0.023 A 
ATOM      5  C4  UNL d   1       1.186   1.668   1.047  0.00  0.00     0.048 A 
ATOM      6  C5  UNL d   1       0.004   1.225   0.452  0.00  0.00     0.003 A 
ATOM      7  I   UNL d   1       2.922   3.459   2.758  0.00  0.00    -0.146 I 
ENDROOT
TORSDOF 0
ENDMDL
