MODEL 1
REMARK minimizedAffinity 0.685174346
REMARK minimizedRMSD -1
REMARK  0 active torsions:
REMARK  status: ('A' for Active; 'I' for Inactive)
ROOT
ATOM      1  C   UNL d   1      -5.265   5.477  -5.540  0.00  0.00     0.023 A 
ATOM      2  C1  UNL d   1      -5.431   4.128  -5.856  0.00  0.00     0.003 A 
ATOM      3  C2  UNL d   1      -4.316   3.298  -5.988  0.00  0.00     0.048 A 
ATOM      4  C3  UNL d   1      -3.037   3.823  -5.803  0.00  0.00     0.023 A 
ATOM      5  C4  UNL d   1      -2.866   5.172  -5.486  0.00  0.00     0.048 A 
ATOM      6  C5  UNL d   1      -3.984   5.998  -5.355  0.00  0.00     0.003 A 
ATOM      7  I   UNL d   1      -1.376   2.590  -5.999  0.00  0.00    -0.146 I 
ENDROOT
TORSDOF 0
ENDMDL
