MODEL 1
REMARK minimizedAffinity 2.51453424
REMARK minimizedRMSD -1
REMARK  0 active torsions:
REMARK  status: ('A' for Active; 'I' for Inactive)
ROOT
ATOM      1  C   UNL d   1      -5.576   5.152  -5.958  0.00  0.00     0.023 A 
ATOM      2  C1  UNL d   1      -5.583   3.758  -5.987  0.00  0.00     0.003 A 
ATOM      3  C2  UNL d   1      -4.379   3.052  -6.000  0.00  0.00     0.048 A 
ATOM      4  C3  UNL d   1      -3.170   3.746  -5.982  0.00  0.00     0.023 A 
ATOM      5  C4  UNL d   1      -3.157   5.142  -5.951  0.00  0.00     0.048 A 
ATOM      6  C5  UNL d   1      -4.364   5.843  -5.940  0.00  0.00     0.003 A 
ATOM      7  I   UNL d   1      -1.375   2.698  -6.000  0.00  0.00    -0.146 I 
ENDROOT
TORSDOF 0
ENDMDL
