MODEL 1
REMARK minimizedAffinity 7.55453253
REMARK minimizedRMSD -1
REMARK  0 active torsions:
REMARK  status: ('A' for Active; 'I' for Inactive)
ROOT
ATOM      1  C   UNL d   1      -1.147   3.255   3.449  0.00  0.00     0.023 A 
ATOM      2  C1  UNL d   1      -0.688   2.850   2.195  0.00  0.00     0.003 A 
ATOM      3  C2  UNL d   1       0.682   2.837   1.923  0.00  0.00     0.048 A 
ATOM      4  C3  UNL d   1       1.587   3.230   2.908  0.00  0.00     0.023 A 
ATOM      5  C4  UNL d   1       1.132   3.635   4.164  0.00  0.00     0.048 A 
ATOM      6  C5  UNL d   1      -0.238   3.647   4.432  0.00  0.00     0.003 A 
ATOM      7  I   UNL d   1       3.625   3.212   2.505  0.00  0.00    -0.146 I 
ENDROOT
TORSDOF 0
ENDMDL
