MODEL 1
REMARK minimizedAffinity 2.56839561
REMARK minimizedRMSD -1
REMARK  0 active torsions:
REMARK  status: ('A' for Active; 'I' for Inactive)
ROOT
ATOM      1  C   UNL d   1       3.938   3.376  -4.420  0.00  0.00     0.023 A 
ATOM      2  C1  UNL d   1       2.967   2.634  -3.748  0.00  0.00     0.003 A 
ATOM      3  C2  UNL d   1       1.645   2.640  -4.199  0.00  0.00     0.048 A 
ATOM      4  C3  UNL d   1       1.302   3.390  -5.324  0.00  0.00     0.023 A 
ATOM      5  C4  UNL d   1       2.271   4.133  -6.000  0.00  0.00     0.048 A 
ATOM      6  C5  UNL d   1       3.590   4.125  -5.544  0.00  0.00     0.003 A 
ATOM      7  I   UNL d   1      -0.664   3.400  -5.997  0.00  0.00    -0.146 I 
ENDROOT
TORSDOF 0
ENDMDL
