MODEL 1
REMARK minimizedAffinity 4.46970224
REMARK minimizedRMSD -1
REMARK  0 active torsions:
REMARK  status: ('A' for Active; 'I' for Inactive)
ROOT
ATOM      1  C   UNL d   1       1.842   2.847   2.430  0.00  0.00     0.023 A 
ATOM      2  C1  UNL d   1       1.787   1.863   1.443  0.00  0.00     0.003 A 
ATOM      3  C2  UNL d   1       0.552   1.432   0.953  0.00  0.00     0.048 A 
ATOM      4  C3  UNL d   1      -0.623   1.990   1.455  0.00  0.00     0.023 A 
ATOM      5  C4  UNL d   1      -0.573   2.975   2.442  0.00  0.00     0.048 A 
ATOM      6  C5  UNL d   1       0.664   3.402   2.929  0.00  0.00     0.003 A 
ATOM      7  I   UNL d   1      -2.462   1.350   0.727  0.00  0.00    -0.146 I 
ENDROOT
TORSDOF 0
ENDMDL
