MODEL 1
REMARK minimizedAffinity 2.77117777
REMARK minimizedRMSD -1
REMARK  0 active torsions:
REMARK  status: ('A' for Active; 'I' for Inactive)
ROOT
ATOM      1  C   UNL d   1      -0.028   4.572  -5.960  0.00  0.00     0.023 A 
ATOM      2  C1  UNL d   1      -0.305   3.205  -5.982  0.00  0.00     0.003 A 
ATOM      3  C2  UNL d   1      -1.628   2.759  -5.993  0.00  0.00     0.048 A 
ATOM      4  C3  UNL d   1      -2.670   3.686  -5.983  0.00  0.00     0.023 A 
ATOM      5  C4  UNL d   1      -2.398   5.055  -5.962  0.00  0.00     0.048 A 
ATOM      6  C5  UNL d   1      -1.074   5.496  -5.950  0.00  0.00     0.003 A 
ATOM      7  I   UNL d   1      -4.640   3.025  -6.000  0.00  0.00    -0.146 I 
ENDROOT
TORSDOF 0
ENDMDL
