MODEL 1
REMARK minimizedAffinity -0.0426127575
REMARK minimizedRMSD -1
REMARK  0 active torsions:
REMARK  status: ('A' for Active; 'I' for Inactive)
ROOT
ATOM      1  C   UNL d   1      -0.528   1.163  -0.015  0.00  0.00     0.023 A 
ATOM      2  C1  UNL d   1      -0.834   2.353   0.645  0.00  0.00     0.003 A 
ATOM      3  C2  UNL d   1       0.161   3.045   1.337  0.00  0.00     0.048 A 
ATOM      4  C3  UNL d   1       1.462   2.542   1.364  0.00  0.00     0.023 A 
ATOM      5  C4  UNL d   1       1.773   1.352   0.704  0.00  0.00     0.048 A 
ATOM      6  C5  UNL d   1       0.774   0.663   0.015  0.00  0.00     0.003 A 
ATOM      7  I   UNL d   1       2.945   3.571   2.393  0.00  0.00    -0.146 I 
ENDROOT
TORSDOF 0
ENDMDL
