MODEL 1
REMARK minimizedAffinity -3.72096395
REMARK minimizedRMSD -1
REMARK  0 active torsions:
REMARK  status: ('A' for Active; 'I' for Inactive)
ROOT
ATOM      1  C1  DEN d   1      -0.013  -1.013  -0.513  0.00  0.00     0.130 A 
ATOM      2  C2  DEN d   1      -0.704  -1.345   0.730  0.00  0.00    -0.031 A 
ATOM      3  C3  DEN d   1      -0.918  -0.092   1.482  0.00  0.00     0.027 A 
ATOM      4  C4  DEN d   1      -0.255   2.317   0.844  0.00  0.00     0.027 A 
ATOM      5  C5  DEN d   1       0.361   3.097  -0.110  0.00  0.00    -0.003 A 
ATOM      6  C6  DEN d   1       0.921   2.561  -1.240  0.00  0.00     0.001 A 
ATOM      7  C7  DEN d   1       0.836   1.213  -1.466  0.00  0.00     0.017 A 
ATOM      8  C8  DEN d   1       0.223   0.420  -0.505  0.00  0.00    -0.094 A 
ATOM      9  C9  DEN d   1      -0.348   0.981   0.625  0.00  0.00    -0.072 A 
ENDROOT
TORSDOF 0
ENDMDL
