MODEL 1
REMARK minimizedAffinity -5.06900644
REMARK minimizedRMSD -1
REMARK  0 active torsions:
REMARK  status: ('A' for Active; 'I' for Inactive)
ROOT
ATOM      1  C1  DEN d   1      -1.011   0.387  -0.751  0.00  0.00     0.130 A 
ATOM      2  C2  DEN d   1      -0.541  -0.987  -0.588  0.00  0.00    -0.031 A 
ATOM      3  C3  DEN d   1       0.849  -0.938  -0.092  0.00  0.00     0.027 A 
ATOM      4  C4  DEN d   1       2.310   1.119   0.442  0.00  0.00     0.027 A 
ATOM      5  C5  DEN d   1       2.350   2.496   0.450  0.00  0.00    -0.003 A 
ATOM      6  C6  DEN d   1       1.294   3.259   0.030  0.00  0.00     0.001 A 
ATOM      7  C7  DEN d   1       0.135   2.651  -0.374  0.00  0.00     0.017 A 
ATOM      8  C8  DEN d   1       0.089   1.263  -0.392  0.00  0.00    -0.094 A 
ATOM      9  C9  DEN d   1       1.163   0.509   0.048  0.00  0.00    -0.072 A 
ENDROOT
TORSDOF 0
ENDMDL
