MODEL 1
REMARK minimizedAffinity -2.40288925
REMARK minimizedRMSD -1
REMARK  0 active torsions:
REMARK  status: ('A' for Active; 'I' for Inactive)
ROOT
ATOM      1  C1  DEN d   1       0.540  -0.975  -1.429  0.00  0.00     0.130 A 
ATOM      2  C2  DEN d   1      -0.106  -2.119  -0.791  0.00  0.00    -0.031 A 
ATOM      3  C3  DEN d   1      -1.006  -1.605   0.261  0.00  0.00     0.027 A 
ATOM      4  C4  DEN d   1      -1.465   0.836   0.956  0.00  0.00     0.027 A 
ATOM      5  C5  DEN d   1      -1.142   2.152   0.710  0.00  0.00    -0.003 A 
ATOM      6  C6  DEN d   1      -0.219   2.514  -0.235  0.00  0.00     0.001 A 
ATOM      7  C7  DEN d   1       0.382   1.550  -1.000  0.00  0.00     0.017 A 
ATOM      8  C8  DEN d   1       0.067   0.220  -0.754  0.00  0.00    -0.094 A 
ATOM      9  C9  DEN d   1      -0.878  -0.125   0.198  0.00  0.00    -0.072 A 
ENDROOT
TORSDOF 0
ENDMDL
