MODEL 1
REMARK minimizedAffinity -4.94466829
REMARK minimizedRMSD -1
REMARK  0 active torsions:
REMARK  status: ('A' for Active; 'I' for Inactive)
ROOT
ATOM      1  C1  DEN d   1       2.701   0.700   0.072  0.00  0.00     0.130 A 
ATOM      2  C2  DEN d   1       2.565  -0.733   0.319  0.00  0.00    -0.031 A 
ATOM      3  C3  DEN d   1       1.127  -1.035   0.474  0.00  0.00     0.027 A 
ATOM      4  C4  DEN d   1      -0.889   0.568   0.352  0.00  0.00     0.027 A 
ATOM      5  C5  DEN d   1      -1.272   1.880   0.174  0.00  0.00    -0.003 A 
ATOM      6  C6  DEN d   1      -0.363   2.886  -0.015  0.00  0.00     0.001 A 
ATOM      7  C7  DEN d   1       0.974   2.591  -0.076  0.00  0.00     0.017 A 
ATOM      8  C8  DEN d   1       1.368   1.273   0.110  0.00  0.00    -0.094 A 
ATOM      9  C9  DEN d   1       0.432   0.267   0.288  0.00  0.00    -0.072 A 
ENDROOT
TORSDOF 0
ENDMDL
