MODEL 1
REMARK minimizedAffinity -3.89654469
REMARK minimizedRMSD -1
REMARK  0 active torsions:
REMARK  status: ('A' for Active; 'I' for Inactive)
ROOT
ATOM      1  C1  DEN d   1       1.111   2.052  -0.680  0.00  0.00     0.130 A 
ATOM      2  C2  DEN d   1       0.410   3.032   0.145  0.00  0.00    -0.031 A 
ATOM      3  C3  DEN d   1      -0.629   2.321   0.916  0.00  0.00     0.027 A 
ATOM      4  C4  DEN d   1      -1.215  -0.191   0.916  0.00  0.00     0.027 A 
ATOM      5  C5  DEN d   1      -0.903  -1.416   0.369  0.00  0.00    -0.003 A 
ATOM      6  C6  DEN d   1       0.071  -1.565  -0.582  0.00  0.00     0.001 A 
ATOM      7  C7  DEN d   1       0.799  -0.476  -0.984  0.00  0.00     0.017 A 
ATOM      8  C8  DEN d   1       0.485   0.764  -0.443  0.00  0.00    -0.094 A 
ATOM      9  C9  DEN d   1      -0.494   0.891   0.527  0.00  0.00    -0.072 A 
ENDROOT
TORSDOF 0
ENDMDL
