MODEL 1
REMARK minimizedAffinity -3.69319487
REMARK minimizedRMSD -1
REMARK  0 active torsions:
REMARK  status: ('A' for Active; 'I' for Inactive)
ROOT
ATOM      1  C1  DEN d   1      -1.541  -0.013   1.099  0.00  0.00     0.130 A 
ATOM      2  C2  DEN d   1      -1.146  -1.169   0.299  0.00  0.00    -0.031 A 
ATOM      3  C3  DEN d   1      -0.131  -0.723  -0.677  0.00  0.00     0.027 A 
ATOM      4  C4  DEN d   1       0.866   1.631  -1.020  0.00  0.00     0.027 A 
ATOM      5  C5  DEN d   1       0.833   2.938  -0.587  0.00  0.00    -0.003 A 
ATOM      6  C6  DEN d   1      -0.011   3.357   0.407  0.00  0.00     0.001 A 
ATOM      7  C7  DEN d   1      -0.825   2.450   1.033  0.00  0.00     0.017 A 
ATOM      8  C8  DEN d   1      -0.803   1.132   0.597  0.00  0.00    -0.094 A 
ATOM      9  C9  DEN d   1       0.066   0.726  -0.402  0.00  0.00    -0.072 A 
ENDROOT
TORSDOF 0
ENDMDL
