MODEL 1
REMARK minimizedAffinity -4.14313316
REMARK minimizedRMSD -1
REMARK  0 active torsions:
REMARK  status: ('A' for Active; 'I' for Inactive)
ROOT
ATOM      1  C1  DEN d   1      -1.124  -0.186   1.040  0.00  0.00     0.130 A 
ATOM      2  C2  DEN d   1      -0.489  -1.302   0.343  0.00  0.00    -0.031 A 
ATOM      3  C3  DEN d   1       0.585  -0.755  -0.511  0.00  0.00     0.027 A 
ATOM      4  C4  DEN d   1       1.326   1.697  -0.816  0.00  0.00     0.027 A 
ATOM      5  C5  DEN d   1       1.078   2.999  -0.442  0.00  0.00    -0.003 A 
ATOM      6  C6  DEN d   1       0.065   3.331   0.418  0.00  0.00     0.001 A 
ATOM      7  C7  DEN d   1      -0.709   2.345   0.969  0.00  0.00     0.017 A 
ATOM      8  C8  DEN d   1      -0.470   1.030   0.592  0.00  0.00    -0.094 A 
ATOM      9  C9  DEN d   1       0.567   0.713  -0.270  0.00  0.00    -0.072 A 
ENDROOT
TORSDOF 0
ENDMDL
