MODEL 1
REMARK minimizedAffinity 2.27575231
REMARK minimizedRMSD -1
REMARK  0 active torsions:
REMARK  status: ('A' for Active; 'I' for Inactive)
ROOT
ATOM      1  C1  DEN d   1       2.305   1.389   0.551  0.00  0.00     0.130 A 
ATOM      2  C2  DEN d   1       2.578  -0.045   0.506  0.00  0.00    -0.031 A 
ATOM      3  C3  DEN d   1       1.297  -0.760   0.671  0.00  0.00     0.027 A 
ATOM      4  C4  DEN d   1      -1.073   0.210   0.985  0.00  0.00     0.027 A 
ATOM      5  C5  DEN d   1      -1.804   1.371   1.101  0.00  0.00    -0.003 A 
ATOM      6  C6  DEN d   1      -1.218   2.609   1.075  0.00  0.00     0.001 A 
ATOM      7  C7  DEN d   1       0.134   2.715   0.885  0.00  0.00     0.017 A 
ATOM      8  C8  DEN d   1       0.880   1.549   0.776  0.00  0.00    -0.094 A 
ATOM      9  C9  DEN d   1       0.267   0.307   0.792  0.00  0.00    -0.072 A 
ENDROOT
TORSDOF 0
ENDMDL
