MODEL 1
REMARK minimizedAffinity -2.50261045
REMARK minimizedRMSD -1
REMARK  0 active torsions:
REMARK  status: ('A' for Active; 'I' for Inactive)
ROOT
ATOM      1  C1  DEN d   1      -1.228   2.139   0.191  0.00  0.00     0.130 A 
ATOM      2  C2  DEN d   1      -0.326   3.286   0.122  0.00  0.00    -0.031 A 
ATOM      3  C3  DEN d   1       1.060   2.780   0.167  0.00  0.00     0.027 A 
ATOM      4  C4  DEN d   1       1.895   0.345   0.333  0.00  0.00     0.027 A 
ATOM      5  C5  DEN d   1       1.503  -0.972   0.429  0.00  0.00    -0.003 A 
ATOM      6  C6  DEN d   1       0.185  -1.339   0.487  0.00  0.00     0.001 A 
ATOM      7  C7  DEN d   1      -0.791  -0.381   0.403  0.00  0.00     0.017 A 
ATOM      8  C8  DEN d   1      -0.403   0.950   0.313  0.00  0.00    -0.094 A 
ATOM      9  C9  DEN d   1       0.934   1.300   0.244  0.00  0.00    -0.072 A 
ENDROOT
TORSDOF 0
ENDMDL
