MODEL 1
REMARK minimizedAffinity -1.92316771
REMARK minimizedRMSD -1
REMARK  0 active torsions:
REMARK  status: ('A' for Active; 'I' for Inactive)
ROOT
ATOM      1  C1  DEN d   1      -0.453  -0.212   1.315  0.00  0.00     0.130 A 
ATOM      2  C2  DEN d   1      -0.419  -1.225   0.263  0.00  0.00    -0.031 A 
ATOM      3  C3  DEN d   1      -0.185  -0.539  -1.024  0.00  0.00     0.027 A 
ATOM      4  C4  DEN d   1       0.131   1.978  -1.486  0.00  0.00     0.027 A 
ATOM      5  C5  DEN d   1       0.171   3.229  -0.911  0.00  0.00    -0.003 A 
ATOM      6  C6  DEN d   1      -0.027   3.422   0.431  0.00  0.00     0.001 A 
ATOM      7  C7  DEN d   1      -0.228   2.343   1.249  0.00  0.00     0.017 A 
ATOM      8  C8  DEN d   1      -0.277   1.079   0.675  0.00  0.00    -0.094 A 
ATOM      9  C9  DEN d   1      -0.063   0.903  -0.681  0.00  0.00    -0.072 A 
ENDROOT
TORSDOF 0
ENDMDL
