MODEL 1
REMARK minimizedAffinity -5.28465176
REMARK minimizedRMSD -1
REMARK  0 active torsions:
REMARK  status: ('A' for Active; 'I' for Inactive)
ROOT
ATOM      1  C1  DEN d   1       0.887  -0.558   0.125  0.00  0.00     0.130 A 
ATOM      2  C2  DEN d   1      -0.377  -1.061   0.655  0.00  0.00    -0.031 A 
ATOM      3  C3  DEN d   1      -1.286   0.089   0.835  0.00  0.00     0.027 A 
ATOM      4  C4  DEN d   1      -0.862   2.585   0.344  0.00  0.00     0.027 A 
ATOM      5  C5  DEN d   1       0.065   3.499  -0.105  0.00  0.00    -0.003 A 
ATOM      6  C6  DEN d   1       1.332   3.132  -0.474  0.00  0.00     0.001 A 
ATOM      7  C7  DEN d   1       1.693   1.811  -0.443  0.00  0.00     0.017 A 
ATOM      8  C8  DEN d   1       0.765   0.885   0.016  0.00  0.00    -0.094 A 
ATOM      9  C9  DEN d   1      -0.515   1.274   0.372  0.00  0.00    -0.072 A 
ENDROOT
TORSDOF 0
ENDMDL
