MODEL 1
REMARK minimizedAffinity -3.67166376
REMARK minimizedRMSD -1
REMARK  0 active torsions:
REMARK  status: ('A' for Active; 'I' for Inactive)
ROOT
ATOM      1  C1  DEN d   1       2.190  -0.946   0.880  0.00  0.00     0.130 A 
ATOM      2  C2  DEN d   1       3.426  -0.170   0.831  0.00  0.00    -0.031 A 
ATOM      3  C3  DEN d   1       3.117   1.145   0.235  0.00  0.00     0.027 A 
ATOM      4  C4  DEN d   1       0.855   2.053  -0.608  0.00  0.00     0.027 A 
ATOM      5  C5  DEN d   1      -0.478   1.756  -0.785  0.00  0.00    -0.003 A 
ATOM      6  C6  DEN d   1      -1.004   0.535  -0.454  0.00  0.00     0.001 A 
ATOM      7  C7  DEN d   1      -0.201  -0.418   0.114  0.00  0.00     0.017 A 
ATOM      8  C8  DEN d   1       1.145  -0.129   0.289  0.00  0.00    -0.094 A 
ATOM      9  C9  DEN d   1       1.656   1.115  -0.041  0.00  0.00    -0.072 A 
ENDROOT
TORSDOF 0
ENDMDL
