MODEL 1
REMARK minimizedAffinity -4.52925301
REMARK minimizedRMSD -1
REMARK  0 active torsions:
REMARK  status: ('A' for Active; 'I' for Inactive)
ROOT
ATOM      1  C1  DEN d   1       0.350  -0.892  -0.143  0.00  0.00     0.130 A 
ATOM      2  C2  DEN d   1      -0.683  -1.348   0.783  0.00  0.00    -0.031 A 
ATOM      3  C3  DEN d   1      -1.361  -0.157   1.332  0.00  0.00     0.027 A 
ATOM      4  C4  DEN d   1      -0.918   2.335   0.837  0.00  0.00     0.027 A 
ATOM      5  C5  DEN d   1      -0.134   3.217   0.127  0.00  0.00    -0.003 A 
ATOM      6  C6  DEN d   1       0.882   2.795  -0.691  0.00  0.00     0.001 A 
ATOM      7  C7  DEN d   1       1.110   1.454  -0.853  0.00  0.00     0.017 A 
ATOM      8  C8  DEN d   1       0.327   0.560  -0.134  0.00  0.00    -0.094 A 
ATOM      9  C9  DEN d   1      -0.702   1.005   0.678  0.00  0.00    -0.072 A 
ENDROOT
TORSDOF 0
ENDMDL
