MODEL 1
REMARK minimizedAffinity -3.59358931
REMARK minimizedRMSD -1
REMARK  0 active torsions:
REMARK  status: ('A' for Active; 'I' for Inactive)
ROOT
ATOM      1  C   UNL d   1      -2.273  -0.105   1.019  0.00  0.00     0.078 C 
ATOM      2  C1  UNL d   1      -0.943  -0.355   0.373  0.00  0.00    -0.077 A 
ATOM      3  C2  UNL d   1       0.202  -0.584   1.146  0.00  0.00    -0.001 A 
ATOM      4  C3  UNL d   1       1.436  -0.806   0.531  0.00  0.00     0.003 A 
ATOM      5  C4  UNL d   1       1.536  -0.800  -0.858  0.00  0.00    -0.005 A 
ATOM      6  C5  UNL d   1       0.402  -0.571  -1.635  0.00  0.00     0.003 A 
ATOM      7  C6  UNL d   1      -0.832  -0.349  -1.023  0.00  0.00    -0.001 A 
ENDROOT
TORSDOF 0
ENDMDL
