MODEL 1
REMARK minimizedAffinity -3.36862803
REMARK minimizedRMSD -1
REMARK  0 active torsions:
REMARK  status: ('A' for Active; 'I' for Inactive)
ROOT
ATOM      1  C   UNL d   1       0.109   0.077  -1.112  0.00  0.00     0.078 C 
ATOM      2  C1  UNL d   1       0.426  -0.086   0.344  0.00  0.00    -0.077 A 
ATOM      3  C2  UNL d   1      -0.574  -0.417   1.267  0.00  0.00    -0.001 A 
ATOM      4  C3  UNL d   1      -0.266  -0.556   2.622  0.00  0.00     0.003 A 
ATOM      5  C4  UNL d   1       1.041  -0.362   3.066  0.00  0.00    -0.005 A 
ATOM      6  C5  UNL d   1       2.041  -0.030   2.155  0.00  0.00     0.003 A 
ATOM      7  C6  UNL d   1       1.736   0.109   0.800  0.00  0.00    -0.001 A 
ENDROOT
TORSDOF 0
ENDMDL
