MODEL 1
REMARK minimizedAffinity -3.02739787
REMARK minimizedRMSD -1
REMARK  0 active torsions:
REMARK  status: ('A' for Active; 'I' for Inactive)
ROOT
ATOM      1  C   UNL d   1       1.426  -0.974   2.802  0.00  0.00     0.078 C 
ATOM      2  C1  UNL d   1       1.081  -0.750   1.360  0.00  0.00    -0.077 A 
ATOM      3  C2  UNL d   1       1.948  -1.156   0.339  0.00  0.00    -0.001 A 
ATOM      4  C3  UNL d   1       1.618  -0.932  -0.999  0.00  0.00     0.003 A 
ATOM      5  C4  UNL d   1       0.421  -0.299  -1.328  0.00  0.00    -0.005 A 
ATOM      6  C5  UNL d   1      -0.447   0.111  -0.318  0.00  0.00     0.003 A 
ATOM      7  C6  UNL d   1      -0.119  -0.112   1.020  0.00  0.00    -0.001 A 
ENDROOT
TORSDOF 0
ENDMDL
