MODEL 1
REMARK minimizedAffinity -5.55011082
REMARK minimizedRMSD -1
REMARK  0 active torsions:
REMARK  status: ('A' for Active; 'I' for Inactive)
ROOT
ATOM      1  C   UNL d   1      -0.304   0.918  -1.295  0.00  0.00     0.078 C 
ATOM      2  C1  UNL d   1      -0.256   0.245   0.044  0.00  0.00    -0.077 A 
ATOM      3  C2  UNL d   1      -1.420  -0.252   0.643  0.00  0.00    -0.001 A 
ATOM      4  C3  UNL d   1      -1.362  -0.867   1.895  0.00  0.00     0.003 A 
ATOM      5  C4  UNL d   1      -0.143  -0.990   2.558  0.00  0.00    -0.005 A 
ATOM      6  C5  UNL d   1       1.020  -0.497   1.971  0.00  0.00     0.003 A 
ATOM      7  C6  UNL d   1       0.964   0.119   0.720  0.00  0.00    -0.001 A 
ENDROOT
TORSDOF 0
ENDMDL
