MODEL 1
REMARK minimizedAffinity -5.04476213
REMARK minimizedRMSD -1
REMARK  0 active torsions:
REMARK  status: ('A' for Active; 'I' for Inactive)
ROOT
ATOM      1  C   UNL d   1       1.127  -0.753   3.379  0.00  0.00     0.078 C 
ATOM      2  C1  UNL d   1       0.494  -0.450   2.054  0.00  0.00    -0.077 A 
ATOM      3  C2  UNL d   1      -0.895  -0.316   1.932  0.00  0.00    -0.001 A 
ATOM      4  C3  UNL d   1      -1.471  -0.043   0.690  0.00  0.00     0.003 A 
ATOM      5  C4  UNL d   1      -0.667   0.098  -0.439  0.00  0.00    -0.005 A 
ATOM      6  C5  UNL d   1       0.716  -0.036  -0.327  0.00  0.00     0.003 A 
ATOM      7  C6  UNL d   1       1.294  -0.309   0.914  0.00  0.00    -0.001 A 
ENDROOT
TORSDOF 0
ENDMDL
