MODEL 1
REMARK minimizedAffinity -5.47917509
REMARK minimizedRMSD -1
REMARK  0 active torsions:
REMARK  status: ('A' for Active; 'I' for Inactive)
ROOT
ATOM      1  C   UNL d   1      -0.160   0.349  -1.023  0.00  0.00     0.078 C 
ATOM      2  C1  UNL d   1       0.179  -0.079   0.374  0.00  0.00    -0.077 A 
ATOM      3  C2  UNL d   1       1.428   0.216   0.935  0.00  0.00    -0.001 A 
ATOM      4  C3  UNL d   1       1.734  -0.197   2.233  0.00  0.00     0.003 A 
ATOM      5  C4  UNL d   1       0.798  -0.909   2.979  0.00  0.00    -0.005 A 
ATOM      6  C5  UNL d   1      -0.446  -1.210   2.429  0.00  0.00     0.003 A 
ATOM      7  C6  UNL d   1      -0.755  -0.797   1.131  0.00  0.00    -0.001 A 
ENDROOT
TORSDOF 0
ENDMDL
