MODEL 1
REMARK minimizedAffinity -5.29744053
REMARK minimizedRMSD -1
REMARK  0 active torsions:
REMARK  status: ('A' for Active; 'I' for Inactive)
ROOT
ATOM      1  C   UNL d   1       1.215  -0.822   3.261  0.00  0.00     0.078 C 
ATOM      2  C1  UNL d   1       0.513  -0.560   1.963  0.00  0.00    -0.077 A 
ATOM      3  C2  UNL d   1      -0.884  -0.487   1.900  0.00  0.00    -0.001 A 
ATOM      4  C3  UNL d   1      -1.525  -0.252   0.683  0.00  0.00     0.003 A 
ATOM      5  C4  UNL d   1      -0.777  -0.089  -0.482  0.00  0.00    -0.005 A 
ATOM      6  C5  UNL d   1       0.614  -0.163  -0.430  0.00  0.00     0.003 A 
ATOM      7  C6  UNL d   1       1.256  -0.398   0.787  0.00  0.00    -0.001 A 
ENDROOT
TORSDOF 0
ENDMDL
