MODEL 1
REMARK minimizedAffinity -2.83850121
REMARK minimizedRMSD -1
REMARK  0 active torsions:
REMARK  status: ('A' for Active; 'I' for Inactive)
ROOT
ATOM      1  C   UNL d   1       0.387  -0.431  -0.414  0.00  0.00     0.078 C 
ATOM      2  C1  UNL d   1      -0.030   0.438  -1.563  0.00  0.00    -0.077 A 
ATOM      3  C2  UNL d   1      -1.377   0.755  -1.776  0.00  0.00    -0.001 A 
ATOM      4  C3  UNL d   1      -1.752   1.556  -2.856  0.00  0.00     0.003 A 
ATOM      5  C4  UNL d   1      -0.785   2.046  -3.732  0.00  0.00    -0.005 A 
ATOM      6  C5  UNL d   1       0.557   1.734  -3.530  0.00  0.00     0.003 A 
ATOM      7  C6  UNL d   1       0.934   0.933  -2.450  0.00  0.00    -0.001 A 
ENDROOT
TORSDOF 0
ENDMDL
