MODEL 1
REMARK minimizedAffinity -4.39554691
REMARK minimizedRMSD -1
REMARK  0 active torsions:
REMARK  status: ('A' for Active; 'I' for Inactive)
ROOT
ATOM      1  C   UNL d   1      -1.769  -0.269   1.091  0.00  0.00     0.078 C 
ATOM      2  C1  UNL d   1      -0.752  -1.306   1.462  0.00  0.00    -0.077 A 
ATOM      3  C2  UNL d   1       0.191  -1.758   0.530  0.00  0.00    -0.001 A 
ATOM      4  C3  UNL d   1       1.125  -2.731   0.887  0.00  0.00     0.003 A 
ATOM      5  C4  UNL d   1       1.126  -3.263   2.175  0.00  0.00    -0.005 A 
ATOM      6  C5  UNL d   1       0.190  -2.821   3.108  0.00  0.00     0.003 A 
ATOM      7  C6  UNL d   1      -0.745  -1.848   2.754  0.00  0.00    -0.001 A 
ENDROOT
TORSDOF 0
ENDMDL
