MODEL 1
REMARK minimizedAffinity -3.6961925
REMARK minimizedRMSD -1
REMARK  0 active torsions:
REMARK  status: ('A' for Active; 'I' for Inactive)
ROOT
ATOM      1  C   UNL d   1      -0.727  -0.343  -0.987  0.00  0.00     0.078 C 
ATOM      2  C1  UNL d   1      -0.109  -0.429   0.377  0.00  0.00    -0.077 A 
ATOM      3  C2  UNL d   1       1.266  -0.240   0.559  0.00  0.00    -0.001 A 
ATOM      4  C3  UNL d   1       1.829  -0.333   1.832  0.00  0.00     0.003 A 
ATOM      5  C4  UNL d   1       1.025  -0.617   2.934  0.00  0.00    -0.005 A 
ATOM      6  C5  UNL d   1      -0.345  -0.809   2.763  0.00  0.00     0.003 A 
ATOM      7  C6  UNL d   1      -0.909  -0.716   1.490  0.00  0.00    -0.001 A 
ENDROOT
TORSDOF 0
ENDMDL
