MODEL 1
REMARK minimizedAffinity -4.04694605
REMARK minimizedRMSD -1
REMARK  0 active torsions:
REMARK  status: ('A' for Active; 'I' for Inactive)
ROOT
ATOM      1  C   UNL d   1      -3.473   2.513  -2.876  0.00  0.00     0.078 C 
ATOM      2  C1  UNL d   1      -2.088   2.122  -2.455  0.00  0.00    -0.077 A 
ATOM      3  C2  UNL d   1      -0.981   2.909  -2.798  0.00  0.00    -0.001 A 
ATOM      4  C3  UNL d   1       0.304   2.528  -2.408  0.00  0.00     0.003 A 
ATOM      5  C4  UNL d   1       0.494   1.358  -1.674  0.00  0.00    -0.005 A 
ATOM      6  C5  UNL d   1      -0.600   0.568  -1.331  0.00  0.00     0.003 A 
ATOM      7  C6  UNL d   1      -1.886   0.947  -1.720  0.00  0.00    -0.001 A 
ENDROOT
TORSDOF 0
ENDMDL
