MODEL 1
REMARK minimizedAffinity -5.45645571
REMARK minimizedRMSD -1
REMARK  0 active torsions:
REMARK  status: ('A' for Active; 'I' for Inactive)
ROOT
ATOM      1  C   UNL d   1      -0.756   0.207  -0.705  0.00  0.00     0.078 C 
ATOM      2  C1  UNL d   1      -0.088  -0.471   0.454  0.00  0.00    -0.077 A 
ATOM      3  C2  UNL d   1       1.289  -0.725   0.446  0.00  0.00    -0.001 A 
ATOM      4  C3  UNL d   1       1.895  -1.366   1.527  0.00  0.00     0.003 A 
ATOM      5  C4  UNL d   1       1.132  -1.759   2.625  0.00  0.00    -0.005 A 
ATOM      6  C5  UNL d   1      -0.239  -1.513   2.641  0.00  0.00     0.003 A 
ATOM      7  C6  UNL d   1      -0.847  -0.872   1.561  0.00  0.00    -0.001 A 
ENDROOT
TORSDOF 0
ENDMDL
