MODEL 1
REMARK minimizedAffinity 5.48266172
REMARK minimizedRMSD -1
REMARK  1 active torsions:
REMARK  status: ('A' for Active; 'I' for Inactive)
REMARK    1  A    between atoms: C1_2  and  C2_3 
ROOT
ATOM      1  C2  UNL d   1      -2.611   0.174   2.093  0.00  0.00    -0.073 A 
ATOM      2  C3  UNL d   1      -2.419   0.720   3.368  0.00  0.00    -0.002 A 
ATOM      3  C4  UNL d   1      -1.497   0.150   4.247  0.00  0.00     0.004 A 
ATOM      4  C5  UNL d   1      -0.754  -0.965   3.860  0.00  0.00    -0.004 A 
ATOM      5  C6  UNL d   1      -0.923  -1.518   2.586  0.00  0.00    -0.075 A 
ATOM      6  C7  UNL d   1      -0.134  -2.719   2.155  0.00  0.00     0.076 C 
ATOM      7  C8  UNL d   1      -1.853  -0.941   1.710  0.00  0.00     0.001 A 
ENDROOT
BRANCH   1   8
ATOM      8  C1  UNL d   1      -3.600   0.790   1.138  0.00  0.00     0.053 C 
ATOM      9  C   UNL d   1      -4.438  -0.262   0.429  0.00  0.00     0.018 C 
ENDBRANCH   1   8
TORSDOF 1
ENDMDL
