MODEL 1
REMARK minimizedAffinity 4.7416687
REMARK minimizedRMSD -1
REMARK  1 active torsions:
REMARK  status: ('A' for Active; 'I' for Inactive)
REMARK    1  A    between atoms: C1_2  and  C2_3 
ROOT
ATOM      1  C2  UNL d   1      -3.259   1.269   4.113  0.00  0.00    -0.073 A 
ATOM      2  C3  UNL d   1      -2.025   0.612   4.186  0.00  0.00    -0.002 A 
ATOM      3  C4  UNL d   1      -1.656  -0.305   3.201  0.00  0.00     0.004 A 
ATOM      4  C5  UNL d   1      -2.511  -0.568   2.131  0.00  0.00    -0.004 A 
ATOM      5  C6  UNL d   1      -3.743   0.087   2.034  0.00  0.00    -0.075 A 
ATOM      6  C7  UNL d   1      -4.675  -0.187   0.891  0.00  0.00     0.076 C 
ATOM      7  C8  UNL d   1      -4.108   1.005   3.029  0.00  0.00     0.001 A 
ENDROOT
BRANCH   1   8
ATOM      8  C1  UNL d   1      -3.659   2.265   5.171  0.00  0.00     0.053 C 
ATOM      9  C   UNL d   1      -5.169   2.355   5.326  0.00  0.00     0.018 C 
ENDBRANCH   1   8
TORSDOF 1
ENDMDL
