MODEL 1
REMARK minimizedAffinity 9.2884798
REMARK minimizedRMSD -1
REMARK  1 active torsions:
REMARK  status: ('A' for Active; 'I' for Inactive)
REMARK    1  A    between atoms: C1_2  and  C2_3 
ROOT
ATOM      1  C2  UNL d   1      -4.309   2.036   5.240  0.00  0.00    -0.073 A 
ATOM      2  C3  UNL d   1      -4.305   2.029   3.840  0.00  0.00    -0.002 A 
ATOM      3  C4  UNL d   1      -3.284   1.385   3.141  0.00  0.00     0.004 A 
ATOM      4  C5  UNL d   1      -2.261   0.736   3.832  0.00  0.00    -0.004 A 
ATOM      5  C6  UNL d   1      -2.254   0.721   5.231  0.00  0.00    -0.075 A 
ATOM      6  C7  UNL d   1      -1.160   0.029   5.990  0.00  0.00     0.076 C 
ATOM      7  C8  UNL d   1      -3.282   1.373   5.926  0.00  0.00     0.001 A 
ENDROOT
BRANCH   1   8
ATOM      8  C1  UNL d   1      -5.413   2.725   5.999  0.00  0.00     0.053 C 
ATOM      9  C   UNL d   1      -5.254   4.237   5.989  0.00  0.00     0.018 C 
ENDBRANCH   1   8
TORSDOF 1
ENDMDL
