MODEL 1
REMARK minimizedAffinity 12.1076527
REMARK minimizedRMSD -1
REMARK  1 active torsions:
REMARK  status: ('A' for Active; 'I' for Inactive)
REMARK    1  A    between atoms: C1_2  and  C2_3 
ROOT
ATOM      1  C2  UNL d   1      -4.684   2.372   4.837  0.00  0.00    -0.073 A 
ATOM      2  C3  UNL d   1      -5.789   1.972   4.077  0.00  0.00    -0.002 A 
ATOM      3  C4  UNL d   1      -5.627   1.094   3.005  0.00  0.00     0.004 A 
ATOM      4  C5  UNL d   1      -4.361   0.601   2.687  0.00  0.00    -0.004 A 
ATOM      5  C6  UNL d   1      -3.246   0.979   3.442  0.00  0.00    -0.075 A 
ATOM      6  C7  UNL d   1      -1.878   0.460   3.110  0.00  0.00     0.076 C 
ATOM      7  C8  UNL d   1      -3.417   1.864   4.515  0.00  0.00     0.001 A 
ENDROOT
BRANCH   1   8
ATOM      8  C1  UNL d   1      -4.855   3.315   6.000  0.00  0.00     0.053 C 
ATOM      9  C   UNL d   1      -4.864   4.769   5.557  0.00  0.00     0.018 C 
ENDBRANCH   1   8
TORSDOF 1
ENDMDL
