MODEL 1
REMARK minimizedAffinity 10.5396662
REMARK minimizedRMSD -1
REMARK  1 active torsions:
REMARK  status: ('A' for Active; 'I' for Inactive)
REMARK    1  A    between atoms: C1_2  and  C2_3 
ROOT
ATOM      1  C2  UNL d   1      -5.817  -0.211  -1.495  0.00  0.00    -0.073 A 
ATOM      2  C3  UNL d   1      -5.604  -0.897  -0.294  0.00  0.00    -0.002 A 
ATOM      3  C4  UNL d   1      -5.447  -0.194   0.901  0.00  0.00     0.004 A 
ATOM      4  C5  UNL d   1      -5.508   1.199   0.909  0.00  0.00    -0.004 A 
ATOM      5  C6  UNL d   1      -5.731   1.902  -0.279  0.00  0.00    -0.075 A 
ATOM      6  C7  UNL d   1      -5.797   3.401  -0.288  0.00  0.00     0.076 C 
ATOM      7  C8  UNL d   1      -5.885   1.189  -1.476  0.00  0.00     0.001 A 
ENDROOT
BRANCH   1   8
ATOM      8  C1  UNL d   1      -5.993  -0.966  -2.787  0.00  0.00     0.053 C 
ATOM      9  C   UNL d   1      -5.987  -0.041  -3.994  0.00  0.00     0.018 C 
ENDBRANCH   1   8
TORSDOF 1
ENDMDL
