MODEL 1
REMARK minimizedAffinity 7.57574701
REMARK minimizedRMSD -1
REMARK  1 active torsions:
REMARK  status: ('A' for Active; 'I' for Inactive)
REMARK    1  A    between atoms: C1_2  and  C2_3 
ROOT
ATOM      1  C2  UNL d   1      -3.076   1.115   4.227  0.00  0.00    -0.073 A 
ATOM      2  C3  UNL d   1      -3.706   0.733   3.037  0.00  0.00    -0.002 A 
ATOM      3  C4  UNL d   1      -5.042   1.065   2.809  0.00  0.00     0.004 A 
ATOM      4  C5  UNL d   1      -5.759   1.786   3.763  0.00  0.00    -0.004 A 
ATOM      5  C6  UNL d   1      -5.144   2.187   4.954  0.00  0.00    -0.075 A 
ATOM      6  C7  UNL d   1      -5.902   2.961   5.991  0.00  0.00     0.076 C 
ATOM      7  C8  UNL d   1      -3.803   1.848   5.177  0.00  0.00     0.001 A 
ENDROOT
BRANCH   1   8
ATOM      8  C1  UNL d   1      -1.632   0.764   4.476  0.00  0.00     0.053 C 
ATOM      9  C   UNL d   1      -1.378   0.389   5.927  0.00  0.00     0.018 C 
ENDBRANCH   1   8
TORSDOF 1
ENDMDL
