MODEL 1
REMARK minimizedAffinity 11.9587393
REMARK minimizedRMSD -1
REMARK  1 active torsions:
REMARK  status: ('A' for Active; 'I' for Inactive)
REMARK    1  A    between atoms: C1_2  and  C2_3 
ROOT
ATOM      1  C2  UNL d   1      -3.758   1.828   4.959  0.00  0.00    -0.073 A 
ATOM      2  C3  UNL d   1      -2.548   1.196   5.268  0.00  0.00    -0.002 A 
ATOM      3  C4  UNL d   1      -1.885   0.434   4.306  0.00  0.00     0.004 A 
ATOM      4  C5  UNL d   1      -2.420   0.301   3.024  0.00  0.00    -0.004 A 
ATOM      5  C6  UNL d   1      -3.622   0.934   2.693  0.00  0.00    -0.075 A 
ATOM      6  C7  UNL d   1      -4.212   0.800   1.320  0.00  0.00     0.076 C 
ATOM      7  C8  UNL d   1      -4.283   1.696   3.666  0.00  0.00     0.001 A 
ENDROOT
BRANCH   1   8
ATOM      8  C1  UNL d   1      -4.474   2.658   5.993  0.00  0.00     0.053 C 
ATOM      9  C   UNL d   1      -4.457   4.138   5.647  0.00  0.00     0.018 C 
ENDBRANCH   1   8
TORSDOF 1
ENDMDL
