MODEL 1
REMARK minimizedAffinity 8.54848671
REMARK minimizedRMSD -1
REMARK  1 active torsions:
REMARK  status: ('A' for Active; 'I' for Inactive)
REMARK    1  A    between atoms: C1_2  and  C2_3 
ROOT
ATOM      1  C2  UNL d   1       3.295  -4.808  -0.035  0.00  0.00    -0.073 A 
ATOM      2  C3  UNL d   1       4.030  -5.998  -0.030  0.00  0.00    -0.002 A 
ATOM      3  C4  UNL d   1       5.374  -5.998  -0.406  0.00  0.00     0.004 A 
ATOM      4  C5  UNL d   1       5.998  -4.809  -0.784  0.00  0.00    -0.004 A 
ATOM      5  C6  UNL d   1       5.283  -3.607  -0.784  0.00  0.00    -0.075 A 
ATOM      6  C7  UNL d   1       5.938  -2.319  -1.189  0.00  0.00     0.076 C 
ATOM      7  C8  UNL d   1       3.933  -3.615  -0.407  0.00  0.00     0.001 A 
ENDROOT
BRANCH   1   8
ATOM      8  C1  UNL d   1       1.845  -4.802   0.376  0.00  0.00     0.053 C 
ATOM      9  C   UNL d   1       1.571  -3.795   1.482  0.00  0.00     0.018 C 
ENDBRANCH   1   8
TORSDOF 1
ENDMDL
