MODEL 1
REMARK minimizedAffinity 13.7541084
REMARK minimizedRMSD -1
REMARK  1 active torsions:
REMARK  status: ('A' for Active; 'I' for Inactive)
REMARK    1  A    between atoms: C1_2  and  C2_3 
ROOT
ATOM      1  C2  UNL d   1      -4.900   1.944   4.467  0.00  0.00    -0.073 A 
ATOM      2  C3  UNL d   1      -5.961   1.496   3.671  0.00  0.00    -0.002 A 
ATOM      3  C4  UNL d   1      -5.717   0.674   2.570  0.00  0.00     0.004 A 
ATOM      4  C5  UNL d   1      -4.415   0.286   2.258  0.00  0.00    -0.004 A 
ATOM      5  C6  UNL d   1      -3.343   0.714   3.048  0.00  0.00    -0.075 A 
ATOM      6  C7  UNL d   1      -1.935   0.307   2.725  0.00  0.00     0.076 C 
ATOM      7  C8  UNL d   1      -3.595   1.541   4.151  0.00  0.00     0.001 A 
ENDROOT
BRANCH   1   8
ATOM      8  C1  UNL d   1      -5.159   2.826   5.661  0.00  0.00     0.053 C 
ATOM      9  C   UNL d   1      -5.611   4.219   5.253  0.00  0.00     0.018 C 
ENDBRANCH   1   8
TORSDOF 1
ENDMDL
