MODEL 1
REMARK minimizedAffinity 20.2659416
REMARK minimizedRMSD -1
REMARK  1 active torsions:
REMARK  status: ('A' for Active; 'I' for Inactive)
REMARK    1  A    between atoms: C1_2  and  C2_3 
ROOT
ATOM      1  C2  UNL d   1      -1.455  -0.396   2.456  0.00  0.00    -0.073 A 
ATOM      2  C3  UNL d   1      -2.124  -1.455   1.832  0.00  0.00    -0.002 A 
ATOM      3  C4  UNL d   1      -1.403  -2.488   1.231  0.00  0.00     0.004 A 
ATOM      4  C5  UNL d   1      -0.008  -2.477   1.254  0.00  0.00    -0.004 A 
ATOM      5  C6  UNL d   1       0.678  -1.434   1.883  0.00  0.00    -0.075 A 
ATOM      6  C7  UNL d   1       2.178  -1.405   1.915  0.00  0.00     0.076 C 
ATOM      7  C8  UNL d   1      -0.053  -0.398   2.482  0.00  0.00     0.001 A 
ENDROOT
BRANCH   1   8
ATOM      8  C1  UNL d   1      -2.229   0.718   3.112  0.00  0.00     0.053 C 
ATOM      9  C   UNL d   1      -2.054   0.721   4.622  0.00  0.00     0.018 C 
ENDBRANCH   1   8
TORSDOF 1
ENDMDL
