MODEL 1
REMARK minimizedAffinity 10.9751482
REMARK minimizedRMSD -1
REMARK  1 active torsions:
REMARK  status: ('A' for Active; 'I' for Inactive)
REMARK    1  A    between atoms: C1_2  and  C2_3 
ROOT
ATOM      1  C2  UNL d   1       0.014  -5.296  -4.343  0.00  0.00    -0.073 A 
ATOM      2  C3  UNL d   1      -1.091  -5.669  -5.116  0.00  0.00    -0.002 A 
ATOM      3  C4  UNL d   1      -2.367  -5.701  -4.551  0.00  0.00     0.004 A 
ATOM      4  C5  UNL d   1      -2.551  -5.354  -3.213  0.00  0.00    -0.004 A 
ATOM      5  C6  UNL d   1      -1.461  -4.967  -2.428  0.00  0.00    -0.075 A 
ATOM      6  C7  UNL d   1      -1.642  -4.592  -0.986  0.00  0.00     0.076 C 
ATOM      7  C8  UNL d   1      -0.182  -4.940  -3.002  0.00  0.00     0.001 A 
ENDROOT
BRANCH   1   8
ATOM      8  C1  UNL d   1       1.393  -5.254  -4.950  0.00  0.00     0.053 C 
ATOM      9  C   UNL d   1       2.412  -6.000  -4.103  0.00  0.00     0.018 C 
ENDBRANCH   1   8
TORSDOF 1
ENDMDL
