MODEL 1
REMARK minimizedAffinity 8.42470169
REMARK minimizedRMSD -1
REMARK  1 active torsions:
REMARK  status: ('A' for Active; 'I' for Inactive)
REMARK    1  A    between atoms: C1_2  and  C2_3 
ROOT
ATOM      1  C2  UNL d   1       0.000  -2.174   2.769  0.00  0.00    -0.073 A 
ATOM      2  C3  UNL d   1       0.541  -2.236   4.059  0.00  0.00    -0.002 A 
ATOM      3  C4  UNL d   1       0.429  -1.146   4.923  0.00  0.00     0.004 A 
ATOM      4  C5  UNL d   1      -0.229   0.012   4.510  0.00  0.00    -0.004 A 
ATOM      5  C6  UNL d   1      -0.785   0.089   3.229  0.00  0.00    -0.075 A 
ATOM      6  C7  UNL d   1      -1.494   1.329   2.769  0.00  0.00     0.076 C 
ATOM      7  C8  UNL d   1      -0.667  -1.009   2.366  0.00  0.00     0.001 A 
ENDROOT
BRANCH   1   8
ATOM      8  C1  UNL d   1       0.113  -3.351   1.835  0.00  0.00     0.053 C 
ATOM      9  C   UNL d   1      -1.142  -3.535   0.996  0.00  0.00     0.018 C 
ENDBRANCH   1   8
TORSDOF 1
ENDMDL
