MODEL 1
REMARK minimizedAffinity 4.88113689
REMARK minimizedRMSD -1
REMARK  1 active torsions:
REMARK  status: ('A' for Active; 'I' for Inactive)
REMARK    1  A    between atoms: C1_2  and  C2_3 
ROOT
ATOM      1  C2  UNL d   1      -0.801  -5.257  -1.453  0.00  0.00    -0.073 A 
ATOM      2  C3  UNL d   1       0.466  -5.129  -2.033  0.00  0.00    -0.002 A 
ATOM      3  C4  UNL d   1       0.629  -5.278  -3.411  0.00  0.00     0.004 A 
ATOM      4  C5  UNL d   1      -0.473  -5.548  -4.223  0.00  0.00    -0.004 A 
ATOM      5  C6  UNL d   1      -1.749  -5.667  -3.663  0.00  0.00    -0.075 A 
ATOM      6  C7  UNL d   1      -2.944  -5.960  -4.522  0.00  0.00     0.076 C 
ATOM      7  C8  UNL d   1      -1.904  -5.520  -2.278  0.00  0.00     0.001 A 
ENDROOT
BRANCH   1   8
ATOM      8  C1  UNL d   1      -0.982  -5.091   0.034  0.00  0.00     0.053 C 
ATOM      9  C   UNL d   1       0.269  -4.546   0.704  0.00  0.00     0.018 C 
ENDBRANCH   1   8
TORSDOF 1
ENDMDL
