MODEL 1
REMARK minimizedAffinity 12.7028971
REMARK minimizedRMSD -1
REMARK  1 active torsions:
REMARK  status: ('A' for Active; 'I' for Inactive)
REMARK    1  A    between atoms: C1_2  and  C2_3 
ROOT
ATOM      1  C2  UNL d   1      -3.400   0.279   2.309  0.00  0.00    -0.073 A 
ATOM      2  C3  UNL d   1      -3.230   0.912   3.545  0.00  0.00    -0.002 A 
ATOM      3  C4  UNL d   1      -1.979   0.926   4.163  0.00  0.00     0.004 A 
ATOM      4  C5  UNL d   1      -0.885   0.317   3.548  0.00  0.00    -0.004 A 
ATOM      5  C6  UNL d   1      -1.033  -0.310   2.307  0.00  0.00    -0.075 A 
ATOM      6  C7  UNL d   1       0.133  -0.972   1.633  0.00  0.00     0.076 C 
ATOM      7  C8  UNL d   1      -2.293  -0.323   1.694  0.00  0.00     0.001 A 
ENDROOT
BRANCH   1   8
ATOM      8  C1  UNL d   1      -4.748   0.266   1.635  0.00  0.00     0.053 C 
ATOM      9  C   UNL d   1      -4.836   1.292   0.516  0.00  0.00     0.018 C 
ENDBRANCH   1   8
TORSDOF 1
ENDMDL
