MODEL 1
REMARK minimizedAffinity 8.10888577
REMARK minimizedRMSD -1
REMARK  1 active torsions:
REMARK  status: ('A' for Active; 'I' for Inactive)
REMARK    1  A    between atoms: C1_2  and  C2_3 
ROOT
ATOM      1  C2  UNL d   1       0.406  -0.640   2.760  0.00  0.00    -0.073 A 
ATOM      2  C3  UNL d   1      -0.262  -1.028   1.593  0.00  0.00    -0.002 A 
ATOM      3  C4  UNL d   1      -1.581  -0.632   1.370  0.00  0.00     0.004 A 
ATOM      4  C5  UNL d   1      -2.243   0.162   2.307  0.00  0.00    -0.004 A 
ATOM      5  C6  UNL d   1      -1.589   0.570   3.474  0.00  0.00    -0.075 A 
ATOM      6  C7  UNL d   1      -2.288   1.422   4.492  0.00  0.00     0.076 C 
ATOM      7  C8  UNL d   1      -0.265   0.166   3.692  0.00  0.00     0.001 A 
ENDROOT
BRANCH   1   8
ATOM      8  C1  UNL d   1       1.832  -1.060   3.002  0.00  0.00     0.053 C 
ATOM      9  C   UNL d   1       1.937  -2.527   3.388  0.00  0.00     0.018 C 
ENDBRANCH   1   8
TORSDOF 1
ENDMDL
