MODEL 1
REMARK minimizedAffinity -0.292894572
REMARK minimizedRMSD -1
REMARK  0 active torsions:
REMARK  status: ('A' for Active; 'I' for Inactive)
ROOT
ATOM      1  C   UNL d   1       5.710   5.112  -1.796  0.00  0.00     0.078 C 
ATOM      2  C1  UNL d   1       5.465   4.892  -3.259  0.00  0.00    -0.077 A 
ATOM      3  C2  UNL d   1       5.999   3.779  -3.920  0.00  0.00    -0.001 A 
ATOM      4  C3  UNL d   1       5.771   3.592  -5.285  0.00  0.00     0.003 A 
ATOM      5  C4  UNL d   1       5.010   4.514  -6.000  0.00  0.00    -0.005 A 
ATOM      6  C5  UNL d   1       4.476   5.625  -5.351  0.00  0.00     0.003 A 
ATOM      7  C6  UNL d   1       4.703   5.814  -3.987  0.00  0.00    -0.001 A 
ENDROOT
TORSDOF 0
ENDMDL
