MODEL 1
REMARK minimizedAffinity 2.97960758
REMARK minimizedRMSD -1
REMARK  0 active torsions:
REMARK  status: ('A' for Active; 'I' for Inactive)
ROOT
ATOM      1  C   UNL d   1       4.212  -5.511   6.000  0.00  0.00     0.078 C 
ATOM      2  C1  UNL d   1       3.922  -4.153   5.433  0.00  0.00    -0.077 A 
ATOM      3  C2  UNL d   1       4.482  -3.001   5.999  0.00  0.00    -0.001 A 
ATOM      4  C3  UNL d   1       4.195  -1.743   5.468  0.00  0.00     0.003 A 
ATOM      5  C4  UNL d   1       3.348  -1.624   4.368  0.00  0.00    -0.005 A 
ATOM      6  C5  UNL d   1       2.784  -2.765   3.800  0.00  0.00     0.003 A 
ATOM      7  C6  UNL d   1       3.069  -4.024   4.330  0.00  0.00    -0.001 A 
ENDROOT
TORSDOF 0
ENDMDL
