MODEL 1
REMARK minimizedAffinity 1.41335618
REMARK minimizedRMSD -1
REMARK  0 active torsions:
REMARK  status: ('A' for Active; 'I' for Inactive)
ROOT
ATOM      1  C   UNL d   1       3.194  -1.376  -2.866  0.00  0.00     0.078 C 
ATOM      2  C1  UNL d   1       1.827  -1.989  -2.905  0.00  0.00    -0.077 A 
ATOM      3  C2  UNL d   1       0.884  -1.713  -1.907  0.00  0.00    -0.001 A 
ATOM      4  C3  UNL d   1      -0.382  -2.299  -1.951  0.00  0.00     0.003 A 
ATOM      5  C4  UNL d   1      -0.717  -3.165  -2.991  0.00  0.00    -0.005 A 
ATOM      6  C5  UNL d   1       0.215  -3.447  -3.987  0.00  0.00     0.003 A 
ATOM      7  C6  UNL d   1       1.482  -2.862  -3.945  0.00  0.00    -0.001 A 
ENDROOT
TORSDOF 0
ENDMDL
