MODEL 1
REMARK minimizedAffinity 1.6195035
REMARK minimizedRMSD -1
REMARK  0 active torsions:
REMARK  status: ('A' for Active; 'I' for Inactive)
ROOT
ATOM      1  C   UNL d   1       6.000  -3.799   5.999  0.00  0.00     0.078 C 
ATOM      2  C1  UNL d   1       4.914  -2.991   5.355  0.00  0.00    -0.077 A 
ATOM      3  C2  UNL d   1       4.394  -3.349   4.105  0.00  0.00    -0.001 A 
ATOM      4  C3  UNL d   1       3.389  -2.581   3.512  0.00  0.00     0.003 A 
ATOM      5  C4  UNL d   1       2.897  -1.451   4.162  0.00  0.00    -0.005 A 
ATOM      6  C5  UNL d   1       3.410  -1.086   5.405  0.00  0.00     0.003 A 
ATOM      7  C6  UNL d   1       4.414  -1.852   5.999  0.00  0.00    -0.001 A 
ENDROOT
TORSDOF 0
ENDMDL
