MODEL 1
REMARK minimizedAffinity 1.30054379
REMARK minimizedRMSD -1
REMARK  0 active torsions:
REMARK  status: ('A' for Active; 'I' for Inactive)
ROOT
ATOM      1  C   UNL d   1       5.227  -2.246   1.699  0.00  0.00     0.078 C 
ATOM      2  C1  UNL d   1       5.228  -2.295   3.198  0.00  0.00    -0.077 A 
ATOM      3  C2  UNL d   1       4.495  -1.369   3.950  0.00  0.00    -0.001 A 
ATOM      4  C3  UNL d   1       4.513  -1.421   5.345  0.00  0.00     0.003 A 
ATOM      5  C4  UNL d   1       5.262  -2.397   6.000  0.00  0.00    -0.005 A 
ATOM      6  C5  UNL d   1       5.997  -3.321   5.259  0.00  0.00     0.003 A 
ATOM      7  C6  UNL d   1       5.980  -3.271   3.865  0.00  0.00    -0.001 A 
ENDROOT
TORSDOF 0
ENDMDL
