MODEL 1
REMARK minimizedAffinity -1.91571355
REMARK minimizedRMSD -1
REMARK  0 active torsions:
REMARK  status: ('A' for Active; 'I' for Inactive)
ROOT
ATOM      1  C   UNL d   1       5.997  -5.256   5.998  0.00  0.00     0.078 C 
ATOM      2  C1  UNL d   1       5.357  -3.943   5.660  0.00  0.00    -0.077 A 
ATOM      3  C2  UNL d   1       4.126  -3.890   4.995  0.00  0.00    -0.001 A 
ATOM      4  C3  UNL d   1       3.546  -2.661   4.678  0.00  0.00     0.003 A 
ATOM      5  C4  UNL d   1       4.192  -1.474   5.021  0.00  0.00    -0.005 A 
ATOM      6  C5  UNL d   1       5.419  -1.516   5.680  0.00  0.00     0.003 A 
ATOM      7  C6  UNL d   1       6.000  -2.745   5.998  0.00  0.00    -0.001 A 
ENDROOT
TORSDOF 0
ENDMDL
