MODEL 1
REMARK minimizedAffinity -3.92670012
REMARK minimizedRMSD -1
REMARK  0 active torsions:
REMARK  status: ('A' for Active; 'I' for Inactive)
ROOT
ATOM      1  C   UNL d   1       5.951   5.210  -1.976  0.00  0.00     0.078 C 
ATOM      2  C1  UNL d   1       5.448   5.055  -3.380  0.00  0.00    -0.077 A 
ATOM      3  C2  UNL d   1       4.582   5.999  -3.945  0.00  0.00    -0.001 A 
ATOM      4  C3  UNL d   1       4.113   5.837  -5.250  0.00  0.00     0.003 A 
ATOM      5  C4  UNL d   1       4.503   4.729  -6.000  0.00  0.00    -0.005 A 
ATOM      6  C5  UNL d   1       5.362   3.782  -5.446  0.00  0.00     0.003 A 
ATOM      7  C6  UNL d   1       5.832   3.944  -4.141  0.00  0.00    -0.001 A 
ENDROOT
TORSDOF 0
ENDMDL
