MODEL 1
REMARK minimizedAffinity 0.630636454
REMARK minimizedRMSD -1
REMARK  0 active torsions:
REMARK  status: ('A' for Active; 'I' for Inactive)
ROOT
ATOM      1  C   UNL d   1       5.547   4.924  -5.782  0.00  0.00     0.078 C 
ATOM      2  C1  UNL d   1       5.592   4.867  -4.284  0.00  0.00    -0.077 A 
ATOM      3  C2  UNL d   1       5.298   5.997  -3.510  0.00  0.00    -0.001 A 
ATOM      4  C3  UNL d   1       5.354   5.932  -2.117  0.00  0.00     0.003 A 
ATOM      5  C4  UNL d   1       5.704   4.740  -1.485  0.00  0.00    -0.005 A 
ATOM      6  C5  UNL d   1       6.000   3.612  -2.247  0.00  0.00     0.003 A 
ATOM      7  C6  UNL d   1       5.945   3.674  -3.640  0.00  0.00    -0.001 A 
ENDROOT
TORSDOF 0
ENDMDL
