MODEL 1
REMARK minimizedAffinity 0.377209723
REMARK minimizedRMSD -1
REMARK  0 active torsions:
REMARK  status: ('A' for Active; 'I' for Inactive)
ROOT
ATOM      1  C   UNL d   1       0.423  -1.866  -3.747  0.00  0.00     0.078 C 
ATOM      2  C1  UNL d   1       0.045  -3.301  -3.531  0.00  0.00    -0.077 A 
ATOM      3  C2  UNL d   1       0.507  -4.008  -2.415  0.00  0.00    -0.001 A 
ATOM      4  C3  UNL d   1       0.155  -5.347  -2.232  0.00  0.00     0.003 A 
ATOM      5  C4  UNL d   1      -0.659  -5.990  -3.162  0.00  0.00    -0.005 A 
ATOM      6  C5  UNL d   1      -1.121  -5.294  -4.278  0.00  0.00     0.003 A 
ATOM      7  C6  UNL d   1      -0.771  -3.956  -4.462  0.00  0.00    -0.001 A 
ENDROOT
TORSDOF 0
ENDMDL
