MODEL 1
REMARK minimizedAffinity 0.824512303
REMARK minimizedRMSD -1
REMARK  0 active torsions:
REMARK  status: ('A' for Active; 'I' for Inactive)
ROOT
ATOM      1  C   UNL d   1       6.000   4.879  -1.326  0.00  0.00     0.078 C 
ATOM      2  C1  UNL d   1       5.707   4.882  -2.797  0.00  0.00    -0.077 A 
ATOM      3  C2  UNL d   1       6.000   5.999  -3.589  0.00  0.00    -0.001 A 
ATOM      4  C3  UNL d   1       5.713   5.991  -4.955  0.00  0.00     0.003 A 
ATOM      5  C4  UNL d   1       5.130   4.869  -5.541  0.00  0.00    -0.005 A 
ATOM      6  C5  UNL d   1       4.833   3.754  -4.761  0.00  0.00     0.003 A 
ATOM      7  C6  UNL d   1       5.119   3.760  -3.395  0.00  0.00    -0.001 A 
ENDROOT
TORSDOF 0
ENDMDL
