MODEL 1
REMARK minimizedAffinity -0.121824548
REMARK minimizedRMSD -1
REMARK  0 active torsions:
REMARK  status: ('A' for Active; 'I' for Inactive)
ROOT
ATOM      1  C   UNL d   1       3.835   6.000  -5.185  0.00  0.00     0.078 C 
ATOM      2  C1  UNL d   1       4.598   5.375  -4.055  0.00  0.00    -0.077 A 
ATOM      3  C2  UNL d   1       5.284   4.167  -4.229  0.00  0.00    -0.001 A 
ATOM      4  C3  UNL d   1       5.982   3.592  -3.166  0.00  0.00     0.003 A 
ATOM      5  C4  UNL d   1       5.999   4.217  -1.921  0.00  0.00    -0.005 A 
ATOM      6  C5  UNL d   1       5.318   5.418  -1.737  0.00  0.00     0.003 A 
ATOM      7  C6  UNL d   1       4.619   5.995  -2.799  0.00  0.00    -0.001 A 
ENDROOT
TORSDOF 0
ENDMDL
