MODEL 1
REMARK minimizedAffinity 0.319503158
REMARK minimizedRMSD -1
REMARK  0 active torsions:
REMARK  status: ('A' for Active; 'I' for Inactive)
ROOT
ATOM      1  C   UNL d   1       2.631  -1.618  -3.093  0.00  0.00     0.078 C 
ATOM      2  C1  UNL d   1       1.410  -2.150  -2.404  0.00  0.00    -0.077 A 
ATOM      3  C2  UNL d   1       1.197  -1.927  -1.038  0.00  0.00    -0.001 A 
ATOM      4  C3  UNL d   1       0.061  -2.437  -0.408  0.00  0.00     0.003 A 
ATOM      5  C4  UNL d   1      -0.871  -3.174  -1.136  0.00  0.00    -0.005 A 
ATOM      6  C5  UNL d   1      -0.667  -3.403  -2.495  0.00  0.00     0.003 A 
ATOM      7  C6  UNL d   1       0.468  -2.894  -3.127  0.00  0.00    -0.001 A 
ENDROOT
TORSDOF 0
ENDMDL
