MODEL 1
REMARK minimizedAffinity -0.869268894
REMARK minimizedRMSD -1
REMARK  0 active torsions:
REMARK  status: ('A' for Active; 'I' for Inactive)
ROOT
ATOM      1  C   UNL d   1      -1.943  -2.646  -1.098  0.00  0.00     0.078 C 
ATOM      2  C1  UNL d   1      -0.739  -2.854  -1.966  0.00  0.00    -0.077 A 
ATOM      3  C2  UNL d   1      -0.596  -4.014  -2.737  0.00  0.00    -0.001 A 
ATOM      4  C3  UNL d   1       0.535  -4.198  -3.534  0.00  0.00     0.003 A 
ATOM      5  C4  UNL d   1       1.533  -3.226  -3.567  0.00  0.00    -0.005 A 
ATOM      6  C5  UNL d   1       1.401  -2.069  -2.802  0.00  0.00     0.003 A 
ATOM      7  C6  UNL d   1       0.271  -1.883  -2.004  0.00  0.00    -0.001 A 
ENDROOT
TORSDOF 0
ENDMDL
