MODEL 1
REMARK minimizedAffinity -0.668801367
REMARK minimizedRMSD -1
REMARK  0 active torsions:
REMARK  status: ('A' for Active; 'I' for Inactive)
ROOT
ATOM      1  C   UNL d   1       5.979  -1.889   1.968  0.00  0.00     0.078 C 
ATOM      2  C1  UNL d   1       5.586  -1.557   3.376  0.00  0.00    -0.077 A 
ATOM      3  C2  UNL d   1       5.977  -2.372   4.445  0.00  0.00    -0.001 A 
ATOM      4  C3  UNL d   1       5.595  -2.056   5.750  0.00  0.00     0.003 A 
ATOM      5  C4  UNL d   1       4.820  -0.925   5.998  0.00  0.00    -0.005 A 
ATOM      6  C5  UNL d   1       4.424  -0.109   4.940  0.00  0.00     0.003 A 
ATOM      7  C6  UNL d   1       4.804  -0.423   3.635  0.00  0.00    -0.001 A 
ENDROOT
TORSDOF 0
ENDMDL
