MODEL 1
REMARK minimizedAffinity 11.9558706
REMARK minimizedRMSD -1
REMARK  0 active torsions:
REMARK  status: ('A' for Active; 'I' for Inactive)
ROOT
ATOM      1  C   UNL d   1      -3.405   3.044  -4.031  0.00  0.00     0.078 C 
ATOM      2  C1  UNL d   1      -2.984   1.714  -3.480  0.00  0.00    -0.077 A 
ATOM      3  C2  UNL d   1      -3.104   0.546  -4.244  0.00  0.00    -0.001 A 
ATOM      4  C3  UNL d   1      -2.718  -0.686  -3.714  0.00  0.00     0.003 A 
ATOM      5  C4  UNL d   1      -2.210  -0.763  -2.419  0.00  0.00    -0.005 A 
ATOM      6  C5  UNL d   1      -2.089   0.393  -1.651  0.00  0.00     0.003 A 
ATOM      7  C6  UNL d   1      -2.475   1.627  -2.178  0.00  0.00    -0.001 A 
ENDROOT
TORSDOF 0
ENDMDL
