MODEL 1
REMARK minimizedAffinity 2.2690022
REMARK minimizedRMSD -1
REMARK  0 active torsions:
REMARK  status: ('A' for Active; 'I' for Inactive)
ROOT
ATOM      1  C   UNL d   1      -1.879  -1.383   0.418  0.00  0.00     0.078 C 
ATOM      2  C1  UNL d   1      -2.270  -0.810  -0.911  0.00  0.00    -0.077 A 
ATOM      3  C2  UNL d   1      -2.206  -1.583  -2.077  0.00  0.00    -0.001 A 
ATOM      4  C3  UNL d   1      -2.564  -1.034  -3.309  0.00  0.00     0.003 A 
ATOM      5  C4  UNL d   1      -2.986   0.292  -3.387  0.00  0.00    -0.005 A 
ATOM      6  C5  UNL d   1      -3.051   1.070  -2.233  0.00  0.00     0.003 A 
ATOM      7  C6  UNL d   1      -2.693   0.522  -1.000  0.00  0.00    -0.001 A 
ENDROOT
TORSDOF 0
ENDMDL
