MODEL 1
REMARK minimizedAffinity 9.15772629
REMARK minimizedRMSD -1
REMARK  0 active torsions:
REMARK  status: ('A' for Active; 'I' for Inactive)
ROOT
ATOM      1  C   UNL d   1      -1.181  -1.556   1.119  0.00  0.00     0.078 C 
ATOM      2  C1  UNL d   1      -1.630  -0.610   0.046  0.00  0.00    -0.077 A 
ATOM      3  C2  UNL d   1      -1.935   0.724   0.341  0.00  0.00    -0.001 A 
ATOM      4  C3  UNL d   1      -2.361   1.591  -0.666  0.00  0.00     0.003 A 
ATOM      5  C4  UNL d   1      -2.487   1.133  -1.976  0.00  0.00    -0.005 A 
ATOM      6  C5  UNL d   1      -2.187  -0.194  -2.280  0.00  0.00     0.003 A 
ATOM      7  C6  UNL d   1      -1.761  -1.062  -1.273  0.00  0.00    -0.001 A 
ENDROOT
TORSDOF 0
ENDMDL
