MODEL 1
REMARK minimizedAffinity 17.6698265
REMARK minimizedRMSD -1
REMARK  0 active torsions:
REMARK  status: ('A' for Active; 'I' for Inactive)
ROOT
ATOM      1  C   UNL d   1      -3.526   3.298  -3.885  0.00  0.00     0.078 C 
ATOM      2  C1  UNL d   1      -3.034   1.991  -3.340  0.00  0.00    -0.077 A 
ATOM      3  C2  UNL d   1      -2.826   0.891  -4.181  0.00  0.00    -0.001 A 
ATOM      4  C3  UNL d   1      -2.378  -0.323  -3.658  0.00  0.00     0.003 A 
ATOM      5  C4  UNL d   1      -2.134  -0.449  -2.292  0.00  0.00    -0.005 A 
ATOM      6  C5  UNL d   1      -2.340   0.639  -1.447  0.00  0.00     0.003 A 
ATOM      7  C6  UNL d   1      -2.789   1.854  -1.968  0.00  0.00    -0.001 A 
ENDROOT
TORSDOF 0
ENDMDL
