MODEL 1
REMARK minimizedAffinity 3.09212518
REMARK minimizedRMSD -1
REMARK  0 active torsions:
REMARK  status: ('A' for Active; 'I' for Inactive)
ROOT
ATOM      1  C   UNL d   1      -3.365   3.216  -4.151  0.00  0.00     0.078 C 
ATOM      2  C1  UNL d   1      -3.008   1.840  -3.674  0.00  0.00    -0.077 A 
ATOM      3  C2  UNL d   1      -2.788   1.583  -2.315  0.00  0.00    -0.001 A 
ATOM      4  C3  UNL d   1      -2.447   0.299  -1.886  0.00  0.00     0.003 A 
ATOM      5  C4  UNL d   1      -2.322  -0.737  -2.809  0.00  0.00    -0.005 A 
ATOM      6  C5  UNL d   1      -2.537  -0.491  -4.163  0.00  0.00     0.003 A 
ATOM      7  C6  UNL d   1      -2.878   0.792  -4.594  0.00  0.00    -0.001 A 
ENDROOT
TORSDOF 0
ENDMDL
