MODEL 1
REMARK minimizedAffinity 2.69235325
REMARK minimizedRMSD -1
REMARK  0 active torsions:
REMARK  status: ('A' for Active; 'I' for Inactive)
ROOT
ATOM      1  C   UNL d   1      -1.996  -0.001   0.371  0.00  0.00     0.078 C 
ATOM      2  C1  UNL d   1      -2.215  -0.008  -1.113  0.00  0.00    -0.077 A 
ATOM      3  C2  UNL d   1      -2.558   1.164  -1.797  0.00  0.00    -0.001 A 
ATOM      4  C3  UNL d   1      -2.768   1.141  -3.177  0.00  0.00     0.003 A 
ATOM      5  C4  UNL d   1      -2.639  -0.053  -3.884  0.00  0.00    -0.005 A 
ATOM      6  C5  UNL d   1      -2.300  -1.225  -3.211  0.00  0.00     0.003 A 
ATOM      7  C6  UNL d   1      -2.089  -1.204  -1.832  0.00  0.00    -0.001 A 
ENDROOT
TORSDOF 0
ENDMDL
