MODEL 1
REMARK minimizedAffinity -1.03448021
REMARK minimizedRMSD -1
REMARK  0 active torsions:
REMARK  status: ('A' for Active; 'I' for Inactive)
ROOT
ATOM      1  C   UNL d   1       2.590   1.622   5.275  0.00  0.00     0.078 C 
ATOM      2  C1  UNL d   1       2.343   0.413   4.423  0.00  0.00    -0.077 A 
ATOM      3  C2  UNL d   1       2.146   0.532   3.042  0.00  0.00    -0.001 A 
ATOM      4  C3  UNL d   1       1.908  -0.600   2.262  0.00  0.00     0.003 A 
ATOM      5  C4  UNL d   1       1.864  -1.861   2.854  0.00  0.00    -0.005 A 
ATOM      6  C5  UNL d   1       2.057  -1.990   4.228  0.00  0.00     0.003 A 
ATOM      7  C6  UNL d   1       2.295  -0.858   5.009  0.00  0.00    -0.001 A 
ENDROOT
TORSDOF 0
ENDMDL
