MODEL 1
REMARK minimizedAffinity 1.01788437
REMARK minimizedRMSD -1
REMARK  0 active torsions:
REMARK  status: ('A' for Active; 'I' for Inactive)
ROOT
ATOM      1  C   UNL d   1      -0.281   0.112  -2.610  0.00  0.00     0.078 C 
ATOM      2  C1  UNL d   1      -1.456  -0.617  -3.189  0.00  0.00    -0.077 A 
ATOM      3  C2  UNL d   1      -2.742  -0.446  -2.662  0.00  0.00    -0.001 A 
ATOM      4  C3  UNL d   1      -3.826  -1.139  -3.205  0.00  0.00     0.003 A 
ATOM      5  C4  UNL d   1      -3.634  -2.009  -4.277  0.00  0.00    -0.005 A 
ATOM      6  C5  UNL d   1      -2.358  -2.187  -4.806  0.00  0.00     0.003 A 
ATOM      7  C6  UNL d   1      -1.273  -1.495  -4.265  0.00  0.00    -0.001 A 
ENDROOT
TORSDOF 0
ENDMDL
