MODEL 1
REMARK minimizedAffinity -5.6357317
REMARK minimizedRMSD -1
REMARK  1 active torsions:
REMARK  status: ('A' for Active; 'I' for Inactive)
REMARK    1  A    between atoms: C1_2  and  C2_3 
ROOT
ATOM      1  C2  UNL d   1      -0.639   1.741   0.090  0.00  0.00    -0.077 A 
ATOM      2  C3  UNL d   1      -0.115   0.447  -0.038  0.00  0.00     0.002 A 
ATOM      3  C4  UNL d   1       0.886   0.181  -0.975  0.00  0.00     0.002 A 
ATOM      4  C5  UNL d   1       1.373   1.204  -1.787  0.00  0.00    -0.004 A 
ATOM      5  C6  UNL d   1       0.856   2.493  -1.668  0.00  0.00     0.002 A 
ATOM      6  C7  UNL d   1      -0.145   2.761  -0.733  0.00  0.00     0.002 A 
ENDROOT
BRANCH   1   7
ATOM      7  C1  UNL d   1      -1.684   2.041   1.134  0.00  0.00     0.055 C 
ATOM      8  C   UNL d   1      -2.122   3.497   1.076  0.00  0.00     0.019 C 
ENDBRANCH   1   7
TORSDOF 1
ENDMDL
