MODEL 1
REMARK minimizedAffinity -6.44324207
REMARK minimizedRMSD -1
REMARK  1 active torsions:
REMARK  status: ('A' for Active; 'I' for Inactive)
REMARK    1  A    between atoms: C1_2  and  C2_3 
ROOT
ATOM      1  C2  UNL d   1      -0.798   2.001  -0.093  0.00  0.00    -0.077 A 
ATOM      2  C3  UNL d   1      -1.361   2.086   1.189  0.00  0.00     0.002 A 
ATOM      3  C4  UNL d   1      -1.148   1.070   2.122  0.00  0.00     0.002 A 
ATOM      4  C5  UNL d   1      -0.370  -0.035   1.786  0.00  0.00    -0.004 A 
ATOM      5  C6  UNL d   1       0.193  -0.130   0.514  0.00  0.00     0.002 A 
ATOM      6  C7  UNL d   1      -0.020   0.884  -0.421  0.00  0.00     0.002 A 
ENDROOT
BRANCH   1   7
ATOM      7  C1  UNL d   1      -0.985   3.119  -1.085  0.00  0.00     0.055 C 
ATOM      8  C   UNL d   1       0.350   3.712  -1.509  0.00  0.00     0.019 C 
ENDBRANCH   1   7
TORSDOF 1
ENDMDL
