MODEL 1
REMARK minimizedAffinity -6.02051973
REMARK minimizedRMSD -1
REMARK  1 active torsions:
REMARK  status: ('A' for Active; 'I' for Inactive)
REMARK    1  A    between atoms: C1_2  and  C2_3 
ROOT
ATOM      1  C2  UNL d   1      -1.357   1.322   0.684  0.00  0.00    -0.077 A 
ATOM      2  C3  UNL d   1      -0.858   0.176   1.320  0.00  0.00     0.002 A 
ATOM      3  C4  UNL d   1       0.154  -0.578   0.723  0.00  0.00     0.002 A 
ATOM      4  C5  UNL d   1       0.678  -0.193  -0.509  0.00  0.00    -0.004 A 
ATOM      5  C6  UNL d   1       0.187   0.944  -1.150  0.00  0.00     0.002 A 
ATOM      6  C7  UNL d   1      -0.825   1.699  -0.555  0.00  0.00     0.002 A 
ENDROOT
BRANCH   1   7
ATOM      7  C1  UNL d   1      -2.414   2.164   1.350  0.00  0.00     0.055 C 
ATOM      8  C   UNL d   1      -2.132   3.649   1.171  0.00  0.00     0.019 C 
ENDBRANCH   1   7
TORSDOF 1
ENDMDL
