MODEL 1
REMARK minimizedAffinity -2.84379053
REMARK minimizedRMSD -1
REMARK  1 active torsions:
REMARK  status: ('A' for Active; 'I' for Inactive)
REMARK    1  A    between atoms: C1_2  and  C2_3 
ROOT
ATOM      1  C2  UNL d   1       0.986  -1.432  -0.931  0.00  0.00    -0.077 A 
ATOM      2  C3  UNL d   1       0.590  -1.410   0.413  0.00  0.00     0.002 A 
ATOM      3  C4  UNL d   1      -0.017  -0.274   0.953  0.00  0.00     0.002 A 
ATOM      4  C5  UNL d   1      -0.238   0.845   0.153  0.00  0.00    -0.004 A 
ATOM      5  C6  UNL d   1       0.154   0.834  -1.185  0.00  0.00     0.002 A 
ATOM      6  C7  UNL d   1       0.762  -0.300  -1.725  0.00  0.00     0.002 A 
ENDROOT
BRANCH   1   7
ATOM      7  C1  UNL d   1       1.596  -2.674  -1.527  0.00  0.00     0.055 C 
ATOM      8  C   UNL d   1       0.713  -3.253  -2.623  0.00  0.00     0.019 C 
ENDBRANCH   1   7
TORSDOF 1
ENDMDL
