MODEL 1
REMARK minimizedAffinity -6.17796469
REMARK minimizedRMSD -1
REMARK  1 active torsions:
REMARK  status: ('A' for Active; 'I' for Inactive)
REMARK    1  A    between atoms: C1_2  and  C2_3 
ROOT
ATOM      1  C2  UNL d   1      -0.690   1.395   0.854  0.00  0.00    -0.077 A 
ATOM      2  C3  UNL d   1      -1.775   1.912   1.574  0.00  0.00     0.002 A 
ATOM      3  C4  UNL d   1      -2.388   3.101   1.174  0.00  0.00     0.002 A 
ATOM      4  C5  UNL d   1      -1.924   3.781   0.050  0.00  0.00    -0.004 A 
ATOM      5  C6  UNL d   1      -0.843   3.277  -0.673  0.00  0.00     0.002 A 
ATOM      6  C7  UNL d   1      -0.229   2.089  -0.273  0.00  0.00     0.002 A 
ENDROOT
BRANCH   1   7
ATOM      7  C1  UNL d   1      -0.059   0.087   1.255  0.00  0.00     0.055 C 
ATOM      8  C   UNL d   1       0.919  -0.403   0.198  0.00  0.00     0.019 C 
ENDBRANCH   1   7
TORSDOF 1
ENDMDL
