MODEL 1
REMARK minimizedAffinity -5.32070208
REMARK minimizedRMSD -1
REMARK  1 active torsions:
REMARK  status: ('A' for Active; 'I' for Inactive)
REMARK    1  A    between atoms: C1_2  and  C2_3 
ROOT
ATOM      1  C2  UNL d   1       0.014   0.835  -0.036  0.00  0.00    -0.077 A 
ATOM      2  C3  UNL d   1       0.343   1.930  -0.846  0.00  0.00     0.002 A 
ATOM      3  C4  UNL d   1      -0.502   3.040  -0.911  0.00  0.00     0.002 A 
ATOM      4  C5  UNL d   1      -1.678   3.067  -0.165  0.00  0.00    -0.004 A 
ATOM      5  C6  UNL d   1      -2.016   1.981   0.642  0.00  0.00     0.002 A 
ATOM      6  C7  UNL d   1      -1.173   0.870   0.707  0.00  0.00     0.002 A 
ENDROOT
BRANCH   1   7
ATOM      7  C1  UNL d   1       0.947  -0.342   0.073  0.00  0.00     0.055 C 
ATOM      8  C   UNL d   1       1.018  -1.116  -1.236  0.00  0.00     0.019 C 
ENDBRANCH   1   7
TORSDOF 1
ENDMDL
