MODEL 1
REMARK minimizedAffinity -5.53581238
REMARK minimizedRMSD -1
REMARK  1 active torsions:
REMARK  status: ('A' for Active; 'I' for Inactive)
REMARK    1  A    between atoms: C1_2  and  C2_3 
ROOT
ATOM      1  C2  UNL d   1      -1.019   1.327   0.741  0.00  0.00    -0.077 A 
ATOM      2  C3  UNL d   1      -0.297   2.066  -0.207  0.00  0.00     0.002 A 
ATOM      3  C4  UNL d   1      -0.558   3.425  -0.391  0.00  0.00     0.002 A 
ATOM      4  C5  UNL d   1      -1.537   4.058   0.372  0.00  0.00    -0.004 A 
ATOM      5  C6  UNL d   1      -2.262   3.331   1.316  0.00  0.00     0.002 A 
ATOM      6  C7  UNL d   1      -2.004   1.972   1.500  0.00  0.00     0.002 A 
ENDROOT
BRANCH   1   7
ATOM      7  C1  UNL d   1      -0.706  -0.128   0.975  0.00  0.00     0.055 C 
ATOM      8  C   UNL d   1       0.292  -0.651  -0.048  0.00  0.00     0.019 C 
ENDBRANCH   1   7
TORSDOF 1
ENDMDL
