MODEL 1
REMARK minimizedAffinity -6.14958382
REMARK minimizedRMSD -1
REMARK  1 active torsions:
REMARK  status: ('A' for Active; 'I' for Inactive)
REMARK    1  A    between atoms: C1_2  and  C2_3 
ROOT
ATOM      1  C2  UNL d   1      -0.579   1.291   0.129  0.00  0.00    -0.077 A 
ATOM      2  C3  UNL d   1      -0.143   2.322  -0.715  0.00  0.00     0.002 A 
ATOM      3  C4  UNL d   1      -0.659   3.612  -0.578  0.00  0.00     0.002 A 
ATOM      4  C5  UNL d   1      -1.609   3.884   0.404  0.00  0.00    -0.004 A 
ATOM      5  C6  UNL d   1      -2.050   2.865   1.247  0.00  0.00     0.002 A 
ATOM      6  C7  UNL d   1      -1.537   1.574   1.111  0.00  0.00     0.002 A 
ENDROOT
BRANCH   1   7
ATOM      7  C1  UNL d   1       0.012  -0.090   0.015  0.00  0.00     0.055 C 
ATOM      8  C   UNL d   1       0.540  -0.579   1.356  0.00  0.00     0.019 C 
ENDBRANCH   1   7
TORSDOF 1
ENDMDL
