MODEL 1
REMARK minimizedAffinity -5.3139801
REMARK minimizedRMSD -1
REMARK  1 active torsions:
REMARK  status: ('A' for Active; 'I' for Inactive)
REMARK    1  A    between atoms: C1_2  and  C2_3 
ROOT
ATOM      1  C2  UNL d   1      -0.590   1.033   0.388  0.00  0.00    -0.077 A 
ATOM      2  C3  UNL d   1      -0.167   1.925  -0.607  0.00  0.00     0.002 A 
ATOM      3  C4  UNL d   1      -0.654   3.233  -0.638  0.00  0.00     0.002 A 
ATOM      4  C5  UNL d   1      -1.565   3.662   0.326  0.00  0.00    -0.004 A 
ATOM      5  C6  UNL d   1      -1.994   2.782   1.319  0.00  0.00     0.002 A 
ATOM      6  C7  UNL d   1      -1.508   1.474   1.351  0.00  0.00     0.002 A 
ENDROOT
BRANCH   1   7
ATOM      7  C1  UNL d   1      -0.028  -0.363   0.452  0.00  0.00     0.055 C 
ATOM      8  C   UNL d   1       0.969  -0.610  -0.670  0.00  0.00     0.019 C 
ENDBRANCH   1   7
TORSDOF 1
ENDMDL
