MODEL 1
REMARK minimizedAffinity -4.75839424
REMARK minimizedRMSD -1
REMARK  1 active torsions:
REMARK  status: ('A' for Active; 'I' for Inactive)
REMARK    1  A    between atoms: C1_2  and  C2_3 
ROOT
ATOM      1  C2  UNL d   1      -0.899   2.263   0.564  0.00  0.00    -0.077 A 
ATOM      2  C3  UNL d   1      -1.598   1.673   1.627  0.00  0.00     0.002 A 
ATOM      3  C4  UNL d   1      -1.505   0.299   1.857  0.00  0.00     0.002 A 
ATOM      4  C5  UNL d   1      -0.711  -0.495   1.032  0.00  0.00    -0.004 A 
ATOM      5  C6  UNL d   1      -0.014   0.082  -0.028  0.00  0.00     0.002 A 
ATOM      6  C7  UNL d   1      -0.106   1.455  -0.261  0.00  0.00     0.002 A 
ENDROOT
BRANCH   1   7
ATOM      7  C1  UNL d   1      -0.958   3.752   0.344  0.00  0.00     0.055 C 
ATOM      8  C   UNL d   1       0.044   4.197  -0.711  0.00  0.00     0.019 C 
ENDBRANCH   1   7
TORSDOF 1
ENDMDL
