MODEL 1
REMARK minimizedAffinity -4.50178146
REMARK minimizedRMSD -1
REMARK  1 active torsions:
REMARK  status: ('A' for Active; 'I' for Inactive)
REMARK    1  A    between atoms: C1_2  and  C2_3 
ROOT
ATOM      1  C2  UNL d   1       0.069   1.723   0.097  0.00  0.00    -0.077 A 
ATOM      2  C3  UNL d   1      -0.702   1.643   1.265  0.00  0.00     0.002 A 
ATOM      3  C4  UNL d   1      -0.776   0.447   1.983  0.00  0.00     0.002 A 
ATOM      4  C5  UNL d   1      -0.077  -0.675   1.543  0.00  0.00    -0.004 A 
ATOM      5  C6  UNL d   1       0.691  -0.606   0.382  0.00  0.00     0.002 A 
ATOM      6  C7  UNL d   1       0.765   0.587  -0.337  0.00  0.00     0.002 A 
ENDROOT
BRANCH   1   7
ATOM      7  C1  UNL d   1       0.190   3.025  -0.651  0.00  0.00     0.055 C 
ATOM      8  C   UNL d   1      -0.084   4.213   0.259  0.00  0.00     0.019 C 
ENDBRANCH   1   7
TORSDOF 1
ENDMDL
