MODEL 1
REMARK minimizedAffinity -5.79181337
REMARK minimizedRMSD -1
REMARK  2 active torsions:
REMARK  status: ('A' for Active; 'I' for Inactive)
REMARK    1  A    between atoms: C1_2  and  C2_3 
REMARK    2  A    between atoms: C2_3  and  C3_4 
ROOT
ATOM      1  C3  UNL d   1       0.167  -0.501  -0.452  0.00  0.00    -0.075 A 
ATOM      2  C4  UNL d   1      -0.104  -0.981   0.837  0.00  0.00     0.002 A 
ATOM      3  C5  UNL d   1      -0.319  -2.342   1.056  0.00  0.00     0.002 A 
ATOM      4  C6  UNL d   1      -0.276  -3.237  -0.011  0.00  0.00    -0.004 A 
ATOM      5  C7  UNL d   1      -0.024  -2.769  -1.299  0.00  0.00     0.002 A 
ATOM      6  C8  UNL d   1       0.195  -1.408  -1.520  0.00  0.00     0.002 A 
ENDROOT
BRANCH   1   7
ATOM      7  C2  UNL d   1       0.430   0.967  -0.690  0.00  0.00     0.056 C 
BRANCH   7   8
ATOM      8  C1  UNL d   1       1.265   1.637   0.406  0.00  0.00     0.007 C 
ATOM      9  C   UNL d   1       1.170   3.157   0.388  0.00  0.00     0.009 C 
ENDBRANCH   7   8
ENDBRANCH   1   7
TORSDOF 2
ENDMDL
