MODEL 1
REMARK minimizedAffinity -5.01899529
REMARK minimizedRMSD -1
REMARK  2 active torsions:
REMARK  status: ('A' for Active; 'I' for Inactive)
REMARK    1  A    between atoms: C1_2  and  C2_3 
REMARK    2  A    between atoms: C2_3  and  C3_4 
ROOT
ATOM      1  C3  UNL d   1       0.250  -0.165  -0.258  0.00  0.00    -0.075 A 
ATOM      2  C4  UNL d   1       0.839  -1.243  -0.936  0.00  0.00     0.002 A 
ATOM      3  C5  UNL d   1       0.520  -2.556  -0.590  0.00  0.00     0.002 A 
ATOM      4  C6  UNL d   1      -0.380  -2.809   0.442  0.00  0.00    -0.004 A 
ATOM      5  C7  UNL d   1      -0.958  -1.747   1.134  0.00  0.00     0.002 A 
ATOM      6  C8  UNL d   1      -0.645  -0.432   0.787  0.00  0.00     0.002 A 
ENDROOT
BRANCH   1   7
ATOM      7  C2  UNL d   1       0.568   1.259  -0.646  0.00  0.00     0.056 C 
BRANCH   7   8
ATOM      8  C1  UNL d   1       1.865   1.798  -0.034  0.00  0.00     0.007 C 
ATOM      9  C   UNL d   1       1.670   3.097   0.738  0.00  0.00     0.009 C 
ENDBRANCH   7   8
ENDBRANCH   1   7
TORSDOF 2
ENDMDL
