MODEL 1
REMARK minimizedAffinity -5.02397299
REMARK minimizedRMSD -1
REMARK  2 active torsions:
REMARK  status: ('A' for Active; 'I' for Inactive)
REMARK    1  A    between atoms: C1_2  and  C2_3 
REMARK    2  A    between atoms: C2_3  and  C3_4 
ROOT
ATOM      1  C3  UNL d   1       0.277   0.847   0.336  0.00  0.00    -0.075 A 
ATOM      2  C4  UNL d   1      -0.070   0.012   1.408  0.00  0.00     0.002 A 
ATOM      3  C5  UNL d   1      -0.214  -1.362   1.218  0.00  0.00     0.002 A 
ATOM      4  C6  UNL d   1      -0.024  -1.917  -0.045  0.00  0.00    -0.004 A 
ATOM      5  C7  UNL d   1       0.304  -1.096  -1.121  0.00  0.00     0.002 A 
ATOM      6  C8  UNL d   1       0.453   0.280  -0.933  0.00  0.00     0.002 A 
ENDROOT
BRANCH   1   7
ATOM      7  C2  UNL d   1       0.463   2.331   0.541  0.00  0.00     0.056 C 
BRANCH   7   8
ATOM      8  C1  UNL d   1       1.925   2.788   0.503  0.00  0.00     0.007 C 
ATOM      9  C   UNL d   1       2.357   3.526   1.763  0.00  0.00     0.009 C 
ENDBRANCH   7   8
ENDBRANCH   1   7
TORSDOF 2
ENDMDL
