MODEL 1
REMARK minimizedAffinity -4.8205533
REMARK minimizedRMSD -1
REMARK  2 active torsions:
REMARK  status: ('A' for Active; 'I' for Inactive)
REMARK    1  A    between atoms: C1_2  and  C2_3 
REMARK    2  A    between atoms: C2_3  and  C3_4 
ROOT
ATOM      1  C3  UNL d   1       0.083   0.935   0.252  0.00  0.00    -0.075 A 
ATOM      2  C4  UNL d   1      -0.496   0.260   1.336  0.00  0.00     0.002 A 
ATOM      3  C5  UNL d   1      -0.804  -1.097   1.242  0.00  0.00     0.002 A 
ATOM      4  C6  UNL d   1      -0.547  -1.793   0.062  0.00  0.00    -0.004 A 
ATOM      5  C7  UNL d   1       0.013  -1.128  -1.026  0.00  0.00     0.002 A 
ATOM      6  C8  UNL d   1       0.326   0.229  -0.934  0.00  0.00     0.002 A 
ENDROOT
BRANCH   1   7
ATOM      7  C2  UNL d   1       0.446   2.397   0.357  0.00  0.00     0.056 C 
BRANCH   7   8
ATOM      8  C1  UNL d   1       1.929   2.692   0.104  0.00  0.00     0.007 C 
ATOM      9  C   UNL d   1       2.649   3.243   1.327  0.00  0.00     0.009 C 
ENDBRANCH   7   8
ENDBRANCH   1   7
TORSDOF 2
ENDMDL
