MODEL 1
REMARK minimizedAffinity -6.29986477
REMARK minimizedRMSD -1
REMARK  2 active torsions:
REMARK  status: ('A' for Active; 'I' for Inactive)
REMARK    1  A    between atoms: C1_2  and  C2_3 
REMARK    2  A    between atoms: C2_3  and  C3_4 
ROOT
ATOM      1  C3  UNL d   1       0.312   0.295   0.163  0.00  0.00    -0.075 A 
ATOM      2  C4  UNL d   1      -0.512  -0.184   1.191  0.00  0.00     0.002 A 
ATOM      3  C5  UNL d   1      -0.731  -1.554   1.344  0.00  0.00     0.002 A 
ATOM      4  C6  UNL d   1      -0.139  -2.459   0.465  0.00  0.00    -0.004 A 
ATOM      5  C7  UNL d   1       0.668  -1.993  -0.570  0.00  0.00     0.002 A 
ATOM      6  C8  UNL d   1       0.893  -0.624  -0.722  0.00  0.00     0.002 A 
ENDROOT
BRANCH   1   7
ATOM      7  C2  UNL d   1       0.578   1.774   0.010  0.00  0.00     0.056 C 
BRANCH   7   8
ATOM      8  C1  UNL d   1       2.017   2.186   0.338  0.00  0.00     0.007 C 
ATOM      9  C   UNL d   1       2.113   3.141   1.520  0.00  0.00     0.009 C 
ENDBRANCH   7   8
ENDBRANCH   1   7
TORSDOF 2
ENDMDL
