MODEL 1
REMARK minimizedAffinity -5.92339754
REMARK minimizedRMSD -1
REMARK  2 active torsions:
REMARK  status: ('A' for Active; 'I' for Inactive)
REMARK    1  A    between atoms: C1_2  and  C2_3 
REMARK    2  A    between atoms: C2_3  and  C3_4 
ROOT
ATOM      1  C3  UNL d   1       0.262   0.073   0.392  0.00  0.00    -0.075 A 
ATOM      2  C4  UNL d   1      -0.292  -0.652   1.456  0.00  0.00     0.002 A 
ATOM      3  C5  UNL d   1      -0.424  -2.039   1.376  0.00  0.00     0.002 A 
ATOM      4  C6  UNL d   1      -0.015  -2.715   0.228  0.00  0.00    -0.004 A 
ATOM      5  C7  UNL d   1       0.521  -2.003  -0.842  0.00  0.00     0.002 A 
ATOM      6  C8  UNL d   1       0.658  -0.616  -0.762  0.00  0.00     0.002 A 
ENDROOT
BRANCH   1   7
ATOM      7  C2  UNL d   1       0.435   1.570   0.484  0.00  0.00     0.056 C 
BRANCH   7   8
ATOM      8  C1  UNL d   1       1.860   2.013   0.833  0.00  0.00     0.007 C 
ATOM      9  C   UNL d   1       1.983   3.514   1.061  0.00  0.00     0.009 C 
ENDBRANCH   7   8
ENDBRANCH   1   7
TORSDOF 2
ENDMDL
