MODEL 1
REMARK minimizedAffinity -5.53846598
REMARK minimizedRMSD -1
REMARK  2 active torsions:
REMARK  status: ('A' for Active; 'I' for Inactive)
REMARK    1  A    between atoms: C1_2  and  C2_3 
REMARK    2  A    between atoms: C2_3  and  C3_4 
ROOT
ATOM      1  C3  UNL d   1       0.344   0.597   0.270  0.00  0.00    -0.075 A 
ATOM      2  C4  UNL d   1       1.608   0.550   0.876  0.00  0.00     0.002 A 
ATOM      3  C5  UNL d   1       2.292   1.727   1.179  0.00  0.00     0.002 A 
ATOM      4  C6  UNL d   1       1.729   2.963   0.871  0.00  0.00    -0.004 A 
ATOM      5  C7  UNL d   1       0.481   3.021   0.253  0.00  0.00     0.002 A 
ATOM      6  C8  UNL d   1      -0.208   1.845  -0.047  0.00  0.00     0.002 A 
ENDROOT
BRANCH   1   7
ATOM      7  C2  UNL d   1      -0.415  -0.673  -0.034  0.00  0.00     0.056 C 
BRANCH   7   8
ATOM      8  C1  UNL d   1      -1.498  -1.014   0.995  0.00  0.00     0.007 C 
ATOM      9  C   UNL d   1      -0.936  -1.341   2.372  0.00  0.00     0.009 C 
ENDBRANCH   7   8
ENDBRANCH   1   7
TORSDOF 2
ENDMDL
