MODEL 1
REMARK minimizedAffinity 0.278728485
REMARK minimizedRMSD -1
REMARK  1 active torsions:
REMARK  status: ('A' for Active; 'I' for Inactive)
REMARK    1  A    between atoms: C1_2  and  C2_3 
ROOT
ATOM      1  C2  UNL d   1      -0.546   0.193  -4.742  0.00  0.00    -0.073 A 
ATOM      2  C3  UNL d   1       0.551   0.906  -5.240  0.00  0.00    -0.002 A 
ATOM      3  C4  UNL d   1       1.644   1.181  -4.418  0.00  0.00     0.004 A 
ATOM      4  C5  UNL d   1       1.656   0.742  -3.094  0.00  0.00    -0.004 A 
ATOM      5  C6  UNL d   1       0.574   0.018  -2.582  0.00  0.00    -0.075 A 
ATOM      6  C7  UNL d   1       0.570  -0.459  -1.159  0.00  0.00     0.076 C 
ATOM      7  C8  UNL d   1      -0.521  -0.252  -3.413  0.00  0.00     0.001 A 
ENDROOT
BRANCH   1   8
ATOM      8  C1  UNL d   1      -1.726  -0.112  -5.628  0.00  0.00     0.053 C 
ATOM      9  C   UNL d   1      -2.301  -1.493  -5.355  0.00  0.00     0.018 C 
ENDBRANCH   1   8
TORSDOF 1
ENDMDL
