MODEL 1
REMARK minimizedAffinity -3.73879862
REMARK minimizedRMSD -1
REMARK  1 active torsions:
REMARK  status: ('A' for Active; 'I' for Inactive)
REMARK    1  A    between atoms: C1_2  and  C2_3 
ROOT
ATOM      1  C2  UNL d   1       0.806  -0.405   0.586  0.00  0.00    -0.073 A 
ATOM      2  C3  UNL d   1      -0.495   0.103   0.506  0.00  0.00    -0.002 A 
ATOM      3  C4  UNL d   1      -1.197   0.430   1.667  0.00  0.00     0.004 A 
ATOM      4  C5  UNL d   1      -0.604   0.260   2.917  0.00  0.00    -0.004 A 
ATOM      5  C6  UNL d   1       0.700  -0.236   3.018  0.00  0.00    -0.075 A 
ATOM      6  C7  UNL d   1       1.352  -0.427   4.356  0.00  0.00     0.076 C 
ATOM      7  C8  UNL d   1       1.398  -0.564   1.848  0.00  0.00     0.001 A 
ENDROOT
BRANCH   1   8
ATOM      8  C1  UNL d   1       1.570  -0.754  -0.665  0.00  0.00     0.053 C 
ATOM      9  C   UNL d   1       0.646  -1.140  -1.809  0.00  0.00     0.018 C 
ENDBRANCH   1   8
TORSDOF 1
ENDMDL
