MODEL 1
REMARK minimizedAffinity -3.59158063
REMARK minimizedRMSD -1
REMARK  1 active torsions:
REMARK  status: ('A' for Active; 'I' for Inactive)
REMARK    1  A    between atoms: C1_2  and  C2_3 
ROOT
ATOM      1  C2  UNL d   1       0.096  -0.086   0.705  0.00  0.00    -0.073 A 
ATOM      2  C3  UNL d   1      -1.192  -0.122   0.158  0.00  0.00    -0.002 A 
ATOM      3  C4  UNL d   1      -2.274   0.399   0.867  0.00  0.00     0.004 A 
ATOM      4  C5  UNL d   1      -2.080   0.968   2.126  0.00  0.00    -0.004 A 
ATOM      5  C6  UNL d   1      -0.799   1.024   2.685  0.00  0.00    -0.075 A 
ATOM      6  C7  UNL d   1      -0.574   1.629   4.039  0.00  0.00     0.076 C 
ATOM      7  C8  UNL d   1       0.283   0.495   1.968  0.00  0.00     0.001 A 
ENDROOT
BRANCH   1   8
ATOM      8  C1  UNL d   1       1.269  -0.642  -0.060  0.00  0.00     0.053 C 
ATOM      9  C   UNL d   1       1.115  -0.447  -1.560  0.00  0.00     0.018 C 
ENDBRANCH   1   8
TORSDOF 1
ENDMDL
