MODEL 1
REMARK minimizedAffinity -3.54951239
REMARK minimizedRMSD -1
REMARK  1 active torsions:
REMARK  status: ('A' for Active; 'I' for Inactive)
REMARK    1  A    between atoms: C1_2  and  C2_3 
ROOT
ATOM      1  C2  UNL d   1       0.390   0.114  -0.467  0.00  0.00    -0.073 A 
ATOM      2  C3  UNL d   1       1.508  -0.598  -0.019  0.00  0.00    -0.002 A 
ATOM      3  C4  UNL d   1       1.915  -0.508   1.313  0.00  0.00     0.004 A 
ATOM      4  C5  UNL d   1       1.204   0.288   2.211  0.00  0.00    -0.004 A 
ATOM      5  C6  UNL d   1       0.076   0.998   1.785  0.00  0.00    -0.075 A 
ATOM      6  C7  UNL d   1      -0.698   1.860   2.739  0.00  0.00     0.076 C 
ATOM      7  C8  UNL d   1      -0.324   0.904   0.446  0.00  0.00     0.001 A 
ENDROOT
BRANCH   1   8
ATOM      8  C1  UNL d   1      -0.056   0.015  -1.903  0.00  0.00     0.053 C 
ATOM      9  C   UNL d   1       0.863   0.783  -2.840  0.00  0.00     0.018 C 
ENDBRANCH   1   8
TORSDOF 1
ENDMDL
