MODEL 1
REMARK minimizedAffinity -5.18274164
REMARK minimizedRMSD -1
REMARK  1 active torsions:
REMARK  status: ('A' for Active; 'I' for Inactive)
REMARK    1  A    between atoms: C1_2  and  C2_3 
ROOT
ATOM      1  C2  UNL d   1       0.183   0.325  -1.816  0.00  0.00    -0.073 A 
ATOM      2  C3  UNL d   1       0.547  -1.008  -1.589  0.00  0.00    -0.002 A 
ATOM      3  C4  UNL d   1       0.508  -1.538  -0.299  0.00  0.00     0.004 A 
ATOM      4  C5  UNL d   1       0.100  -0.747   0.774  0.00  0.00    -0.004 A 
ATOM      5  C6  UNL d   1      -0.279   0.583   0.565  0.00  0.00    -0.075 A 
ATOM      6  C7  UNL d   1      -0.719   1.449   1.709  0.00  0.00     0.076 C 
ATOM      7  C8  UNL d   1      -0.235   1.110  -0.732  0.00  0.00     0.001 A 
ENDROOT
BRANCH   1   8
ATOM      8  C1  UNL d   1       0.217   0.900  -3.208  0.00  0.00     0.053 C 
ATOM      9  C   UNL d   1       1.598   0.796  -3.835  0.00  0.00     0.018 C 
ENDBRANCH   1   8
TORSDOF 1
ENDMDL
