MODEL 1
REMARK minimizedAffinity -3.72728753
REMARK minimizedRMSD -1
REMARK  0 active torsions:
REMARK  status: ('A' for Active; 'I' for Inactive)
ROOT
ATOM      1  C4' PXY d   1       2.873  -1.526   0.860  0.00  0.00     0.077 C 
ATOM      2  C1' PXY d   1      -2.183   1.033  -0.283  0.00  0.00     0.077 C 
ATOM      3  C1  PXY d   1      -0.862   0.350   0.013  0.00  0.00    -0.082 A 
ATOM      4  C2  PXY d   1      -0.018   0.902   0.870  0.00  0.00     0.003 A 
ATOM      5  C3  PXY d   1       1.195   0.315   1.125  0.00  0.00     0.003 A 
ATOM      6  C4  PXY d   1       1.524  -0.877   0.538  0.00  0.00    -0.082 A 
ATOM      7  C5  PXY d   1       0.664  -1.452  -0.329  0.00  0.00     0.003 A 
ATOM      8  C6  PXY d   1      -0.544  -0.819  -0.606  0.00  0.00     0.003 A 
ENDROOT
TORSDOF 0
ENDMDL
