MODEL 1
REMARK minimizedAffinity -4.07831335
REMARK minimizedRMSD -1
REMARK  0 active torsions:
REMARK  status: ('A' for Active; 'I' for Inactive)
ROOT
ATOM      1  C4' PXY d   1      -0.968  -0.029   3.198  0.00  0.00     0.077 C 
ATOM      2  C1' PXY d   1       2.993  -1.903  -0.572  0.00  0.00     0.077 C 
ATOM      3  C1  PXY d   1       1.953  -1.400   0.410  0.00  0.00    -0.082 A 
ATOM      4  C2  PXY d   1       1.918  -1.897   1.636  0.00  0.00     0.003 A 
ATOM      5  C3  PXY d   1       0.964  -1.477   2.527  0.00  0.00     0.003 A 
ATOM      6  C4  PXY d   1       0.071  -0.500   2.176  0.00  0.00    -0.082 A 
ATOM      7  C5  PXY d   1       0.107   0.019   0.931  0.00  0.00     0.003 A 
ATOM      8  C6  PXY d   1       1.057  -0.451   0.028  0.00  0.00     0.003 A 
ENDROOT
TORSDOF 0
ENDMDL
