MODEL 1
REMARK minimizedAffinity -4.24596453
REMARK minimizedRMSD -1
REMARK  0 active torsions:
REMARK  status: ('A' for Active; 'I' for Inactive)
ROOT
ATOM      1  C4' PXY d   1       2.905  -0.801   0.647  0.00  0.00     0.077 C 
ATOM      2  C1' PXY d   1      -2.631   0.485  -0.406  0.00  0.00     0.077 C 
ATOM      3  C1  PXY d   1      -1.177   0.160  -0.125  0.00  0.00    -0.082 A 
ATOM      4  C2  PXY d   1      -0.566  -0.774  -0.836  0.00  0.00     0.003 A 
ATOM      5  C3  PXY d   1       0.738  -1.103  -0.573  0.00  0.00     0.003 A 
ATOM      6  C4  PXY d   1       1.441  -0.433   0.392  0.00  0.00    -0.082 A 
ATOM      7  C5  PXY d   1       0.828   0.528   1.115  0.00  0.00     0.003 A 
ATOM      8  C6  PXY d   1      -0.509   0.819   0.860  0.00  0.00     0.003 A 
ENDROOT
TORSDOF 0
ENDMDL
