MODEL 1
REMARK minimizedAffinity -5.2105751
REMARK minimizedRMSD -1
REMARK  0 active torsions:
REMARK  status: ('A' for Active; 'I' for Inactive)
ROOT
ATOM      1  C4' PXY d   1      -2.458   1.228  -0.223  0.00  0.00     0.077 C 
ATOM      2  C1' PXY d   1       2.624  -1.319   0.829  0.00  0.00     0.077 C 
ATOM      3  C1  PXY d   1       1.297  -0.640   0.550  0.00  0.00    -0.082 A 
ATOM      4  C2  PXY d   1       0.193  -1.108   1.109  0.00  0.00     0.003 A 
ATOM      5  C3  PXY d   1      -1.020  -0.525   0.842  0.00  0.00     0.003 A 
ATOM      6  C4  PXY d   1      -1.096   0.580   0.038  0.00  0.00    -0.082 A 
ATOM      7  C5  PXY d   1       0.028   1.069  -0.528  0.00  0.00     0.003 A 
ATOM      8  C6  PXY d   1       1.243   0.439  -0.277  0.00  0.00     0.003 A 
ENDROOT
TORSDOF 0
ENDMDL
