MODEL 1
REMARK minimizedAffinity -5.08544445
REMARK minimizedRMSD -1
REMARK  0 active torsions:
REMARK  status: ('A' for Active; 'I' for Inactive)
ROOT
ATOM      1  C4' PXY d   1      -2.625   0.695  -0.430  0.00  0.00     0.077 C 
ATOM      2  C1' PXY d   1       2.672  -1.434   0.478  0.00  0.00     0.077 C 
ATOM      3  C1  PXY d   1       1.285  -0.867   0.250  0.00  0.00    -0.082 A 
ATOM      4  C2  PXY d   1       0.362  -1.613  -0.336  0.00  0.00     0.003 A 
ATOM      5  C3  PXY d   1      -0.889  -1.105  -0.579  0.00  0.00     0.003 A 
ATOM      6  C4  PXY d   1      -1.213   0.161  -0.170  0.00  0.00    -0.082 A 
ATOM      7  C5  PXY d   1      -0.280   0.924   0.437  0.00  0.00     0.003 A 
ATOM      8  C6  PXY d   1       0.995   0.404   0.637  0.00  0.00     0.003 A 
ENDROOT
TORSDOF 0
ENDMDL
