MODEL 1
REMARK minimizedAffinity -3.71185184
REMARK minimizedRMSD -1
REMARK  0 active torsions:
REMARK  status: ('A' for Active; 'I' for Inactive)
ROOT
ATOM      1  C4' PXY d   1      -1.561   0.206  -0.549  0.00  0.00     0.077 C 
ATOM      2  C1' PXY d   1       3.671  -1.306   1.387  0.00  0.00     0.077 C 
ATOM      3  C1  PXY d   1       2.303  -0.911   0.867  0.00  0.00    -0.082 A 
ATOM      4  C2  PXY d   1       1.501  -0.182   1.626  0.00  0.00     0.003 A 
ATOM      5  C3  PXY d   1       0.248   0.157   1.184  0.00  0.00     0.003 A 
ATOM      6  C4  PXY d   1      -0.167  -0.208  -0.069  0.00  0.00    -0.082 A 
ATOM      7  C5  PXY d   1       0.650  -0.942  -0.853  0.00  0.00     0.003 A 
ATOM      8  C6  PXY d   1       1.902  -1.312  -0.370  0.00  0.00     0.003 A 
ENDROOT
TORSDOF 0
ENDMDL
