MODEL 1
REMARK minimizedAffinity -4.80337381
REMARK minimizedRMSD -1
REMARK  0 active torsions:
REMARK  status: ('A' for Active; 'I' for Inactive)
ROOT
ATOM      1  C4' PXY d   1       2.561  -1.694   0.043  0.00  0.00     0.077 C 
ATOM      2  C1' PXY d   1      -2.594   0.922  -0.024  0.00  0.00     0.077 C 
ATOM      3  C1  PXY d   1      -1.236   0.248  -0.007  0.00  0.00    -0.082 A 
ATOM      4  C2  PXY d   1      -1.119  -0.998  -0.436  0.00  0.00     0.003 A 
ATOM      5  C3  PXY d   1       0.095  -1.634  -0.398  0.00  0.00     0.003 A 
ATOM      6  C4  PXY d   1       1.211  -0.970   0.035  0.00  0.00    -0.082 A 
ATOM      7  C5  PXY d   1       1.103   0.305   0.465  0.00  0.00     0.003 A 
ATOM      8  C6  PXY d   1      -0.147   0.919   0.456  0.00  0.00     0.003 A 
ENDROOT
TORSDOF 0
ENDMDL
