MODEL 1
REMARK minimizedAffinity -3.73957276
REMARK minimizedRMSD -1
REMARK  0 active torsions:
REMARK  status: ('A' for Active; 'I' for Inactive)
ROOT
ATOM      1  C4' PXY d   1      -1.893   0.764  -0.385  0.00  0.00     0.077 C 
ATOM      2  C1' PXY d   1       3.506  -1.147   0.395  0.00  0.00     0.077 C 
ATOM      3  C1  PXY d   1       2.089  -0.654   0.180  0.00  0.00    -0.082 A 
ATOM      4  C2  PXY d   1       1.728   0.527   0.655  0.00  0.00     0.003 A 
ATOM      5  C3  PXY d   1       0.442   0.975   0.498  0.00  0.00     0.003 A 
ATOM      6  C4  PXY d   1      -0.470   0.229  -0.200  0.00  0.00    -0.082 A 
ATOM      7  C5  PXY d   1      -0.107  -0.972  -0.697  0.00  0.00     0.003 A 
ATOM      8  C6  PXY d   1       1.192  -1.426  -0.491  0.00  0.00     0.003 A 
ENDROOT
TORSDOF 0
ENDMDL
