MODEL 1
REMARK minimizedAffinity 6.18299341
REMARK minimizedRMSD -1
REMARK  1 active torsions:
REMARK  status: ('A' for Active; 'I' for Inactive)
REMARK    1  A    between atoms: C1_2  and  C2_3 
ROOT
ATOM      1  C2  UNL d   1       3.376  -3.505  -0.178  0.00  0.00    -0.073 A 
ATOM      2  C3  UNL d   1       2.259  -4.158   0.355  0.00  0.00    -0.002 A 
ATOM      3  C4  UNL d   1       1.860  -5.397  -0.148  0.00  0.00     0.004 A 
ATOM      4  C5  UNL d   1       2.577  -5.999  -1.183  0.00  0.00    -0.004 A 
ATOM      5  C6  UNL d   1       3.703  -5.367  -1.720  0.00  0.00    -0.075 A 
ATOM      6  C7  UNL d   1       4.484  -6.000  -2.835  0.00  0.00     0.076 C 
ATOM      7  C8  UNL d   1       4.096  -4.122  -1.212  0.00  0.00     0.001 A 
ENDROOT
BRANCH   1   8
ATOM      8  C1  UNL d   1       3.814  -2.170   0.366  0.00  0.00     0.053 C 
ATOM      9  C   UNL d   1       5.327  -2.028   0.377  0.00  0.00     0.018 C 
ENDBRANCH   1   8
TORSDOF 1
ENDMDL
