MODEL 1
REMARK minimizedAffinity 4.09034014
REMARK minimizedRMSD -1
REMARK  1 active torsions:
REMARK  status: ('A' for Active; 'I' for Inactive)
REMARK    1  A    between atoms: C1_2  and  C2_3 
ROOT
ATOM      1  C2  UNL d   1       0.800   0.777   2.630  0.00  0.00    -0.073 A 
ATOM      2  C3  UNL d   1      -0.439   0.940   3.259  0.00  0.00    -0.002 A 
ATOM      3  C4  UNL d   1      -1.295   1.972   2.874  0.00  0.00     0.004 A 
ATOM      4  C5  UNL d   1      -0.925   2.847   1.853  0.00  0.00    -0.004 A 
ATOM      5  C6  UNL d   1       0.305   2.694   1.204  0.00  0.00    -0.075 A 
ATOM      6  C7  UNL d   1       0.719   3.628   0.106  0.00  0.00     0.076 C 
ATOM      7  C8  UNL d   1       1.160   1.656   1.599  0.00  0.00     0.001 A 
ENDROOT
BRANCH   1   8
ATOM      8  C1  UNL d   1       1.725  -0.340   3.038  0.00  0.00     0.053 C 
ATOM      9  C   UNL d   1       1.415  -0.855   4.435  0.00  0.00     0.018 C 
ENDBRANCH   1   8
TORSDOF 1
ENDMDL
