MODEL 1
REMARK minimizedAffinity 5.8640933
REMARK minimizedRMSD -1
REMARK  1 active torsions:
REMARK  status: ('A' for Active; 'I' for Inactive)
REMARK    1  A    between atoms: C1_2  and  C2_3 
ROOT
ATOM      1  C2  UNL d   1       0.852   1.921   2.286  0.00  0.00    -0.073 A 
ATOM      2  C3  UNL d   1      -0.492   1.605   2.515  0.00  0.00    -0.002 A 
ATOM      3  C4  UNL d   1      -1.504   2.307   1.858  0.00  0.00     0.004 A 
ATOM      4  C5  UNL d   1      -1.182   3.325   0.961  0.00  0.00    -0.004 A 
ATOM      5  C6  UNL d   1       0.155   3.647   0.709  0.00  0.00    -0.075 A 
ATOM      6  C7  UNL d   1       0.518   4.742  -0.252  0.00  0.00     0.076 C 
ATOM      7  C8  UNL d   1       1.165   2.940   1.375  0.00  0.00     0.001 A 
ENDROOT
BRANCH   1   8
ATOM      8  C1  UNL d   1       1.947   1.161   2.988  0.00  0.00     0.053 C 
ATOM      9  C   UNL d   1       1.399   0.224   4.053  0.00  0.00     0.018 C 
ENDBRANCH   1   8
TORSDOF 1
ENDMDL
