MODEL 1
REMARK minimizedAffinity 10.0054874
REMARK minimizedRMSD -1
REMARK  1 active torsions:
REMARK  status: ('A' for Active; 'I' for Inactive)
REMARK    1  A    between atoms: C1_2  and  C2_3 
ROOT
ATOM      1  C2  UNL d   1      -2.477   0.829  -3.873  0.00  0.00    -0.073 A 
ATOM      2  C3  UNL d   1      -1.606  -0.154  -4.356  0.00  0.00    -0.002 A 
ATOM      3  C4  UNL d   1      -1.009  -1.060  -3.478  0.00  0.00     0.004 A 
ATOM      4  C5  UNL d   1      -1.281  -0.996  -2.111  0.00  0.00    -0.004 A 
ATOM      5  C6  UNL d   1      -2.157  -0.028  -1.611  0.00  0.00    -0.075 A 
ATOM      6  C7  UNL d   1      -2.459   0.055  -0.143  0.00  0.00     0.076 C 
ATOM      7  C8  UNL d   1      -2.751   0.879  -2.498  0.00  0.00     0.001 A 
ENDROOT
BRANCH   1   8
ATOM      8  C1  UNL d   1      -3.130   1.805  -4.817  0.00  0.00     0.053 C 
ATOM      9  C   UNL d   1      -3.781   1.105  -6.000  0.00  0.00     0.018 C 
ENDBRANCH   1   8
TORSDOF 1
ENDMDL
