MODEL 1
REMARK minimizedAffinity 13.4471397
REMARK minimizedRMSD -1
REMARK  1 active torsions:
REMARK  status: ('A' for Active; 'I' for Inactive)
REMARK    1  A    between atoms: C1_2  and  C2_3 
ROOT
ATOM      1  C2  UNL d   1      -3.506   4.464  -0.959  0.00  0.00    -0.073 A 
ATOM      2  C3  UNL d   1      -2.353   5.027  -0.400  0.00  0.00    -0.002 A 
ATOM      3  C4  UNL d   1      -1.426   4.222   0.264  0.00  0.00     0.004 A 
ATOM      4  C5  UNL d   1      -1.639   2.847   0.370  0.00  0.00    -0.004 A 
ATOM      5  C6  UNL d   1      -2.780   2.265  -0.192  0.00  0.00    -0.075 A 
ATOM      6  C7  UNL d   1      -3.025   0.788  -0.084  0.00  0.00     0.076 C 
ATOM      7  C8  UNL d   1      -3.707   3.080  -0.855  0.00  0.00     0.001 A 
ENDROOT
BRANCH   1   8
ATOM      8  C1  UNL d   1      -4.506   5.329  -1.682  0.00  0.00     0.053 C 
ATOM      9  C   UNL d   1      -5.519   5.947  -0.731  0.00  0.00     0.018 C 
ENDBRANCH   1   8
TORSDOF 1
ENDMDL
