MODEL 1
REMARK minimizedAffinity 18.0646687
REMARK minimizedRMSD -1
REMARK  1 active torsions:
REMARK  status: ('A' for Active; 'I' for Inactive)
REMARK    1  A    between atoms: C1_2  and  C2_3 
ROOT
ATOM      1  C2  UNL d   1      -0.162   3.219   1.421  0.00  0.00    -0.073 A 
ATOM      2  C3  UNL d   1       1.138   3.654   1.139  0.00  0.00    -0.002 A 
ATOM      3  C4  UNL d   1       1.363   4.598   0.137  0.00  0.00     0.004 A 
ATOM      4  C5  UNL d   1       0.293   5.122  -0.588  0.00  0.00    -0.004 A 
ATOM      5  C6  UNL d   1      -1.014   4.709  -0.313  0.00  0.00    -0.075 A 
ATOM      6  C7  UNL d   1      -2.177   5.261  -1.085  0.00  0.00     0.076 C 
ATOM      7  C8  UNL d   1      -1.233   3.758   0.693  0.00  0.00     0.001 A 
ENDROOT
BRANCH   1   8
ATOM      8  C1  UNL d   1      -0.412   2.205   2.507  0.00  0.00     0.053 C 
ATOM      9  C   UNL d   1      -1.820   2.308   3.071  0.00  0.00     0.018 C 
ENDBRANCH   1   8
TORSDOF 1
ENDMDL
