MODEL 1
REMARK minimizedAffinity 10.9733019
REMARK minimizedRMSD -1
REMARK  1 active torsions:
REMARK  status: ('A' for Active; 'I' for Inactive)
REMARK    1  A    between atoms: C1_2  and  C2_3 
ROOT
ATOM      1  C2  UNL d   1       0.297   3.317   0.314  0.00  0.00    -0.073 A 
ATOM      2  C3  UNL d   1      -0.255   4.192  -0.629  0.00  0.00    -0.002 A 
ATOM      3  C4  UNL d   1       0.237   5.491  -0.758  0.00  0.00     0.004 A 
ATOM      4  C5  UNL d   1       1.289   5.927   0.048  0.00  0.00    -0.004 A 
ATOM      5  C6  UNL d   1       1.861   5.064   0.988  0.00  0.00    -0.075 A 
ATOM      6  C7  UNL d   1       2.992   5.518   1.864  0.00  0.00     0.076 C 
ATOM      7  C8  UNL d   1       1.360   3.762   1.114  0.00  0.00     0.001 A 
ENDROOT
BRANCH   1   8
ATOM      8  C1  UNL d   1      -0.226   1.911   0.453  0.00  0.00     0.053 C 
ATOM      9  C   UNL d   1       0.265   1.007  -0.667  0.00  0.00     0.018 C 
ENDBRANCH   1   8
TORSDOF 1
ENDMDL
