MODEL 1
REMARK minimizedAffinity 6.06939077
REMARK minimizedRMSD -1
REMARK  1 active torsions:
REMARK  status: ('A' for Active; 'I' for Inactive)
REMARK    1  A    between atoms: C1_2  and  C2_3 
ROOT
ATOM      1  C2  UNL d   1       3.826  -4.391  -1.677  0.00  0.00    -0.073 A 
ATOM      2  C3  UNL d   1       4.415  -3.434  -0.842  0.00  0.00    -0.002 A 
ATOM      3  C4  UNL d   1       5.174  -2.397  -1.384  0.00  0.00     0.004 A 
ATOM      4  C5  UNL d   1       5.348  -2.302  -2.765  0.00  0.00    -0.004 A 
ATOM      5  C6  UNL d   1       4.758  -3.241  -3.617  0.00  0.00    -0.075 A 
ATOM      6  C7  UNL d   1       4.936  -3.154  -5.104  0.00  0.00     0.076 C 
ATOM      7  C8  UNL d   1       3.998  -4.282  -3.064  0.00  0.00     0.001 A 
ENDROOT
BRANCH   1   8
ATOM      8  C1  UNL d   1       3.000  -5.509  -1.096  0.00  0.00     0.053 C 
ATOM      9  C   UNL d   1       1.729  -4.996  -0.438  0.00  0.00     0.018 C 
ENDBRANCH   1   8
TORSDOF 1
ENDMDL
