MODEL 1
REMARK minimizedAffinity -5.2492795
REMARK minimizedRMSD -1
REMARK  3 active torsions:
REMARK  status: ('A' for Active; 'I' for Inactive)
REMARK    1  A    between atoms: C3'_2  and  C2'_3 
REMARK    2  A    between atoms: C2'_3  and  C1'_4 
REMARK    3  A    between atoms: C1'_4  and  C1_5 
ROOT
ATOM      1  C1  N4B d   1       0.983  -0.462  -0.035  0.00  0.00    -0.075 A 
ATOM      2  C2  N4B d   1       2.377  -0.236  -0.044  0.00  0.00     0.002 A 
ATOM      3  C3  N4B d   1       3.184  -0.885   0.859  0.00  0.00     0.002 A 
ATOM      4  C4  N4B d   1       2.619  -1.747   1.787  0.00  0.00    -0.004 A 
ATOM      5  C5  N4B d   1       1.275  -1.979   1.772  0.00  0.00     0.002 A 
ATOM      6  C6  N4B d   1       0.453  -1.336   0.869  0.00  0.00     0.002 A 
ENDROOT
BRANCH   1   7
ATOM      7  C1' N4B d   1       0.051   0.290  -0.946  0.00  0.00     0.057 C 
BRANCH   7   8
ATOM      8  C2' N4B d   1      -1.385  -0.134  -0.653  0.00  0.00     0.009 C 
BRANCH   8   9
ATOM      9  C3' N4B d   1      -2.335   0.270  -1.768  0.00  0.00     0.004 C 
ATOM     10  C4' N4B d   1      -2.523  -0.811  -2.790  0.00  0.00     0.003 C 
ENDBRANCH   8   9
ENDBRANCH   7   8
ENDBRANCH   1   7
TORSDOF 3
ENDMDL
