MODEL 1
REMARK minimizedAffinity -4.86224794
REMARK minimizedRMSD -1
REMARK  3 active torsions:
REMARK  status: ('A' for Active; 'I' for Inactive)
REMARK    1  A    between atoms: C3'_2  and  C2'_3 
REMARK    2  A    between atoms: C2'_3  and  C1'_4 
REMARK    3  A    between atoms: C1'_4  and  C1_5 
ROOT
ATOM      1  C1  N4B d   1       0.317   0.150   0.240  0.00  0.00    -0.075 A 
ATOM      2  C2  N4B d   1       1.030  -0.206   1.406  0.00  0.00     0.002 A 
ATOM      3  C3  N4B d   1       2.357   0.127   1.528  0.00  0.00     0.002 A 
ATOM      4  C4  N4B d   1       2.994   0.795   0.494  0.00  0.00    -0.004 A 
ATOM      5  C5  N4B d   1       2.292   1.158  -0.618  0.00  0.00     0.002 A 
ATOM      6  C6  N4B d   1       0.957   0.834  -0.752  0.00  0.00     0.002 A 
ENDROOT
BRANCH   1   7
ATOM      7  C1' N4B d   1      -1.112  -0.267   0.025  0.00  0.00     0.057 C 
BRANCH   7   8
ATOM      8  C2' N4B d   1      -1.527   0.086  -1.400  0.00  0.00     0.009 C 
BRANCH   8   9
ATOM      9  C3' N4B d   1      -2.924  -0.414  -1.725  0.00  0.00     0.004 C 
ATOM     10  C4' N4B d   1      -3.387   0.002  -3.090  0.00  0.00     0.003 C 
ENDBRANCH   8   9
ENDBRANCH   7   8
ENDBRANCH   1   7
TORSDOF 3
ENDMDL
