MODEL 1
REMARK minimizedAffinity -0.820702136
REMARK minimizedRMSD -1
REMARK  3 active torsions:
REMARK  status: ('A' for Active; 'I' for Inactive)
REMARK    1  A    between atoms: C3'_2  and  C2'_3 
REMARK    2  A    between atoms: C2'_3  and  C1'_4 
REMARK    3  A    between atoms: C1'_4  and  C1_5 
ROOT
ATOM      1  C1  N4B d   1      -0.930   0.556  -1.773  0.00  0.00    -0.075 A 
ATOM      2  C2  N4B d   1      -1.132   0.204  -3.126  0.00  0.00     0.002 A 
ATOM      3  C3  N4B d   1      -2.402   0.185  -3.648  0.00  0.00     0.002 A 
ATOM      4  C4  N4B d   1      -3.482   0.494  -2.835  0.00  0.00    -0.004 A 
ATOM      5  C5  N4B d   1      -3.276   0.857  -1.536  0.00  0.00     0.002 A 
ATOM      6  C6  N4B d   1      -2.005   0.885  -0.999  0.00  0.00     0.002 A 
ENDROOT
BRANCH   1   7
ATOM      7  C1' N4B d   1       0.432   0.507  -1.135  0.00  0.00     0.057 C 
BRANCH   7   8
ATOM      8  C2' N4B d   1       0.446   1.425   0.085  0.00  0.00     0.009 C 
BRANCH   8   9
ATOM      9  C3' N4B d   1       1.841   1.575   0.666  0.00  0.00     0.004 C 
ATOM     10  C4' N4B d   1       2.279   0.371   1.445  0.00  0.00     0.003 C 
ENDBRANCH   8   9
ENDBRANCH   7   8
ENDBRANCH   1   7
TORSDOF 3
ENDMDL
