MODEL 1
REMARK minimizedAffinity -4.10845613
REMARK minimizedRMSD -1
REMARK  3 active torsions:
REMARK  status: ('A' for Active; 'I' for Inactive)
REMARK    1  A    between atoms: C3'_2  and  C2'_3 
REMARK    2  A    between atoms: C2'_3  and  C1'_4 
REMARK    3  A    between atoms: C1'_4  and  C1_5 
ROOT
ATOM      1  C1  N4B d   1       0.401  -0.211   0.578  0.00  0.00    -0.075 A 
ATOM      2  C2  N4B d   1       1.382   0.800   0.476  0.00  0.00     0.002 A 
ATOM      3  C3  N4B d   1       2.552   0.696   1.188  0.00  0.00     0.002 A 
ATOM      4  C4  N4B d   1       2.755  -0.397   2.018  0.00  0.00    -0.004 A 
ATOM      5  C5  N4B d   1       1.813  -1.381   2.090  0.00  0.00     0.002 A 
ATOM      6  C6  N4B d   1       0.634  -1.291   1.378  0.00  0.00     0.002 A 
ENDROOT
BRANCH   1   7
ATOM      7  C1' N4B d   1      -0.930  -0.098  -0.114  0.00  0.00     0.057 C 
BRANCH   7   8
ATOM      8  C2' N4B d   1      -0.701   0.126  -1.606  0.00  0.00     0.009 C 
BRANCH   8   9
ATOM      9  C3' N4B d   1      -1.922  -0.247  -2.430  0.00  0.00     0.004 C 
ATOM     10  C4' N4B d   1      -2.844   0.913  -2.660  0.00  0.00     0.003 C 
ENDBRANCH   8   9
ENDBRANCH   7   8
ENDBRANCH   1   7
TORSDOF 3
ENDMDL
