MODEL 1
REMARK minimizedAffinity -5.20978689
REMARK minimizedRMSD -1
REMARK  3 active torsions:
REMARK  status: ('A' for Active; 'I' for Inactive)
REMARK    1  A    between atoms: C3'_2  and  C2'_3 
REMARK    2  A    between atoms: C2'_3  and  C1'_4 
REMARK    3  A    between atoms: C1'_4  and  C1_5 
ROOT
ATOM      1  C1  N4B d   1       0.514  -0.239   0.464  0.00  0.00    -0.075 A 
ATOM      2  C2  N4B d   1       0.139  -1.443   1.101  0.00  0.00     0.002 A 
ATOM      3  C3  N4B d   1       0.880  -1.923   2.153  0.00  0.00     0.002 A 
ATOM      4  C4  N4B d   1       2.006  -1.229   2.571  0.00  0.00    -0.004 A 
ATOM      5  C5  N4B d   1       2.346  -0.054   1.968  0.00  0.00     0.002 A 
ATOM      6  C6  N4B d   1       1.608   0.442   0.912  0.00  0.00     0.002 A 
ENDROOT
BRANCH   1   7
ATOM      7  C1' N4B d   1      -0.216   0.281  -0.744  0.00  0.00     0.057 C 
BRANCH   7   8
ATOM      8  C2' N4B d   1      -1.696  -0.072  -0.626  0.00  0.00     0.009 C 
BRANCH   8   9
ATOM      9  C3' N4B d   1      -2.477   0.334  -1.864  0.00  0.00     0.004 C 
ATOM     10  C4' N4B d   1      -2.730  -0.815  -2.793  0.00  0.00     0.003 C 
ENDBRANCH   8   9
ENDBRANCH   7   8
ENDBRANCH   1   7
TORSDOF 3
ENDMDL
