MODEL 1
REMARK minimizedAffinity -4.22182751
REMARK minimizedRMSD -1
REMARK  0 active torsions:
REMARK  status: ('A' for Active; 'I' for Inactive)
ROOT
ATOM      1  C   UNL d   1       2.989  -1.490   1.164  0.00  0.00     0.077 C 
ATOM      2  C1  UNL d   1       1.966  -0.538   0.620  0.00  0.00    -0.074 A 
ATOM      3  C2  UNL d   1       1.890   0.778   1.085  0.00  0.00    -0.005 A 
ATOM      4  C3  UNL d   1       0.940   1.655   0.563  0.00  0.00     0.006 A 
ATOM      5  C4  UNL d   1       0.057   1.226  -0.429  0.00  0.00    -0.005 A 
ATOM      6  C5  UNL d   1       0.119  -0.087  -0.908  0.00  0.00    -0.074 A 
ATOM      7  C6  UNL d   1      -0.816  -0.562  -1.980  0.00  0.00     0.077 C 
ATOM      8  C7  UNL d   1       1.081  -0.960  -0.382  0.00  0.00    -0.001 A 
ENDROOT
TORSDOF 0
ENDMDL
