MODEL 1
REMARK minimizedAffinity -2.5187757
REMARK minimizedRMSD -1
REMARK  0 active torsions:
REMARK  status: ('A' for Active; 'I' for Inactive)
ROOT
ATOM      1  C   UNL d   1       3.504  -1.161   1.166  0.00  0.00     0.077 C 
ATOM      2  C1  UNL d   1       2.299  -0.438   0.640  0.00  0.00    -0.074 A 
ATOM      3  C2  UNL d   1       1.993   0.857   1.069  0.00  0.00    -0.005 A 
ATOM      4  C3  UNL d   1       0.875   1.520   0.564  0.00  0.00     0.006 A 
ATOM      5  C4  UNL d   1       0.052   0.895  -0.374  0.00  0.00    -0.005 A 
ATOM      6  C5  UNL d   1       0.343  -0.400  -0.816  0.00  0.00    -0.074 A 
ATOM      7  C6  UNL d   1      -0.526  -1.082  -1.831  0.00  0.00     0.077 C 
ATOM      8  C7  UNL d   1       1.472  -1.056  -0.309  0.00  0.00    -0.001 A 
ENDROOT
TORSDOF 0
ENDMDL
