MODEL 1
REMARK minimizedAffinity 2.80921316
REMARK minimizedRMSD -1
REMARK  0 active torsions:
REMARK  status: ('A' for Active; 'I' for Inactive)
ROOT
ATOM      1  C   UNL d   1      -0.375  -2.451  -2.005  0.00  0.00     0.077 C 
ATOM      2  C1  UNL d   1      -0.753  -2.057  -3.402  0.00  0.00    -0.074 A 
ATOM      3  C2  UNL d   1      -0.763  -2.998  -4.437  0.00  0.00    -0.005 A 
ATOM      4  C3  UNL d   1      -1.126  -2.619  -5.729  0.00  0.00     0.006 A 
ATOM      5  C4  UNL d   1      -1.482  -1.297  -6.000  0.00  0.00    -0.005 A 
ATOM      6  C5  UNL d   1      -1.478  -0.342  -4.978  0.00  0.00    -0.074 A 
ATOM      7  C6  UNL d   1      -1.866   1.081  -5.250  0.00  0.00     0.077 C 
ATOM      8  C7  UNL d   1      -1.118  -0.733  -3.681  0.00  0.00    -0.001 A 
ENDROOT
TORSDOF 0
ENDMDL
