MODEL 1
REMARK minimizedAffinity -1.90819371
REMARK minimizedRMSD -1
REMARK  0 active torsions:
REMARK  status: ('A' for Active; 'I' for Inactive)
ROOT
ATOM      1  C   UNL d   1       2.675  -0.662   1.878  0.00  0.00     0.077 C 
ATOM      2  C1  UNL d   1       1.747   0.168   1.041  0.00  0.00    -0.074 A 
ATOM      3  C2  UNL d   1       1.930   1.549   0.920  0.00  0.00    -0.005 A 
ATOM      4  C3  UNL d   1       1.064   2.306   0.131  0.00  0.00     0.006 A 
ATOM      5  C4  UNL d   1       0.010   1.691  -0.545  0.00  0.00    -0.005 A 
ATOM      6  C5  UNL d   1      -0.188   0.311  -0.437  0.00  0.00    -0.074 A 
ATOM      7  C6  UNL d   1      -1.310  -0.368  -1.164  0.00  0.00     0.077 C 
ATOM      8  C7  UNL d   1       0.690  -0.444   0.353  0.00  0.00    -0.001 A 
ENDROOT
TORSDOF 0
ENDMDL
