MODEL 1
REMARK minimizedAffinity -3.24722791
REMARK minimizedRMSD -1
REMARK  0 active torsions:
REMARK  status: ('A' for Active; 'I' for Inactive)
ROOT
ATOM      1  C   UNL d   1       2.393  -2.163  -0.798  0.00  0.00     0.077 C 
ATOM      2  C1  UNL d   1       1.198  -1.257  -0.753  0.00  0.00    -0.074 A 
ATOM      3  C2  UNL d   1       0.978  -0.411   0.339  0.00  0.00    -0.005 A 
ATOM      4  C3  UNL d   1      -0.132   0.433   0.362  0.00  0.00     0.006 A 
ATOM      5  C4  UNL d   1      -1.032   0.440  -0.705  0.00  0.00    -0.005 A 
ATOM      6  C5  UNL d   1      -0.827  -0.398  -1.806  0.00  0.00    -0.074 A 
ATOM      7  C6  UNL d   1      -1.779  -0.396  -2.965  0.00  0.00     0.077 C 
ATOM      8  C7  UNL d   1       0.294  -1.238  -1.825  0.00  0.00    -0.001 A 
ENDROOT
TORSDOF 0
ENDMDL
