MODEL 1
REMARK minimizedAffinity -3.81903291
REMARK minimizedRMSD -1
REMARK  0 active torsions:
REMARK  status: ('A' for Active; 'I' for Inactive)
ROOT
ATOM      1  C   UNL d   1       3.434  -1.354   1.376  0.00  0.00     0.077 C 
ATOM      2  C1  UNL d   1       2.320  -0.601   0.713  0.00  0.00    -0.074 A 
ATOM      3  C2  UNL d   1       2.192   0.783   0.874  0.00  0.00    -0.005 A 
ATOM      4  C3  UNL d   1       1.155   1.471   0.244  0.00  0.00     0.006 A 
ATOM      5  C4  UNL d   1       0.238   0.784  -0.552  0.00  0.00    -0.005 A 
ATOM      6  C5  UNL d   1       0.350  -0.599  -0.725  0.00  0.00    -0.074 A 
ATOM      7  C6  UNL d   1      -0.621  -1.351  -1.586  0.00  0.00     0.077 C 
ATOM      8  C7  UNL d   1       1.399  -1.282  -0.094  0.00  0.00    -0.001 A 
ENDROOT
TORSDOF 0
ENDMDL
