MODEL 1
REMARK minimizedAffinity -3.05004168
REMARK minimizedRMSD -1
REMARK  0 active torsions:
REMARK  status: ('A' for Active; 'I' for Inactive)
ROOT
ATOM      1  C   UNL d   1      -0.777  -0.356   0.076  0.00  0.00     0.077 C 
ATOM      2  C1  UNL d   1       0.721  -0.431   0.075  0.00  0.00    -0.074 A 
ATOM      3  C2  UNL d   1       1.478   0.301   0.996  0.00  0.00    -0.005 A 
ATOM      4  C3  UNL d   1       2.870   0.214   0.989  0.00  0.00     0.006 A 
ATOM      5  C4  UNL d   1       3.518  -0.605   0.063  0.00  0.00    -0.005 A 
ATOM      6  C5  UNL d   1       2.778  -1.345  -0.864  0.00  0.00    -0.074 A 
ATOM      7  C6  UNL d   1       3.459  -2.237  -1.859  0.00  0.00     0.077 C 
ATOM      8  C7  UNL d   1       1.379  -1.257  -0.847  0.00  0.00    -0.001 A 
ENDROOT
TORSDOF 0
ENDMDL
