MODEL 1
REMARK minimizedAffinity 1.34867203
REMARK minimizedRMSD -1
REMARK  0 active torsions:
REMARK  status: ('A' for Active; 'I' for Inactive)
ROOT
ATOM      1  C   UNL d   1      -4.035   0.659   1.630  0.00  0.00     0.077 C 
ATOM      2  C1  UNL d   1      -2.949   0.379   0.635  0.00  0.00    -0.074 A 
ATOM      3  C2  UNL d   1      -3.253   0.090  -0.699  0.00  0.00    -0.005 A 
ATOM      4  C3  UNL d   1      -2.231  -0.158  -1.616  0.00  0.00     0.006 A 
ATOM      5  C4  UNL d   1      -0.897  -0.120  -1.208  0.00  0.00    -0.005 A 
ATOM      6  C5  UNL d   1      -0.574   0.168   0.122  0.00  0.00    -0.074 A 
ATOM      7  C6  UNL d   1       0.855   0.222   0.574  0.00  0.00     0.077 C 
ATOM      8  C7  UNL d   1      -1.606   0.423   1.035  0.00  0.00    -0.001 A 
ENDROOT
TORSDOF 0
ENDMDL
