MODEL 1
REMARK minimizedAffinity -2.34837961
REMARK minimizedRMSD -1
REMARK  0 active torsions:
REMARK  status: ('A' for Active; 'I' for Inactive)
ROOT
ATOM      1  C   UNL d   1      -1.503  -0.791  -0.379  0.00  0.00     0.077 C 
ATOM      2  C1  UNL d   1      -0.006  -0.869  -0.320  0.00  0.00    -0.074 A 
ATOM      3  C2  UNL d   1       0.682  -1.934  -0.911  0.00  0.00    -0.005 A 
ATOM      4  C3  UNL d   1       2.074  -1.988  -0.855  0.00  0.00     0.006 A 
ATOM      5  C4  UNL d   1       2.792  -0.981  -0.209  0.00  0.00    -0.005 A 
ATOM      6  C5  UNL d   1       2.121   0.092   0.387  0.00  0.00    -0.074 A 
ATOM      7  C6  UNL d   1       2.877   1.188   1.077  0.00  0.00     0.077 C 
ATOM      8  C7  UNL d   1       0.722   0.143   0.321  0.00  0.00    -0.001 A 
ENDROOT
TORSDOF 0
ENDMDL
