MODEL 1
REMARK minimizedAffinity -1.33971155
REMARK minimizedRMSD -1
REMARK  0 active torsions:
REMARK  status: ('A' for Active; 'I' for Inactive)
ROOT
ATOM      1  C   UNL d   1       2.073  -1.058   0.332  0.00  0.00     0.077 C 
ATOM      2  C1  UNL d   1       1.022   0.012   0.336  0.00  0.00    -0.074 A 
ATOM      3  C2  UNL d   1       1.364   1.355   0.147  0.00  0.00    -0.005 A 
ATOM      4  C3  UNL d   1       0.374   2.339   0.144  0.00  0.00     0.006 A 
ATOM      5  C4  UNL d   1      -0.964   1.990   0.329  0.00  0.00    -0.005 A 
ATOM      6  C5  UNL d   1      -1.324   0.652   0.519  0.00  0.00    -0.074 A 
ATOM      7  C6  UNL d   1      -2.759   0.259   0.710  0.00  0.00     0.077 C 
ATOM      8  C7  UNL d   1      -0.325  -0.331   0.514  0.00  0.00    -0.001 A 
ENDROOT
TORSDOF 0
ENDMDL
