MODEL 1
REMARK minimizedAffinity 22.5542164
REMARK minimizedRMSD -1
REMARK  1 active torsions:
REMARK  status: ('A' for Active; 'I' for Inactive)
REMARK    1  A    between atoms: C1_2  and  C2_3 
ROOT
ATOM      1  C2  UNL d   1       2.541  -0.042  -1.583  0.00  0.00    -0.073 A 
ATOM      2  C3  UNL d   1       2.954   1.268  -1.316  0.00  0.00    -0.002 A 
ATOM      3  C4  UNL d   1       4.149   1.506  -0.635  0.00  0.00     0.004 A 
ATOM      4  C5  UNL d   1       4.945   0.439  -0.220  0.00  0.00    -0.004 A 
ATOM      5  C6  UNL d   1       4.555  -0.878  -0.488  0.00  0.00    -0.075 A 
ATOM      6  C7  UNL d   1       5.399  -2.037  -0.047  0.00  0.00     0.076 C 
ATOM      7  C8  UNL d   1       3.353  -1.108  -1.170  0.00  0.00     0.001 A 
ENDROOT
BRANCH   1   8
ATOM      8  C1  UNL d   1       1.255  -0.303  -2.324  0.00  0.00     0.053 C 
ATOM      9  C   UNL d   1       1.504  -0.828  -3.729  0.00  0.00     0.018 C 
ENDBRANCH   1   8
TORSDOF 1
ENDMDL
