MODEL 1
REMARK minimizedAffinity 4.38549805
REMARK minimizedRMSD -1
REMARK  1 active torsions:
REMARK  status: ('A' for Active; 'I' for Inactive)
REMARK    1  A    between atoms: C1_2  and  C2_3 
ROOT
ATOM      1  C2  UNL d   1      -4.533  -2.477   3.647  0.00  0.00    -0.073 A 
ATOM      2  C3  UNL d   1      -3.860  -3.283   4.571  0.00  0.00    -0.002 A 
ATOM      3  C4  UNL d   1      -3.886  -4.673   4.445  0.00  0.00     0.004 A 
ATOM      4  C5  UNL d   1      -4.578  -5.269   3.391  0.00  0.00    -0.004 A 
ATOM      5  C6  UNL d   1      -5.247  -4.480   2.451  0.00  0.00    -0.075 A 
ATOM      6  C7  UNL d   1      -5.998  -5.106   1.312  0.00  0.00     0.076 C 
ATOM      7  C8  UNL d   1      -5.219  -3.086   2.586  0.00  0.00     0.001 A 
ENDROOT
BRANCH   1   8
ATOM      8  C1  UNL d   1      -4.503  -0.976   3.775  0.00  0.00     0.053 C 
ATOM      9  C   UNL d   1      -3.664  -0.328   2.685  0.00  0.00     0.018 C 
ENDBRANCH   1   8
TORSDOF 1
ENDMDL
