MODEL 1
REMARK minimizedAffinity 0.489118189
REMARK minimizedRMSD -1
REMARK  1 active torsions:
REMARK  status: ('A' for Active; 'I' for Inactive)
REMARK    1  A    between atoms: C1_2  and  C2_3 
ROOT
ATOM      1  C2  UNL d   1       2.481  -2.502  -1.817  0.00  0.00    -0.073 A 
ATOM      2  C3  UNL d   1       3.120  -2.907  -0.640  0.00  0.00    -0.002 A 
ATOM      3  C4  UNL d   1       3.702  -4.172  -0.553  0.00  0.00     0.004 A 
ATOM      4  C5  UNL d   1       3.657  -5.042  -1.643  0.00  0.00    -0.004 A 
ATOM      5  C6  UNL d   1       3.033  -4.651  -2.832  0.00  0.00    -0.075 A 
ATOM      6  C7  UNL d   1       2.975  -5.575  -4.012  0.00  0.00     0.076 C 
ATOM      7  C8  UNL d   1       2.449  -3.379  -2.910  0.00  0.00     0.001 A 
ENDROOT
BRANCH   1   8
ATOM      8  C1  UNL d   1       1.857  -1.134  -1.918  0.00  0.00     0.053 C 
ATOM      9  C   UNL d   1       2.650  -0.088  -1.151  0.00  0.00     0.018 C 
ENDBRANCH   1   8
TORSDOF 1
ENDMDL
