MODEL 1
REMARK minimizedAffinity 3.37589622
REMARK minimizedRMSD -1
REMARK  1 active torsions:
REMARK  status: ('A' for Active; 'I' for Inactive)
REMARK    1  A    between atoms: C1_2  and  C2_3 
ROOT
ATOM      1  C2  UNL d   1       3.463  -4.056  -0.969  0.00  0.00    -0.073 A 
ATOM      2  C3  UNL d   1       2.661  -2.913  -1.072  0.00  0.00    -0.002 A 
ATOM      3  C4  UNL d   1       2.051  -2.588  -2.284  0.00  0.00     0.004 A 
ATOM      4  C5  UNL d   1       2.229  -3.403  -3.402  0.00  0.00    -0.004 A 
ATOM      5  C6  UNL d   1       3.017  -4.555  -3.315  0.00  0.00    -0.075 A 
ATOM      6  C7  UNL d   1       3.221  -5.442  -4.509  0.00  0.00     0.076 C 
ATOM      7  C8  UNL d   1       3.629  -4.874  -2.096  0.00  0.00     0.001 A 
ENDROOT
BRANCH   1   8
ATOM      8  C1  UNL d   1       4.119  -4.415   0.339  0.00  0.00     0.053 C 
ATOM      9  C   UNL d   1       5.294  -3.503   0.657  0.00  0.00     0.018 C 
ENDBRANCH   1   8
TORSDOF 1
ENDMDL
