MODEL 1
REMARK minimizedAffinity -0.264026552
REMARK minimizedRMSD -1
REMARK  1 active torsions:
REMARK  status: ('A' for Active; 'I' for Inactive)
REMARK    1  A    between atoms: C1_2  and  C2_3 
ROOT
ATOM      1  C2  UNL d   1       3.295  -3.873  -0.993  0.00  0.00    -0.073 A 
ATOM      2  C3  UNL d   1       2.249  -2.967  -0.786  0.00  0.00    -0.002 A 
ATOM      3  C4  UNL d   1       1.625  -2.351  -1.872  0.00  0.00     0.004 A 
ATOM      4  C5  UNL d   1       2.034  -2.641  -3.174  0.00  0.00    -0.004 A 
ATOM      5  C6  UNL d   1       3.069  -3.553  -3.401  0.00  0.00    -0.075 A 
ATOM      6  C7  UNL d   1       3.523  -3.874  -4.795  0.00  0.00     0.076 C 
ATOM      7  C8  UNL d   1       3.693  -4.165  -2.306  0.00  0.00     0.001 A 
ENDROOT
BRANCH   1   8
ATOM      8  C1  UNL d   1       3.968  -4.545   0.176  0.00  0.00     0.053 C 
ATOM      9  C   UNL d   1       5.286  -3.878   0.536  0.00  0.00     0.018 C 
ENDBRANCH   1   8
TORSDOF 1
ENDMDL
