MODEL 1
REMARK minimizedAffinity 12.5897379
REMARK minimizedRMSD -1
REMARK  1 active torsions:
REMARK  status: ('A' for Active; 'I' for Inactive)
REMARK    1  A    between atoms: C1_2  and  C2_3 
ROOT
ATOM      1  C2  UNL d   1       2.403  -3.548  -2.928  0.00  0.00    -0.073 A 
ATOM      2  C3  UNL d   1       2.843  -4.237  -4.064  0.00  0.00    -0.002 A 
ATOM      3  C4  UNL d   1       3.917  -5.124  -3.978  0.00  0.00     0.004 A 
ATOM      4  C5  UNL d   1       4.556  -5.336  -2.756  0.00  0.00    -0.004 A 
ATOM      5  C6  UNL d   1       4.123  -4.666  -1.608  0.00  0.00    -0.075 A 
ATOM      6  C7  UNL d   1       4.801  -4.881  -0.287  0.00  0.00     0.076 C 
ATOM      7  C8  UNL d   1       3.045  -3.775  -1.703  0.00  0.00     0.001 A 
ENDROOT
BRANCH   1   8
ATOM      8  C1  UNL d   1       1.239  -2.594  -3.015  0.00  0.00     0.053 C 
ATOM      9  C   UNL d   1       1.635  -1.176  -2.636  0.00  0.00     0.018 C 
ENDBRANCH   1   8
TORSDOF 1
ENDMDL
