MODEL 1
REMARK minimizedAffinity 14.7554379
REMARK minimizedRMSD -1
REMARK  1 active torsions:
REMARK  status: ('A' for Active; 'I' for Inactive)
REMARK    1  A    between atoms: C1_2  and  C2_3 
ROOT
ATOM      1  C2  UNL d   1      -5.070  -2.310   2.836  0.00  0.00    -0.073 A 
ATOM      2  C3  UNL d   1      -4.787  -2.876   4.084  0.00  0.00    -0.002 A 
ATOM      3  C4  UNL d   1      -3.930  -2.227   4.974  0.00  0.00     0.004 A 
ATOM      4  C5  UNL d   1      -3.353  -1.005   4.629  0.00  0.00    -0.004 A 
ATOM      5  C6  UNL d   1      -3.633  -0.418   3.391  0.00  0.00    -0.075 A 
ATOM      6  C7  UNL d   1      -3.018   0.895   3.004  0.00  0.00     0.076 C 
ATOM      7  C8  UNL d   1      -4.492  -1.077   2.502  0.00  0.00     0.001 A 
ENDROOT
BRANCH   1   8
ATOM      8  C1  UNL d   1      -6.000  -3.003   1.874  0.00  0.00     0.053 C 
ATOM      9  C   UNL d   1      -5.502  -4.390   1.498  0.00  0.00     0.018 C 
ENDBRANCH   1   8
TORSDOF 1
ENDMDL
