MODEL 1
REMARK minimizedAffinity 19.5892467
REMARK minimizedRMSD -1
REMARK  1 active torsions:
REMARK  status: ('A' for Active; 'I' for Inactive)
REMARK    1  A    between atoms: C1_2  and  C2_3 
ROOT
ATOM      1  C2  UNL d   1       1.617  -0.328  -3.191  0.00  0.00    -0.073 A 
ATOM      2  C3  UNL d   1       0.643  -0.872  -2.346  0.00  0.00    -0.002 A 
ATOM      3  C4  UNL d   1       0.815  -0.842  -0.961  0.00  0.00     0.004 A 
ATOM      4  C5  UNL d   1       1.957  -0.263  -0.408  0.00  0.00    -0.004 A 
ATOM      5  C6  UNL d   1       2.936   0.297  -1.236  0.00  0.00    -0.075 A 
ATOM      6  C7  UNL d   1       4.171   0.922  -0.656  0.00  0.00     0.076 C 
ATOM      7  C8  UNL d   1       2.757   0.260  -2.625  0.00  0.00     0.001 A 
ENDROOT
BRANCH   1   8
ATOM      8  C1  UNL d   1       1.433  -0.353  -4.686  0.00  0.00     0.053 C 
ATOM      9  C   UNL d   1       2.388  -1.324  -5.362  0.00  0.00     0.018 C 
ENDBRANCH   1   8
TORSDOF 1
ENDMDL
