MODEL 1
REMARK minimizedAffinity 19.4982758
REMARK minimizedRMSD -1
REMARK  1 active torsions:
REMARK  status: ('A' for Active; 'I' for Inactive)
REMARK    1  A    between atoms: C1_2  and  C2_3 
ROOT
ATOM      1  C2  UNL d   1       1.556  -0.384  -3.062  0.00  0.00    -0.073 A 
ATOM      2  C3  UNL d   1       0.575  -1.036  -2.306  0.00  0.00    -0.002 A 
ATOM      3  C4  UNL d   1       0.729  -1.182  -0.927  0.00  0.00     0.004 A 
ATOM      4  C5  UNL d   1       1.860  -0.673  -0.289  0.00  0.00    -0.004 A 
ATOM      5  C6  UNL d   1       2.846  -0.008  -1.025  0.00  0.00    -0.075 A 
ATOM      6  C7  UNL d   1       4.069   0.543  -0.354  0.00  0.00     0.076 C 
ATOM      7  C8  UNL d   1       2.685   0.132  -2.410  0.00  0.00     0.001 A 
ENDROOT
BRANCH   1   8
ATOM      8  C1  UNL d   1       1.391  -0.218  -4.550  0.00  0.00     0.053 C 
ATOM      9  C   UNL d   1       2.287  -1.166  -5.332  0.00  0.00     0.018 C 
ENDBRANCH   1   8
TORSDOF 1
ENDMDL
