MODEL 1
REMARK minimizedAffinity 21.7320423
REMARK minimizedRMSD -1
REMARK  1 active torsions:
REMARK  status: ('A' for Active; 'I' for Inactive)
REMARK    1  A    between atoms: C1_2  and  C2_3 
ROOT
ATOM      1  C2  UNL d   1      -2.726   1.244   3.296  0.00  0.00    -0.073 A 
ATOM      2  C3  UNL d   1      -3.266  -0.047   3.283  0.00  0.00    -0.002 A 
ATOM      3  C4  UNL d   1      -4.381  -0.353   4.065  0.00  0.00     0.004 A 
ATOM      4  C5  UNL d   1      -4.971   0.629   4.860  0.00  0.00    -0.004 A 
ATOM      5  C6  UNL d   1      -4.453   1.928   4.877  0.00  0.00    -0.075 A 
ATOM      6  C7  UNL d   1      -5.075   2.995   5.730  0.00  0.00     0.076 C 
ATOM      7  C8  UNL d   1      -3.332   2.227   4.092  0.00  0.00     0.001 A 
ENDROOT
BRANCH   1   8
ATOM      8  C1  UNL d   1      -1.526   1.581   2.449  0.00  0.00     0.053 C 
ATOM      9  C   UNL d   1      -0.382   2.141   3.278  0.00  0.00     0.018 C 
ENDBRANCH   1   8
TORSDOF 1
ENDMDL
