MODEL 1
REMARK minimizedAffinity 19.5253544
REMARK minimizedRMSD -1
REMARK  1 active torsions:
REMARK  status: ('A' for Active; 'I' for Inactive)
REMARK    1  A    between atoms: C1_2  and  C2_3 
ROOT
ATOM      1  C2  UNL d   1      -4.295  -0.321   4.181  0.00  0.00    -0.073 A 
ATOM      2  C3  UNL d   1      -3.208  -0.090   3.330  0.00  0.00    -0.002 A 
ATOM      3  C4  UNL d   1      -2.718   1.204   3.149  0.00  0.00     0.004 A 
ATOM      4  C5  UNL d   1      -3.303   2.277   3.822  0.00  0.00    -0.004 A 
ATOM      5  C6  UNL d   1      -4.382   2.064   4.686  0.00  0.00    -0.075 A 
ATOM      6  C7  UNL d   1      -5.024   3.208   5.415  0.00  0.00     0.076 C 
ATOM      7  C8  UNL d   1      -4.870   0.762   4.860  0.00  0.00     0.001 A 
ENDROOT
BRANCH   1   8
ATOM      8  C1  UNL d   1      -4.824  -1.717   4.385  0.00  0.00     0.053 C 
ATOM      9  C   UNL d   1      -4.514  -2.247   5.776  0.00  0.00     0.018 C 
ENDBRANCH   1   8
TORSDOF 1
ENDMDL
