MODEL 1
REMARK minimizedAffinity -0.245362729
REMARK minimizedRMSD -1
REMARK  0 active torsions:
REMARK  status: ('A' for Active; 'I' for Inactive)
ROOT
ATOM      1  C   UNL d   1      -5.052   5.367  -5.988  0.00  0.00     0.020 A 
ATOM      2  C1  UNL d   1      -6.000   4.362  -5.798  0.00  0.00     0.020 A 
ATOM      3  C2  UNL d   1      -5.587   3.050  -5.554  0.00  0.00     0.034 A 
ATOM      4  C3  UNL d   1      -4.224   2.740  -5.499  0.00  0.00     0.017 A 
ATOM      5  C4  UNL d   1      -3.273   3.749  -5.689  0.00  0.00     0.017 A 
ATOM      6  C5  UNL d   1      -3.691   5.061  -5.933  0.00  0.00     0.034 A 
ATOM      7 Cl   UNL d   1      -1.573   3.443  -5.635  0.00  0.00    -0.070 Cl
ATOM      8 Cl1  UNL d   1      -3.786   1.097  -5.192  0.00  0.00    -0.070 Cl
ENDROOT
TORSDOF 0
ENDMDL
