MODEL 1
REMARK minimizedAffinity -2.8631382
REMARK minimizedRMSD -1
REMARK  0 active torsions:
REMARK  status: ('A' for Active; 'I' for Inactive)
ROOT
ATOM      1  C   UNL d   1      -3.923   0.793   2.266  0.00  0.00     0.020 A 
ATOM      2  C1  UNL d   1      -3.483   1.494   3.387  0.00  0.00     0.020 A 
ATOM      3  C2  UNL d   1      -2.129   1.485   3.729  0.00  0.00     0.034 A 
ATOM      4  C3  UNL d   1      -1.210   0.773   2.948  0.00  0.00     0.017 A 
ATOM      5  C4  UNL d   1      -1.654   0.070   1.822  0.00  0.00     0.017 A 
ATOM      6  C5  UNL d   1      -3.011   0.082   1.485  0.00  0.00     0.034 A 
ATOM      7 Cl   UNL d   1      -0.581  -0.831   0.810  0.00  0.00    -0.070 Cl
ATOM      8 Cl1  UNL d   1       0.449   0.806   3.429  0.00  0.00    -0.070 Cl
ENDROOT
TORSDOF 0
ENDMDL
