MODEL 1
REMARK minimizedAffinity 0.834753036
REMARK minimizedRMSD -1
REMARK  0 active torsions:
REMARK  status: ('A' for Active; 'I' for Inactive)
ROOT
ATOM      1  C   UNL d   1      -0.522  -2.514  -0.351  0.00  0.00     0.020 A 
ATOM      2  C1  UNL d   1       0.472  -1.934  -1.139  0.00  0.00     0.020 A 
ATOM      3  C2  UNL d   1       0.783  -0.581  -0.986  0.00  0.00     0.034 A 
ATOM      4  C3  UNL d   1       0.100   0.196  -0.044  0.00  0.00     0.017 A 
ATOM      5  C4  UNL d   1      -0.897  -0.387   0.746  0.00  0.00     0.017 A 
ATOM      6  C5  UNL d   1      -1.205  -1.742   0.589  0.00  0.00     0.034 A 
ATOM      7 Cl   UNL d   1      -1.784   0.509   1.929  0.00  0.00    -0.070 Cl
ATOM      8 Cl1  UNL d   1       0.536   1.863   0.090  0.00  0.00    -0.070 Cl
ENDROOT
TORSDOF 0
ENDMDL
