MODEL 1
REMARK minimizedAffinity 1.50781834
REMARK minimizedRMSD -1
REMARK  0 active torsions:
REMARK  status: ('A' for Active; 'I' for Inactive)
ROOT
ATOM      1  C   UNL d   1      -0.625   0.027   1.274  0.00  0.00     0.020 A 
ATOM      2  C1  UNL d   1       0.111   1.133   0.851  0.00  0.00     0.020 A 
ATOM      3  C2  UNL d   1       0.949   1.029  -0.262  0.00  0.00     0.034 A 
ATOM      4  C3  UNL d   1       1.052  -0.183  -0.955  0.00  0.00     0.017 A 
ATOM      5  C4  UNL d   1       0.312  -1.292  -0.529  0.00  0.00     0.017 A 
ATOM      6  C5  UNL d   1      -0.525  -1.182   0.586  0.00  0.00     0.034 A 
ATOM      7 Cl   UNL d   1       0.387  -2.820  -1.332  0.00  0.00    -0.070 Cl
ATOM      8 Cl1  UNL d   1       2.106  -0.239  -2.323  0.00  0.00    -0.070 Cl
ENDROOT
TORSDOF 0
ENDMDL
