MODEL 1
REMARK minimizedAffinity -3.30728436
REMARK minimizedRMSD -1
REMARK  0 active torsions:
REMARK  status: ('A' for Active; 'I' for Inactive)
ROOT
ATOM      1  C   UNL d   1      -3.722   0.701   2.284  0.00  0.00     0.020 A 
ATOM      2  C1  UNL d   1      -3.261   1.542   3.296  0.00  0.00     0.020 A 
ATOM      3  C2  UNL d   1      -1.899   1.581   3.605  0.00  0.00     0.034 A 
ATOM      4  C3  UNL d   1      -0.995   0.777   2.902  0.00  0.00     0.017 A 
ATOM      5  C4  UNL d   1      -1.459  -0.067   1.886  0.00  0.00     0.017 A 
ATOM      6  C5  UNL d   1      -2.823  -0.102   1.581  0.00  0.00     0.034 A 
ATOM      7 Cl   UNL d   1      -0.404  -1.088   0.975  0.00  0.00    -0.070 Cl
ATOM      8 Cl1  UNL d   1       0.674   0.875   3.337  0.00  0.00    -0.070 Cl
ENDROOT
TORSDOF 0
ENDMDL
