MODEL 1
REMARK minimizedAffinity 1.1114074
REMARK minimizedRMSD -1
REMARK  0 active torsions:
REMARK  status: ('A' for Active; 'I' for Inactive)
ROOT
ATOM      1  C   UNL d   1       1.763   0.769  -2.055  0.00  0.00     0.020 A 
ATOM      2  C1  UNL d   1       2.148   1.842  -1.252  0.00  0.00     0.020 A 
ATOM      3  C2  UNL d   1       1.678   1.937   0.059  0.00  0.00     0.034 A 
ATOM      4  C3  UNL d   1       0.819   0.957   0.572  0.00  0.00     0.017 A 
ATOM      5  C4  UNL d   1       0.433  -0.119  -0.235  0.00  0.00     0.017 A 
ATOM      6  C5  UNL d   1       0.907  -0.209  -1.547  0.00  0.00     0.034 A 
ATOM      7 Cl   UNL d   1      -0.623  -1.367   0.327  0.00  0.00    -0.070 Cl
ATOM      8 Cl1  UNL d   1       0.276   1.138   2.202  0.00  0.00    -0.070 Cl
ENDROOT
TORSDOF 0
ENDMDL
