MODEL 1
REMARK minimizedAffinity -4.27534246
REMARK minimizedRMSD -1
REMARK  0 active torsions:
REMARK  status: ('A' for Active; 'I' for Inactive)
ROOT
ATOM      1  C   UNL d   1      -3.155   1.681   2.956  0.00  0.00     0.020 A 
ATOM      2  C1  UNL d   1      -3.623   0.921   1.885  0.00  0.00     0.020 A 
ATOM      3  C2  UNL d   1      -2.764   0.038   1.228  0.00  0.00     0.034 A 
ATOM      4  C3  UNL d   1      -1.433  -0.088   1.641  0.00  0.00     0.017 A 
ATOM      5  C4  UNL d   1      -0.964   0.676   2.716  0.00  0.00     0.017 A 
ATOM      6  C5  UNL d   1      -1.828   1.559   3.371  0.00  0.00     0.034 A 
ATOM      7 Cl   UNL d   1       0.666   0.575   3.284  0.00  0.00    -0.070 Cl
ATOM      8 Cl1  UNL d   1      -0.427  -1.200   0.783  0.00  0.00    -0.070 Cl
ENDROOT
TORSDOF 0
ENDMDL
