MODEL 1
REMARK minimizedAffinity -0.825684011
REMARK minimizedRMSD -1
REMARK  0 active torsions:
REMARK  status: ('A' for Active; 'I' for Inactive)
ROOT
ATOM      1  C   UNL d   1      -3.008   2.443   4.044  0.00  0.00     0.020 A 
ATOM      2  C1  UNL d   1      -4.392   2.522   3.901  0.00  0.00     0.020 A 
ATOM      3  C2  UNL d   1      -5.019   1.899   2.819  0.00  0.00     0.034 A 
ATOM      4  C3  UNL d   1      -4.260   1.195   1.877  0.00  0.00     0.017 A 
ATOM      5  C4  UNL d   1      -2.870   1.116   2.022  0.00  0.00     0.017 A 
ATOM      6  C5  UNL d   1      -2.249   1.742   3.107  0.00  0.00     0.034 A 
ATOM      7 Cl   UNL d   1      -1.868   0.265   0.900  0.00  0.00    -0.070 Cl
ATOM      8 Cl1  UNL d   1      -5.101   0.449   0.565  0.00  0.00    -0.070 Cl
ENDROOT
TORSDOF 0
ENDMDL
