MODEL 1
REMARK minimizedAffinity -0.375279158
REMARK minimizedRMSD -1
REMARK  0 active torsions:
REMARK  status: ('A' for Active; 'I' for Inactive)
ROOT
ATOM      1  C   UNL d   1       2.425   0.655  -1.393  0.00  0.00     0.020 A 
ATOM      2  C1  UNL d   1       1.535   1.721  -1.522  0.00  0.00     0.020 A 
ATOM      3  C2  UNL d   1       0.204   1.571  -1.126  0.00  0.00     0.034 A 
ATOM      4  C3  UNL d   1      -0.240   0.353  -0.600  0.00  0.00     0.017 A 
ATOM      5  C4  UNL d   1       0.654  -0.716  -0.471  0.00  0.00     0.017 A 
ATOM      6  C5  UNL d   1       1.985  -0.561  -0.869  0.00  0.00     0.034 A 
ATOM      7 Cl   UNL d   1       0.179  -2.250   0.169  0.00  0.00    -0.070 Cl
ATOM      8 Cl1  UNL d   1      -1.899   0.238  -0.130  0.00  0.00    -0.070 Cl
ENDROOT
TORSDOF 0
ENDMDL
