MODEL 1
REMARK minimizedAffinity -3.79044771
REMARK minimizedRMSD -1
REMARK  0 active torsions:
REMARK  status: ('A' for Active; 'I' for Inactive)
ROOT
ATOM      1  C   UNL d   1       0.644  -1.073  -2.349  0.00  0.00     0.020 A 
ATOM      2  C1  UNL d   1       1.580  -0.083  -2.647  0.00  0.00     0.020 A 
ATOM      3  C2  UNL d   1       1.796   0.966  -1.750  0.00  0.00     0.034 A 
ATOM      4  C3  UNL d   1       1.075   1.028  -0.553  0.00  0.00     0.017 A 
ATOM      5  C4  UNL d   1       0.135   0.034  -0.255  0.00  0.00     0.017 A 
ATOM      6  C5  UNL d   1      -0.077  -1.014  -1.156  0.00  0.00     0.034 A 
ATOM      7 Cl   UNL d   1      -0.793   0.043   1.203  0.00  0.00    -0.070 Cl
ATOM      8 Cl1  UNL d   1       1.393   2.353   0.509  0.00  0.00    -0.070 Cl
ENDROOT
TORSDOF 0
ENDMDL
