MODEL 1
REMARK minimizedAffinity -4.02834892
REMARK minimizedRMSD -1
REMARK  0 active torsions:
REMARK  status: ('A' for Active; 'I' for Inactive)
ROOT
ATOM      1  C   UNL d   1       0.937   0.740  -2.511  0.00  0.00     0.020 A 
ATOM      2  C1  UNL d   1       1.672  -0.444  -2.555  0.00  0.00     0.020 A 
ATOM      3  C2  UNL d   1       1.448  -1.440  -1.602  0.00  0.00     0.034 A 
ATOM      4  C3  UNL d   1       0.487  -1.254  -0.601  0.00  0.00     0.017 A 
ATOM      5  C4  UNL d   1      -0.250  -0.065  -0.558  0.00  0.00     0.017 A 
ATOM      6  C5  UNL d   1      -0.022   0.929  -1.515  0.00  0.00     0.034 A 
ATOM      7 Cl   UNL d   1      -1.452   0.238   0.646  0.00  0.00    -0.070 Cl
ATOM      8 Cl1  UNL d   1       0.262  -2.528   0.544  0.00  0.00    -0.070 Cl
ENDROOT
TORSDOF 0
ENDMDL
