MODEL 1
REMARK minimizedAffinity -4.11315393
REMARK minimizedRMSD -1
REMARK  0 active torsions:
REMARK  status: ('A' for Active; 'I' for Inactive)
ROOT
ATOM      1  C   UNL d   1       0.820   0.625  -1.859  0.00  0.00     0.020 A 
ATOM      2  C1  UNL d   1       1.359  -0.648  -2.038  0.00  0.00     0.020 A 
ATOM      3  C2  UNL d   1       1.035  -1.674  -1.147  0.00  0.00     0.034 A 
ATOM      4  C3  UNL d   1       0.171  -1.428  -0.074  0.00  0.00     0.017 A 
ATOM      5  C4  UNL d   1      -0.370  -0.150   0.104  0.00  0.00     0.017 A 
ATOM      6  C5  UNL d   1      -0.043   0.874  -0.791  0.00  0.00     0.034 A 
ATOM      7 Cl   UNL d   1      -1.444   0.230   1.404  0.00  0.00    -0.070 Cl
ATOM      8 Cl1  UNL d   1      -0.186  -2.744   0.988  0.00  0.00    -0.070 Cl
ENDROOT
TORSDOF 0
ENDMDL
