MODEL 1
REMARK minimizedAffinity -4.52221203
REMARK minimizedRMSD -1
REMARK  0 active torsions:
REMARK  status: ('A' for Active; 'I' for Inactive)
ROOT
ATOM      1  C   UNL d   1      -0.533   1.179   3.609  0.00  0.00     0.020 A 
ATOM      2  C1  UNL d   1       0.696   1.270   2.957  0.00  0.00     0.020 A 
ATOM      3  C2  UNL d   1       0.820   0.838   1.635  0.00  0.00     0.034 A 
ATOM      4  C3  UNL d   1      -0.288   0.313   0.960  0.00  0.00     0.017 A 
ATOM      5  C4  UNL d   1      -1.522   0.221   1.614  0.00  0.00     0.017 A 
ATOM      6  C5  UNL d   1      -1.640   0.656   2.938  0.00  0.00     0.034 A 
ATOM      7 Cl   UNL d   1      -2.934  -0.415   0.847  0.00  0.00    -0.070 Cl
ATOM      8 Cl1  UNL d   1      -0.063  -0.202  -0.674  0.00  0.00    -0.070 Cl
ENDROOT
TORSDOF 0
ENDMDL
