MODEL 1
REMARK minimizedAffinity -0.440040648
REMARK minimizedRMSD -1
REMARK  0 active torsions:
REMARK  status: ('A' for Active; 'I' for Inactive)
ROOT
ATOM      1  C   UNL d   1      -2.668  -4.107  -5.410  0.00  0.00     0.020 A 
ATOM      2  C1  UNL d   1      -2.544  -4.151  -4.022  0.00  0.00     0.020 A 
ATOM      3  C2  UNL d   1      -3.379  -3.368  -3.221  0.00  0.00     0.034 A 
ATOM      4  C3  UNL d   1      -4.341  -2.538  -3.808  0.00  0.00     0.017 A 
ATOM      5  C4  UNL d   1      -4.465  -2.495  -5.202  0.00  0.00     0.017 A 
ATOM      6  C5  UNL d   1      -3.626  -3.281  -5.998  0.00  0.00     0.034 A 
ATOM      7 Cl   UNL d   1      -5.629  -1.496  -5.998  0.00  0.00    -0.070 Cl
ATOM      8 Cl1  UNL d   1      -5.340  -1.598  -2.757  0.00  0.00    -0.070 Cl
ENDROOT
TORSDOF 0
ENDMDL
