MODEL 1
REMARK minimizedAffinity 4.48598003
REMARK minimizedRMSD -1
REMARK  0 active torsions:
REMARK  status: ('A' for Active; 'I' for Inactive)
ROOT
ATOM      1  C   UNL d   1      -3.901   5.292  -5.965  0.00  0.00     0.020 A 
ATOM      2  C1  UNL d   1      -5.228   4.866  -6.000  0.00  0.00     0.020 A 
ATOM      3  C2  UNL d   1      -5.556   3.569  -5.602  0.00  0.00     0.034 A 
ATOM      4  C3  UNL d   1      -4.556   2.691  -5.168  0.00  0.00     0.017 A 
ATOM      5  C4  UNL d   1      -3.223   3.119  -5.133  0.00  0.00     0.017 A 
ATOM      6  C5  UNL d   1      -2.901   4.420  -5.532  0.00  0.00     0.034 A 
ATOM      7 Cl   UNL d   1      -1.934   2.094  -4.609  0.00  0.00    -0.070 Cl
ATOM      8 Cl1  UNL d   1      -5.033   1.101  -4.690  0.00  0.00    -0.070 Cl
ENDROOT
TORSDOF 0
ENDMDL
