MODEL 1
REMARK minimizedAffinity 4.99043512
REMARK minimizedRMSD -1
REMARK  2 active torsions:
REMARK  status: ('A' for Active; 'I' for Inactive)
REMARK    1  A    between atoms: C1_2  and  C2_3 
REMARK    2  A    between atoms: C2_3  and  C3_4 
ROOT
ATOM      1  C3  UNL d   1      -0.364  -3.948   0.304  0.00  0.00    -0.075 A 
ATOM      2  C4  UNL d   1      -1.553  -3.228   0.116  0.00  0.00     0.002 A 
ATOM      3  C5  UNL d   1      -2.187  -3.221  -1.126  0.00  0.00     0.002 A 
ATOM      4  C6  UNL d   1      -1.637  -3.922  -2.197  0.00  0.00    -0.004 A 
ATOM      5  C7  UNL d   1      -0.448  -4.627  -2.026  0.00  0.00     0.002 A 
ATOM      6  C8  UNL d   1       0.187  -4.640  -0.783  0.00  0.00     0.002 A 
ENDROOT
BRANCH   1   7
ATOM      7  C2  UNL d   1       0.312  -3.985   1.654  0.00  0.00     0.056 C 
BRANCH   7   8
ATOM      8  C1  UNL d   1       0.472  -5.394   2.234  0.00  0.00     0.007 C 
ATOM      9  C   UNL d   1       0.571  -5.410   3.753  0.00  0.00     0.009 C 
ENDBRANCH   7   8
ENDBRANCH   1   7
TORSDOF 2
ENDMDL
