MODEL 1
REMARK minimizedAffinity -1.73417938
REMARK minimizedRMSD -1
REMARK  2 active torsions:
REMARK  status: ('A' for Active; 'I' for Inactive)
REMARK    1  A    between atoms: C1_2  and  C2_3 
REMARK    2  A    between atoms: C2_3  and  C3_4 
ROOT
ATOM      1  C3  UNL d   1      -1.076  -4.263   1.438  0.00  0.00    -0.075 A 
ATOM      2  C4  UNL d   1      -1.469  -4.787   0.198  0.00  0.00     0.002 A 
ATOM      3  C5  UNL d   1      -1.564  -3.961  -0.922  0.00  0.00     0.002 A 
ATOM      4  C6  UNL d   1      -1.278  -2.602  -0.816  0.00  0.00    -0.004 A 
ATOM      5  C7  UNL d   1      -0.902  -2.067   0.415  0.00  0.00     0.002 A 
ATOM      6  C8  UNL d   1      -0.802  -2.892   1.537  0.00  0.00     0.002 A 
ENDROOT
BRANCH   1   7
ATOM      7  C2  UNL d   1      -0.943  -5.157   2.647  0.00  0.00     0.056 C 
BRANCH   7   8
ATOM      8  C1  UNL d   1      -0.144  -4.535   3.798  0.00  0.00     0.007 C 
ATOM      9  C   UNL d   1       0.245  -5.542   4.872  0.00  0.00     0.009 C 
ENDBRANCH   7   8
ENDBRANCH   1   7
TORSDOF 2
ENDMDL
