MODEL 1
REMARK minimizedAffinity -0.312442869
REMARK minimizedRMSD -1
REMARK  2 active torsions:
REMARK  status: ('A' for Active; 'I' for Inactive)
REMARK    1  A    between atoms: C1_2  and  C2_3 
REMARK    2  A    between atoms: C2_3  and  C3_4 
ROOT
ATOM      1  C3  UNL d   1      -0.714  -4.048   0.759  0.00  0.00    -0.075 A 
ATOM      2  C4  UNL d   1      -2.065  -3.799   0.474  0.00  0.00     0.002 A 
ATOM      3  C5  UNL d   1      -2.534  -3.855  -0.838  0.00  0.00     0.002 A 
ATOM      4  C6  UNL d   1      -1.659  -4.149  -1.882  0.00  0.00    -0.004 A 
ATOM      5  C7  UNL d   1      -0.312  -4.381  -1.612  0.00  0.00     0.002 A 
ATOM      6  C8  UNL d   1       0.159  -4.330  -0.299  0.00  0.00     0.002 A 
ENDROOT
BRANCH   1   7
ATOM      7  C2  UNL d   1      -0.206  -4.018   2.181  0.00  0.00     0.056 C 
BRANCH   7   8
ATOM      8  C1  UNL d   1      -0.079  -5.402   2.827  0.00  0.00     0.007 C 
ATOM      9  C   UNL d   1       0.293  -5.344   4.302  0.00  0.00     0.009 C 
ENDBRANCH   7   8
ENDBRANCH   1   7
TORSDOF 2
ENDMDL
