MODEL 1
REMARK minimizedAffinity 3.77730751
REMARK minimizedRMSD -1
REMARK  2 active torsions:
REMARK  status: ('A' for Active; 'I' for Inactive)
REMARK    1  A    between atoms: C1_2  and  C2_3 
REMARK    2  A    between atoms: C2_3  and  C3_4 
ROOT
ATOM      1  C3  UNL d   1       1.576  -2.115   0.251  0.00  0.00    -0.075 A 
ATOM      2  C4  UNL d   1       1.185  -2.703  -0.961  0.00  0.00     0.002 A 
ATOM      3  C5  UNL d   1       0.184  -3.675  -0.985  0.00  0.00     0.002 A 
ATOM      4  C6  UNL d   1      -0.429  -4.078   0.199  0.00  0.00    -0.004 A 
ATOM      5  C7  UNL d   1      -0.036  -3.512   1.410  0.00  0.00     0.002 A 
ATOM      6  C8  UNL d   1       0.961  -2.536   1.437  0.00  0.00     0.002 A 
ENDROOT
BRANCH   1   7
ATOM      7  C2  UNL d   1       2.637  -1.041   0.280  0.00  0.00     0.056 C 
BRANCH   7   8
ATOM      8  C1  UNL d   1       2.093   0.367   0.543  0.00  0.00     0.007 C 
ATOM      9  C   UNL d   1       2.930   1.158   1.540  0.00  0.00     0.009 C 
ENDBRANCH   7   8
ENDBRANCH   1   7
TORSDOF 2
ENDMDL
