MODEL 1
REMARK minimizedAffinity 1.85040355
REMARK minimizedRMSD -1
REMARK  2 active torsions:
REMARK  status: ('A' for Active; 'I' for Inactive)
REMARK    1  A    between atoms: C1_2  and  C2_3 
REMARK    2  A    between atoms: C2_3  and  C3_4 
ROOT
ATOM      1  C3  UNL d   1       4.656   5.723   3.209  0.00  0.00    -0.075 A 
ATOM      2  C4  UNL d   1       3.580   5.243   3.970  0.00  0.00     0.002 A 
ATOM      3  C5  UNL d   1       3.711   5.066   5.348  0.00  0.00     0.002 A 
ATOM      4  C6  UNL d   1       4.919   5.356   5.979  0.00  0.00    -0.004 A 
ATOM      5  C7  UNL d   1       5.999   5.818   5.230  0.00  0.00     0.002 A 
ATOM      6  C8  UNL d   1       5.870   6.000   3.852  0.00  0.00     0.002 A 
ENDROOT
BRANCH   1   7
ATOM      7  C2  UNL d   1       4.512   5.944   1.722  0.00  0.00     0.056 C 
BRANCH   7   8
ATOM      8  C1  UNL d   1       3.093   5.714   1.192  0.00  0.00     0.007 C 
ATOM      9  C   UNL d   1       2.677   4.249   1.204  0.00  0.00     0.009 C 
ENDBRANCH   7   8
ENDBRANCH   1   7
TORSDOF 2
ENDMDL
