MODEL 1
REMARK minimizedAffinity -2.56392241
REMARK minimizedRMSD -1
REMARK  2 active torsions:
REMARK  status: ('A' for Active; 'I' for Inactive)
REMARK    1  A    between atoms: C1_2  and  C2_3 
REMARK    2  A    between atoms: C2_3  and  C3_4 
ROOT
ATOM      1  C3  UNL d   1      -1.447   0.159   1.273  0.00  0.00    -0.075 A 
ATOM      2  C4  UNL d   1      -0.080   0.472   1.275  0.00  0.00     0.002 A 
ATOM      3  C5  UNL d   1       0.864  -0.476   0.877  0.00  0.00     0.002 A 
ATOM      4  C6  UNL d   1       0.455  -1.748   0.483  0.00  0.00    -0.004 A 
ATOM      5  C7  UNL d   1      -0.899  -2.075   0.493  0.00  0.00     0.002 A 
ATOM      6  C8  UNL d   1      -1.846  -1.128   0.886  0.00  0.00     0.002 A 
ENDROOT
BRANCH   1   7
ATOM      7  C2  UNL d   1      -2.476   1.189   1.674  0.00  0.00     0.056 C 
BRANCH   7   8
ATOM      8  C1  UNL d   1      -3.379   1.650   0.524  0.00  0.00     0.007 C 
ATOM      9  C   UNL d   1      -4.861   1.606   0.870  0.00  0.00     0.009 C 
ENDBRANCH   7   8
ENDBRANCH   1   7
TORSDOF 2
ENDMDL
