MODEL 1
REMARK minimizedAffinity 7.17697191
REMARK minimizedRMSD -1
REMARK  2 active torsions:
REMARK  status: ('A' for Active; 'I' for Inactive)
REMARK    1  A    between atoms: C1_2  and  C2_3 
REMARK    2  A    between atoms: C2_3  and  C3_4 
ROOT
ATOM      1  C3  UNL d   1       0.325  -3.117  -0.191  0.00  0.00    -0.075 A 
ATOM      2  C4  UNL d   1       0.560  -2.047   0.684  0.00  0.00     0.002 A 
ATOM      3  C5  UNL d   1       1.771  -1.355   0.648  0.00  0.00     0.002 A 
ATOM      4  C6  UNL d   1       2.765  -1.731  -0.253  0.00  0.00    -0.004 A 
ATOM      5  C7  UNL d   1       2.549  -2.804  -1.115  0.00  0.00     0.002 A 
ATOM      6  C8  UNL d   1       1.336  -3.494  -1.085  0.00  0.00     0.002 A 
ENDROOT
BRANCH   1   7
ATOM      7  C2  UNL d   1      -0.995  -3.850  -0.178  0.00  0.00     0.056 C 
BRANCH   7   8
ATOM      8  C1  UNL d   1      -1.696  -3.897  -1.539  0.00  0.00     0.007 C 
ATOM      9  C   UNL d   1      -3.002  -4.681  -1.516  0.00  0.00     0.009 C 
ENDBRANCH   7   8
ENDBRANCH   1   7
TORSDOF 2
ENDMDL
