MODEL 1
REMARK minimizedAffinity 6.82903194
REMARK minimizedRMSD -1
REMARK  2 active torsions:
REMARK  status: ('A' for Active; 'I' for Inactive)
REMARK    1  A    between atoms: C1_2  and  C2_3 
REMARK    2  A    between atoms: C2_3  and  C3_4 
ROOT
ATOM      1  C3  UNL d   1      -2.945  -0.449   1.348  0.00  0.00    -0.075 A 
ATOM      2  C4  UNL d   1      -4.168  -0.882   1.881  0.00  0.00     0.002 A 
ATOM      3  C5  UNL d   1      -5.335  -0.152   1.659  0.00  0.00     0.002 A 
ATOM      4  C6  UNL d   1      -5.294   1.024   0.913  0.00  0.00    -0.004 A 
ATOM      5  C7  UNL d   1      -4.082   1.472   0.393  0.00  0.00     0.002 A 
ATOM      6  C8  UNL d   1      -2.913   0.741   0.609  0.00  0.00     0.002 A 
ENDROOT
BRANCH   1   7
ATOM      7  C2  UNL d   1      -1.683  -1.251   1.560  0.00  0.00     0.056 C 
BRANCH   7   8
ATOM      8  C1  UNL d   1      -1.790  -2.712   1.111  0.00  0.00     0.007 C 
ATOM      9  C   UNL d   1      -2.181  -2.863  -0.353  0.00  0.00     0.009 C 
ENDBRANCH   7   8
ENDBRANCH   1   7
TORSDOF 2
ENDMDL
