MODEL 1
REMARK minimizedAffinity 6.80987501
REMARK minimizedRMSD -1
REMARK  2 active torsions:
REMARK  status: ('A' for Active; 'I' for Inactive)
REMARK    1  A    between atoms: C1_2  and  C2_3 
REMARK    2  A    between atoms: C2_3  and  C3_4 
ROOT
ATOM      1  C3  UNL d   1      -1.283   2.842  -5.281  0.00  0.00    -0.075 A 
ATOM      2  C4  UNL d   1      -1.877   1.715  -4.695  0.00  0.00     0.002 A 
ATOM      3  C5  UNL d   1      -3.257   1.521  -4.773  0.00  0.00     0.002 A 
ATOM      4  C6  UNL d   1      -4.059   2.454  -5.428  0.00  0.00    -0.004 A 
ATOM      5  C7  UNL d   1      -3.480   3.585  -5.999  0.00  0.00     0.002 A 
ATOM      6  C8  UNL d   1      -2.100   3.780  -5.926  0.00  0.00     0.002 A 
ENDROOT
BRANCH   1   7
ATOM      7  C2  UNL d   1       0.213   3.043  -5.225  0.00  0.00     0.056 C 
BRANCH   7   8
ATOM      8  C1  UNL d   1       0.915   2.206  -4.151  0.00  0.00     0.007 C 
ATOM      9  C   UNL d   1       2.338   1.816  -4.529  0.00  0.00     0.009 C 
ENDBRANCH   7   8
ENDBRANCH   1   7
TORSDOF 2
ENDMDL
