MODEL 1
REMARK minimizedAffinity 2.47962093
REMARK minimizedRMSD -1
REMARK  2 active torsions:
REMARK  status: ('A' for Active; 'I' for Inactive)
REMARK    1  A    between atoms: C1_2  and  C2_3 
REMARK    2  A    between atoms: C2_3  and  C3_4 
ROOT
ATOM      1  C3  UNL d   1      -1.228  -3.112   0.354  0.00  0.00    -0.075 A 
ATOM      2  C4  UNL d   1      -2.056  -4.115   0.880  0.00  0.00     0.002 A 
ATOM      3  C5  UNL d   1      -2.766  -4.965   0.032  0.00  0.00     0.002 A 
ATOM      4  C6  UNL d   1      -2.666  -4.817  -1.350  0.00  0.00    -0.004 A 
ATOM      5  C7  UNL d   1      -1.860  -3.813  -1.883  0.00  0.00     0.002 A 
ATOM      6  C8  UNL d   1      -1.145  -2.965  -1.036  0.00  0.00     0.002 A 
ENDROOT
BRANCH   1   7
ATOM      7  C2  UNL d   1      -0.434  -2.209   1.267  0.00  0.00     0.056 C 
BRANCH   7   8
ATOM      8  C1  UNL d   1       0.949  -1.833   0.724  0.00  0.00     0.007 C 
ATOM      9  C   UNL d   1       1.224  -0.336   0.766  0.00  0.00     0.009 C 
ENDBRANCH   7   8
ENDBRANCH   1   7
TORSDOF 2
ENDMDL
