MODEL 1
REMARK minimizedAffinity 4.59993935
REMARK minimizedRMSD -1
REMARK  2 active torsions:
REMARK  status: ('A' for Active; 'I' for Inactive)
REMARK    1  A    between atoms: C1_2  and  C2_3 
REMARK    2  A    between atoms: C2_3  and  C3_4 
ROOT
ATOM      1  C3  UNL d   1      -0.928   2.106  -4.751  0.00  0.00    -0.075 A 
ATOM      2  C4  UNL d   1      -1.099   2.781  -3.534  0.00  0.00     0.002 A 
ATOM      3  C5  UNL d   1      -2.195   2.501  -2.717  0.00  0.00     0.002 A 
ATOM      4  C6  UNL d   1      -3.136   1.552  -3.110  0.00  0.00    -0.004 A 
ATOM      5  C7  UNL d   1      -2.985   0.888  -4.325  0.00  0.00     0.002 A 
ATOM      6  C8  UNL d   1      -1.887   1.162  -5.142  0.00  0.00     0.002 A 
ENDROOT
BRANCH   1   7
ATOM      7  C2  UNL d   1       0.271   2.383  -5.626  0.00  0.00     0.056 C 
BRANCH   7   8
ATOM      8  C1  UNL d   1       1.514   1.565  -5.258  0.00  0.00     0.007 C 
ATOM      9  C   UNL d   1       1.795   1.540  -3.761  0.00  0.00     0.009 C 
ENDBRANCH   7   8
ENDBRANCH   1   7
TORSDOF 2
ENDMDL
