MODEL 1
REMARK minimizedAffinity 6.70923901
REMARK minimizedRMSD -1
REMARK  2 active torsions:
REMARK  status: ('A' for Active; 'I' for Inactive)
REMARK    1  A    between atoms: C1_2  and  C2_3 
REMARK    2  A    between atoms: C2_3  and  C3_4 
ROOT
ATOM      1  C3  UNL d   1       5.813   4.991   2.374  0.00  0.00    -0.075 A 
ATOM      2  C4  UNL d   1       5.861   3.613   2.118  0.00  0.00     0.002 A 
ATOM      3  C5  UNL d   1       5.958   3.139   0.809  0.00  0.00     0.002 A 
ATOM      4  C6  UNL d   1       5.999   4.034  -0.258  0.00  0.00    -0.004 A 
ATOM      5  C7  UNL d   1       5.935   5.404  -0.016  0.00  0.00     0.002 A 
ATOM      6  C8  UNL d   1       5.842   5.882   1.292  0.00  0.00     0.002 A 
ENDROOT
BRANCH   1   7
ATOM      7  C2  UNL d   1       5.737   5.512   3.789  0.00  0.00     0.056 C 
BRANCH   7   8
ATOM      8  C1  UNL d   1       4.343   5.997   4.202  0.00  0.00     0.007 C 
ATOM      9  C   UNL d   1       4.072   5.847   5.693  0.00  0.00     0.009 C 
ENDBRANCH   7   8
ENDBRANCH   1   7
TORSDOF 2
ENDMDL
