MODEL 1
REMARK minimizedAffinity 5.04059744
REMARK minimizedRMSD -1
REMARK  2 active torsions:
REMARK  status: ('A' for Active; 'I' for Inactive)
REMARK    1  A    between atoms: C1_2  and  C2_3 
REMARK    2  A    between atoms: C2_3  and  C3_4 
ROOT
ATOM      1  C3  UNL d   1      -1.453   2.044  -3.790  0.00  0.00    -0.075 A 
ATOM      2  C4  UNL d   1      -2.610   1.454  -4.320  0.00  0.00     0.002 A 
ATOM      3  C5  UNL d   1      -3.782   1.391  -3.565  0.00  0.00     0.002 A 
ATOM      4  C6  UNL d   1      -3.809   1.907  -2.271  0.00  0.00    -0.004 A 
ATOM      5  C7  UNL d   1      -2.661   2.481  -1.730  0.00  0.00     0.002 A 
ATOM      6  C8  UNL d   1      -1.489   2.549  -2.484  0.00  0.00     0.002 A 
ENDROOT
BRANCH   1   7
ATOM      7  C2  UNL d   1      -0.190   2.142  -4.612  0.00  0.00     0.056 C 
BRANCH   7   8
ATOM      8  C1  UNL d   1      -0.395   2.760  -6.000  0.00  0.00     0.007 C 
ATOM      9  C   UNL d   1      -1.379   3.923  -5.999  0.00  0.00     0.009 C 
ENDBRANCH   7   8
ENDBRANCH   1   7
TORSDOF 2
ENDMDL
