MODEL 1
REMARK minimizedAffinity -1.04338157
REMARK minimizedRMSD -1
REMARK  0 active torsions:
REMARK  status: ('A' for Active; 'I' for Inactive)
ROOT
ATOM      1  C2' OXE d   1      -1.742   3.078  -1.689  0.00  0.00     0.078 C 
ATOM      2  C1' OXE d   1      -1.571   0.803  -3.325  0.00  0.00     0.078 C 
ATOM      3  C1  OXE d   1      -0.764   0.815  -2.051  0.00  0.00    -0.078 A 
ATOM      4  C2  OXE d   1      -0.817   1.951  -1.280  0.00  0.00    -0.078 A 
ATOM      5  C3  OXE d   1      -0.136   1.994  -0.067  0.00  0.00     0.003 A 
ATOM      6  C4  OXE d   1       0.725   0.952   0.299  0.00  0.00    -0.002 A 
ATOM      7  C5  OXE d   1       0.825  -0.198  -0.492  0.00  0.00    -0.002 A 
ATOM      8  C6  OXE d   1       0.056  -0.300  -1.646  0.00  0.00     0.003 A 
ENDROOT
TORSDOF 0
ENDMDL
