MODEL 1
REMARK minimizedAffinity -0.280848712
REMARK minimizedRMSD -1
REMARK  0 active torsions:
REMARK  status: ('A' for Active; 'I' for Inactive)
ROOT
ATOM      1  C2' OXE d   1      -0.583   1.109  -1.332  0.00  0.00     0.078 C 
ATOM      2  C1' OXE d   1      -1.158  -0.050   1.159  0.00  0.00     0.078 C 
ATOM      3  C1  OXE d   1       0.164  -0.386   0.515  0.00  0.00    -0.078 A 
ATOM      4  C2  OXE d   1       0.417   0.149  -0.726  0.00  0.00    -0.078 A 
ATOM      5  C3  OXE d   1       1.644  -0.084  -1.340  0.00  0.00     0.003 A 
ATOM      6  C4  OXE d   1       2.559  -0.982  -0.777  0.00  0.00    -0.002 A 
ATOM      7  C5  OXE d   1       2.304  -1.569   0.468  0.00  0.00    -0.002 A 
ATOM      8  C6  OXE d   1       1.133  -1.248   1.145  0.00  0.00     0.003 A 
ENDROOT
TORSDOF 0
ENDMDL
