MODEL 1
REMARK minimizedAffinity -0.214648724
REMARK minimizedRMSD -1
REMARK  0 active torsions:
REMARK  status: ('A' for Active; 'I' for Inactive)
ROOT
ATOM      1  C2' OXE d   1      -1.550   0.352   1.333  0.00  0.00     0.078 C 
ATOM      2  C1' OXE d   1      -1.030  -1.675   3.204  0.00  0.00     0.078 C 
ATOM      3  C1  OXE d   1      -0.012  -1.445   2.115  0.00  0.00    -0.078 A 
ATOM      4  C2  OXE d   1      -0.297  -0.482   1.177  0.00  0.00    -0.078 A 
ATOM      5  C3  OXE d   1       0.634  -0.192   0.183  0.00  0.00     0.003 A 
ATOM      6  C4  OXE d   1       1.785  -0.975   0.039  0.00  0.00    -0.002 A 
ATOM      7  C5  OXE d   1       2.075  -1.987   0.961  0.00  0.00    -0.002 A 
ATOM      8  C6  OXE d   1       1.210  -2.206   2.027  0.00  0.00     0.003 A 
ENDROOT
TORSDOF 0
ENDMDL
