MODEL 1
REMARK minimizedAffinity -1.48062313
REMARK minimizedRMSD -1
REMARK  0 active torsions:
REMARK  status: ('A' for Active; 'I' for Inactive)
ROOT
ATOM      1  C2' OXE d   1      -2.130   2.212  -2.909  0.00  0.00     0.078 C 
ATOM      2  C1' OXE d   1      -0.853   4.248  -1.458  0.00  0.00     0.078 C 
ATOM      3  C1  OXE d   1      -1.144   2.952  -0.744  0.00  0.00    -0.078 A 
ATOM      4  C2  OXE d   1      -1.811   1.978  -1.448  0.00  0.00    -0.078 A 
ATOM      5  C3  OXE d   1      -2.055   0.743  -0.854  0.00  0.00     0.003 A 
ATOM      6  C4  OXE d   1      -1.766   0.538   0.500  0.00  0.00    -0.002 A 
ATOM      7  C5  OXE d   1      -1.123   1.531   1.247  0.00  0.00    -0.002 A 
ATOM      8  C6  OXE d   1      -0.767   2.725   0.630  0.00  0.00     0.003 A 
ENDROOT
TORSDOF 0
ENDMDL
