MODEL 1
REMARK minimizedAffinity 4.22465086
REMARK minimizedRMSD -1
REMARK  0 active torsions:
REMARK  status: ('A' for Active; 'I' for Inactive)
ROOT
ATOM      1  C2' OXE d   1      -2.475  -0.093  -1.096  0.00  0.00     0.078 C 
ATOM      2  C1' OXE d   1      -2.259  -2.891  -1.047  0.00  0.00     0.078 C 
ATOM      3  C1  OXE d   1      -1.754  -2.126   0.150  0.00  0.00    -0.078 A 
ATOM      4  C2  OXE d   1      -1.821  -0.754   0.098  0.00  0.00    -0.078 A 
ATOM      5  C3  OXE d   1      -1.419  -0.002   1.198  0.00  0.00     0.003 A 
ATOM      6  C4  OXE d   1      -0.806  -0.621   2.294  0.00  0.00    -0.002 A 
ATOM      7  C5  OXE d   1      -0.692  -2.014   2.351  0.00  0.00    -0.002 A 
ATOM      8  C6  OXE d   1      -1.198  -2.782   1.308  0.00  0.00     0.003 A 
ENDROOT
TORSDOF 0
ENDMDL
