MODEL 1
REMARK minimizedAffinity -0.744942605
REMARK minimizedRMSD -1
REMARK  0 active torsions:
REMARK  status: ('A' for Active; 'I' for Inactive)
ROOT
ATOM      1  C2' OXE d   1      -4.186  -0.182  -1.156  0.00  0.00     0.078 C 
ATOM      2  C1' OXE d   1      -2.319  -2.266  -1.384  0.00  0.00     0.078 C 
ATOM      3  C1  OXE d   1      -2.109  -1.250  -0.289  0.00  0.00    -0.078 A 
ATOM      4  C2  OXE d   1      -3.001  -0.208  -0.214  0.00  0.00    -0.078 A 
ATOM      5  C3  OXE d   1      -2.885   0.727   0.811  0.00  0.00     0.003 A 
ATOM      6  C4  OXE d   1      -1.781   0.701   1.671  0.00  0.00    -0.002 A 
ATOM      7  C5  OXE d   1      -0.838  -0.329   1.587  0.00  0.00    -0.002 A 
ATOM      8  C6  OXE d   1      -1.011  -1.334   0.641  0.00  0.00     0.003 A 
ENDROOT
TORSDOF 0
ENDMDL
