MODEL 1
REMARK minimizedAffinity 3.65465045
REMARK minimizedRMSD -1
REMARK  0 active torsions:
REMARK  status: ('A' for Active; 'I' for Inactive)
ROOT
ATOM      1  C2' OXE d   1      -2.558  -2.258  -1.524  0.00  0.00     0.078 C 
ATOM      2  C1' OXE d   1      -3.066   0.469  -1.954  0.00  0.00     0.078 C 
ATOM      3  C1  OXE d   1      -2.785   0.020  -0.542  0.00  0.00    -0.078 A 
ATOM      4  C2  OXE d   1      -2.584  -1.324  -0.334  0.00  0.00    -0.078 A 
ATOM      5  C3  OXE d   1      -2.268  -1.784   0.941  0.00  0.00     0.003 A 
ATOM      6  C4  OXE d   1      -2.303  -0.915   2.038  0.00  0.00    -0.002 A 
ATOM      7  C5  OXE d   1      -2.545   0.450   1.854  0.00  0.00    -0.002 A 
ATOM      8  C6  OXE d   1      -2.746   0.940   0.568  0.00  0.00     0.003 A 
ENDROOT
TORSDOF 0
ENDMDL
