MODEL 1
REMARK minimizedAffinity 5.26206017
REMARK minimizedRMSD -1
REMARK  0 active torsions:
REMARK  status: ('A' for Active; 'I' for Inactive)
ROOT
ATOM      1  C2' OXE d   1       4.094  -1.511  -2.248  0.00  0.00     0.078 C 
ATOM      2  C1' OXE d   1       3.224   1.110  -1.749  0.00  0.00     0.078 C 
ATOM      3  C1  OXE d   1       2.771   0.026  -0.803  0.00  0.00    -0.078 A 
ATOM      4  C2  OXE d   1       3.163  -1.261  -1.082  0.00  0.00    -0.078 A 
ATOM      5  C3  OXE d   1       2.818  -2.291  -0.211  0.00  0.00     0.003 A 
ATOM      6  C4  OXE d   1       1.949  -2.052   0.860  0.00  0.00    -0.002 A 
ATOM      7  C5  OXE d   1       1.505  -0.755   1.139  0.00  0.00    -0.002 A 
ATOM      8  C6  OXE d   1       1.940   0.300   0.344  0.00  0.00     0.003 A 
ENDROOT
TORSDOF 0
ENDMDL
