MODEL 1
REMARK minimizedAffinity 2.93665791
REMARK minimizedRMSD -1
REMARK  0 active torsions:
REMARK  status: ('A' for Active; 'I' for Inactive)
ROOT
ATOM      1  C2' OXE d   1      -4.342   1.703  -1.500  0.00  0.00     0.078 C 
ATOM      2  C1' OXE d   1      -6.000   0.004  -0.002  0.00  0.00     0.078 C 
ATOM      3  C1  OXE d   1      -4.637   0.330   0.557  0.00  0.00    -0.078 A 
ATOM      4  C2  OXE d   1      -3.815   1.124  -0.205  0.00  0.00    -0.078 A 
ATOM      5  C3  OXE d   1      -2.569   1.500   0.288  0.00  0.00     0.003 A 
ATOM      6  C4  OXE d   1      -2.085   0.952   1.483  0.00  0.00    -0.002 A 
ATOM      7  C5  OXE d   1      -2.891   0.109   2.255  0.00  0.00    -0.002 A 
ATOM      8  C6  OXE d   1      -4.183  -0.178   1.828  0.00  0.00     0.003 A 
ENDROOT
TORSDOF 0
ENDMDL
