MODEL 1
REMARK minimizedAffinity 6.75900555
REMARK minimizedRMSD -1
REMARK  0 active torsions:
REMARK  status: ('A' for Active; 'I' for Inactive)
ROOT
ATOM      1  C2' OXE d   1      -3.675  -0.046  -0.350  0.00  0.00     0.078 C 
ATOM      2  C1' OXE d   1      -2.083   1.562   1.311  0.00  0.00     0.078 C 
ATOM      3  C1  OXE d   1      -2.101   1.876  -0.164  0.00  0.00    -0.078 A 
ATOM      4  C2  OXE d   1      -2.846   1.055  -0.976  0.00  0.00    -0.078 A 
ATOM      5  C3  OXE d   1      -2.941   1.332  -2.336  0.00  0.00     0.003 A 
ATOM      6  C4  OXE d   1      -2.163   2.346  -2.909  0.00  0.00    -0.002 A 
ATOM      7  C5  OXE d   1      -1.366   3.169  -2.106  0.00  0.00    -0.002 A 
ATOM      8  C6  OXE d   1      -1.357   2.975  -0.729  0.00  0.00     0.003 A 
ENDROOT
TORSDOF 0
ENDMDL
