MODEL 1
REMARK minimizedAffinity 10.5817862
REMARK minimizedRMSD -1
REMARK  0 active torsions:
REMARK  status: ('A' for Active; 'I' for Inactive)
ROOT
ATOM      1  C2' OXE d   1      -4.542   0.410   0.488  0.00  0.00     0.078 C 
ATOM      2  C1' OXE d   1      -3.138  -1.375  -1.162  0.00  0.00     0.078 C 
ATOM      3  C1  OXE d   1      -3.381   0.020  -1.681  0.00  0.00    -0.078 A 
ATOM      4  C2  OXE d   1      -4.109   0.873  -0.887  0.00  0.00    -0.078 A 
ATOM      5  C3  OXE d   1      -4.315   2.188  -1.294  0.00  0.00     0.003 A 
ATOM      6  C4  OXE d   1      -3.920   2.604  -2.571  0.00  0.00    -0.002 A 
ATOM      7  C5  OXE d   1      -3.212   1.740  -3.413  0.00  0.00    -0.002 A 
ATOM      8  C6  OXE d   1      -2.897   0.461  -2.967  0.00  0.00     0.003 A 
ENDROOT
TORSDOF 0
ENDMDL
