MODEL 1
REMARK minimizedAffinity 2.5265646
REMARK minimizedRMSD -1
REMARK  0 active torsions:
REMARK  status: ('A' for Active; 'I' for Inactive)
ROOT
ATOM      1  C2' OXE d   1       0.774   1.754   0.263  0.00  0.00     0.078 C 
ATOM      2  C1' OXE d   1       2.925   0.943  -1.348  0.00  0.00     0.078 C 
ATOM      3  C1  OXE d   1       2.295  -0.088  -0.445  0.00  0.00    -0.078 A 
ATOM      4  C2  OXE d   1       1.273   0.329   0.373  0.00  0.00    -0.078 A 
ATOM      5  C3  OXE d   1       0.620  -0.594   1.186  0.00  0.00     0.003 A 
ATOM      6  C4  OXE d   1       1.095  -1.907   1.289  0.00  0.00    -0.002 A 
ATOM      7  C5  OXE d   1       2.160  -2.342   0.493  0.00  0.00    -0.002 A 
ATOM      8  C6  OXE d   1       2.742  -1.458  -0.408  0.00  0.00     0.003 A 
ENDROOT
TORSDOF 0
ENDMDL
