MODEL 1
REMARK minimizedAffinity 3.59444022
REMARK minimizedRMSD -1
REMARK  0 active torsions:
REMARK  status: ('A' for Active; 'I' for Inactive)
ROOT
ATOM      1  C2' OXE d   1       3.049   0.080   1.270  0.00  0.00     0.078 C 
ATOM      2  C1' OXE d   1       3.345  -0.377  -1.484  0.00  0.00     0.078 C 
ATOM      3  C1  OXE d   1       2.649  -1.436  -0.665  0.00  0.00    -0.078 A 
ATOM      4  C2  OXE d   1       2.550  -1.225   0.689  0.00  0.00    -0.078 A 
ATOM      5  C3  OXE d   1       1.870  -2.144   1.482  0.00  0.00     0.003 A 
ATOM      6  C4  OXE d   1       1.420  -3.354   0.938  0.00  0.00    -0.002 A 
ATOM      7  C5  OXE d   1       1.546  -3.606  -0.432  0.00  0.00    -0.002 A 
ATOM      8  C6  OXE d   1       2.119  -2.642  -1.253  0.00  0.00     0.003 A 
ENDROOT
TORSDOF 0
ENDMDL
