MODEL 1
REMARK minimizedAffinity 6.24805737
REMARK minimizedRMSD -1
REMARK  0 active torsions:
REMARK  status: ('A' for Active; 'I' for Inactive)
ROOT
ATOM      1  C2' OXE d   1      -4.607   0.208  -0.333  0.00  0.00     0.078 C 
ATOM      2  C1' OXE d   1      -2.338   1.263   0.939  0.00  0.00     0.078 C 
ATOM      3  C1  OXE d   1      -2.509   1.534  -0.535  0.00  0.00    -0.078 A 
ATOM      4  C2  OXE d   1      -3.598   0.975  -1.159  0.00  0.00    -0.078 A 
ATOM      5  C3  OXE d   1      -3.831   1.238  -2.506  0.00  0.00     0.003 A 
ATOM      6  C4  OXE d   1      -2.887   1.940  -3.265  0.00  0.00    -0.002 A 
ATOM      7  C5  OXE d   1      -1.751   2.485  -2.657  0.00  0.00    -0.002 A 
ATOM      8  C6  OXE d   1      -1.569   2.328  -1.288  0.00  0.00     0.003 A 
ENDROOT
TORSDOF 0
ENDMDL
