MODEL 1
REMARK minimizedAffinity 0.140330628
REMARK minimizedRMSD -1
REMARK  0 active torsions:
REMARK  status: ('A' for Active; 'I' for Inactive)
ROOT
ATOM      1  C2' OXE d   1       1.486   0.657   0.882  0.00  0.00     0.078 C 
ATOM      2  C1' OXE d   1       2.763   0.065  -1.547  0.00  0.00     0.078 C 
ATOM      3  C1  OXE d   1       2.203  -1.085  -0.748  0.00  0.00    -0.078 A 
ATOM      4  C2  OXE d   1       1.621  -0.791   0.461  0.00  0.00    -0.078 A 
ATOM      5  C3  OXE d   1       1.039  -1.808   1.213  0.00  0.00     0.003 A 
ATOM      6  C4  OXE d   1       1.177  -3.145   0.821  0.00  0.00    -0.002 A 
ATOM      7  C5  OXE d   1       1.801  -3.471  -0.388  0.00  0.00    -0.002 A 
ATOM      8  C6  OXE d   1       2.281  -2.452  -1.203  0.00  0.00     0.003 A 
ENDROOT
TORSDOF 0
ENDMDL
