MODEL 1
REMARK minimizedAffinity 2.27356791
REMARK minimizedRMSD -1
REMARK  0 active torsions:
REMARK  status: ('A' for Active; 'I' for Inactive)
ROOT
ATOM      1  C2' OXE d   1       1.971  -1.493   0.948  0.00  0.00     0.078 C 
ATOM      2  C1' OXE d   1       1.487   1.234   0.486  0.00  0.00     0.078 C 
ATOM      3  C1  OXE d   1       2.360   0.497  -0.499  0.00  0.00    -0.078 A 
ATOM      4  C2  OXE d   1       2.630  -0.825  -0.240  0.00  0.00    -0.078 A 
ATOM      5  C3  OXE d   1       3.385  -1.565  -1.145  0.00  0.00     0.003 A 
ATOM      6  C4  OXE d   1       3.999  -0.937  -2.236  0.00  0.00    -0.002 A 
ATOM      7  C5  OXE d   1       3.770   0.418  -2.496  0.00  0.00    -0.002 A 
ATOM      8  C6  OXE d   1       2.920   1.138  -1.663  0.00  0.00     0.003 A 
ENDROOT
TORSDOF 0
ENDMDL
