MODEL 1
REMARK minimizedAffinity 7.63798332
REMARK minimizedRMSD -1
REMARK  0 active torsions:
REMARK  status: ('A' for Active; 'I' for Inactive)
ROOT
ATOM      1  C2' OXE d   1      -1.468  -2.132   2.068  0.00  0.00     0.078 C 
ATOM      2  C1' OXE d   1      -2.231  -2.884  -0.527  0.00  0.00     0.078 C 
ATOM      3  C1  OXE d   1      -2.582  -1.491  -0.066  0.00  0.00    -0.078 A 
ATOM      4  C2  OXE d   1      -2.246  -1.148   1.221  0.00  0.00    -0.078 A 
ATOM      5  C3  OXE d   1      -2.499   0.142   1.678  0.00  0.00     0.003 A 
ATOM      6  C4  OXE d   1      -3.228   1.043   0.892  0.00  0.00    -0.002 A 
ATOM      7  C5  OXE d   1      -3.614   0.700  -0.407  0.00  0.00    -0.002 A 
ATOM      8  C6  OXE d   1      -3.263  -0.546  -0.916  0.00  0.00     0.003 A 
ENDROOT
TORSDOF 0
ENDMDL
