MODEL 1
REMARK minimizedAffinity -3.46485257
REMARK minimizedRMSD -1
REMARK  0 active torsions:
REMARK  status: ('A' for Active; 'I' for Inactive)
ROOT
ATOM      1  C   UNL d   1       0.450  -0.173  -0.695  0.00  0.00     0.172 C 
ATOM      2  N   UNL d   1       0.971   0.886   0.137  0.00  0.00    -0.070 N 
ATOM      3  C1  UNL d   1       2.285   1.263   0.220  0.00  0.00    -0.004 A 
ATOM      4  C2  UNL d   1       2.370   2.304   1.119  0.00  0.00    -0.047 A 
ATOM      5  C3  UNL d   1       1.061   2.561   1.593  0.00  0.00    -0.047 A 
ATOM      6  C4  UNL d   1       0.215   1.669   0.970  0.00  0.00    -0.004 A 
ENDROOT
TORSDOF 0
ENDMDL
