MODEL 1
REMARK minimizedAffinity -2.86688328
REMARK minimizedRMSD -1
REMARK  0 active torsions:
REMARK  status: ('A' for Active; 'I' for Inactive)
ROOT
ATOM      1  C   UNL d   1      -0.338   0.288   0.457  0.00  0.00     0.172 C 
ATOM      2  N   UNL d   1       0.496   1.309   1.047  0.00  0.00    -0.070 N 
ATOM      3  C1  UNL d   1       0.068   2.532   1.489  0.00  0.00    -0.004 A 
ATOM      4  C2  UNL d   1       1.163   3.210   1.981  0.00  0.00    -0.047 A 
ATOM      5  C3  UNL d   1       2.288   2.365   1.828  0.00  0.00    -0.047 A 
ATOM      6  C4  UNL d   1       1.846   1.195   1.247  0.00  0.00    -0.004 A 
ENDROOT
TORSDOF 0
ENDMDL
