MODEL 1
REMARK minimizedAffinity -3.73331308
REMARK minimizedRMSD -1
REMARK  0 active torsions:
REMARK  status: ('A' for Active; 'I' for Inactive)
ROOT
ATOM      1  C   UNL d   1       0.179  -0.352   0.328  0.00  0.00     0.172 C 
ATOM      2  N   UNL d   1       1.068   0.777   0.469  0.00  0.00    -0.070 N 
ATOM      3  C1  UNL d   1       2.305   0.895  -0.108  0.00  0.00    -0.004 A 
ATOM      4  C2  UNL d   1       2.831   2.112   0.268  0.00  0.00    -0.047 A 
ATOM      5  C3  UNL d   1       1.878   2.747   1.100  0.00  0.00    -0.047 A 
ATOM      6  C4  UNL d   1       0.797   1.898   1.208  0.00  0.00    -0.004 A 
ENDROOT
TORSDOF 0
ENDMDL
