MODEL 1
REMARK minimizedAffinity -1.48695946
REMARK minimizedRMSD -1
REMARK  0 active torsions:
REMARK  status: ('A' for Active; 'I' for Inactive)
ROOT
ATOM      1  C   UNL d   1      -0.958  -1.050  -1.013  0.00  0.00     0.172 C 
ATOM      2  N   UNL d   1      -0.539  -0.054  -0.055  0.00  0.00    -0.070 N 
ATOM      3  C1  UNL d   1      -1.079   0.135   1.189  0.00  0.00    -0.004 A 
ATOM      4  C2  UNL d   1      -0.405   1.177   1.788  0.00  0.00    -0.047 A 
ATOM      5  C3  UNL d   1       0.574   1.631   0.872  0.00  0.00    -0.047 A 
ATOM      6  C4  UNL d   1       0.469   0.851  -0.261  0.00  0.00    -0.004 A 
ENDROOT
TORSDOF 0
ENDMDL
