MODEL 1
REMARK minimizedAffinity -3.70927119
REMARK minimizedRMSD -1
REMARK  0 active torsions:
REMARK  status: ('A' for Active; 'I' for Inactive)
ROOT
ATOM      1  C   UNL d   1      -0.016  -0.712  -0.372  0.00  0.00     0.172 C 
ATOM      2  N   UNL d   1       0.524   0.452   0.290  0.00  0.00    -0.070 N 
ATOM      3  C1  UNL d   1       1.850   0.788   0.357  0.00  0.00    -0.004 A 
ATOM      4  C2  UNL d   1       1.952   1.963   1.070  0.00  0.00    -0.047 A 
ATOM      5  C3  UNL d   1       0.642   2.345   1.446  0.00  0.00    -0.047 A 
ATOM      6  C4  UNL d   1      -0.222   1.392   0.950  0.00  0.00    -0.004 A 
ENDROOT
TORSDOF 0
ENDMDL
