MODEL 1
REMARK minimizedAffinity -4.0334506
REMARK minimizedRMSD -1
REMARK  0 active torsions:
REMARK  status: ('A' for Active; 'I' for Inactive)
ROOT
ATOM      1  C   UNL d   1      -0.076  -0.482  -0.082  0.00  0.00     0.172 C 
ATOM      2  N   UNL d   1       0.538   0.734   0.398  0.00  0.00    -0.070 N 
ATOM      3  C1  UNL d   1      -0.122   1.797   0.952  0.00  0.00    -0.004 A 
ATOM      4  C2  UNL d   1       0.816   2.752   1.279  0.00  0.00    -0.047 A 
ATOM      5  C3  UNL d   1       2.084   2.246   0.908  0.00  0.00    -0.047 A 
ATOM      6  C4  UNL d   1       1.883   0.995   0.364  0.00  0.00    -0.004 A 
ENDROOT
TORSDOF 0
ENDMDL
