MODEL 1
REMARK minimizedAffinity -2.57082319
REMARK minimizedRMSD -1
REMARK  0 active torsions:
REMARK  status: ('A' for Active; 'I' for Inactive)
ROOT
ATOM      1  C   UNL d   1       0.669   2.435   1.191  0.00  0.00     0.172 C 
ATOM      2  N   UNL d   1       0.013   1.206   0.813  0.00  0.00    -0.070 N 
ATOM      3  C1  UNL d   1      -1.189   0.761   1.296  0.00  0.00    -0.004 A 
ATOM      4  C2  UNL d   1      -1.468  -0.444   0.690  0.00  0.00    -0.047 A 
ATOM      5  C3  UNL d   1      -0.396  -0.735  -0.188  0.00  0.00    -0.047 A 
ATOM      6  C4  UNL d   1       0.506   0.304  -0.092  0.00  0.00    -0.004 A 
ENDROOT
TORSDOF 0
ENDMDL
