MODEL 1
REMARK minimizedAffinity -3.55889177
REMARK minimizedRMSD -1
REMARK  0 active torsions:
REMARK  status: ('A' for Active; 'I' for Inactive)
ROOT
ATOM      1  C   UNL d   1      -0.313  -0.210  -0.049  0.00  0.00     0.172 C 
ATOM      2  N   UNL d   1       0.640   0.820   0.290  0.00  0.00    -0.070 N 
ATOM      3  C1  UNL d   1       0.390   1.911   1.079  0.00  0.00    -0.004 A 
ATOM      4  C2  UNL d   1       1.551   2.650   1.158  0.00  0.00    -0.047 A 
ATOM      5  C3  UNL d   1       2.532   1.980   0.389  0.00  0.00    -0.047 A 
ATOM      6  C4  UNL d   1       1.941   0.851  -0.138  0.00  0.00    -0.004 A 
ENDROOT
TORSDOF 0
ENDMDL
