MODEL 1
REMARK minimizedAffinity -3.14757419
REMARK minimizedRMSD -1
REMARK  0 active torsions:
REMARK  status: ('A' for Active; 'I' for Inactive)
ROOT
ATOM      1  C   UNL d   1      -0.953   0.367   1.404  0.00  0.00     0.172 C 
ATOM      2  N   UNL d   1       0.170   1.112   0.885  0.00  0.00    -0.070 N 
ATOM      3  C1  UNL d   1       1.051   0.669  -0.065  0.00  0.00    -0.004 A 
ATOM      4  C2  UNL d   1       1.972   1.670  -0.286  0.00  0.00    -0.047 A 
ATOM      5  C3  UNL d   1       1.634   2.751   0.562  0.00  0.00    -0.047 A 
ATOM      6  C4  UNL d   1       0.515   2.379   1.276  0.00  0.00    -0.004 A 
ENDROOT
TORSDOF 0
ENDMDL
