MODEL 1
REMARK minimizedAffinity -3.35942841
REMARK minimizedRMSD -1
REMARK  0 active torsions:
REMARK  status: ('A' for Active; 'I' for Inactive)
ROOT
ATOM      1  C   UNL d   1      -0.013  -0.860  -0.433  0.00  0.00     0.172 C 
ATOM      2  N   UNL d   1       0.281   0.340   0.315  0.00  0.00    -0.070 N 
ATOM      3  C1  UNL d   1       1.386   1.131   0.151  0.00  0.00    -0.004 A 
ATOM      4  C2  UNL d   1       1.296   2.173   1.048  0.00  0.00    -0.047 A 
ATOM      5  C3  UNL d   1       0.096   2.001   1.778  0.00  0.00    -0.047 A 
ATOM      6  C4  UNL d   1      -0.513   0.859   1.303  0.00  0.00    -0.004 A 
ENDROOT
TORSDOF 0
ENDMDL
