MODEL 1
REMARK minimizedAffinity -3.8891108
REMARK minimizedRMSD -1
REMARK  0 active torsions:
REMARK  status: ('A' for Active; 'I' for Inactive)
ROOT
ATOM      1  C   UNL d   1      -0.408  -1.447  -0.339  0.00  0.00     0.172 C 
ATOM      2  N   UNL d   1      -0.240  -0.200   0.369  0.00  0.00    -0.070 N 
ATOM      3  C1  UNL d   1       0.708   0.751   0.098  0.00  0.00    -0.004 A 
ATOM      4  C2  UNL d   1       0.536   1.785   0.993  0.00  0.00    -0.047 A 
ATOM      5  C3  UNL d   1      -0.551   1.443   1.832  0.00  0.00    -0.047 A 
ATOM      6  C4  UNL d   1      -1.013   0.210   1.424  0.00  0.00    -0.004 A 
ENDROOT
TORSDOF 0
ENDMDL
