MODEL 1
REMARK minimizedAffinity -3.17190886
REMARK minimizedRMSD -1
REMARK  0 active torsions:
REMARK  status: ('A' for Active; 'I' for Inactive)
ROOT
ATOM      1  C   UNL d   1      -0.190  -0.694  -0.363  0.00  0.00     0.172 C 
ATOM      2  N   UNL d   1       0.432   0.486   0.190  0.00  0.00    -0.070 N 
ATOM      3  C1  UNL d   1      -0.042   1.218   1.246  0.00  0.00    -0.004 A 
ATOM      4  C2  UNL d   1       0.833   2.260   1.464  0.00  0.00    -0.047 A 
ATOM      5  C3  UNL d   1       1.869   2.151   0.506  0.00  0.00    -0.047 A 
ATOM      6  C4  UNL d   1       1.595   1.044  -0.270  0.00  0.00    -0.004 A 
ENDROOT
TORSDOF 0
ENDMDL
