MODEL 1
REMARK minimizedAffinity -1.60416985
REMARK minimizedRMSD -1
REMARK  0 active torsions:
REMARK  status: ('A' for Active; 'I' for Inactive)
ROOT
ATOM      1  C   UNL d   1      -0.288  -1.326  -1.008  0.00  0.00     0.172 C 
ATOM      2  N   UNL d   1      -1.417  -1.661  -1.843  0.00  0.00    -0.070 N 
ATOM      3  C1  UNL d   1      -1.594  -1.268  -3.143  0.00  0.00    -0.004 A 
ATOM      4  C2  UNL d   1      -2.790  -1.793  -3.583  0.00  0.00    -0.047 A 
ATOM      5  C3  UNL d   1      -3.351  -2.526  -2.511  0.00  0.00    -0.047 A 
ATOM      6  C4  UNL d   1      -2.481  -2.428  -1.446  0.00  0.00    -0.004 A 
ENDROOT
TORSDOF 0
ENDMDL
