MODEL 1
REMARK minimizedAffinity -3.99465585
REMARK minimizedRMSD -1
REMARK  0 active torsions:
REMARK  status: ('A' for Active; 'I' for Inactive)
ROOT
ATOM      1  C   UNL d   1      -0.272  -0.777  -0.518  0.00  0.00     0.172 C 
ATOM      2  N   UNL d   1       0.201   0.396   0.179  0.00  0.00    -0.070 N 
ATOM      3  C1  UNL d   1       1.434   0.972   0.028  0.00  0.00    -0.004 A 
ATOM      4  C2  UNL d   1       1.495   2.065   0.865  0.00  0.00    -0.047 A 
ATOM      5  C3  UNL d   1       0.256   2.148   1.544  0.00  0.00    -0.047 A 
ATOM      6  C4  UNL d   1      -0.526   1.103   1.101  0.00  0.00    -0.004 A 
ENDROOT
TORSDOF 0
ENDMDL
