MODEL 1
REMARK minimizedAffinity -3.98772049
REMARK minimizedRMSD -1
REMARK  0 active torsions:
REMARK  status: ('A' for Active; 'I' for Inactive)
ROOT
ATOM      1  C   UNL d   1      -0.336  -0.335   1.755  0.00  0.00     0.172 C 
ATOM      2  N   UNL d   1       0.558   0.738   1.390  0.00  0.00    -0.070 N 
ATOM      3  C1  UNL d   1       1.482   0.699   0.380  0.00  0.00    -0.004 A 
ATOM      4  C2  UNL d   1       2.131   1.914   0.354  0.00  0.00    -0.047 A 
ATOM      5  C3  UNL d   1       1.579   2.711   1.385  0.00  0.00    -0.047 A 
ATOM      6  C4  UNL d   1       0.607   1.958   2.010  0.00  0.00    -0.004 A 
ENDROOT
TORSDOF 0
ENDMDL
