MODEL 1
REMARK minimizedAffinity -3.98149109
REMARK minimizedRMSD -1
REMARK  2 active torsions:
REMARK  status: ('A' for Active; 'I' for Inactive)
REMARK    1  A    between atoms: C2'_3  and  C1'_4 
REMARK    2  A    between atoms: C1'_4  and  C1_5 
ROOT
ATOM      1  C1  I4B d   1       0.011  -0.054  -0.023  0.00  0.00    -0.075 A 
ATOM      2  C2  I4B d   1      -0.608   1.032  -0.590  0.00  0.00     0.003 A 
ATOM      3  C3  I4B d   1      -1.394   1.900   0.206  0.00  0.00     0.002 A 
ATOM      4  C4  I4B d   1      -1.575   1.617   1.545  0.00  0.00    -0.004 A 
ATOM      5  C5  I4B d   1      -0.928   0.528   2.122  0.00  0.00     0.002 A 
ATOM      6  C6  I4B d   1      -0.120  -0.306   1.336  0.00  0.00     0.003 A 
ENDROOT
BRANCH   1   7
ATOM      7  C1' I4B d   1       0.808  -0.968  -0.900  0.00  0.00     0.060 C 
BRANCH   7   8
ATOM      8  C2' I4B d   1      -0.129  -2.030  -1.439  0.00  0.00    -0.013 C 
ATOM      9  C4' I4B d   1      -0.418  -1.810  -2.901  0.00  0.00     0.013 C 
ATOM     10  C3' I4B d   1       0.508  -3.368  -1.209  0.00  0.00     0.013 C 
ENDBRANCH   7   8
ENDBRANCH   1   7
TORSDOF 2
ENDMDL
