MODEL 1
REMARK minimizedAffinity -1.37928283
REMARK minimizedRMSD -1
REMARK  2 active torsions:
REMARK  status: ('A' for Active; 'I' for Inactive)
REMARK    1  A    between atoms: C2'_3  and  C1'_4 
REMARK    2  A    between atoms: C1'_4  and  C1_5 
ROOT
ATOM      1  C1  I4B d   1      -0.089   0.443   0.309  0.00  0.00    -0.075 A 
ATOM      2  C2  I4B d   1      -1.403   0.776   0.098  0.00  0.00     0.003 A 
ATOM      3  C3  I4B d   1      -1.741   1.803  -0.816  0.00  0.00     0.002 A 
ATOM      4  C4  I4B d   1      -0.736   2.501  -1.455  0.00  0.00    -0.004 A 
ATOM      5  C5  I4B d   1       0.595   2.146  -1.257  0.00  0.00     0.002 A 
ATOM      6  C6  I4B d   1       0.921   1.103  -0.379  0.00  0.00     0.003 A 
ENDROOT
BRANCH   1   7
ATOM      7  C1' I4B d   1       0.233  -0.625   1.306  0.00  0.00     0.060 C 
BRANCH   7   8
ATOM      8  C2' I4B d   1       0.391   0.034   2.661  0.00  0.00    -0.013 C 
ATOM      9  C4' I4B d   1      -0.507   1.235   2.791  0.00  0.00     0.013 C 
ATOM     10  C3' I4B d   1       0.083  -0.990   3.713  0.00  0.00     0.013 C 
ENDBRANCH   7   8
ENDBRANCH   1   7
TORSDOF 2
ENDMDL
