MODEL 1
REMARK minimizedAffinity -3.0390358
REMARK minimizedRMSD -1
REMARK  2 active torsions:
REMARK  status: ('A' for Active; 'I' for Inactive)
REMARK    1  A    between atoms: C2'_3  and  C1'_4 
REMARK    2  A    between atoms: C1'_4  and  C1_5 
ROOT
ATOM      1  C1  I4B d   1       0.354  -0.773  -0.412  0.00  0.00    -0.075 A 
ATOM      2  C2  I4B d   1      -0.354  -1.033   0.735  0.00  0.00     0.003 A 
ATOM      3  C3  I4B d   1      -0.849   0.033   1.524  0.00  0.00     0.002 A 
ATOM      4  C4  I4B d   1      -0.573   1.335   1.158  0.00  0.00    -0.004 A 
ATOM      5  C5  I4B d   1       0.125   1.596  -0.018  0.00  0.00     0.002 A 
ATOM      6  C6  I4B d   1       0.580   0.536  -0.815  0.00  0.00     0.003 A 
ENDROOT
BRANCH   1   7
ATOM      7  C1' I4B d   1       0.891  -1.924  -1.203  0.00  0.00     0.060 C 
BRANCH   7   8
ATOM      8  C2' I4B d   1      -0.282  -2.776  -1.643  0.00  0.00    -0.013 C 
ATOM      9  C4' I4B d   1      -0.475  -2.710  -3.136  0.00  0.00     0.013 C 
ATOM     10  C3' I4B d   1      -0.027  -4.183  -1.192  0.00  0.00     0.013 C 
ENDBRANCH   7   8
ENDBRANCH   1   7
TORSDOF 2
ENDMDL
