MODEL 1
REMARK minimizedAffinity -4.60737276
REMARK minimizedRMSD -1
REMARK  2 active torsions:
REMARK  status: ('A' for Active; 'I' for Inactive)
REMARK    1  A    between atoms: C2'_3  and  C1'_4 
REMARK    2  A    between atoms: C1'_4  and  C1_5 
ROOT
ATOM      1  C1  I4B d   1      -0.054  -0.452  -0.090  0.00  0.00    -0.075 A 
ATOM      2  C2  I4B d   1       0.026  -0.609   1.271  0.00  0.00     0.003 A 
ATOM      3  C3  I4B d   1      -0.537   0.361   2.135  0.00  0.00     0.002 A 
ATOM      4  C4  I4B d   1      -1.122   1.490   1.600  0.00  0.00    -0.004 A 
ATOM      5  C5  I4B d   1      -1.223   1.637   0.219  0.00  0.00     0.002 A 
ATOM      6  C6  I4B d   1      -0.697   0.654  -0.631  0.00  0.00     0.003 A 
ENDROOT
BRANCH   1   7
ATOM      7  C1' I4B d   1       0.580  -1.479  -0.973  0.00  0.00     0.060 C 
BRANCH   7   8
ATOM      8  C2' I4B d   1      -0.482  -2.494  -1.345  0.00  0.00    -0.013 C 
ATOM      9  C4' I4B d   1      -0.834  -2.404  -2.807  0.00  0.00     0.013 C 
ATOM     10  C3' I4B d   1       0.038  -3.857  -0.997  0.00  0.00     0.013 C 
ENDBRANCH   7   8
ENDBRANCH   1   7
TORSDOF 2
ENDMDL
