MODEL 1
REMARK minimizedAffinity -4.60473299
REMARK minimizedRMSD -1
REMARK  2 active torsions:
REMARK  status: ('A' for Active; 'I' for Inactive)
REMARK    1  A    between atoms: C2'_3  and  C1'_4 
REMARK    2  A    between atoms: C1'_4  and  C1_5 
ROOT
ATOM      1  C1  I4B d   1      -0.772   0.370   0.385  0.00  0.00    -0.075 A 
ATOM      2  C2  I4B d   1      -0.138   0.337   1.602  0.00  0.00     0.003 A 
ATOM      3  C3  I4B d   1      -0.521   1.232   2.630  0.00  0.00     0.002 A 
ATOM      4  C4  I4B d   1      -1.502   2.171   2.383  0.00  0.00    -0.004 A 
ATOM      5  C5  I4B d   1      -2.160   2.188   1.156  0.00  0.00     0.002 A 
ATOM      6  C6  I4B d   1      -1.801   1.274   0.155  0.00  0.00     0.003 A 
ENDROOT
BRANCH   1   7
ATOM      7  C1' I4B d   1      -0.320  -0.568  -0.689  0.00  0.00     0.060 C 
BRANCH   7   8
ATOM      8  C2' I4B d   1       1.194  -0.629  -0.648  0.00  0.00    -0.013 C 
ATOM      9  C4' I4B d   1       1.698  -1.965  -1.128  0.00  0.00     0.013 C 
ATOM     10  C3' I4B d   1       1.725   0.487  -1.497  0.00  0.00     0.013 C 
ENDBRANCH   7   8
ENDBRANCH   1   7
TORSDOF 2
ENDMDL
