MODEL 1
REMARK minimizedAffinity -1.43736804
REMARK minimizedRMSD -1
REMARK  2 active torsions:
REMARK  status: ('A' for Active; 'I' for Inactive)
REMARK    1  A    between atoms: C2'_3  and  C1'_4 
REMARK    2  A    between atoms: C1'_4  and  C1_5 
ROOT
ATOM      1  C1  I4B d   1      -0.142  -1.149  -0.117  0.00  0.00    -0.075 A 
ATOM      2  C2  I4B d   1       0.588  -0.805   0.993  0.00  0.00     0.003 A 
ATOM      3  C3  I4B d   1       0.291   0.384   1.702  0.00  0.00     0.002 A 
ATOM      4  C4  I4B d   1      -0.705   1.220   1.240  0.00  0.00    -0.004 A 
ATOM      5  C5  I4B d   1      -1.460   0.858   0.127  0.00  0.00     0.002 A 
ATOM      6  C6  I4B d   1      -1.185  -0.339  -0.549  0.00  0.00     0.003 A 
ENDROOT
BRANCH   1   7
ATOM      7  C1' I4B d   1       0.220  -2.395  -0.861  0.00  0.00     0.060 C 
BRANCH   7   8
ATOM      8  C2' I4B d   1      -0.461  -2.346  -2.214  0.00  0.00    -0.013 C 
ATOM      9  C4' I4B d   1       0.545  -2.203  -3.326  0.00  0.00     0.013 C 
ATOM     10  C3' I4B d   1      -1.268  -3.600  -2.371  0.00  0.00     0.013 C 
ENDBRANCH   7   8
ENDBRANCH   1   7
TORSDOF 2
ENDMDL
