MODEL 1
REMARK minimizedAffinity -2.09931779
REMARK minimizedRMSD -1
REMARK  2 active torsions:
REMARK  status: ('A' for Active; 'I' for Inactive)
REMARK    1  A    between atoms: C2'_3  and  C1'_4 
REMARK    2  A    between atoms: C1'_4  and  C1_5 
ROOT
ATOM      1  C1  I4B d   1       0.786  -0.636  -0.687  0.00  0.00    -0.075 A 
ATOM      2  C2  I4B d   1       1.069   0.499  -1.404  0.00  0.00     0.003 A 
ATOM      3  C3  I4B d   1       0.418   1.718  -1.096  0.00  0.00     0.002 A 
ATOM      4  C4  I4B d   1      -0.540   1.745  -0.103  0.00  0.00    -0.004 A 
ATOM      5  C5  I4B d   1      -0.809   0.598   0.638  0.00  0.00     0.002 A 
ATOM      6  C6  I4B d   1      -0.133  -0.598   0.353  0.00  0.00     0.003 A 
ENDROOT
BRANCH   1   7
ATOM      7  C1' I4B d   1       1.468  -1.914  -1.061  0.00  0.00     0.060 C 
BRANCH   7   8
ATOM      8  C2' I4B d   1       0.425  -2.849  -1.638  0.00  0.00    -0.013 C 
ATOM      9  C4' I4B d   1       0.291  -2.665  -3.127  0.00  0.00     0.013 C 
ATOM     10  C3' I4B d   1       0.825  -4.254  -1.300  0.00  0.00     0.013 C 
ENDBRANCH   7   8
ENDBRANCH   1   7
TORSDOF 2
ENDMDL
