MODEL 1
REMARK minimizedAffinity -4.89701176
REMARK minimizedRMSD -1
REMARK  2 active torsions:
REMARK  status: ('A' for Active; 'I' for Inactive)
REMARK    1  A    between atoms: C2'_3  and  C1'_4 
REMARK    2  A    between atoms: C1'_4  and  C1_5 
ROOT
ATOM      1  C1  I4B d   1      -0.227   0.241   1.091  0.00  0.00    -0.075 A 
ATOM      2  C2  I4B d   1      -1.140   0.490   0.096  0.00  0.00     0.003 A 
ATOM      3  C3  I4B d   1      -2.331   1.200   0.383  0.00  0.00     0.002 A 
ATOM      4  C4  I4B d   1      -2.591   1.595   1.680  0.00  0.00    -0.004 A 
ATOM      5  C5  I4B d   1      -1.654   1.362   2.682  0.00  0.00     0.002 A 
ATOM      6  C6  I4B d   1      -0.459   0.691   2.384  0.00  0.00     0.003 A 
ENDROOT
BRANCH   1   7
ATOM      7  C1' I4B d   1       1.005  -0.540   0.759  0.00  0.00     0.060 C 
BRANCH   7   8
ATOM      8  C2' I4B d   1       1.172  -0.531  -0.747  0.00  0.00    -0.013 C 
ATOM      9  C4' I4B d   1       2.119   0.556  -1.183  0.00  0.00     0.013 C 
ATOM     10  C3' I4B d   1       1.669  -1.882  -1.165  0.00  0.00     0.013 C 
ENDBRANCH   7   8
ENDBRANCH   1   7
TORSDOF 2
ENDMDL
