MODEL 1
REMARK minimizedAffinity -2.54077554
REMARK minimizedRMSD -1
REMARK  2 active torsions:
REMARK  status: ('A' for Active; 'I' for Inactive)
REMARK    1  A    between atoms: C2'_3  and  C1'_4 
REMARK    2  A    between atoms: C1'_4  and  C1_5 
ROOT
ATOM      1  C1  I4B d   1       0.589  -0.803  -0.100  0.00  0.00    -0.075 A 
ATOM      2  C2  I4B d   1       0.403   0.424  -0.687  0.00  0.00     0.003 A 
ATOM      3  C3  I4B d   1      -0.248   1.462   0.023  0.00  0.00     0.002 A 
ATOM      4  C4  I4B d   1      -0.739   1.216   1.289  0.00  0.00    -0.004 A 
ATOM      5  C5  I4B d   1      -0.528  -0.021   1.891  0.00  0.00     0.002 A 
ATOM      6  C6  I4B d   1       0.151  -1.033   1.198  0.00  0.00     0.003 A 
ENDROOT
BRANCH   1   7
ATOM      7  C1' I4B d   1       1.252  -1.886  -0.890  0.00  0.00     0.060 C 
BRANCH   7   8
ATOM      8  C2' I4B d   1       0.167  -2.704  -1.561  0.00  0.00    -0.013 C 
ATOM      9  C4' I4B d   1       0.390  -2.788  -3.049  0.00  0.00     0.013 C 
ATOM     10  C3' I4B d   1       0.161  -4.067  -0.937  0.00  0.00     0.013 C 
ENDBRANCH   7   8
ENDBRANCH   1   7
TORSDOF 2
ENDMDL
