MODEL 1
REMARK minimizedAffinity -1.505211
REMARK minimizedRMSD -1
REMARK  2 active torsions:
REMARK  status: ('A' for Active; 'I' for Inactive)
REMARK    1  A    between atoms: C2'_3  and  C1'_4 
REMARK    2  A    between atoms: C1'_4  and  C1_5 
ROOT
ATOM      1  C1  I4B d   1       0.502  -0.792  -0.076  0.00  0.00    -0.075 A 
ATOM      2  C2  I4B d   1       0.077   0.376  -0.659  0.00  0.00     0.003 A 
ATOM      3  C3  I4B d   1      -0.660   1.321   0.095  0.00  0.00     0.002 A 
ATOM      4  C4  I4B d   1      -0.990   1.038   1.404  0.00  0.00    -0.004 A 
ATOM      5  C5  I4B d   1      -0.539  -0.136   2.000  0.00  0.00     0.002 A 
ATOM      6  C6  I4B d   1       0.223  -1.051   1.260  0.00  0.00     0.003 A 
ENDROOT
BRANCH   1   7
ATOM      7  C1' I4B d   1       1.250  -1.784  -0.910  0.00  0.00     0.060 C 
BRANCH   7   8
ATOM      8  C2' I4B d   1       0.326  -2.952  -1.186  0.00  0.00    -0.013 C 
ATOM      9  C4' I4B d   1      -0.304  -2.839  -2.549  0.00  0.00     0.013 C 
ATOM     10  C3' I4B d   1       1.127  -4.214  -1.062  0.00  0.00     0.013 C 
ENDBRANCH   7   8
ENDBRANCH   1   7
TORSDOF 2
ENDMDL
