MODEL 1
REMARK minimizedAffinity 3.0831151
REMARK minimizedRMSD -1
REMARK  0 active torsions:
REMARK  status: ('A' for Active; 'I' for Inactive)
ROOT
ATOM      1  C   UNL d   1      -3.819  -5.196  -5.995  0.00  0.00     0.078 C 
ATOM      2  C1  UNL d   1      -4.569  -4.108  -5.285  0.00  0.00    -0.077 A 
ATOM      3  C2  UNL d   1      -5.313  -3.161  -6.000  0.00  0.00    -0.001 A 
ATOM      4  C3  UNL d   1      -5.999  -2.148  -5.327  0.00  0.00     0.003 A 
ATOM      5  C4  UNL d   1      -5.947  -2.073  -3.936  0.00  0.00    -0.005 A 
ATOM      6  C5  UNL d   1      -5.208  -3.010  -3.217  0.00  0.00     0.003 A 
ATOM      7  C6  UNL d   1      -4.521  -4.023  -3.888  0.00  0.00    -0.001 A 
ENDROOT
TORSDOF 0
ENDMDL
