MODEL 1
REMARK minimizedAffinity 0.149458334
REMARK minimizedRMSD -1
REMARK  0 active torsions:
REMARK  status: ('A' for Active; 'I' for Inactive)
ROOT
ATOM      1  C   UNL d   1      -1.704  -5.049  -6.000  0.00  0.00     0.078 C 
ATOM      2  C1  UNL d   1      -3.191  -4.857  -5.994  0.00  0.00    -0.077 A 
ATOM      3  C2  UNL d   1      -3.753  -3.575  -5.981  0.00  0.00    -0.001 A 
ATOM      4  C3  UNL d   1      -5.139  -3.411  -5.967  0.00  0.00     0.003 A 
ATOM      5  C4  UNL d   1      -5.975  -4.526  -5.963  0.00  0.00    -0.005 A 
ATOM      6  C5  UNL d   1      -5.425  -5.806  -5.974  0.00  0.00     0.003 A 
ATOM      7  C6  UNL d   1      -4.039  -5.972  -5.988  0.00  0.00    -0.001 A 
ENDROOT
TORSDOF 0
ENDMDL
