MODEL 1
REMARK minimizedAffinity 14.2755432
REMARK minimizedRMSD -1
REMARK  0 active torsions:
REMARK  status: ('A' for Active; 'I' for Inactive)
ROOT
ATOM      1  C   UNL d   1      -1.517  -0.448   1.912  0.00  0.00     0.078 C 
ATOM      2  C1  UNL d   1      -0.646   0.711   2.296  0.00  0.00    -0.077 A 
ATOM      3  C2  UNL d   1       0.337   0.578   3.284  0.00  0.00    -0.001 A 
ATOM      4  C3  UNL d   1       1.134   1.668   3.639  0.00  0.00     0.003 A 
ATOM      5  C4  UNL d   1       0.955   2.899   3.011  0.00  0.00    -0.005 A 
ATOM      6  C5  UNL d   1      -0.022   3.042   2.028  0.00  0.00     0.003 A 
ATOM      7  C6  UNL d   1      -0.820   1.953   1.672  0.00  0.00    -0.001 A 
ENDROOT
TORSDOF 0
ENDMDL
