MODEL 1
REMARK minimizedAffinity -1.87352574
REMARK minimizedRMSD -1
REMARK  0 active torsions:
REMARK  status: ('A' for Active; 'I' for Inactive)
ROOT
ATOM      1  C   UNL d   1      -5.998  -2.663  -3.067  0.00  0.00     0.078 C 
ATOM      2  C1  UNL d   1      -5.518  -3.650  -4.089  0.00  0.00    -0.077 A 
ATOM      3  C2  UNL d   1      -5.989  -4.968  -4.096  0.00  0.00    -0.001 A 
ATOM      4  C3  UNL d   1      -5.526  -5.878  -5.048  0.00  0.00     0.003 A 
ATOM      5  C4  UNL d   1      -4.589  -5.480  -5.999  0.00  0.00    -0.005 A 
ATOM      6  C5  UNL d   1      -4.113  -4.171  -5.999  0.00  0.00     0.003 A 
ATOM      7  C6  UNL d   1      -4.575  -3.259  -5.048  0.00  0.00    -0.001 A 
ENDROOT
TORSDOF 0
ENDMDL
