MODEL 1
REMARK minimizedAffinity -0.207118809
REMARK minimizedRMSD -1
REMARK  0 active torsions:
REMARK  status: ('A' for Active; 'I' for Inactive)
ROOT
ATOM      1  C   UNL d   1      -3.824  -5.829   0.710  0.00  0.00     0.078 C 
ATOM      2  C1  UNL d   1      -4.588  -4.539   0.684  0.00  0.00    -0.077 A 
ATOM      3  C2  UNL d   1      -4.968  -3.950  -0.528  0.00  0.00    -0.001 A 
ATOM      4  C3  UNL d   1      -5.671  -2.744  -0.537  0.00  0.00     0.003 A 
ATOM      5  C4  UNL d   1      -5.998  -2.116   0.663  0.00  0.00    -0.005 A 
ATOM      6  C5  UNL d   1      -5.622  -2.693   1.874  0.00  0.00     0.003 A 
ATOM      7  C6  UNL d   1      -4.920  -3.899   1.885  0.00  0.00    -0.001 A 
ENDROOT
TORSDOF 0
ENDMDL
