MODEL 1
REMARK minimizedAffinity 12.180583
REMARK minimizedRMSD -1
REMARK  0 active torsions:
REMARK  status: ('A' for Active; 'I' for Inactive)
ROOT
ATOM      1  C   UNL d   1       1.811   2.146  -1.876  0.00  0.00     0.078 C 
ATOM      2  C1  UNL d   1       1.830   1.052  -2.902  0.00  0.00    -0.077 A 
ATOM      3  C2  UNL d   1       2.280   1.295  -4.205  0.00  0.00    -0.001 A 
ATOM      4  C3  UNL d   1       2.283   0.270  -5.153  0.00  0.00     0.003 A 
ATOM      5  C4  UNL d   1       1.836  -1.004  -4.807  0.00  0.00    -0.005 A 
ATOM      6  C5  UNL d   1       1.385  -1.254  -3.513  0.00  0.00     0.003 A 
ATOM      7  C6  UNL d   1       1.382  -0.231  -2.564  0.00  0.00    -0.001 A 
ENDROOT
TORSDOF 0
ENDMDL
