MODEL 1
REMARK minimizedAffinity -1.08383453
REMARK minimizedRMSD -1
REMARK  0 active torsions:
REMARK  status: ('A' for Active; 'I' for Inactive)
ROOT
ATOM      1  C   UNL d   1      -3.895  -5.999  -0.114  0.00  0.00     0.078 C 
ATOM      2  C1  UNL d   1      -4.631  -4.757   0.290  0.00  0.00    -0.077 A 
ATOM      3  C2  UNL d   1      -4.699  -3.649  -0.563  0.00  0.00    -0.001 A 
ATOM      4  C3  UNL d   1      -5.379  -2.496  -0.170  0.00  0.00     0.003 A 
ATOM      5  C4  UNL d   1      -5.997  -2.439   1.078  0.00  0.00    -0.005 A 
ATOM      6  C5  UNL d   1      -5.934  -3.536   1.935  0.00  0.00     0.003 A 
ATOM      7  C6  UNL d   1      -5.254  -4.690   1.543  0.00  0.00    -0.001 A 
ENDROOT
TORSDOF 0
ENDMDL
