MODEL 1
REMARK minimizedAffinity 9.09285831
REMARK minimizedRMSD -1
REMARK  0 active torsions:
REMARK  status: ('A' for Active; 'I' for Inactive)
ROOT
ATOM      1  C   UNL d   1       1.279   2.597  -1.874  0.00  0.00     0.078 C 
ATOM      2  C1  UNL d   1       1.861   3.448  -2.963  0.00  0.00    -0.077 A 
ATOM      3  C2  UNL d   1       2.818   2.935  -3.847  0.00  0.00    -0.001 A 
ATOM      4  C3  UNL d   1       3.358   3.741  -4.850  0.00  0.00     0.003 A 
ATOM      5  C4  UNL d   1       2.948   5.067  -4.977  0.00  0.00    -0.005 A 
ATOM      6  C5  UNL d   1       1.999   5.588  -4.101  0.00  0.00     0.003 A 
ATOM      7  C6  UNL d   1       1.458   4.783  -3.098  0.00  0.00    -0.001 A 
ENDROOT
TORSDOF 0
ENDMDL
