MODEL 1
REMARK minimizedAffinity 9.6262455
REMARK minimizedRMSD -1
REMARK  0 active torsions:
REMARK  status: ('A' for Active; 'I' for Inactive)
ROOT
ATOM      1  C   UNL d   1       2.205   5.340  -4.140  0.00  0.00     0.078 C 
ATOM      2  C1  UNL d   1       3.267   4.486  -4.766  0.00  0.00    -0.077 A 
ATOM      3  C2  UNL d   1       2.939   3.298  -5.430  0.00  0.00    -0.001 A 
ATOM      4  C3  UNL d   1       3.939   2.509  -6.000  0.00  0.00     0.003 A 
ATOM      5  C4  UNL d   1       5.274   2.899  -5.911  0.00  0.00    -0.005 A 
ATOM      6  C5  UNL d   1       5.610   4.079  -5.251  0.00  0.00     0.003 A 
ATOM      7  C6  UNL d   1       4.611   4.869  -4.680  0.00  0.00    -0.001 A 
ENDROOT
TORSDOF 0
ENDMDL
