MODEL 1
REMARK minimizedAffinity 0.791887045
REMARK minimizedRMSD -1
REMARK  0 active torsions:
REMARK  status: ('A' for Active; 'I' for Inactive)
ROOT
ATOM      1  C   UNL d   1      -5.559  -1.961  -4.130  0.00  0.00     0.078 C 
ATOM      2  C1  UNL d   1      -5.131  -3.244  -4.777  0.00  0.00    -0.077 A 
ATOM      3  C2  UNL d   1      -3.874  -3.362  -5.384  0.00  0.00    -0.001 A 
ATOM      4  C3  UNL d   1      -3.493  -4.559  -5.992  0.00  0.00     0.003 A 
ATOM      5  C4  UNL d   1      -4.363  -5.648  -6.000  0.00  0.00    -0.005 A 
ATOM      6  C5  UNL d   1      -5.616  -5.539  -5.401  0.00  0.00     0.003 A 
ATOM      7  C6  UNL d   1      -5.999  -4.343  -4.793  0.00  0.00    -0.001 A 
ENDROOT
TORSDOF 0
ENDMDL
