MODEL 1
REMARK minimizedAffinity 2.85612631
REMARK minimizedRMSD -1
REMARK  0 active torsions:
REMARK  status: ('A' for Active; 'I' for Inactive)
ROOT
ATOM      1  C   UNL d   1       0.173  -4.848   1.493  0.00  0.00     0.078 C 
ATOM      2  C1  UNL d   1       1.393  -5.241   2.272  0.00  0.00    -0.077 A 
ATOM      3  C2  UNL d   1       2.658  -5.258   1.670  0.00  0.00    -0.001 A 
ATOM      4  C3  UNL d   1       3.784  -5.635   2.404  0.00  0.00     0.003 A 
ATOM      5  C4  UNL d   1       3.656  -5.998   3.743  0.00  0.00    -0.005 A 
ATOM      6  C5  UNL d   1       2.402  -5.985   4.350  0.00  0.00     0.003 A 
ATOM      7  C6  UNL d   1       1.275  -5.609   3.618  0.00  0.00    -0.001 A 
ENDROOT
TORSDOF 0
ENDMDL
