MODEL 1
REMARK minimizedAffinity 2.66764069
REMARK minimizedRMSD -1
REMARK  0 active torsions:
REMARK  status: ('A' for Active; 'I' for Inactive)
ROOT
ATOM      1  C   UNL d   1      -3.925  -2.337   0.199  0.00  0.00     0.078 C 
ATOM      2  C1  UNL d   1      -3.546  -0.953   0.634  0.00  0.00    -0.077 A 
ATOM      3  C2  UNL d   1      -4.460   0.105   0.552  0.00  0.00    -0.001 A 
ATOM      4  C3  UNL d   1      -4.091   1.390   0.952  0.00  0.00     0.003 A 
ATOM      5  C4  UNL d   1      -2.806   1.630   1.436  0.00  0.00    -0.005 A 
ATOM      6  C5  UNL d   1      -1.889   0.584   1.519  0.00  0.00     0.003 A 
ATOM      7  C6  UNL d   1      -2.256  -0.702   1.120  0.00  0.00    -0.001 A 
ENDROOT
TORSDOF 0
ENDMDL
