MODEL 1
REMARK minimizedAffinity 9.69170856
REMARK minimizedRMSD -1
REMARK  0 active torsions:
REMARK  status: ('A' for Active; 'I' for Inactive)
ROOT
ATOM      1  C   UNL d   1      -3.008  -0.448   1.113  0.00  0.00     0.078 C 
ATOM      2  C1  UNL d   1      -2.352   0.774   1.682  0.00  0.00    -0.077 A 
ATOM      3  C2  UNL d   1      -3.077   1.956   1.880  0.00  0.00    -0.001 A 
ATOM      4  C3  UNL d   1      -2.452   3.089   2.402  0.00  0.00     0.003 A 
ATOM      5  C4  UNL d   1      -1.098   3.053   2.730  0.00  0.00    -0.005 A 
ATOM      6  C5  UNL d   1      -0.368   1.882   2.535  0.00  0.00     0.003 A 
ATOM      7  C6  UNL d   1      -0.991   0.748   2.013  0.00  0.00    -0.001 A 
ENDROOT
TORSDOF 0
ENDMDL
