MODEL 1
REMARK minimizedAffinity 7.24974823
REMARK minimizedRMSD -1
REMARK  0 active torsions:
REMARK  status: ('A' for Active; 'I' for Inactive)
ROOT
ATOM      1  C   UNL d   1      -4.757  -1.466   0.794  0.00  0.00     0.078 C 
ATOM      2  C1  UNL d   1      -3.723  -0.393   0.962  0.00  0.00    -0.077 A 
ATOM      3  C2  UNL d   1      -4.057   0.959   0.819  0.00  0.00    -0.001 A 
ATOM      4  C3  UNL d   1      -3.082   1.947   0.968  0.00  0.00     0.003 A 
ATOM      5  C4  UNL d   1      -1.766   1.592   1.259  0.00  0.00    -0.005 A 
ATOM      6  C5  UNL d   1      -1.424   0.249   1.401  0.00  0.00     0.003 A 
ATOM      7  C6  UNL d   1      -2.397  -0.740   1.252  0.00  0.00    -0.001 A 
ENDROOT
TORSDOF 0
ENDMDL
