MODEL 1
REMARK minimizedAffinity 6.71821594
REMARK minimizedRMSD -1
REMARK  0 active torsions:
REMARK  status: ('A' for Active; 'I' for Inactive)
ROOT
ATOM      1  C   UNL d   1       0.402   2.354   2.923  0.00  0.00     0.078 C 
ATOM      2  C1  UNL d   1      -0.656   1.379   2.500  0.00  0.00    -0.077 A 
ATOM      3  C2  UNL d   1      -1.866   1.821   1.950  0.00  0.00    -0.001 A 
ATOM      4  C3  UNL d   1      -2.846   0.902   1.570  0.00  0.00     0.003 A 
ATOM      5  C4  UNL d   1      -2.626  -0.464   1.737  0.00  0.00    -0.005 A 
ATOM      6  C5  UNL d   1      -1.426  -0.913   2.285  0.00  0.00     0.003 A 
ATOM      7  C6  UNL d   1      -0.446   0.004   2.665  0.00  0.00    -0.001 A 
ENDROOT
TORSDOF 0
ENDMDL
