MODEL 1
REMARK minimizedAffinity 9.5211916
REMARK minimizedRMSD -1
REMARK  0 active torsions:
REMARK  status: ('A' for Active; 'I' for Inactive)
ROOT
ATOM      1  C   UNL d   1       1.689   2.928  -1.150  0.00  0.00     0.078 C 
ATOM      2  C1  UNL d   1       2.391   3.642  -2.266  0.00  0.00    -0.077 A 
ATOM      3  C2  UNL d   1       2.109   4.983  -2.555  0.00  0.00    -0.001 A 
ATOM      4  C3  UNL d   1       2.763   5.632  -3.603  0.00  0.00     0.003 A 
ATOM      5  C4  UNL d   1       3.702   4.947  -4.373  0.00  0.00    -0.005 A 
ATOM      6  C5  UNL d   1       3.988   3.612  -4.094  0.00  0.00     0.003 A 
ATOM      7  C6  UNL d   1       3.335   2.962  -3.046  0.00  0.00    -0.001 A 
ENDROOT
TORSDOF 0
ENDMDL
