MODEL 1
REMARK minimizedAffinity 0.0292899124
REMARK minimizedRMSD -1
REMARK  0 active torsions:
REMARK  status: ('A' for Active; 'I' for Inactive)
ROOT
ATOM      1  C   UNL d   1      -2.093   0.075   1.271  0.00  0.00     0.078 C 
ATOM      2  C1  UNL d   1      -2.763  -1.119   0.660  0.00  0.00    -0.077 A 
ATOM      3  C2  UNL d   1      -2.016  -2.220   0.223  0.00  0.00    -0.001 A 
ATOM      4  C3  UNL d   1      -2.652  -3.321  -0.352  0.00  0.00     0.003 A 
ATOM      5  C4  UNL d   1      -4.038  -3.332  -0.497  0.00  0.00    -0.005 A 
ATOM      6  C5  UNL d   1      -4.789  -2.240  -0.067  0.00  0.00     0.003 A 
ATOM      7  C6  UNL d   1      -4.155  -1.138   0.508  0.00  0.00    -0.001 A 
ENDROOT
TORSDOF 0
ENDMDL
