MODEL 1
REMARK minimizedAffinity 8.65499496
REMARK minimizedRMSD -1
REMARK  0 active torsions:
REMARK  status: ('A' for Active; 'I' for Inactive)
ROOT
ATOM      1  C   UNL d   1       1.848  -0.365   3.009  0.00  0.00     0.078 C 
ATOM      2  C1  UNL d   1       3.295  -0.416   2.618  0.00  0.00    -0.077 A 
ATOM      3  C2  UNL d   1       4.209  -1.198   3.334  0.00  0.00    -0.001 A 
ATOM      4  C3  UNL d   1       5.555  -1.227   2.965  0.00  0.00     0.003 A 
ATOM      5  C4  UNL d   1       5.999  -0.476   1.879  0.00  0.00    -0.005 A 
ATOM      6  C5  UNL d   1       5.097   0.307   1.161  0.00  0.00     0.003 A 
ATOM      7  C6  UNL d   1       3.751   0.338   1.529  0.00  0.00    -0.001 A 
ENDROOT
TORSDOF 0
ENDMDL
