MODEL 1
REMARK minimizedAffinity 14.3428202
REMARK minimizedRMSD -1
REMARK  0 active torsions:
REMARK  status: ('A' for Active; 'I' for Inactive)
ROOT
ATOM      1  C   UNL d   1       5.601   1.851  -2.347  0.00  0.00    -0.002 A 
ATOM      2  C1  UNL d   1       5.999   1.990  -1.025  0.00  0.00     0.010 A 
ATOM      3  C2  UNL d   1       5.250   1.419   0.006  0.00  0.00     0.041 A 
ATOM      4  C3  UNL d   1       4.084   0.698  -0.318  0.00  0.00    -0.075 A 
ATOM      5  S   UNL d   1       3.010  -0.088   0.778  0.00  0.00     0.015 SA
ATOM      6  C4  UNL d   1       1.998  -0.627  -0.483  0.00  0.00     0.022 A 
ATOM      7  C5  UNL d   1       2.453  -0.226  -1.716  0.00  0.00     0.026 A 
ATOM      8  C6  UNL d   1       3.663   0.544  -1.642  0.00  0.00    -0.082 A 
ATOM      9  C7  UNL d   1       4.444   1.135  -2.664  0.00  0.00     0.045 A 
ENDROOT
TORSDOF 0
ENDMDL
