MODEL 1
REMARK minimizedAffinity 14.1916695
REMARK minimizedRMSD -1
REMARK  0 active torsions:
REMARK  status: ('A' for Active; 'I' for Inactive)
ROOT
ATOM      1  C   UNL d   1       2.359  -0.002  -0.285  0.00  0.00    -0.002 A 
ATOM      2  C1  UNL d   1       2.856   0.511   0.905  0.00  0.00     0.010 A 
ATOM      3  C2  UNL d   1       3.983   1.335   0.908  0.00  0.00     0.041 A 
ATOM      4  C3  UNL d   1       4.608   1.639  -0.318  0.00  0.00    -0.075 A 
ATOM      5  S   UNL d   1       6.000   2.627  -0.558  0.00  0.00     0.015 SA
ATOM      6  C4  UNL d   1       5.968   2.392  -2.245  0.00  0.00     0.022 A 
ATOM      7  C5  UNL d   1       4.927   1.582  -2.633  0.00  0.00     0.026 A 
ATOM      8  C6  UNL d   1       4.126   1.135  -1.529  0.00  0.00    -0.082 A 
ATOM      9  C7  UNL d   1       2.982   0.302  -1.498  0.00  0.00     0.045 A 
ENDROOT
TORSDOF 0
ENDMDL
