MODEL 1
REMARK minimizedAffinity 9.50726986
REMARK minimizedRMSD -1
REMARK  0 active torsions:
REMARK  status: ('A' for Active; 'I' for Inactive)
ROOT
ATOM      1  C   UNL d   1       6.000   2.222  -1.415  0.00  0.00    -0.002 A 
ATOM      2  C1  UNL d   1       5.512   1.777  -2.635  0.00  0.00     0.010 A 
ATOM      3  C2  UNL d   1       4.439   0.884  -2.689  0.00  0.00     0.041 A 
ATOM      4  C3  UNL d   1       3.859   0.443  -1.483  0.00  0.00    -0.075 A 
ATOM      5  S   UNL d   1       2.536  -0.648  -1.304  0.00  0.00     0.015 SA
ATOM      6  C4  UNL d   1       2.588  -0.549   0.396  0.00  0.00     0.022 A 
ATOM      7  C5  UNL d   1       3.583   0.292   0.834  0.00  0.00     0.026 A 
ATOM      8  C6  UNL d   1       4.332   0.878  -0.242  0.00  0.00    -0.082 A 
ATOM      9  C7  UNL d   1       5.421   1.782  -0.221  0.00  0.00     0.045 A 
ENDROOT
TORSDOF 0
ENDMDL
