MODEL 1
REMARK minimizedAffinity 7.76532984
REMARK minimizedRMSD -1
REMARK  0 active torsions:
REMARK  status: ('A' for Active; 'I' for Inactive)
ROOT
ATOM      1  C   UNL d   1       5.066   4.125   3.008  0.00  0.00    -0.002 A 
ATOM      2  C1  UNL d   1       4.873   5.000   4.067  0.00  0.00     0.010 A 
ATOM      3  C2  UNL d   1       3.638   5.625   4.256  0.00  0.00     0.041 A 
ATOM      4  C3  UNL d   1       2.591   5.351   3.354  0.00  0.00    -0.075 A 
ATOM      5  S   UNL d   1       0.994   6.000   3.388  0.00  0.00     0.015 SA
ATOM      6  C4  UNL d   1       0.531   5.130   1.998  0.00  0.00     0.022 A 
ATOM      7  C5  UNL d   1       1.557   4.359   1.506  0.00  0.00     0.026 A 
ATOM      8  C6  UNL d   1       2.762   4.474   2.280  0.00  0.00    -0.082 A 
ATOM      9  C7  UNL d   1       4.025   3.857   2.115  0.00  0.00     0.045 A 
ENDROOT
TORSDOF 0
ENDMDL
