MODEL 1
REMARK minimizedAffinity 3.78578591
REMARK minimizedRMSD -1
REMARK  0 active torsions:
REMARK  status: ('A' for Active; 'I' for Inactive)
ROOT
ATOM      1  C   UNL d   1       6.000   2.497  -1.816  0.00  0.00    -0.002 A 
ATOM      2  C1  UNL d   1       5.054   1.892  -2.631  0.00  0.00     0.010 A 
ATOM      3  C2  UNL d   1       4.026   1.125  -2.079  0.00  0.00     0.041 A 
ATOM      4  C3  UNL d   1       3.964   0.977  -0.679  0.00  0.00    -0.075 A 
ATOM      5  S   UNL d   1       2.794   0.085   0.220  0.00  0.00     0.015 SA
ATOM      6  C4  UNL d   1       3.522   0.486   1.708  0.00  0.00     0.022 A 
ATOM      7  C5  UNL d   1       4.632   1.281   1.541  0.00  0.00     0.026 A 
ATOM      8  C6  UNL d   1       4.904   1.577   0.163  0.00  0.00    -0.082 A 
ATOM      9  C7  UNL d   1       5.935   2.347  -0.428  0.00  0.00     0.045 A 
ENDROOT
TORSDOF 0
ENDMDL
