MODEL 1
REMARK minimizedAffinity 3.84462333
REMARK minimizedRMSD -1
REMARK  0 active torsions:
REMARK  status: ('A' for Active; 'I' for Inactive)
ROOT
ATOM      1  C   UNL d   1      -3.642  -2.291  -5.516  0.00  0.00    -0.002 A 
ATOM      2  C1  UNL d   1      -3.131  -1.154  -4.906  0.00  0.00     0.010 A 
ATOM      3  C2  UNL d   1      -2.199  -1.260  -3.873  0.00  0.00     0.041 A 
ATOM      4  C3  UNL d   1      -1.782  -2.541  -3.460  0.00  0.00    -0.075 A 
ATOM      5  S   UNL d   1      -0.649  -2.915  -2.215  0.00  0.00     0.015 SA
ATOM      6  C4  UNL d   1      -0.815  -4.593  -2.465  0.00  0.00     0.022 A 
ATOM      7  C5  UNL d   1      -1.710  -4.879  -3.469  0.00  0.00     0.026 A 
ATOM      8  C6  UNL d   1      -2.281  -3.701  -4.060  0.00  0.00    -0.082 A 
ATOM      9  C7  UNL d   1      -3.226  -3.560  -5.104  0.00  0.00     0.045 A 
ENDROOT
TORSDOF 0
ENDMDL
