MODEL 1
REMARK minimizedAffinity 16.0901222
REMARK minimizedRMSD -1
REMARK  0 active torsions:
REMARK  status: ('A' for Active; 'I' for Inactive)
ROOT
ATOM      1  C   UNL d   1       5.306   2.412  -1.063  0.00  0.00    -0.002 A 
ATOM      2  C1  UNL d   1       5.562   2.364   0.300  0.00  0.00     0.010 A 
ATOM      3  C2  UNL d   1       4.742   1.621   1.151  0.00  0.00     0.041 A 
ATOM      4  C3  UNL d   1       3.651   0.918   0.603  0.00  0.00    -0.075 A 
ATOM      5  S   UNL d   1       2.512  -0.059   1.453  0.00  0.00     0.015 SA
ATOM      6  C4  UNL d   1       1.660  -0.437   0.026  0.00  0.00     0.022 A 
ATOM      7  C5  UNL d   1       2.216   0.160  -1.080  0.00  0.00     0.026 A 
ATOM      8  C6  UNL d   1       3.373   0.950  -0.766  0.00  0.00    -0.082 A 
ATOM      9  C7  UNL d   1       4.223   1.713  -1.603  0.00  0.00     0.045 A 
ENDROOT
TORSDOF 0
ENDMDL
