MODEL 1
REMARK minimizedAffinity 12.1426916
REMARK minimizedRMSD -1
REMARK  0 active torsions:
REMARK  status: ('A' for Active; 'I' for Inactive)
ROOT
ATOM      1  C   UNL d   1       3.002   1.609   0.679  0.00  0.00    -0.002 A 
ATOM      2  C1  UNL d   1       3.363   0.405   1.267  0.00  0.00     0.010 A 
ATOM      3  C2  UNL d   1       3.104   0.169   2.618  0.00  0.00     0.041 A 
ATOM      4  C3  UNL d   1       2.469   1.173   3.376  0.00  0.00    -0.075 A 
ATOM      5  S   UNL d   1       2.051   1.106   5.047  0.00  0.00     0.015 SA
ATOM      6  C4  UNL d   1       1.384   2.674   5.020  0.00  0.00     0.022 A 
ATOM      7  C5  UNL d   1       1.469   3.249   3.774  0.00  0.00     0.026 A 
ATOM      8  C6  UNL d   1       2.096   2.393   2.806  0.00  0.00    -0.082 A 
ATOM      9  C7  UNL d   1       2.373   2.603   1.434  0.00  0.00     0.045 A 
ENDROOT
TORSDOF 0
ENDMDL
