MODEL 1
REMARK minimizedAffinity 10.6755686
REMARK minimizedRMSD -1
REMARK  0 active torsions:
REMARK  status: ('A' for Active; 'I' for Inactive)
ROOT
ATOM      1  C   UNL d   1       6.000   2.577  -1.205  0.00  0.00    -0.002 A 
ATOM      2  C1  UNL d   1       5.199   2.208  -2.277  0.00  0.00     0.010 A 
ATOM      3  C2  UNL d   1       4.087   1.387  -2.084  0.00  0.00     0.041 A 
ATOM      4  C3  UNL d   1       3.788   0.940  -0.781  0.00  0.00    -0.075 A 
ATOM      5  S   UNL d   1       2.476  -0.072  -0.305  0.00  0.00     0.015 SA
ATOM      6  C4  UNL d   1       2.946  -0.037   1.333  0.00  0.00     0.022 A 
ATOM      7  C5  UNL d   1       4.074   0.723   1.529  0.00  0.00     0.026 A 
ATOM      8  C6  UNL d   1       4.578   1.299   0.314  0.00  0.00    -0.082 A 
ATOM      9  C7  UNL d   1       5.700   2.132   0.085  0.00  0.00     0.045 A 
ENDROOT
TORSDOF 0
ENDMDL
