MODEL 1
REMARK minimizedAffinity -1.54549134
REMARK minimizedRMSD -1
REMARK  0 active torsions:
REMARK  status: ('A' for Active; 'I' for Inactive)
ROOT
ATOM      1  C1  DEN d   1       0.192   0.583  -2.045  0.00  0.00     0.130 A 
ATOM      2  C2  DEN d   1       0.651  -0.799  -1.930  0.00  0.00    -0.031 A 
ATOM      3  C3  DEN d   1       0.710  -1.143  -0.496  0.00  0.00     0.027 A 
ATOM      4  C4  DEN d   1       0.132   0.319   1.549  0.00  0.00     0.027 A 
ATOM      5  C5  DEN d   1      -0.292   1.566   1.954  0.00  0.00    -0.003 A 
ATOM      6  C6  DEN d   1      -0.549   2.574   1.064  0.00  0.00     0.001 A 
ATOM      7  C7  DEN d   1      -0.428   2.340  -0.281  0.00  0.00     0.017 A 
ATOM      8  C8  DEN d   1       0.005   1.088  -0.696  0.00  0.00    -0.094 A 
ATOM      9  C9  DEN d   1       0.248   0.078   0.219  0.00  0.00    -0.072 A 
ENDROOT
TORSDOF 0
ENDMDL
