MODEL 1
REMARK minimizedAffinity -2.63727593
REMARK minimizedRMSD -1
REMARK  0 active torsions:
REMARK  status: ('A' for Active; 'I' for Inactive)
ROOT
ATOM      1  C1  DEN d   1       0.236   1.432  -1.910  0.00  0.00     0.130 A 
ATOM      2  C2  DEN d   1      -0.149   2.828  -1.720  0.00  0.00    -0.031 A 
ATOM      3  C3  DEN d   1      -0.281   3.072  -0.270  0.00  0.00     0.027 A 
ATOM      4  C4  DEN d   1       0.075   1.434   1.690  0.00  0.00     0.027 A 
ATOM      5  C5  DEN d   1       0.398   0.138   2.025  0.00  0.00    -0.003 A 
ATOM      6  C6  DEN d   1       0.654  -0.819   1.079  0.00  0.00     0.001 A 
ATOM      7  C7  DEN d   1       0.636  -0.482  -0.249  0.00  0.00     0.017 A 
ATOM      8  C8  DEN d   1       0.304   0.821  -0.595  0.00  0.00    -0.094 A 
ATOM      9  C9  DEN d   1       0.061   1.777   0.377  0.00  0.00    -0.072 A 
ENDROOT
TORSDOF 0
ENDMDL
