MODEL 1
REMARK minimizedAffinity -3.55962443
REMARK minimizedRMSD -1
REMARK  0 active torsions:
REMARK  status: ('A' for Active; 'I' for Inactive)
ROOT
ATOM      1  C1  DEN d   1      -1.015  -2.878   0.474  0.00  0.00     0.130 A 
ATOM      2  C2  DEN d   1      -0.616  -3.462  -0.804  0.00  0.00    -0.031 A 
ATOM      3  C3  DEN d   1       0.033  -2.404  -1.605  0.00  0.00     0.027 A 
ATOM      4  C4  DEN d   1       0.460   0.064  -0.993  0.00  0.00     0.027 A 
ATOM      5  C5  DEN d   1       0.289   1.026  -0.021  0.00  0.00    -0.003 A 
ATOM      6  C6  DEN d   1      -0.354   0.764   1.160  0.00  0.00     0.001 A 
ATOM      7  C7  DEN d   1      -0.810  -0.502   1.418  0.00  0.00     0.017 A 
ATOM      8  C8  DEN d   1      -0.647  -1.474   0.441  0.00  0.00    -0.094 A 
ATOM      9  C9  DEN d   1       0.016  -1.193  -0.742  0.00  0.00    -0.072 A 
ENDROOT
TORSDOF 0
ENDMDL
