MODEL 1
REMARK minimizedAffinity -1.15245712
REMARK minimizedRMSD -1
REMARK  0 active torsions:
REMARK  status: ('A' for Active; 'I' for Inactive)
ROOT
ATOM      1  C1  DEN d   1       0.188   1.636  -1.986  0.00  0.00     0.130 A 
ATOM      2  C2  DEN d   1       0.120   3.092  -1.903  0.00  0.00    -0.031 A 
ATOM      3  C3  DEN d   1       0.192   3.472  -0.478  0.00  0.00     0.027 A 
ATOM      4  C4  DEN d   1       0.406   1.955   1.597  0.00  0.00     0.027 A 
ATOM      5  C5  DEN d   1       0.488   0.650   2.030  0.00  0.00    -0.003 A 
ATOM      6  C6  DEN d   1       0.442  -0.411   1.164  0.00  0.00     0.001 A 
ATOM      7  C7  DEN d   1       0.356  -0.183  -0.184  0.00  0.00     0.017 A 
ATOM      8  C8  DEN d   1       0.265   1.130  -0.627  0.00  0.00    -0.094 A 
ATOM      9  C9  DEN d   1       0.326   2.188   0.263  0.00  0.00    -0.072 A 
ENDROOT
TORSDOF 0
ENDMDL
