MODEL 1
REMARK minimizedAffinity -1.08269072
REMARK minimizedRMSD -1
REMARK  0 active torsions:
REMARK  status: ('A' for Active; 'I' for Inactive)
ROOT
ATOM      1  C1  DEN d   1      -0.513  -0.614  -1.289  0.00  0.00     0.130 A 
ATOM      2  C2  DEN d   1       0.677  -0.509  -0.448  0.00  0.00    -0.031 A 
ATOM      3  C3  DEN d   1       1.145  -1.877  -0.148  0.00  0.00     0.027 A 
ATOM      4  C4  DEN d   1       0.153  -4.134  -0.903  0.00  0.00     0.027 A 
ATOM      5  C5  DEN d   1      -0.861  -4.732  -1.618  0.00  0.00    -0.003 A 
ATOM      6  C6  DEN d   1      -1.842  -4.006  -2.240  0.00  0.00     0.001 A 
ATOM      7  C7  DEN d   1      -1.803  -2.637  -2.197  0.00  0.00     0.017 A 
ATOM      8  C8  DEN d   1      -0.788  -2.028  -1.472  0.00  0.00    -0.094 A 
ATOM      9  C9  DEN d   1       0.201  -2.779  -0.860  0.00  0.00    -0.072 A 
ENDROOT
TORSDOF 0
ENDMDL
