MODEL 1
REMARK minimizedAffinity -3.23173141
REMARK minimizedRMSD -1
REMARK  0 active torsions:
REMARK  status: ('A' for Active; 'I' for Inactive)
ROOT
ATOM      1  C1  DEN d   1      -0.375   1.923   1.456  0.00  0.00     0.130 A 
ATOM      2  C2  DEN d   1      -0.019   0.868   2.401  0.00  0.00    -0.031 A 
ATOM      3  C3  DEN d   1       0.407  -0.314   1.625  0.00  0.00     0.027 A 
ATOM      4  C4  DEN d   1       0.554  -0.610  -0.933  0.00  0.00     0.027 A 
ATOM      5  C5  DEN d   1       0.346   0.005  -2.148  0.00  0.00    -0.003 A 
ATOM      6  C6  DEN d   1      -0.146   1.279  -2.246  0.00  0.00     0.001 A 
ATOM      7  C7  DEN d   1      -0.403   1.998  -1.108  0.00  0.00     0.017 A 
ATOM      8  C8  DEN d   1      -0.202   1.382   0.120  0.00  0.00    -0.094 A 
ATOM      9  C9  DEN d   1       0.307   0.097   0.199  0.00  0.00    -0.072 A 
ENDROOT
TORSDOF 0
ENDMDL
