MODEL 1
REMARK minimizedAffinity -4.35260057
REMARK minimizedRMSD -1
REMARK  0 active torsions:
REMARK  status: ('A' for Active; 'I' for Inactive)
ROOT
ATOM      1  C1  DEN d   1       0.335  -0.830   0.274  0.00  0.00     0.130 A 
ATOM      2  C2  DEN d   1       0.810  -0.922  -1.104  0.00  0.00    -0.031 A 
ATOM      3  C3  DEN d   1       0.522   0.364  -1.772  0.00  0.00     0.027 A 
ATOM      4  C4  DEN d   1      -0.602   2.477  -0.810  0.00  0.00     0.027 A 
ATOM      5  C5  DEN d   1      -1.185   3.027   0.310  0.00  0.00    -0.003 A 
ATOM      6  C6  DEN d   1      -1.332   2.324   1.476  0.00  0.00     0.001 A 
ATOM      7  C7  DEN d   1      -0.849   1.045   1.564  0.00  0.00     0.017 A 
ATOM      8  C8  DEN d   1      -0.266   0.481   0.436  0.00  0.00    -0.094 A 
ATOM      9  C9  DEN d   1      -0.116   1.212  -0.730  0.00  0.00    -0.072 A 
ENDROOT
TORSDOF 0
ENDMDL
