MODEL 1
REMARK minimizedAffinity 17.688797
REMARK minimizedRMSD -1
REMARK  0 active torsions:
REMARK  status: ('A' for Active; 'I' for Inactive)
ROOT
ATOM      1  C1  DEN d   1      -5.949   6.000   4.593  0.00  0.00     0.130 A 
ATOM      2  C2  DEN d   1      -5.998   5.042   5.694  0.00  0.00    -0.031 A 
ATOM      3  C3  DEN d   1      -5.668   3.708   5.154  0.00  0.00     0.027 A 
ATOM      4  C4  DEN d   1      -5.085   3.037   2.733  0.00  0.00     0.027 A 
ATOM      5  C5  DEN d   1      -4.928   3.502   1.446  0.00  0.00    -0.003 A 
ATOM      6  C6  DEN d   1      -5.132   4.815   1.114  0.00  0.00     0.001 A 
ATOM      7  C7  DEN d   1      -5.461   5.718   2.090  0.00  0.00     0.017 A 
ATOM      8  C8  DEN d   1      -5.628   5.256   3.389  0.00  0.00    -0.094 A 
ATOM      9  C9  DEN d   1      -5.405   3.927   3.706  0.00  0.00    -0.072 A 
ENDROOT
TORSDOF 0
ENDMDL
