MODEL 1
REMARK minimizedAffinity 5.27000618
REMARK minimizedRMSD -1
REMARK  0 active torsions:
REMARK  status: ('A' for Active; 'I' for Inactive)
ROOT
ATOM      1  C1  DEN d   1      -3.865   5.966   5.041  0.00  0.00     0.130 A 
ATOM      2  C2  DEN d   1      -4.966   6.000   5.999  0.00  0.00    -0.031 A 
ATOM      3  C3  DEN d   1      -6.000   5.051   5.540  0.00  0.00     0.027 A 
ATOM      4  C4  DEN d   1      -6.000   3.537   3.452  0.00  0.00     0.027 A 
ATOM      5  C5  DEN d   1      -5.287   3.169   2.332  0.00  0.00    -0.003 A 
ATOM      6  C6  DEN d   1      -4.076   3.728   2.021  0.00  0.00     0.001 A 
ATOM      7  C7  DEN d   1      -3.519   4.653   2.864  0.00  0.00     0.017 A 
ATOM      8  C8  DEN d   1      -4.235   5.035   3.991  0.00  0.00    -0.094 A 
ATOM      9  C9  DEN d   1      -5.452   4.449   4.294  0.00  0.00    -0.072 A 
ENDROOT
TORSDOF 0
ENDMDL
