MODEL 1
REMARK minimizedAffinity 15.4775314
REMARK minimizedRMSD -1
REMARK  0 active torsions:
REMARK  status: ('A' for Active; 'I' for Inactive)
ROOT
ATOM      1  C1  DEN d   1       1.804  -1.787   1.394  0.00  0.00     0.130 A 
ATOM      2  C2  DEN d   1       2.841  -1.913   2.414  0.00  0.00    -0.031 A 
ATOM      3  C3  DEN d   1       3.806  -0.812   2.222  0.00  0.00     0.027 A 
ATOM      4  C4  DEN d   1       3.793   1.069   0.457  0.00  0.00     0.027 A 
ATOM      5  C5  DEN d   1       3.120   1.584  -0.629  0.00  0.00    -0.003 A 
ATOM      6  C6  DEN d   1       1.990   0.997  -1.134  0.00  0.00     0.001 A 
ATOM      7  C7  DEN d   1       1.473  -0.115  -0.524  0.00  0.00     0.017 A 
ATOM      8  C8  DEN d   1       2.149  -0.645   0.567  0.00  0.00    -0.094 A 
ATOM      9  C9  DEN d   1       3.283  -0.030   1.070  0.00  0.00    -0.072 A 
ENDROOT
TORSDOF 0
ENDMDL
