MODEL 1
REMARK minimizedAffinity 9.32508755
REMARK minimizedRMSD -1
REMARK  0 active torsions:
REMARK  status: ('A' for Active; 'I' for Inactive)
ROOT
ATOM      1  C1  DEN d   1       3.410   0.539   1.306  0.00  0.00     0.130 A 
ATOM      2  C2  DEN d   1       3.672   1.478   0.219  0.00  0.00    -0.031 A 
ATOM      3  C3  DEN d   1       3.163   0.881  -1.032  0.00  0.00     0.027 A 
ATOM      4  C4  DEN d   1       1.998  -1.392  -1.389  0.00  0.00     0.027 A 
ATOM      5  C5  DEN d   1       1.565  -2.542  -0.766  0.00  0.00    -0.003 A 
ATOM      6  C6  DEN d   1       1.746  -2.758   0.575  0.00  0.00     0.001 A 
ATOM      7  C7  DEN d   1       2.336  -1.791   1.345  0.00  0.00     0.017 A 
ATOM      8  C8  DEN d   1       2.781  -0.632   0.722  0.00  0.00    -0.094 A 
ATOM      9  C9  DEN d   1       2.578  -0.427  -0.632  0.00  0.00    -0.072 A 
ENDROOT
TORSDOF 0
ENDMDL
