MODEL 1
REMARK minimizedAffinity 13.2423868
REMARK minimizedRMSD -1
REMARK  0 active torsions:
REMARK  status: ('A' for Active; 'I' for Inactive)
ROOT
ATOM      1  C1  DEN d   1       5.183   1.995  -1.145  0.00  0.00     0.130 A 
ATOM      2  C2  DEN d   1       5.215   1.719  -2.579  0.00  0.00    -0.031 A 
ATOM      3  C3  DEN d   1       4.013   0.931  -2.918  0.00  0.00     0.027 A 
ATOM      4  C4  DEN d   1       2.113   0.121  -1.372  0.00  0.00     0.027 A 
ATOM      5  C5  DEN d   1       1.654   0.102  -0.074  0.00  0.00    -0.003 A 
ATOM      6  C6  DEN d   1       2.350   0.678   0.955  0.00  0.00     0.001 A 
ATOM      7  C7  DEN d   1       3.522   1.338   0.697  0.00  0.00     0.017 A 
ATOM      8  C8  DEN d   1       3.996   1.355  -0.609  0.00  0.00    -0.094 A 
ATOM      9  C9  DEN d   1       3.271   0.778  -1.638  0.00  0.00    -0.072 A 
ENDROOT
TORSDOF 0
ENDMDL
