MODEL 1
REMARK minimizedAffinity 8.32068634
REMARK minimizedRMSD -1
REMARK  0 active torsions:
REMARK  status: ('A' for Active; 'I' for Inactive)
ROOT
ATOM      1  C1  DEN d   1       1.671  -2.148  -0.474  0.00  0.00     0.130 A 
ATOM      2  C2  DEN d   1       0.748  -1.820  -1.558  0.00  0.00    -0.031 A 
ATOM      3  C3  DEN d   1       0.905  -0.387  -1.874  0.00  0.00     0.027 A 
ATOM      4  C4  DEN d   1       2.485   1.348  -0.801  0.00  0.00     0.027 A 
ATOM      5  C5  DEN d   1       3.448   1.543   0.164  0.00  0.00    -0.003 A 
ATOM      6  C6  DEN d   1       3.858   0.538   1.000  0.00  0.00     0.001 A 
ATOM      7  C7  DEN d   1       3.336  -0.720   0.857  0.00  0.00     0.017 A 
ATOM      8  C8  DEN d   1       2.359  -0.923  -0.109  0.00  0.00    -0.094 A 
ATOM      9  C9  DEN d   1       1.966   0.103  -0.953  0.00  0.00    -0.072 A 
ENDROOT
TORSDOF 0
ENDMDL
