MODEL 1
REMARK minimizedAffinity 10.5666838
REMARK minimizedRMSD -1
REMARK  0 active torsions:
REMARK  status: ('A' for Active; 'I' for Inactive)
ROOT
ATOM      1  C1  DEN d   1       0.095   0.429  -1.840  0.00  0.00     0.130 A 
ATOM      2  C2  DEN d   1      -0.893   0.438  -0.764  0.00  0.00    -0.031 A 
ATOM      3  C3  DEN d   1      -0.168   0.411   0.522  0.00  0.00     0.027 A 
ATOM      4  C4  DEN d   1       2.375   0.362   0.950  0.00  0.00     0.027 A 
ATOM      5  C5  DEN d   1       3.614   0.332   0.349  0.00  0.00    -0.003 A 
ATOM      6  C6  DEN d   1       3.765   0.299  -1.012  0.00  0.00     0.001 A 
ATOM      7  C7  DEN d   1       2.659   0.340  -1.819  0.00  0.00     0.017 A 
ATOM      8  C8  DEN d   1       1.406   0.362  -1.221  0.00  0.00    -0.094 A 
ATOM      9  C9  DEN d   1       1.275   0.408   0.157  0.00  0.00    -0.072 A 
ENDROOT
TORSDOF 0
ENDMDL
