MODEL 1
REMARK minimizedAffinity 10.739234
REMARK minimizedRMSD -1
REMARK  0 active torsions:
REMARK  status: ('A' for Active; 'I' for Inactive)
ROOT
ATOM      1  C1  DEN d   1      -5.709   0.032  -4.142  0.00  0.00     0.130 A 
ATOM      2  C2  DEN d   1      -6.000   0.729  -5.392  0.00  0.00    -0.031 A 
ATOM      3  C3  DEN d   1      -4.716   1.140  -5.995  0.00  0.00     0.027 A 
ATOM      4  C4  DEN d   1      -2.319   0.763  -5.122  0.00  0.00     0.027 A 
ATOM      5  C5  DEN d   1      -1.568   0.231  -4.096  0.00  0.00    -0.003 A 
ATOM      6  C6  DEN d   1      -2.142  -0.369  -3.007  0.00  0.00     0.001 A 
ATOM      7  C7  DEN d   1      -3.504  -0.493  -2.939  0.00  0.00     0.017 A 
ATOM      8  C8  DEN d   1      -4.268   0.047  -3.965  0.00  0.00    -0.094 A 
ATOM      9  C9  DEN d   1      -3.669   0.640  -5.064  0.00  0.00    -0.072 A 
ENDROOT
TORSDOF 0
ENDMDL
