MODEL 1
REMARK minimizedAffinity 0.384102434
REMARK minimizedRMSD -1
REMARK  0 active torsions:
REMARK  status: ('A' for Active; 'I' for Inactive)
ROOT
ATOM      1  C   UNL d   1       2.100   1.820   2.014  0.00  0.00     0.023 A 
ATOM      2  C1  UNL d   1       2.236   1.291   0.731  0.00  0.00     0.003 A 
ATOM      3  C2  UNL d   1       2.902   2.017  -0.259  0.00  0.00     0.048 A 
ATOM      4  C3  UNL d   1       3.429   3.272   0.042  0.00  0.00     0.023 A 
ATOM      5  C4  UNL d   1       3.296   3.806   1.325  0.00  0.00     0.048 A 
ATOM      6  C5  UNL d   1       2.629   3.076   2.311  0.00  0.00     0.003 A 
ATOM      7  I   UNL d   1       4.421   4.355  -1.429  0.00  0.00    -0.146 I 
ENDROOT
TORSDOF 0
ENDMDL
