MODEL 1
REMARK minimizedAffinity -2.46833968
REMARK minimizedRMSD -1
REMARK  0 active torsions:
REMARK  status: ('A' for Active; 'I' for Inactive)
ROOT
ATOM      1  C   UNL d   1       4.142   4.965   0.445  0.00  0.00     0.023 A 
ATOM      2  C1  UNL d   1       3.587   4.679   1.693  0.00  0.00     0.003 A 
ATOM      3  C2  UNL d   1       2.918   3.471   1.901  0.00  0.00     0.048 A 
ATOM      4  C3  UNL d   1       2.809   2.553   0.858  0.00  0.00     0.023 A 
ATOM      5  C4  UNL d   1       3.363   2.834  -0.392  0.00  0.00     0.048 A 
ATOM      6  C5  UNL d   1       4.030   4.043  -0.596  0.00  0.00     0.003 A 
ATOM      7  I   UNL d   1       1.814   0.754   1.166  0.00  0.00    -0.146 I 
ENDROOT
TORSDOF 0
ENDMDL
