MODEL 1
REMARK minimizedAffinity -1.69463921
REMARK minimizedRMSD -1
REMARK  0 active torsions:
REMARK  status: ('A' for Active; 'I' for Inactive)
ROOT
ATOM      1  C   UNL d   1       1.495   1.842   2.142  0.00  0.00     0.023 A 
ATOM      2  C1  UNL d   1       1.630   1.231   0.895  0.00  0.00     0.003 A 
ATOM      3  C2  UNL d   1       2.385   1.845  -0.106  0.00  0.00     0.048 A 
ATOM      4  C3  UNL d   1       3.003   3.070   0.146  0.00  0.00     0.023 A 
ATOM      5  C4  UNL d   1       2.871   3.684   1.392  0.00  0.00     0.048 A 
ATOM      6  C5  UNL d   1       2.115   3.067   2.390  0.00  0.00     0.003 A 
ATOM      7  I   UNL d   1       4.127   3.985  -1.343  0.00  0.00    -0.146 I 
ENDROOT
TORSDOF 0
ENDMDL
