MODEL 1
REMARK minimizedAffinity 0.586104989
REMARK minimizedRMSD -1
REMARK  0 active torsions:
REMARK  status: ('A' for Active; 'I' for Inactive)
ROOT
ATOM      1  C   UNL d   1      -2.113  -1.688   2.097  0.00  0.00     0.023 A 
ATOM      2  C1  UNL d   1      -2.394  -0.673   1.182  0.00  0.00     0.003 A 
ATOM      3  C2  UNL d   1      -1.359  -0.073   0.463  0.00  0.00     0.048 A 
ATOM      4  C3  UNL d   1      -0.044  -0.492   0.662  0.00  0.00     0.023 A 
ATOM      5  C4  UNL d   1       0.242  -1.507   1.576  0.00  0.00     0.048 A 
ATOM      6  C5  UNL d   1      -0.796  -2.104   2.294  0.00  0.00     0.003 A 
ATOM      7  I   UNL d   1       1.498   0.400  -0.407  0.00  0.00    -0.146 I 
ENDROOT
TORSDOF 0
ENDMDL
