MODEL 1
REMARK minimizedAffinity -2.5460856
REMARK minimizedRMSD -1
REMARK  0 active torsions:
REMARK  status: ('A' for Active; 'I' for Inactive)
ROOT
ATOM      1  C   UNL d   1       3.351   3.400   2.221  0.00  0.00     0.023 A 
ATOM      2  C1  UNL d   1       2.776   2.375   2.972  0.00  0.00     0.003 A 
ATOM      3  C2  UNL d   1       2.156   1.300   2.330  0.00  0.00     0.048 A 
ATOM      4  C3  UNL d   1       2.117   1.257   0.937  0.00  0.00     0.023 A 
ATOM      5  C4  UNL d   1       2.692   2.280   0.181  0.00  0.00     0.048 A 
ATOM      6  C5  UNL d   1       3.309   3.353   0.827  0.00  0.00     0.003 A 
ATOM      7  I   UNL d   1       1.196  -0.341  -0.021  0.00  0.00    -0.146 I 
ENDROOT
TORSDOF 0
ENDMDL
