MODEL 1
REMARK minimizedAffinity -2.35233879
REMARK minimizedRMSD -1
REMARK  0 active torsions:
REMARK  status: ('A' for Active; 'I' for Inactive)
ROOT
ATOM      1  C   UNL d   1      -2.301  -1.844   1.088  0.00  0.00     0.023 A 
ATOM      2  C1  UNL d   1      -0.977  -1.704   1.503  0.00  0.00     0.003 A 
ATOM      3  C2  UNL d   1      -0.082  -0.949   0.743  0.00  0.00     0.048 A 
ATOM      4  C3  UNL d   1      -0.518  -0.335  -0.431  0.00  0.00     0.023 A 
ATOM      5  C4  UNL d   1      -1.842  -0.472  -0.850  0.00  0.00     0.048 A 
ATOM      6  C5  UNL d   1      -2.733  -1.229  -0.087  0.00  0.00     0.003 A 
ATOM      7  I   UNL d   1       0.813   0.789  -1.564  0.00  0.00    -0.146 I 
ENDROOT
TORSDOF 0
ENDMDL
