MODEL 1
REMARK minimizedAffinity 2.5590694
REMARK minimizedRMSD -1
REMARK  0 active torsions:
REMARK  status: ('A' for Active; 'I' for Inactive)
ROOT
ATOM      1  C   UNL d   1      -0.805  -1.500   1.140  0.00  0.00     0.023 A 
ATOM      2  C1  UNL d   1       0.375  -1.445   1.883  0.00  0.00     0.003 A 
ATOM      3  C2  UNL d   1       1.352  -0.497   1.574  0.00  0.00     0.048 A 
ATOM      4  C3  UNL d   1       1.144   0.394   0.522  0.00  0.00     0.023 A 
ATOM      5  C4  UNL d   1      -0.035   0.344  -0.223  0.00  0.00     0.048 A 
ATOM      6  C5  UNL d   1      -1.009  -0.607   0.088  0.00  0.00     0.003 A 
ATOM      7  I   UNL d   1       2.597   1.806   0.061  0.00  0.00    -0.146 I 
ENDROOT
TORSDOF 0
ENDMDL
