MODEL 1
REMARK minimizedAffinity -0.0275797583
REMARK minimizedRMSD -1
REMARK  0 active torsions:
REMARK  status: ('A' for Active; 'I' for Inactive)
ROOT
ATOM      1  C   UNL d   1      -1.204  -0.628   0.704  0.00  0.00     0.023 A 
ATOM      2  C1  UNL d   1      -1.656  -1.117  -0.521  0.00  0.00     0.003 A 
ATOM      3  C2  UNL d   1      -0.847  -1.020  -1.655  0.00  0.00     0.048 A 
ATOM      4  C3  UNL d   1       0.414  -0.433  -1.556  0.00  0.00     0.023 A 
ATOM      5  C4  UNL d   1       0.871   0.058  -0.332  0.00  0.00     0.048 A 
ATOM      6  C5  UNL d   1       0.058  -0.041   0.799  0.00  0.00     0.003 A 
ATOM      7  I   UNL d   1       1.621  -0.287  -3.242  0.00  0.00    -0.146 I 
ENDROOT
TORSDOF 0
ENDMDL
