MODEL 1
REMARK minimizedAffinity 1.19248939
REMARK minimizedRMSD -1
REMARK  0 active torsions:
REMARK  status: ('A' for Active; 'I' for Inactive)
ROOT
ATOM      1  C   UNL d   1       3.368   2.940   1.381  0.00  0.00     0.023 A 
ATOM      2  C1  UNL d   1       2.919   2.626   0.098  0.00  0.00     0.003 A 
ATOM      3  C2  UNL d   1       1.928   1.658  -0.078  0.00  0.00     0.048 A 
ATOM      4  C3  UNL d   1       1.389   1.010   1.033  0.00  0.00     0.023 A 
ATOM      5  C4  UNL d   1       1.835   1.322   2.318  0.00  0.00     0.048 A 
ATOM      6  C5  UNL d   1       2.827   2.290   2.490  0.00  0.00     0.003 A 
ATOM      7  I   UNL d   1      -0.087  -0.430   0.773  0.00  0.00    -0.146 I 
ENDROOT
TORSDOF 0
ENDMDL
