MODEL 1
REMARK minimizedAffinity -2.94201374
REMARK minimizedRMSD -1
REMARK  0 active torsions:
REMARK  status: ('A' for Active; 'I' for Inactive)
ROOT
ATOM      1  C   UNL d   1      -3.117  -0.939  -0.496  0.00  0.00     0.023 A 
ATOM      2  C1  UNL d   1      -2.266  -0.611  -1.551  0.00  0.00     0.003 A 
ATOM      3  C2  UNL d   1      -0.953  -0.210  -1.292  0.00  0.00     0.048 A 
ATOM      4  C3  UNL d   1      -0.499  -0.141   0.025  0.00  0.00     0.023 A 
ATOM      5  C4  UNL d   1      -1.347  -0.469   1.083  0.00  0.00     0.048 A 
ATOM      6  C5  UNL d   1      -2.659  -0.868   0.819  0.00  0.00     0.003 A 
ATOM      7  I   UNL d   1       1.454   0.455   0.413  0.00  0.00    -0.146 I 
ENDROOT
TORSDOF 0
ENDMDL
