MODEL 1
REMARK minimizedAffinity -1.9002701
REMARK minimizedRMSD -1
REMARK  0 active torsions:
REMARK  status: ('A' for Active; 'I' for Inactive)
ROOT
ATOM      1  C   UNL d   1       1.168   0.177  -0.001  0.00  0.00     0.023 A 
ATOM      2  C1  UNL d   1       0.562  -0.598   0.988  0.00  0.00     0.003 A 
ATOM      3  C2  UNL d   1      -0.787  -0.940   0.880  0.00  0.00     0.048 A 
ATOM      4  C3  UNL d   1      -1.525  -0.505  -0.221  0.00  0.00     0.023 A 
ATOM      5  C4  UNL d   1      -0.922   0.269  -1.214  0.00  0.00     0.048 A 
ATOM      6  C5  UNL d   1       0.427   0.609  -1.101  0.00  0.00     0.003 A 
ATOM      7  I   UNL d   1      -3.533  -1.014  -0.384  0.00  0.00    -0.146 I 
ENDROOT
TORSDOF 0
ENDMDL
