MODEL 1
REMARK minimizedAffinity -0.517402411
REMARK minimizedRMSD -1
REMARK  0 active torsions:
REMARK  status: ('A' for Active; 'I' for Inactive)
ROOT
ATOM      1  C   UNL d   1       2.832  -0.206  -4.362  0.00  0.00     0.023 A 
ATOM      2  C1  UNL d   1       1.516  -0.048  -4.798  0.00  0.00     0.003 A 
ATOM      3  C2  UNL d   1       0.478   0.045  -3.868  0.00  0.00     0.048 A 
ATOM      4  C3  UNL d   1       0.763  -0.019  -2.505  0.00  0.00     0.023 A 
ATOM      5  C4  UNL d   1       2.078  -0.176  -2.064  0.00  0.00     0.048 A 
ATOM      6  C5  UNL d   1       3.112  -0.269  -2.997  0.00  0.00     0.003 A 
ATOM      7  I   UNL d   1      -0.780   0.120  -1.119  0.00  0.00    -0.146 I 
ENDROOT
TORSDOF 0
ENDMDL
