MODEL 1
REMARK minimizedAffinity 0.155490756
REMARK minimizedRMSD -1
REMARK  0 active torsions:
REMARK  status: ('A' for Active; 'I' for Inactive)
ROOT
ATOM      1  C   UNL d   1      -2.832  -1.642  -0.547  0.00  0.00     0.023 A 
ATOM      2  C1  UNL d   1      -1.970  -2.023   0.482  0.00  0.00     0.003 A 
ATOM      3  C2  UNL d   1      -0.861  -1.234   0.793  0.00  0.00     0.048 A 
ATOM      4  C3  UNL d   1      -0.620  -0.065   0.072  0.00  0.00     0.023 A 
ATOM      5  C4  UNL d   1      -1.480   0.321  -0.958  0.00  0.00     0.048 A 
ATOM      6  C5  UNL d   1      -2.587  -0.472  -1.266  0.00  0.00     0.003 A 
ATOM      7  I   UNL d   1       1.030   1.112   0.533  0.00  0.00    -0.146 I 
ENDROOT
TORSDOF 0
ENDMDL
