MODEL 1
REMARK minimizedAffinity -5.42821264
REMARK minimizedRMSD -1
REMARK  0 active torsions:
REMARK  status: ('A' for Active; 'I' for Inactive)
ROOT
ATOM      1  C   UNL d   1      -3.500  -1.911   0.377  0.00  0.00     0.023 A 
ATOM      2  C1  UNL d   1      -3.244  -0.756  -0.362  0.00  0.00     0.003 A 
ATOM      3  C2  UNL d   1      -1.947  -0.243  -0.431  0.00  0.00     0.048 A 
ATOM      4  C3  UNL d   1      -0.911  -0.890   0.241  0.00  0.00     0.023 A 
ATOM      5  C4  UNL d   1      -1.162  -2.047   0.980  0.00  0.00     0.048 A 
ATOM      6  C5  UNL d   1      -2.460  -2.556   1.047  0.00  0.00     0.003 A 
ATOM      7  I   UNL d   1       1.020  -0.128   0.140  0.00  0.00    -0.146 I 
ENDROOT
TORSDOF 0
ENDMDL
