MODEL 1
REMARK minimizedAffinity -3.82984257
REMARK minimizedRMSD -1
REMARK  0 active torsions:
REMARK  status: ('A' for Active; 'I' for Inactive)
ROOT
ATOM      1  C   UNL d   1      -3.422  -1.656  -0.008  0.00  0.00     0.023 A 
ATOM      2  C1  UNL d   1      -3.102  -0.606  -0.868  0.00  0.00     0.003 A 
ATOM      3  C2  UNL d   1      -1.837  -0.016  -0.813  0.00  0.00     0.048 A 
ATOM      4  C3  UNL d   1      -0.897  -0.483   0.104  0.00  0.00     0.023 A 
ATOM      5  C4  UNL d   1      -1.212  -1.535   0.966  0.00  0.00     0.048 A 
ATOM      6  C5  UNL d   1      -2.478  -2.120   0.908  0.00  0.00     0.003 A 
ATOM      7  I   UNL d   1       0.987   0.392   0.189  0.00  0.00    -0.146 I 
ENDROOT
TORSDOF 0
ENDMDL
