MODEL 1
REMARK minimizedAffinity 2.56784868
REMARK minimizedRMSD -1
REMARK  0 active torsions:
REMARK  status: ('A' for Active; 'I' for Inactive)
ROOT
ATOM      1  C   UNL d   1      -4.537   4.698  -5.660  0.00  0.00     0.023 A 
ATOM      2  C1  UNL d   1      -3.768   3.543  -5.518  0.00  0.00     0.003 A 
ATOM      3  C2  UNL d   1      -2.376   3.612  -5.616  0.00  0.00     0.048 A 
ATOM      4  C3  UNL d   1      -1.760   4.840  -5.854  0.00  0.00     0.023 A 
ATOM      5  C4  UNL d   1      -2.526   5.999  -5.996  0.00  0.00     0.048 A 
ATOM      6  C5  UNL d   1      -3.916   5.924  -5.899  0.00  0.00     0.003 A 
ATOM      7  I   UNL d   1       0.310   4.946  -6.000  0.00  0.00    -0.146 I 
ENDROOT
TORSDOF 0
ENDMDL
