MODEL 1
REMARK minimizedAffinity -2.85852957
REMARK minimizedRMSD -1
REMARK  0 active torsions:
REMARK  status: ('A' for Active; 'I' for Inactive)
ROOT
ATOM      1  C   UNL d   1      -0.769  -1.860   0.613  0.00  0.00     0.023 A 
ATOM      2  C1  UNL d   1      -2.092  -1.845   1.055  0.00  0.00     0.003 A 
ATOM      3  C2  UNL d   1      -2.932  -2.928   0.788  0.00  0.00     0.048 A 
ATOM      4  C3  UNL d   1      -2.442  -4.024   0.078  0.00  0.00     0.023 A 
ATOM      5  C4  UNL d   1      -1.118  -4.044  -0.365  0.00  0.00     0.048 A 
ATOM      6  C5  UNL d   1      -0.283  -2.959  -0.097  0.00  0.00     0.003 A 
ATOM      7  I   UNL d   1      -3.689  -5.638  -0.321  0.00  0.00    -0.146 I 
ENDROOT
TORSDOF 0
ENDMDL
