MODEL 1
REMARK minimizedAffinity 0.352973133
REMARK minimizedRMSD -1
REMARK  0 active torsions:
REMARK  status: ('A' for Active; 'I' for Inactive)
ROOT
ATOM      1  C   UNL d   1      -3.177  -0.525  -0.206  0.00  0.00     0.023 A 
ATOM      2  C1  UNL d   1      -3.289  -0.994  -1.515  0.00  0.00     0.003 A 
ATOM      3  C2  UNL d   1      -2.645  -2.173  -1.894  0.00  0.00     0.048 A 
ATOM      4  C3  UNL d   1      -1.890  -2.880  -0.958  0.00  0.00     0.023 A 
ATOM      5  C4  UNL d   1      -1.775  -2.415   0.353  0.00  0.00     0.048 A 
ATOM      6  C5  UNL d   1      -2.421  -1.235   0.727  0.00  0.00     0.003 A 
ATOM      7  I   UNL d   1      -0.930  -4.636  -1.519  0.00  0.00    -0.146 I 
ENDROOT
TORSDOF 0
ENDMDL
