MODEL 1
REMARK minimizedAffinity 8.40320015
REMARK minimizedRMSD -1
REMARK  0 active torsions:
REMARK  status: ('A' for Active; 'I' for Inactive)
ROOT
ATOM      1  C   UNL d   1       3.311   3.863   3.299  0.00  0.00     0.023 A 
ATOM      2  C1  UNL d   1       1.948   3.580   3.213  0.00  0.00     0.003 A 
ATOM      3  C2  UNL d   1       1.498   2.549   2.386  0.00  0.00     0.048 A 
ATOM      4  C3  UNL d   1       2.417   1.804   1.648  0.00  0.00     0.023 A 
ATOM      5  C4  UNL d   1       3.782   2.082   1.732  0.00  0.00     0.048 A 
ATOM      6  C5  UNL d   1       4.227   3.115   2.559  0.00  0.00     0.003 A 
ATOM      7  I   UNL d   1       1.750   0.268   0.416  0.00  0.00    -0.146 I 
ENDROOT
TORSDOF 0
ENDMDL
