MODEL 1
REMARK minimizedAffinity 6.4012599
REMARK minimizedRMSD -1
REMARK  0 active torsions:
REMARK  status: ('A' for Active; 'I' for Inactive)
ROOT
ATOM      1  C   UNL d   1       1.579  -3.417  -0.057  0.00  0.00     0.023 A 
ATOM      2  C1  UNL d   1       0.501  -2.741   0.513  0.00  0.00     0.003 A 
ATOM      3  C2  UNL d   1       0.633  -1.403   0.890  0.00  0.00     0.048 A 
ATOM      4  C3  UNL d   1       1.848  -0.747   0.693  0.00  0.00     0.023 A 
ATOM      5  C4  UNL d   1       2.930  -1.418   0.122  0.00  0.00     0.048 A 
ATOM      6  C5  UNL d   1       2.793  -2.756  -0.252  0.00  0.00     0.003 A 
ATOM      7  I   UNL d   1       2.048   1.245   1.253  0.00  0.00    -0.146 I 
ENDROOT
TORSDOF 0
ENDMDL
