MODEL 1
REMARK minimizedAffinity 2.18461704
REMARK minimizedRMSD -1
REMARK  0 active torsions:
REMARK  status: ('A' for Active; 'I' for Inactive)
ROOT
ATOM      1  C   UNL d   1       2.133   4.593   4.098  0.00  0.00     0.023 A 
ATOM      2  C1  UNL d   1       3.141   4.832   3.164  0.00  0.00     0.003 A 
ATOM      3  C2  UNL d   1       3.522   3.827   2.273  0.00  0.00     0.048 A 
ATOM      4  C3  UNL d   1       2.890   2.585   2.320  0.00  0.00     0.023 A 
ATOM      5  C4  UNL d   1       1.881   2.341   3.253  0.00  0.00     0.048 A 
ATOM      6  C5  UNL d   1       1.504   3.349   4.143  0.00  0.00     0.003 A 
ATOM      7  I   UNL d   1       3.456   1.087   0.995  0.00  0.00    -0.146 I 
ENDROOT
TORSDOF 0
ENDMDL
