MODEL 1
REMARK minimizedAffinity -1.61354375
REMARK minimizedRMSD -1
REMARK  0 active torsions:
REMARK  status: ('A' for Active; 'I' for Inactive)
ROOT
ATOM      1  C   UNL d   1       1.453  -4.312  -0.358  0.00  0.00     0.023 A 
ATOM      2  C1  UNL d   1       2.694  -3.687  -0.482  0.00  0.00     0.003 A 
ATOM      3  C2  UNL d   1       2.805  -2.309  -0.285  0.00  0.00     0.048 A 
ATOM      4  C3  UNL d   1       1.672  -1.562   0.036  0.00  0.00     0.023 A 
ATOM      5  C4  UNL d   1       0.429  -2.184   0.162  0.00  0.00     0.048 A 
ATOM      6  C5  UNL d   1       0.322  -3.562  -0.037  0.00  0.00     0.003 A 
ATOM      7  I   UNL d   1       1.836   0.489   0.329  0.00  0.00    -0.146 I 
ENDROOT
TORSDOF 0
ENDMDL
