MODEL 1
REMARK minimizedAffinity 8.52132034
REMARK minimizedRMSD -1
REMARK  0 active torsions:
REMARK  status: ('A' for Active; 'I' for Inactive)
ROOT
ATOM      1  C   UNL d   1       2.609   1.300   1.654  0.00  0.00     0.023 A 
ATOM      2  C1  UNL d   1       1.759   2.369   1.937  0.00  0.00     0.003 A 
ATOM      3  C2  UNL d   1       2.284   3.577   2.400  0.00  0.00     0.048 A 
ATOM      4  C3  UNL d   1       3.661   3.709   2.577  0.00  0.00     0.023 A 
ATOM      5  C4  UNL d   1       4.516   2.642   2.294  0.00  0.00     0.048 A 
ATOM      6  C5  UNL d   1       3.985   1.436   1.833  0.00  0.00     0.003 A 
ATOM      7  I   UNL d   1       4.446   5.506   3.265  0.00  0.00    -0.146 I 
ENDROOT
TORSDOF 0
ENDMDL
