MODEL 1
REMARK minimizedAffinity 9.10823536
REMARK minimizedRMSD -1
REMARK  0 active torsions:
REMARK  status: ('A' for Active; 'I' for Inactive)
ROOT
ATOM      1  C   UNL d   1      -6.000   3.000  -0.754  0.00  0.00     0.023 A 
ATOM      2  C1  UNL d   1      -5.189   3.315   0.337  0.00  0.00     0.003 A 
ATOM      3  C2  UNL d   1      -4.226   2.406   0.778  0.00  0.00     0.048 A 
ATOM      4  C3  UNL d   1      -4.078   1.184   0.123  0.00  0.00     0.023 A 
ATOM      5  C4  UNL d   1      -4.886   0.864  -0.969  0.00  0.00     0.048 A 
ATOM      6  C5  UNL d   1      -5.849   1.777  -1.406  0.00  0.00     0.003 A 
ATOM      7  I   UNL d   1      -2.644  -0.172   0.778  0.00  0.00    -0.146 I 
ENDROOT
TORSDOF 0
ENDMDL
