MODEL 1
REMARK minimizedAffinity 9.46043015
REMARK minimizedRMSD -1
REMARK  0 active torsions:
REMARK  status: ('A' for Active; 'I' for Inactive)
ROOT
ATOM      1  C   UNL d   1       2.320   3.443   1.389  0.00  0.00     0.023 A 
ATOM      2  C1  UNL d   1       2.199   2.797   2.619  0.00  0.00     0.003 A 
ATOM      3  C2  UNL d   1       3.206   2.925   3.579  0.00  0.00     0.048 A 
ATOM      4  C3  UNL d   1       4.330   3.703   3.302  0.00  0.00     0.023 A 
ATOM      5  C4  UNL d   1       4.454   4.352   2.073  0.00  0.00     0.048 A 
ATOM      6  C5  UNL d   1       3.446   4.220   1.116  0.00  0.00     0.003 A 
ATOM      7  I   UNL d   1       5.829   3.896   4.728  0.00  0.00    -0.146 I 
ENDROOT
TORSDOF 0
ENDMDL
