MODEL 1
REMARK minimizedAffinity 3.82594037
REMARK minimizedRMSD -1
REMARK  0 active torsions:
REMARK  status: ('A' for Active; 'I' for Inactive)
ROOT
ATOM      1  C   UNL d   1       1.839  -3.441   0.600  0.00  0.00     0.023 A 
ATOM      2  C1  UNL d   1       2.006  -4.677  -0.025  0.00  0.00     0.003 A 
ATOM      3  C2  UNL d   1       0.942  -5.260  -0.717  0.00  0.00     0.048 A 
ATOM      4  C3  UNL d   1      -0.285  -4.601  -0.781  0.00  0.00     0.023 A 
ATOM      5  C4  UNL d   1      -0.456  -3.364  -0.157  0.00  0.00     0.048 A 
ATOM      6  C5  UNL d   1       0.610  -2.786   0.534  0.00  0.00     0.003 A 
ATOM      7  I   UNL d   1      -1.870  -5.466  -1.811  0.00  0.00    -0.146 I 
ENDROOT
TORSDOF 0
ENDMDL
