MODEL 1
REMARK minimizedAffinity 8.22338486
REMARK minimizedRMSD -1
REMARK  0 active torsions:
REMARK  status: ('A' for Active; 'I' for Inactive)
ROOT
ATOM      1  C   UNL d   1       1.517   4.882   4.687  0.00  0.00     0.023 A 
ATOM      2  C1  UNL d   1       2.093   5.298   3.487  0.00  0.00     0.003 A 
ATOM      3  C2  UNL d   1       2.388   4.363   2.492  0.00  0.00     0.048 A 
ATOM      4  C3  UNL d   1       2.103   3.014   2.705  0.00  0.00     0.023 A 
ATOM      5  C4  UNL d   1       1.526   2.594   3.904  0.00  0.00     0.048 A 
ATOM      6  C5  UNL d   1       1.233   3.532   4.896  0.00  0.00     0.003 A 
ATOM      7  I   UNL d   1       2.541   1.621   1.226  0.00  0.00    -0.146 I 
ENDROOT
TORSDOF 0
ENDMDL
