MODEL 1
REMARK minimizedAffinity 3.27174377
REMARK minimizedRMSD -1
REMARK  0 active torsions:
REMARK  status: ('A' for Active; 'I' for Inactive)
ROOT
ATOM      1  C   UNL d   1       2.373   5.979   1.383  0.00  0.00     0.023 A 
ATOM      2  C1  UNL d   1       1.481   5.972   2.455  0.00  0.00     0.003 A 
ATOM      3  C2  UNL d   1       1.963   5.978   3.766  0.00  0.00     0.048 A 
ATOM      4  C3  UNL d   1       3.338   5.991   3.997  0.00  0.00     0.023 A 
ATOM      5  C4  UNL d   1       4.234   5.999   2.927  0.00  0.00     0.048 A 
ATOM      6  C5  UNL d   1       3.748   5.993   1.618  0.00  0.00     0.003 A 
ATOM      7  I   UNL d   1       4.057   6.000   5.947  0.00  0.00    -0.146 I 
ENDROOT
TORSDOF 0
ENDMDL
