MODEL 1
REMARK minimizedAffinity 2.77859497
REMARK minimizedRMSD -1
REMARK  0 active torsions:
REMARK  status: ('A' for Active; 'I' for Inactive)
ROOT
ATOM      1  C   UNL d   1       2.953   3.367   0.629  0.00  0.00     0.023 A 
ATOM      2  C1  UNL d   1       3.621   4.592   0.632  0.00  0.00     0.003 A 
ATOM      3  C2  UNL d   1       3.885   5.242   1.839  0.00  0.00     0.048 A 
ATOM      4  C3  UNL d   1       3.480   4.661   3.040  0.00  0.00     0.023 A 
ATOM      5  C4  UNL d   1       2.813   3.435   3.043  0.00  0.00     0.048 A 
ATOM      6  C5  UNL d   1       2.550   2.789   1.833  0.00  0.00     0.003 A 
ATOM      7  I   UNL d   1       3.873   5.627   4.838  0.00  0.00    -0.146 I 
ENDROOT
TORSDOF 0
ENDMDL
