MODEL 1
REMARK minimizedAffinity -3.26215529
REMARK minimizedRMSD -1
REMARK  1 active torsions:
REMARK  status: ('A' for Active; 'I' for Inactive)
REMARK    1  A    between atoms: N_2  and  C1_3 
ROOT
ATOM      1  C1  UNL d   1       0.115   0.774   1.069  0.00  0.00     0.143 A 
ATOM      2  C2  UNL d   1       1.343   0.126   1.239  0.00  0.00    -0.057 A 
ATOM      3  C3  UNL d   1       1.860  -0.721   0.250  0.00  0.00     0.033 A 
ATOM      4  C4  UNL d   1       1.142  -0.956  -0.917  0.00  0.00    -0.042 A 
ATOM      5  C5  UNL d   1      -0.093  -0.342  -1.097  0.00  0.00     0.033 A 
ATOM      6  C6  UNL d   1      -0.600   0.507  -0.109  0.00  0.00    -0.057 A 
ENDROOT
BRANCH   1   7
ATOM      7  N   UNL d   1      -0.498   1.550   2.056  0.00  0.00    -0.732 N 
ATOM      8  C   UNL d   1      -1.561   1.001   2.870  0.00  0.00     0.284 C 
ATOM      9  H3  UNL d   1       0.169   2.120   2.572  0.00  0.00     0.395 HD
ENDBRANCH   1   7
TORSDOF 1
ENDMDL
