MODEL 1
REMARK minimizedAffinity -1.28898871
REMARK minimizedRMSD -1
REMARK  1 active torsions:
REMARK  status: ('A' for Active; 'I' for Inactive)
REMARK    1  A    between atoms: N_2  and  C1_3 
ROOT
ATOM      1  C1  UNL d   1       0.512  -0.529  -0.767  0.00  0.00     0.143 A 
ATOM      2  C2  UNL d   1      -0.115   0.476  -0.024  0.00  0.00    -0.057 A 
ATOM      3  C3  UNL d   1       0.354   0.842   1.244  0.00  0.00     0.033 A 
ATOM      4  C4  UNL d   1       1.445   0.186   1.804  0.00  0.00    -0.042 A 
ATOM      5  C5  UNL d   1       2.069  -0.833   1.094  0.00  0.00     0.033 A 
ATOM      6  C6  UNL d   1       1.600  -1.189  -0.174  0.00  0.00    -0.057 A 
ENDROOT
BRANCH   1   7
ATOM      7  N   UNL d   1       0.034  -1.005  -1.990  0.00  0.00    -0.732 N 
ATOM      8  C   UNL d   1       0.704  -0.664  -3.227  0.00  0.00     0.284 C 
ATOM      9  H3  UNL d   1      -0.273  -1.974  -1.937  0.00  0.00     0.395 HD
ENDBRANCH   1   7
TORSDOF 1
ENDMDL
