MODEL 1
REMARK minimizedAffinity -2.70344901
REMARK minimizedRMSD -1
REMARK  1 active torsions:
REMARK  status: ('A' for Active; 'I' for Inactive)
REMARK    1  A    between atoms: N_2  and  C1_3 
ROOT
ATOM      1  C1  UNL d   1       0.390   0.776   1.469  0.00  0.00     0.143 A 
ATOM      2  C2  UNL d   1       1.593   0.107   1.217  0.00  0.00    -0.057 A 
ATOM      3  C3  UNL d   1       1.711  -0.802   0.158  0.00  0.00     0.033 A 
ATOM      4  C4  UNL d   1       0.615  -1.080  -0.652  0.00  0.00    -0.042 A 
ATOM      5  C5  UNL d   1      -0.597  -0.447  -0.405  0.00  0.00     0.033 A 
ATOM      6  C6  UNL d   1      -0.707   0.465   0.649  0.00  0.00    -0.057 A 
ENDROOT
BRANCH   1   7
ATOM      7  N   UNL d   1       0.181   1.616   2.565  0.00  0.00    -0.732 N 
ATOM      8  C   UNL d   1      -0.946   1.409   3.449  0.00  0.00     0.284 C 
ATOM      9  H3  UNL d   1       1.047   1.851   3.045  0.00  0.00     0.395 HD
ENDBRANCH   1   7
TORSDOF 1
ENDMDL
