MODEL 1
REMARK minimizedAffinity -2.05471563
REMARK minimizedRMSD -1
REMARK  1 active torsions:
REMARK  status: ('A' for Active; 'I' for Inactive)
REMARK    1  A    between atoms: N_2  and  C1_3 
ROOT
ATOM      1  C1  UNL d   1      -1.151   0.303   1.147  0.00  0.00     0.143 A 
ATOM      2  C2  UNL d   1      -1.559   0.824   2.379  0.00  0.00    -0.057 A 
ATOM      3  C3  UNL d   1      -0.628   1.176   3.364  0.00  0.00     0.033 A 
ATOM      4  C4  UNL d   1       0.732   0.986   3.143  0.00  0.00    -0.042 A 
ATOM      5  C5  UNL d   1       1.160   0.446   1.935  0.00  0.00     0.033 A 
ATOM      6  C6  UNL d   1       0.225   0.103   0.953  0.00  0.00    -0.057 A 
ENDROOT
BRANCH   1   7
ATOM      7  N   UNL d   1      -2.032  -0.157   0.166  0.00  0.00    -0.732 N 
ATOM      8  C   UNL d   1      -1.751  -1.374  -0.566  0.00  0.00     0.284 C 
ATOM      9  H3  UNL d   1      -3.007  -0.053   0.440  0.00  0.00     0.395 HD
ENDBRANCH   1   7
TORSDOF 1
ENDMDL
