MODEL 1
REMARK minimizedAffinity 3.98540998
REMARK minimizedRMSD -1
REMARK  1 active torsions:
REMARK  status: ('A' for Active; 'I' for Inactive)
REMARK    1  A    between atoms: N_2  and  C1_3 
ROOT
ATOM      1  C1  UNL d   1       0.348  -0.371   1.123  0.00  0.00     0.143 A 
ATOM      2  C2  UNL d   1      -0.300  -0.232  -0.109  0.00  0.00    -0.057 A 
ATOM      3  C3  UNL d   1      -1.612   0.250  -0.189  0.00  0.00     0.033 A 
ATOM      4  C4  UNL d   1      -2.312   0.575   0.969  0.00  0.00    -0.042 A 
ATOM      5  C5  UNL d   1      -1.697   0.420   2.206  0.00  0.00     0.033 A 
ATOM      6  C6  UNL d   1      -0.384  -0.055   2.279  0.00  0.00    -0.057 A 
ENDROOT
BRANCH   1   7
ATOM      7  N   UNL d   1       1.616  -0.938   1.275  0.00  0.00    -0.732 N 
ATOM      8  C   UNL d   1       2.805  -0.117   1.190  0.00  0.00     0.284 C 
ATOM      9  H3  UNL d   1       1.644  -1.634   2.016  0.00  0.00     0.395 HD
ENDBRANCH   1   7
TORSDOF 1
ENDMDL
