MODEL 1
REMARK minimizedAffinity 6.23826599
REMARK minimizedRMSD -1
REMARK  1 active torsions:
REMARK  status: ('A' for Active; 'I' for Inactive)
REMARK    1  A    between atoms: N_2  and  C1_3 
ROOT
ATOM      1  C1  UNL d   1       2.447  -0.952  -1.526  0.00  0.00     0.143 A 
ATOM      2  C2  UNL d   1       1.699   0.033  -2.180  0.00  0.00    -0.057 A 
ATOM      3  C3  UNL d   1       2.209   0.714  -3.292  0.00  0.00     0.033 A 
ATOM      4  C4  UNL d   1       3.493   0.442  -3.752  0.00  0.00    -0.042 A 
ATOM      5  C5  UNL d   1       4.265  -0.515  -3.102  0.00  0.00     0.033 A 
ATOM      6  C6  UNL d   1       3.747  -1.197  -1.997  0.00  0.00    -0.057 A 
ENDROOT
BRANCH   1   7
ATOM      7  N   UNL d   1       2.034  -1.594  -0.357  0.00  0.00    -0.732 N 
ATOM      8  C   UNL d   1       1.900  -0.857   0.882  0.00  0.00     0.284 C 
ATOM      9  H3  UNL d   1       1.286  -2.263  -0.525  0.00  0.00     0.395 HD
ENDBRANCH   1   7
TORSDOF 1
ENDMDL
