MODEL 1
REMARK minimizedAffinity 4.84883642
REMARK minimizedRMSD -1
REMARK  1 active torsions:
REMARK  status: ('A' for Active; 'I' for Inactive)
REMARK    1  A    between atoms: N_2  and  C1_3 
ROOT
ATOM      1  C1  UNL d   1      -2.363  -0.648   1.329  0.00  0.00     0.143 A 
ATOM      2  C2  UNL d   1      -2.787  -1.339   2.469  0.00  0.00    -0.057 A 
ATOM      3  C3  UNL d   1      -2.504  -0.863   3.755  0.00  0.00     0.033 A 
ATOM      4  C4  UNL d   1      -1.763   0.302   3.924  0.00  0.00    -0.042 A 
ATOM      5  C5  UNL d   1      -1.310   0.992   2.806  0.00  0.00     0.033 A 
ATOM      6  C6  UNL d   1      -1.602   0.516   1.524  0.00  0.00    -0.057 A 
ENDROOT
BRANCH   1   7
ATOM      7  N   UNL d   1      -2.529  -1.121   0.026  0.00  0.00    -0.732 N 
ATOM      8  C   UNL d   1      -3.562  -0.578  -0.830  0.00  0.00     0.284 C 
ATOM      9  H3  UNL d   1      -1.642  -1.282  -0.445  0.00  0.00     0.395 HD
ENDBRANCH   1   7
TORSDOF 1
ENDMDL
