MODEL 1
REMARK minimizedAffinity 3.97180557
REMARK minimizedRMSD -1
REMARK  1 active torsions:
REMARK  status: ('A' for Active; 'I' for Inactive)
REMARK    1  A    between atoms: N_2  and  C1_3 
ROOT
ATOM      1  C1  UNL d   1       4.069  -0.406  -3.428  0.00  0.00     0.143 A 
ATOM      2  C2  UNL d   1       4.867  -1.132  -2.537  0.00  0.00    -0.057 A 
ATOM      3  C3  UNL d   1       5.833  -2.035  -2.997  0.00  0.00     0.033 A 
ATOM      4  C4  UNL d   1       6.000  -2.248  -4.362  0.00  0.00    -0.042 A 
ATOM      5  C5  UNL d   1       5.201  -1.555  -5.265  0.00  0.00     0.033 A 
ATOM      6  C6  UNL d   1       4.243  -0.651  -4.799  0.00  0.00    -0.057 A 
ENDROOT
BRANCH   1   7
ATOM      7  N   UNL d   1       3.025   0.432  -3.030  0.00  0.00    -0.732 N 
ATOM      8  C   UNL d   1       1.774   0.448  -3.759  0.00  0.00     0.284 C 
ATOM      9  H3  UNL d   1       2.917   0.466  -2.019  0.00  0.00     0.395 HD
ENDBRANCH   1   7
TORSDOF 1
ENDMDL
