MODEL 1
REMARK minimizedAffinity 0.762895167
REMARK minimizedRMSD -1
REMARK  0 active torsions:
REMARK  status: ('A' for Active; 'I' for Inactive)
ROOT
ATOM      1  C1  DEN d   1      -4.880   1.127  -5.973  0.00  0.00     0.130 A 
ATOM      2  C2  DEN d   1      -5.999   1.208  -5.038  0.00  0.00    -0.031 A 
ATOM      3  C3  DEN d   1      -5.734   0.270  -3.928  0.00  0.00     0.027 A 
ATOM      4  C4  DEN d   1      -3.710  -1.287  -3.568  0.00  0.00     0.027 A 
ATOM      5  C5  DEN d   1      -2.512  -1.713  -4.099  0.00  0.00    -0.003 A 
ATOM      6  C6  DEN d   1      -2.041  -1.251  -5.299  0.00  0.00     0.001 A 
ATOM      7  C7  DEN d   1      -2.749  -0.301  -5.986  0.00  0.00     0.017 A 
ATOM      8  C8  DEN d   1      -3.960   0.128  -5.461  0.00  0.00    -0.094 A 
ATOM      9  C9  DEN d   1      -4.414  -0.342  -4.240  0.00  0.00    -0.072 A 
ENDROOT
TORSDOF 0
ENDMDL
