MODEL 1
REMARK minimizedAffinity 4.75846243
REMARK minimizedRMSD -1
REMARK  0 active torsions:
REMARK  status: ('A' for Active; 'I' for Inactive)
ROOT
ATOM      1  C1  DEN d   1      -2.429  -0.789  -2.934  0.00  0.00     0.130 A 
ATOM      2  C2  DEN d   1      -2.204  -1.627  -4.109  0.00  0.00    -0.031 A 
ATOM      3  C3  DEN d   1      -2.712  -0.901  -5.291  0.00  0.00     0.027 A 
ATOM      4  C4  DEN d   1      -3.815   1.427  -5.415  0.00  0.00     0.027 A 
ATOM      5  C5  DEN d   1      -4.231   2.513  -4.677  0.00  0.00    -0.003 A 
ATOM      6  C6  DEN d   1      -4.107   2.559  -3.314  0.00  0.00     0.001 A 
ATOM      7  C7  DEN d   1      -3.513   1.519  -2.650  0.00  0.00     0.017 A 
ATOM      8  C8  DEN d   1      -3.098   0.417  -3.386  0.00  0.00    -0.094 A 
ATOM      9  C9  DEN d   1      -3.220   0.394  -4.765  0.00  0.00    -0.072 A 
ENDROOT
TORSDOF 0
ENDMDL
