MODEL 1
REMARK minimizedAffinity 0.0983684361
REMARK minimizedRMSD -1
REMARK  0 active torsions:
REMARK  status: ('A' for Active; 'I' for Inactive)
ROOT
ATOM      1  C1  DEN d   1       5.262  -3.144   1.915  0.00  0.00     0.130 A 
ATOM      2  C2  DEN d   1       4.927  -4.489   1.455  0.00  0.00    -0.031 A 
ATOM      3  C3  DEN d   1       4.865  -5.373   2.636  0.00  0.00     0.027 A 
ATOM      4  C4  DEN d   1       5.248  -4.792   5.120  0.00  0.00     0.027 A 
ATOM      5  C5  DEN d   1       5.567  -3.782   6.000  0.00  0.00    -0.003 A 
ATOM      6  C6  DEN d   1       5.838  -2.507   5.581  0.00  0.00     0.001 A 
ATOM      7  C7  DEN d   1       5.751  -2.197   4.249  0.00  0.00     0.017 A 
ATOM      8  C8  DEN d   1       5.437  -3.212   3.355  0.00  0.00    -0.094 A 
ATOM      9  C9  DEN d   1       5.154  -4.492   3.800  0.00  0.00    -0.072 A 
ENDROOT
TORSDOF 0
ENDMDL
