MODEL 1
REMARK minimizedAffinity 4.12607908
REMARK minimizedRMSD -1
REMARK  0 active torsions:
REMARK  status: ('A' for Active; 'I' for Inactive)
ROOT
ATOM      1  C1  DEN d   1      -3.683   1.353  -2.150  0.00  0.00     0.130 A 
ATOM      2  C2  DEN d   1      -3.747   2.760  -2.532  0.00  0.00    -0.031 A 
ATOM      3  C3  DEN d   1      -3.446   2.856  -3.975  0.00  0.00     0.027 A 
ATOM      4  C4  DEN d   1      -2.893   0.970  -5.646  0.00  0.00     0.027 A 
ATOM      5  C5  DEN d   1      -2.710  -0.388  -5.785  0.00  0.00    -0.003 A 
ATOM      6  C6  DEN d   1      -2.804  -1.250  -4.725  0.00  0.00     0.001 A 
ATOM      7  C7  DEN d   1      -3.133  -0.768  -3.485  0.00  0.00     0.017 A 
ATOM      8  C8  DEN d   1      -3.312   0.601  -3.335  0.00  0.00    -0.094 A 
ATOM      9  C9  DEN d   1      -3.225   1.454  -4.422  0.00  0.00    -0.072 A 
ENDROOT
TORSDOF 0
ENDMDL
