MODEL 1
REMARK minimizedAffinity 9.85161972
REMARK minimizedRMSD -1
REMARK  0 active torsions:
REMARK  status: ('A' for Active; 'I' for Inactive)
ROOT
ATOM      1  C1  DEN d   1      -4.920  -0.003  -4.755  0.00  0.00     0.130 A 
ATOM      2  C2  DEN d   1      -5.056   0.747  -6.000  0.00  0.00    -0.031 A 
ATOM      3  C3  DEN d   1      -4.330   2.024  -5.845  0.00  0.00     0.027 A 
ATOM      4  C4  DEN d   1      -3.012   2.904  -3.810  0.00  0.00     0.027 A 
ATOM      5  C5  DEN d   1      -2.624   2.626  -2.518  0.00  0.00    -0.003 A 
ATOM      6  C6  DEN d   1      -3.000   1.478  -1.874  0.00  0.00     0.001 A 
ATOM      7  C7  DEN d   1      -3.750   0.542  -2.537  0.00  0.00     0.017 A 
ATOM      8  C8  DEN d   1      -4.151   0.819  -3.838  0.00  0.00    -0.094 A 
ATOM      9  C9  DEN d   1      -3.750   1.980  -4.476  0.00  0.00    -0.072 A 
ENDROOT
TORSDOF 0
ENDMDL
