MODEL 1
REMARK minimizedAffinity -2.61487985
REMARK minimizedRMSD -1
REMARK  0 active torsions:
REMARK  status: ('A' for Active; 'I' for Inactive)
ROOT
ATOM      1  C1  DEN d   1       2.242  -1.608   0.240  0.00  0.00     0.130 A 
ATOM      2  C2  DEN d   1       2.854  -2.910   0.490  0.00  0.00    -0.031 A 
ATOM      3  C3  DEN d   1       4.316  -2.718   0.574  0.00  0.00     0.027 A 
ATOM      4  C4  DEN d   1       5.683  -0.543   0.349  0.00  0.00     0.027 A 
ATOM      5  C5  DEN d   1       5.605   0.813   0.121  0.00  0.00    -0.003 A 
ATOM      6  C6  DEN d   1       4.414   1.447  -0.114  0.00  0.00     0.001 A 
ATOM      7  C7  DEN d   1       3.246   0.731  -0.083  0.00  0.00     0.017 A 
ATOM      8  C8  DEN d   1       3.318  -0.638   0.138  0.00  0.00    -0.094 A 
ATOM      9  C9  DEN d   1       4.530  -1.258   0.387  0.00  0.00    -0.072 A 
ENDROOT
TORSDOF 0
ENDMDL
