MODEL 1
REMARK minimizedAffinity 3.55264831
REMARK minimizedRMSD -1
REMARK  0 active torsions:
REMARK  status: ('A' for Active; 'I' for Inactive)
ROOT
ATOM      1  C1  DEN d   1       5.543  -4.060   1.921  0.00  0.00     0.130 A 
ATOM      2  C2  DEN d   1       4.749  -5.185   1.434  0.00  0.00    -0.031 A 
ATOM      3  C3  DEN d   1       4.119  -5.837   2.600  0.00  0.00     0.027 A 
ATOM      4  C4  DEN d   1       4.291  -5.214   5.097  0.00  0.00     0.027 A 
ATOM      5  C5  DEN d   1       4.858  -4.342   6.000  0.00  0.00    -0.003 A 
ATOM      6  C6  DEN d   1       5.713  -3.345   5.613  0.00  0.00     0.001 A 
ATOM      7  C7  DEN d   1       5.991  -3.166   4.284  0.00  0.00     0.017 A 
ATOM      8  C8  DEN d   1       5.429  -4.045   3.368  0.00  0.00    -0.094 A 
ATOM      9  C9  DEN d   1       4.557  -5.040   3.778  0.00  0.00    -0.072 A 
ENDROOT
TORSDOF 0
ENDMDL
