MODEL 1
REMARK minimizedAffinity 0.148987368
REMARK minimizedRMSD -1
REMARK  0 active torsions:
REMARK  status: ('A' for Active; 'I' for Inactive)
ROOT
ATOM      1  C1  DEN d   1       2.766  -2.473  -0.121  0.00  0.00     0.130 A 
ATOM      2  C2  DEN d   1       1.778  -1.707   0.634  0.00  0.00    -0.031 A 
ATOM      3  C3  DEN d   1       2.037  -1.921   2.072  0.00  0.00     0.027 A 
ATOM      4  C4  DEN d   1       3.865  -3.352   3.196  0.00  0.00     0.027 A 
ATOM      5  C5  DEN d   1       4.929  -4.196   2.967  0.00  0.00    -0.003 A 
ATOM      6  C6  DEN d   1       5.322  -4.548   1.703  0.00  0.00     0.001 A 
ATOM      7  C7  DEN d   1       4.675  -4.019   0.618  0.00  0.00     0.017 A 
ATOM      8  C8  DEN d   1       3.596  -3.173   0.842  0.00  0.00    -0.094 A 
ATOM      9  C9  DEN d   1       3.221  -2.819   2.127  0.00  0.00    -0.072 A 
ENDROOT
TORSDOF 0
ENDMDL
