MODEL 1
REMARK minimizedAffinity 2.57747674
REMARK minimizedRMSD -1
REMARK  0 active torsions:
REMARK  status: ('A' for Active; 'I' for Inactive)
ROOT
ATOM      1  C1  DEN d   1      -2.349  -0.394   3.982  0.00  0.00     0.130 A 
ATOM      2  C2  DEN d   1      -2.759  -1.662   3.385  0.00  0.00    -0.031 A 
ATOM      3  C3  DEN d   1      -2.338  -1.657   1.969  0.00  0.00     0.027 A 
ATOM      4  C4  DEN d   1      -1.096   0.180   0.653  0.00  0.00     0.027 A 
ATOM      5  C5  DEN d   1      -0.548   1.442   0.731  0.00  0.00    -0.003 A 
ATOM      6  C6  DEN d   1      -0.592   2.187   1.879  0.00  0.00     0.001 A 
ATOM      7  C7  DEN d   1      -1.157   1.659   3.010  0.00  0.00     0.017 A 
ATOM      8  C8  DEN d   1      -1.718   0.391   2.937  0.00  0.00    -0.094 A 
ATOM      9  C9  DEN d   1      -1.652  -0.352   1.770  0.00  0.00    -0.072 A 
ENDROOT
TORSDOF 0
ENDMDL
