MODEL 1
REMARK minimizedAffinity -2.46334076
REMARK minimizedRMSD -1
REMARK  0 active torsions:
REMARK  status: ('A' for Active; 'I' for Inactive)
ROOT
ATOM      1  C1  DEN d   1      -2.167  -0.365   1.947  0.00  0.00     0.130 A 
ATOM      2  C2  DEN d   1      -2.168  -1.405   0.921  0.00  0.00    -0.031 A 
ATOM      3  C3  DEN d   1      -1.062  -1.123  -0.016  0.00  0.00     0.027 A 
ATOM      4  C4  DEN d   1       0.647   0.809   0.026  0.00  0.00     0.027 A 
ATOM      5  C5  DEN d   1       1.040   1.945   0.697  0.00  0.00    -0.003 A 
ATOM      6  C6  DEN d   1       0.377   2.406   1.803  0.00  0.00     0.001 A 
ATOM      7  C7  DEN d   1      -0.689   1.702   2.298  0.00  0.00     0.017 A 
ATOM      8  C8  DEN d   1      -1.096   0.559   1.622  0.00  0.00    -0.094 A 
ATOM      9  C9  DEN d   1      -0.405   0.103   0.513  0.00  0.00    -0.072 A 
ENDROOT
TORSDOF 0
ENDMDL
