MODEL 1
REMARK minimizedAffinity -2.62686157
REMARK minimizedRMSD -1
REMARK  0 active torsions:
REMARK  status: ('A' for Active; 'I' for Inactive)
ROOT
ATOM      1  C1  DEN d   1      -1.042  -0.745  -4.612  0.00  0.00     0.130 A 
ATOM      2  C2  DEN d   1      -0.807  -0.321  -5.989  0.00  0.00    -0.031 A 
ATOM      3  C3  DEN d   1       0.341   0.608  -5.991  0.00  0.00     0.027 A 
ATOM      4  C4  DEN d   1       1.774   1.420  -4.006  0.00  0.00     0.027 A 
ATOM      5  C5  DEN d   1       1.948   1.343  -2.642  0.00  0.00    -0.003 A 
ATOM      6  C6  DEN d   1       1.124   0.598  -1.841  0.00  0.00     0.001 A 
ATOM      7  C7  DEN d   1       0.114  -0.137  -2.404  0.00  0.00     0.017 A 
ATOM      8  C8  DEN d   1      -0.073  -0.059  -3.778  0.00  0.00    -0.094 A 
ATOM      9  C9  DEN d   1       0.779   0.691  -4.571  0.00  0.00    -0.072 A 
ENDROOT
TORSDOF 0
ENDMDL
