MODEL 1
REMARK minimizedAffinity 2.47510266
REMARK minimizedRMSD -1
REMARK  0 active torsions:
REMARK  status: ('A' for Active; 'I' for Inactive)
ROOT
ATOM      1  C1  DEN d   1      -0.371  -0.050  -6.000  0.00  0.00     0.130 A 
ATOM      2  C2  DEN d   1      -1.514  -0.759  -5.431  0.00  0.00    -0.031 A 
ATOM      3  C3  DEN d   1      -1.374  -0.746  -3.961  0.00  0.00     0.027 A 
ATOM      4  C4  DEN d   1       0.490   0.302  -2.518  0.00  0.00     0.027 A 
ATOM      5  C5  DEN d   1       1.678   0.999  -2.552  0.00  0.00    -0.003 A 
ATOM      6  C6  DEN d   1       2.278   1.362  -3.729  0.00  0.00     0.001 A 
ATOM      7  C7  DEN d   1       1.669   1.069  -4.920  0.00  0.00     0.017 A 
ATOM      8  C8  DEN d   1       0.475   0.360  -4.894  0.00  0.00    -0.094 A 
ATOM      9  C9  DEN d   1      -0.122   0.013  -3.695  0.00  0.00    -0.072 A 
ENDROOT
TORSDOF 0
ENDMDL
