MODEL 1
REMARK minimizedAffinity -3.44905043
REMARK minimizedRMSD -1
REMARK  0 active torsions:
REMARK  status: ('A' for Active; 'I' for Inactive)
ROOT
ATOM      1  C1  DEN d   1      -0.471  -1.356  -2.206  0.00  0.00     0.130 A 
ATOM      2  C2  DEN d   1       0.626  -0.777  -1.436  0.00  0.00    -0.031 A 
ATOM      3  C3  DEN d   1       1.393   0.113  -2.332  0.00  0.00     0.027 A 
ATOM      4  C4  DEN d   1       0.986   0.650  -4.821  0.00  0.00     0.027 A 
ATOM      5  C5  DEN d   1       0.183   0.389  -5.909  0.00  0.00    -0.003 A 
ATOM      6  C6  DEN d   1      -0.865  -0.491  -5.849  0.00  0.00     0.001 A 
ATOM      7  C7  DEN d   1      -1.166  -1.108  -4.663  0.00  0.00     0.017 A 
ATOM      8  C8  DEN d   1      -0.356  -0.855  -3.564  0.00  0.00    -0.094 A 
ATOM      9  C9  DEN d   1       0.691   0.047  -3.642  0.00  0.00    -0.072 A 
ENDROOT
TORSDOF 0
ENDMDL
