MODEL 1
REMARK minimizedAffinity -2.52961659
REMARK minimizedRMSD -1
REMARK  0 active torsions:
REMARK  status: ('A' for Active; 'I' for Inactive)
ROOT
ATOM      1  C1  DEN d   1      -0.057   1.294  -2.415  0.00  0.00     0.130 A 
ATOM      2  C2  DEN d   1       0.693   0.518  -3.398  0.00  0.00    -0.031 A 
ATOM      3  C3  DEN d   1       1.509  -0.475  -2.671  0.00  0.00     0.027 A 
ATOM      4  C4  DEN d   1       1.677  -0.887  -0.130  0.00  0.00     0.027 A 
ATOM      5  C5  DEN d   1       1.237  -0.471   1.107  0.00  0.00    -0.003 A 
ATOM      6  C6  DEN d   1       0.367   0.577   1.257  0.00  0.00     0.001 A 
ATOM      7  C7  DEN d   1      -0.125   1.215   0.149  0.00  0.00     0.017 A 
ATOM      8  C8  DEN d   1       0.320   0.805  -1.101  0.00  0.00    -0.094 A 
ATOM      9  C9  DEN d   1       1.190  -0.264  -1.233  0.00  0.00    -0.072 A 
ENDROOT
TORSDOF 0
ENDMDL
