MODEL 1
REMARK minimizedAffinity -3.70603514
REMARK minimizedRMSD -1
REMARK  0 active torsions:
REMARK  status: ('A' for Active; 'I' for Inactive)
ROOT
ATOM      1  C1  DEN d   1      -0.481   0.047  -5.659  0.00  0.00     0.130 A 
ATOM      2  C2  DEN d   1      -1.361  -0.936  -5.034  0.00  0.00    -0.031 A 
ATOM      3  C3  DEN d   1      -0.919  -1.122  -3.637  0.00  0.00     0.027 A 
ATOM      4  C4  DEN d   1       1.029   0.015  -2.386  0.00  0.00     0.027 A 
ATOM      5  C5  DEN d   1       2.066   0.914  -2.504  0.00  0.00    -0.003 A 
ATOM      6  C6  DEN d   1       2.346   1.556  -3.681  0.00  0.00     0.001 A 
ATOM      7  C7  DEN d   1       1.551   1.342  -4.777  0.00  0.00     0.017 A 
ATOM      8  C8  DEN d   1       0.508   0.432  -4.668  0.00  0.00    -0.094 A 
ATOM      9  C9  DEN d   1       0.234  -0.198  -3.465  0.00  0.00    -0.072 A 
ENDROOT
TORSDOF 0
ENDMDL
