MODEL 1
REMARK minimizedAffinity 14.6949844
REMARK minimizedRMSD -1
REMARK  1 active torsions:
REMARK  status: ('A' for Active; 'I' for Inactive)
REMARK    1  A    between atoms: N_2  and  C1_3 
ROOT
ATOM      1  C1  UNL d   1      -5.062   5.805   1.456  0.00  0.00     0.143 A 
ATOM      2  C2  UNL d   1      -3.764   5.384   1.148  0.00  0.00    -0.057 A 
ATOM      3  C3  UNL d   1      -3.383   5.107  -0.170  0.00  0.00     0.033 A 
ATOM      4  C4  UNL d   1      -4.306   5.220  -1.205  0.00  0.00    -0.042 A 
ATOM      5  C5  UNL d   1      -5.609   5.612  -0.919  0.00  0.00     0.033 A 
ATOM      6  C6  UNL d   1      -5.981   5.893   0.399  0.00  0.00    -0.057 A 
ENDROOT
BRANCH   1   7
ATOM      7  N   UNL d   1      -5.528   6.000   2.759  0.00  0.00    -0.732 N 
ATOM      8  C   UNL d   1      -4.613   5.982   3.880  0.00  0.00     0.284 C 
ATOM      9  H3  UNL d   1      -6.237   6.727   2.812  0.00  0.00     0.395 HD
ENDBRANCH   1   7
TORSDOF 1
ENDMDL
