MODEL 1
REMARK minimizedAffinity 4.36272621
REMARK minimizedRMSD -1
REMARK  1 active torsions:
REMARK  status: ('A' for Active; 'I' for Inactive)
REMARK    1  A    between atoms: N_2  and  C1_3 
ROOT
ATOM      1  C1  UNL d   1       1.442  -2.898  -3.671  0.00  0.00     0.143 A 
ATOM      2  C2  UNL d   1       0.883  -2.255  -4.781  0.00  0.00    -0.057 A 
ATOM      3  C3  UNL d   1       1.635  -2.018  -5.938  0.00  0.00     0.033 A 
ATOM      4  C4  UNL d   1       2.973  -2.395  -5.994  0.00  0.00    -0.042 A 
ATOM      5  C5  UNL d   1       3.556  -3.013  -4.894  0.00  0.00     0.033 A 
ATOM      6  C6  UNL d   1       2.798  -3.253  -3.744  0.00  0.00    -0.057 A 
ENDROOT
BRANCH   1   7
ATOM      7  N   UNL d   1       0.774  -3.074  -2.457  0.00  0.00    -0.732 N 
ATOM      8  C   UNL d   1       1.507  -3.090  -1.209  0.00  0.00     0.284 C 
ATOM      9  H3  UNL d   1      -0.103  -2.560  -2.417  0.00  0.00     0.395 HD
ENDBRANCH   1   7
TORSDOF 1
ENDMDL
