MODEL 1
REMARK minimizedAffinity 11.1388063
REMARK minimizedRMSD -1
REMARK  1 active torsions:
REMARK  status: ('A' for Active; 'I' for Inactive)
REMARK    1  A    between atoms: N_2  and  C1_3 
ROOT
ATOM      1  C1  UNL d   1       1.745  -4.484  -4.189  0.00  0.00     0.143 A 
ATOM      2  C2  UNL d   1       1.530  -5.741  -3.614  0.00  0.00    -0.057 A 
ATOM      3  C3  UNL d   1       1.880  -6.000  -2.283  0.00  0.00     0.033 A 
ATOM      4  C4  UNL d   1       2.479  -5.011  -1.510  0.00  0.00    -0.042 A 
ATOM      5  C5  UNL d   1       2.724  -3.761  -2.068  0.00  0.00     0.033 A 
ATOM      6  C6  UNL d   1       2.367  -3.507  -3.396  0.00  0.00    -0.057 A 
ENDROOT
BRANCH   1   7
ATOM      7  N   UNL d   1       1.509  -4.194  -5.535  0.00  0.00    -0.732 N 
ATOM      8  C   UNL d   1       1.477  -2.824  -6.000  0.00  0.00     0.284 C 
ATOM      9  H3  UNL d   1       1.995  -4.834  -6.161  0.00  0.00     0.395 HD
ENDBRANCH   1   7
TORSDOF 1
ENDMDL
