MODEL 1
REMARK minimizedAffinity 14.5466757
REMARK minimizedRMSD -1
REMARK  1 active torsions:
REMARK  status: ('A' for Active; 'I' for Inactive)
REMARK    1  A    between atoms: N_2  and  C1_3 
ROOT
ATOM      1  C1  UNL d   1      -5.006   5.940   1.468  0.00  0.00     0.143 A 
ATOM      2  C2  UNL d   1      -3.634   5.786   1.243  0.00  0.00    -0.057 A 
ATOM      3  C3  UNL d   1      -3.122   5.640  -0.052  0.00  0.00     0.033 A 
ATOM      4  C4  UNL d   1      -3.980   5.616  -1.147  0.00  0.00    -0.042 A 
ATOM      5  C5  UNL d   1      -5.350   5.743  -0.945  0.00  0.00     0.033 A 
ATOM      6  C6  UNL d   1      -5.854   5.895   0.350  0.00  0.00    -0.057 A 
ENDROOT
BRANCH   1   7
ATOM      7  N   UNL d   1      -5.585   5.991   2.738  0.00  0.00    -0.732 N 
ATOM      8  C   UNL d   1      -4.758   5.998   3.926  0.00  0.00     0.284 C 
ATOM      9  H3  UNL d   1      -6.377   6.629   2.779  0.00  0.00     0.395 HD
ENDBRANCH   1   7
TORSDOF 1
ENDMDL
