MODEL 1
REMARK minimizedAffinity 5.86982012
REMARK minimizedRMSD -1
REMARK  1 active torsions:
REMARK  status: ('A' for Active; 'I' for Inactive)
REMARK    1  A    between atoms: N_2  and  C1_3 
ROOT
ATOM      1  C1  UNL d   1      -0.191   3.434   0.088  0.00  0.00     0.143 A 
ATOM      2  C2  UNL d   1       0.177   3.571  -1.255  0.00  0.00    -0.057 A 
ATOM      3  C3  UNL d   1       0.243   4.829  -1.865  0.00  0.00     0.033 A 
ATOM      4  C4  UNL d   1      -0.086   5.975  -1.148  0.00  0.00    -0.042 A 
ATOM      5  C5  UNL d   1      -0.478   5.860   0.181  0.00  0.00     0.033 A 
ATOM      6  C6  UNL d   1      -0.537   4.601   0.786  0.00  0.00    -0.057 A 
ENDROOT
BRANCH   1   7
ATOM      7  N   UNL d   1      -0.371   2.203   0.723  0.00  0.00    -0.732 N 
ATOM      8  C   UNL d   1      -1.683   1.791   1.175  0.00  0.00     0.284 C 
ATOM      9  H3  UNL d   1       0.172   1.459   0.290  0.00  0.00     0.395 HD
ENDBRANCH   1   7
TORSDOF 1
ENDMDL
