MODEL 1
REMARK minimizedAffinity 5.86704063
REMARK minimizedRMSD -1
REMARK  1 active torsions:
REMARK  status: ('A' for Active; 'I' for Inactive)
REMARK    1  A    between atoms: N_2  and  C1_3 
ROOT
ATOM      1  C1  UNL d   1      -5.092  -2.988   1.230  0.00  0.00     0.143 A 
ATOM      2  C2  UNL d   1      -5.999  -4.042   1.389  0.00  0.00    -0.057 A 
ATOM      3  C3  UNL d   1      -5.993  -4.836   2.542  0.00  0.00     0.033 A 
ATOM      4  C4  UNL d   1      -5.059  -4.609   3.547  0.00  0.00    -0.042 A 
ATOM      5  C5  UNL d   1      -4.132  -3.583   3.399  0.00  0.00     0.033 A 
ATOM      6  C6  UNL d   1      -4.147  -2.789   2.249  0.00  0.00    -0.057 A 
ENDROOT
BRANCH   1   7
ATOM      7  N   UNL d   1      -4.983  -2.225   0.065  0.00  0.00    -0.732 N 
ATOM      8  C   UNL d   1      -5.864  -1.101  -0.165  0.00  0.00     0.284 C 
ATOM      9  H3  UNL d   1      -4.015  -2.055  -0.198  0.00  0.00     0.395 HD
ENDBRANCH   1   7
TORSDOF 1
ENDMDL
