MODEL 1
REMARK minimizedAffinity 8.49839783
REMARK minimizedRMSD -1
REMARK  1 active torsions:
REMARK  status: ('A' for Active; 'I' for Inactive)
REMARK    1  A    between atoms: N_2  and  C1_3 
ROOT
ATOM      1  C1  UNL d   1      -0.172   3.034  -0.547  0.00  0.00     0.143 A 
ATOM      2  C2  UNL d   1      -0.740   3.184  -1.816  0.00  0.00    -0.057 A 
ATOM      3  C3  UNL d   1      -0.919   4.450  -2.387  0.00  0.00     0.033 A 
ATOM      4  C4  UNL d   1      -0.559   5.594  -1.682  0.00  0.00    -0.042 A 
ATOM      5  C5  UNL d   1      -0.015   5.470  -0.409  0.00  0.00     0.033 A 
ATOM      6  C6  UNL d   1       0.168   4.202   0.153  0.00  0.00    -0.057 A 
ENDROOT
BRANCH   1   7
ATOM      7  N   UNL d   1      -0.058   1.808   0.115  0.00  0.00    -0.732 N 
ATOM      8  C   UNL d   1      -1.052   1.399   1.083  0.00  0.00     0.284 C 
ATOM      9  H3  UNL d   1       0.254   1.062  -0.502  0.00  0.00     0.395 HD
ENDBRANCH   1   7
TORSDOF 1
ENDMDL
