MODEL 1
REMARK minimizedAffinity 7.99253178
REMARK minimizedRMSD -1
REMARK  1 active torsions:
REMARK  status: ('A' for Active; 'I' for Inactive)
REMARK    1  A    between atoms: N_2  and  C1_3 
ROOT
ATOM      1  C1  UNL d   1      -0.056   2.897  -0.426  0.00  0.00     0.143 A 
ATOM      2  C2  UNL d   1      -0.798   2.797  -1.607  0.00  0.00    -0.057 A 
ATOM      3  C3  UNL d   1      -0.995   3.906  -2.438  0.00  0.00     0.033 A 
ATOM      4  C4  UNL d   1      -0.475   5.147  -2.086  0.00  0.00    -0.042 A 
ATOM      5  C5  UNL d   1       0.245   5.276  -0.903  0.00  0.00     0.033 A 
ATOM      6  C6  UNL d   1       0.444   4.163  -0.081  0.00  0.00    -0.057 A 
ENDROOT
BRANCH   1   7
ATOM      7  N   UNL d   1       0.092   1.854   0.491  0.00  0.00    -0.732 N 
ATOM      8  C   UNL d   1      -1.023   1.429   1.311  0.00  0.00     0.284 C 
ATOM      9  H3  UNL d   1       0.652   1.089   0.122  0.00  0.00     0.395 HD
ENDBRANCH   1   7
TORSDOF 1
ENDMDL
