MODEL 1
REMARK minimizedAffinity 2.80639267
REMARK minimizedRMSD -1
REMARK  1 active torsions:
REMARK  status: ('A' for Active; 'I' for Inactive)
REMARK    1  A    between atoms: N_2  and  C1_3 
ROOT
ATOM      1  C1  UNL d   1      -0.344   3.071   0.030  0.00  0.00     0.143 A 
ATOM      2  C2  UNL d   1       0.294   4.224   0.498  0.00  0.00    -0.057 A 
ATOM      3  C3  UNL d   1       0.500   5.330  -0.336  0.00  0.00     0.033 A 
ATOM      4  C4  UNL d   1       0.095   5.290  -1.666  0.00  0.00    -0.042 A 
ATOM      5  C5  UNL d   1      -0.519   4.145  -2.160  0.00  0.00     0.033 A 
ATOM      6  C6  UNL d   1      -0.727   3.046  -1.320  0.00  0.00    -0.057 A 
ENDROOT
BRANCH   1   7
ATOM      7  N   UNL d   1      -0.489   1.903   0.782  0.00  0.00    -0.732 N 
ATOM      8  C   UNL d   1      -1.716   1.638   1.503  0.00  0.00     0.284 C 
ATOM      9  H3  UNL d   1      -0.098   1.088   0.315  0.00  0.00     0.395 HD
ENDBRANCH   1   7
TORSDOF 1
ENDMDL
