MODEL 1
REMARK minimizedAffinity -4.66734457
REMARK minimizedRMSD -1
REMARK  1 active torsions:
REMARK  status: ('A' for Active; 'I' for Inactive)
REMARK    1  A    between atoms: C1_2  and  C2_3 
ROOT
ATOM      1  C2  UNL d   1       0.948  -1.662   1.233  0.00  0.00    -0.077 A 
ATOM      2  C3  UNL d   1       0.815  -2.450   2.384  0.00  0.00     0.002 A 
ATOM      3  C4  UNL d   1      -0.295  -2.299   3.218  0.00  0.00     0.002 A 
ATOM      4  C5  UNL d   1      -1.281  -1.365   2.907  0.00  0.00    -0.004 A 
ATOM      5  C6  UNL d   1      -1.156  -0.575   1.765  0.00  0.00     0.002 A 
ATOM      6  C7  UNL d   1      -0.047  -0.723   0.931  0.00  0.00     0.002 A 
ENDROOT
BRANCH   1   7
ATOM      7  C1  UNL d   1       2.120  -1.857   0.306  0.00  0.00     0.055 C 
ATOM      8  C   UNL d   1       2.139  -0.802  -0.791  0.00  0.00     0.019 C 
ENDBRANCH   1   7
TORSDOF 1
ENDMDL
