MODEL 1
REMARK minimizedAffinity -5.58737707
REMARK minimizedRMSD -1
REMARK  1 active torsions:
REMARK  status: ('A' for Active; 'I' for Inactive)
REMARK    1  A    between atoms: C1_2  and  C2_3 
ROOT
ATOM      1  C2  UNL d   1       0.840  -0.008  -0.015  0.00  0.00    -0.077 A 
ATOM      2  C3  UNL d   1       0.064  -1.099   0.401  0.00  0.00     0.002 A 
ATOM      3  C4  UNL d   1       0.656  -2.174   1.066  0.00  0.00     0.002 A 
ATOM      4  C5  UNL d   1       2.025  -2.167   1.325  0.00  0.00    -0.004 A 
ATOM      5  C6  UNL d   1       2.806  -1.088   0.913  0.00  0.00     0.002 A 
ATOM      6  C7  UNL d   1       2.216  -0.013   0.247  0.00  0.00     0.002 A 
ENDROOT
BRANCH   1   7
ATOM      7  C1  UNL d   1       0.195   1.175  -0.689  0.00  0.00     0.055 C 
ATOM      8  C   UNL d   1      -0.650   1.976   0.290  0.00  0.00     0.019 C 
ENDBRANCH   1   7
TORSDOF 1
ENDMDL
