MODEL 1
REMARK minimizedAffinity -4.05534744
REMARK minimizedRMSD -1
REMARK  1 active torsions:
REMARK  status: ('A' for Active; 'I' for Inactive)
REMARK    1  A    between atoms: C1_2  and  C2_3 
ROOT
ATOM      1  C2  UNL d   1       0.110   0.642  -0.550  0.00  0.00    -0.077 A 
ATOM      2  C3  UNL d   1       0.526   1.918  -0.143  0.00  0.00     0.002 A 
ATOM      3  C4  UNL d   1       0.416   3.006  -1.011  0.00  0.00     0.002 A 
ATOM      4  C5  UNL d   1      -0.113   2.831  -2.288  0.00  0.00    -0.004 A 
ATOM      5  C6  UNL d   1      -0.528   1.566  -2.702  0.00  0.00     0.002 A 
ATOM      6  C7  UNL d   1      -0.418   0.477  -1.837  0.00  0.00     0.002 A 
ENDROOT
BRANCH   1   7
ATOM      7  C1  UNL d   1       0.182  -0.524   0.402  0.00  0.00     0.055 C 
ATOM      8  C   UNL d   1       1.580  -1.124   0.437  0.00  0.00     0.019 C 
ENDBRANCH   1   7
TORSDOF 1
ENDMDL
