MODEL 1
REMARK minimizedAffinity -4.25374174
REMARK minimizedRMSD -1
REMARK  1 active torsions:
REMARK  status: ('A' for Active; 'I' for Inactive)
REMARK    1  A    between atoms: C1_2  and  C2_3 
ROOT
ATOM      1  C2  UNL d   1       0.661  -0.678  -0.148  0.00  0.00    -0.077 A 
ATOM      2  C3  UNL d   1      -0.084  -1.859  -0.027  0.00  0.00     0.002 A 
ATOM      3  C4  UNL d   1       0.460  -2.975   0.611  0.00  0.00     0.002 A 
ATOM      4  C5  UNL d   1       1.750  -2.920   1.137  0.00  0.00    -0.004 A 
ATOM      5  C6  UNL d   1       2.499  -1.750   1.020  0.00  0.00     0.002 A 
ATOM      6  C7  UNL d   1       1.958  -0.634   0.382  0.00  0.00     0.002 A 
ENDROOT
BRANCH   1   7
ATOM      7  C1  UNL d   1       0.058   0.543  -0.792  0.00  0.00     0.055 C 
ATOM      8  C   UNL d   1      -1.214   0.975  -0.077  0.00  0.00     0.019 C 
ENDBRANCH   1   7
TORSDOF 1
ENDMDL
