MODEL 1
REMARK minimizedAffinity -4.489779
REMARK minimizedRMSD -1
REMARK  1 active torsions:
REMARK  status: ('A' for Active; 'I' for Inactive)
REMARK    1  A    between atoms: C1_2  and  C2_3 
ROOT
ATOM      1  C2  UNL d   1       0.040   0.086   0.001  0.00  0.00    -0.077 A 
ATOM      2  C3  UNL d   1      -0.508  -0.998   0.702  0.00  0.00     0.002 A 
ATOM      3  C4  UNL d   1       0.300  -2.065   1.097  0.00  0.00     0.002 A 
ATOM      4  C5  UNL d   1       1.661  -2.058   0.799  0.00  0.00    -0.004 A 
ATOM      5  C6  UNL d   1       2.216  -0.986   0.101  0.00  0.00     0.002 A 
ATOM      6  C7  UNL d   1       1.409   0.082  -0.295  0.00  0.00     0.002 A 
ENDROOT
BRANCH   1   7
ATOM      7  C1  UNL d   1      -0.820   1.261  -0.382  0.00  0.00     0.055 C 
ATOM      8  C   UNL d   1      -1.581   0.993  -1.673  0.00  0.00     0.019 C 
ENDBRANCH   1   7
TORSDOF 1
ENDMDL
