MODEL 1
REMARK minimizedAffinity -3.08391643
REMARK minimizedRMSD -1
REMARK  1 active torsions:
REMARK  status: ('A' for Active; 'I' for Inactive)
REMARK    1  A    between atoms: C1_2  and  C2_3 
ROOT
ATOM      1  C2  UNL d   1      -1.065   0.715  -1.225  0.00  0.00    -0.077 A 
ATOM      2  C3  UNL d   1      -0.762   1.936  -1.844  0.00  0.00     0.002 A 
ATOM      3  C4  UNL d   1      -1.590   2.443  -2.848  0.00  0.00     0.002 A 
ATOM      4  C5  UNL d   1      -2.727   1.739  -3.238  0.00  0.00    -0.004 A 
ATOM      5  C6  UNL d   1      -3.035   0.523  -2.630  0.00  0.00     0.002 A 
ATOM      6  C7  UNL d   1      -2.209   0.014  -1.627  0.00  0.00     0.002 A 
ENDROOT
BRANCH   1   7
ATOM      7  C1  UNL d   1      -0.202   0.191  -0.107  0.00  0.00     0.055 C 
ATOM      8  C   UNL d   1       1.272   0.221  -0.486  0.00  0.00     0.019 C 
ENDBRANCH   1   7
TORSDOF 1
ENDMDL
