MODEL 1
REMARK minimizedAffinity -4.35081291
REMARK minimizedRMSD -1
REMARK  1 active torsions:
REMARK  status: ('A' for Active; 'I' for Inactive)
REMARK    1  A    between atoms: C1_2  and  C2_3 
ROOT
ATOM      1  C2  UNL d   1       0.173  -0.053   0.323  0.00  0.00    -0.077 A 
ATOM      2  C3  UNL d   1      -0.400  -1.259   0.750  0.00  0.00     0.002 A 
ATOM      3  C4  UNL d   1       0.410  -2.331   1.128  0.00  0.00     0.002 A 
ATOM      4  C5  UNL d   1       1.797  -2.206   1.089  0.00  0.00    -0.004 A 
ATOM      5  C6  UNL d   1       2.377  -1.011   0.664  0.00  0.00     0.002 A 
ATOM      6  C7  UNL d   1       1.568   0.061   0.284  0.00  0.00     0.002 A 
ENDROOT
BRANCH   1   7
ATOM      7  C1  UNL d   1      -0.699   1.121  -0.039  0.00  0.00     0.055 C 
ATOM      8  C   UNL d   1      -1.092   1.086  -1.509  0.00  0.00     0.019 C 
ENDBRANCH   1   7
TORSDOF 1
ENDMDL
