MODEL 1
REMARK minimizedAffinity -2.85886431
REMARK minimizedRMSD -1
REMARK  1 active torsions:
REMARK  status: ('A' for Active; 'I' for Inactive)
REMARK    1  A    between atoms: C1_2  and  C2_3 
ROOT
ATOM      1  C2  UNL d   1       0.190  -1.329   0.718  0.00  0.00    -0.077 A 
ATOM      2  C3  UNL d   1       0.644  -0.439  -0.266  0.00  0.00     0.002 A 
ATOM      3  C4  UNL d   1       0.045   0.813  -0.416  0.00  0.00     0.002 A 
ATOM      4  C5  UNL d   1      -1.007   1.188   0.417  0.00  0.00    -0.004 A 
ATOM      5  C6  UNL d   1      -1.467   0.309   1.396  0.00  0.00     0.002 A 
ATOM      6  C7  UNL d   1      -0.871  -0.943   1.547  0.00  0.00     0.002 A 
ENDROOT
BRANCH   1   7
ATOM      7  C1  UNL d   1       0.867  -2.661   0.914  0.00  0.00     0.055 C 
ATOM      8  C   UNL d   1       2.219  -2.500   1.592  0.00  0.00     0.019 C 
ENDBRANCH   1   7
TORSDOF 1
ENDMDL
