MODEL 1
REMARK minimizedAffinity -5.6900835
REMARK minimizedRMSD -1
REMARK  1 active torsions:
REMARK  status: ('A' for Active; 'I' for Inactive)
REMARK    1  A    between atoms: C1_2  and  C2_3 
ROOT
ATOM      1  C2  UNL d   1       0.549  -0.503   0.475  0.00  0.00    -0.077 A 
ATOM      2  C3  UNL d   1       1.869  -0.569   0.007  0.00  0.00     0.002 A 
ATOM      3  C4  UNL d   1       2.567  -1.777   0.032  0.00  0.00     0.002 A 
ATOM      4  C5  UNL d   1       1.954  -2.929   0.520  0.00  0.00    -0.004 A 
ATOM      5  C6  UNL d   1       0.642  -2.873   0.990  0.00  0.00     0.002 A 
ATOM      6  C7  UNL d   1      -0.058  -1.666   0.966  0.00  0.00     0.002 A 
ENDROOT
BRANCH   1   7
ATOM      7  C1  UNL d   1      -0.224   0.788   0.402  0.00  0.00     0.055 C 
ATOM      8  C   UNL d   1      -0.884   0.963  -0.957  0.00  0.00     0.019 C 
ENDBRANCH   1   7
TORSDOF 1
ENDMDL
