MODEL 1
REMARK minimizedAffinity -5.52589417
REMARK minimizedRMSD -1
REMARK  1 active torsions:
REMARK  status: ('A' for Active; 'I' for Inactive)
REMARK    1  A    between atoms: C1_2  and  C2_3 
ROOT
ATOM      1  C2  UNL d   1       0.187  -1.134   0.575  0.00  0.00    -0.077 A 
ATOM      2  C3  UNL d   1      -0.763  -1.192   1.605  0.00  0.00     0.002 A 
ATOM      3  C4  UNL d   1      -0.547  -2.006   2.719  0.00  0.00     0.002 A 
ATOM      4  C5  UNL d   1       0.619  -2.762   2.816  0.00  0.00    -0.004 A 
ATOM      5  C6  UNL d   1       1.569  -2.712   1.797  0.00  0.00     0.002 A 
ATOM      6  C7  UNL d   1       1.354  -1.901   0.682  0.00  0.00     0.002 A 
ENDROOT
BRANCH   1   7
ATOM      7  C1  UNL d   1      -0.021  -0.220  -0.604  0.00  0.00     0.055 C 
ATOM      8  C   UNL d   1      -0.565   1.133  -0.167  0.00  0.00     0.019 C 
ENDBRANCH   1   7
TORSDOF 1
ENDMDL
