MODEL 1
REMARK minimizedAffinity -5.11251926
REMARK minimizedRMSD -1
REMARK  1 active torsions:
REMARK  status: ('A' for Active; 'I' for Inactive)
REMARK    1  A    between atoms: C1_2  and  C2_3 
ROOT
ATOM      1  C2  UNL d   1       0.440   0.247  -0.248  0.00  0.00    -0.077 A 
ATOM      2  C3  UNL d   1      -0.177  -0.843   0.381  0.00  0.00     0.002 A 
ATOM      3  C4  UNL d   1       0.585  -1.924   0.829  0.00  0.00     0.002 A 
ATOM      4  C5  UNL d   1       1.967  -1.923   0.658  0.00  0.00    -0.004 A 
ATOM      5  C6  UNL d   1       2.590  -0.844   0.033  0.00  0.00     0.002 A 
ATOM      6  C7  UNL d   1       1.831   0.237  -0.418  0.00  0.00     0.002 A 
ENDROOT
BRANCH   1   7
ATOM      7  C1  UNL d   1      -0.374   1.436  -0.688  0.00  0.00     0.055 C 
ATOM      8  C   UNL d   1      -1.437   1.034  -1.701  0.00  0.00     0.019 C 
ENDBRANCH   1   7
TORSDOF 1
ENDMDL
