MODEL 1
REMARK minimizedAffinity -4.31727839
REMARK minimizedRMSD -1
REMARK  1 active torsions:
REMARK  status: ('A' for Active; 'I' for Inactive)
REMARK    1  A    between atoms: C1_2  and  C2_3 
ROOT
ATOM      1  C2  UNL d   1      -0.956   1.388  -1.472  0.00  0.00    -0.077 A 
ATOM      2  C3  UNL d   1      -2.029   0.802  -2.156  0.00  0.00     0.002 A 
ATOM      3  C4  UNL d   1      -2.309   1.165  -3.475  0.00  0.00     0.002 A 
ATOM      4  C5  UNL d   1      -1.517   2.111  -4.122  0.00  0.00    -0.004 A 
ATOM      5  C6  UNL d   1      -0.448   2.701  -3.449  0.00  0.00     0.002 A 
ATOM      6  C7  UNL d   1      -0.168   2.341  -2.130  0.00  0.00     0.002 A 
ENDROOT
BRANCH   1   7
ATOM      7  C1  UNL d   1      -0.623   0.963  -0.066  0.00  0.00     0.055 C 
ATOM      8  C   UNL d   1       0.314  -0.236  -0.057  0.00  0.00     0.019 C 
ENDBRANCH   1   7
TORSDOF 1
ENDMDL
