MODEL 1
REMARK minimizedAffinity -5.16129112
REMARK minimizedRMSD -1
REMARK  1 active torsions:
REMARK  status: ('A' for Active; 'I' for Inactive)
REMARK    1  A    between atoms: C1_2  and  C2_3 
ROOT
ATOM      1  C2  UNL d   1       0.764  -0.306   0.211  0.00  0.00    -0.077 A 
ATOM      2  C3  UNL d   1       0.178  -1.216   1.102  0.00  0.00     0.002 A 
ATOM      3  C4  UNL d   1       0.760  -2.466   1.320  0.00  0.00     0.002 A 
ATOM      4  C5  UNL d   1       1.934  -2.816   0.656  0.00  0.00    -0.004 A 
ATOM      5  C6  UNL d   1       2.524  -1.918  -0.234  0.00  0.00     0.002 A 
ATOM      6  C7  UNL d   1       1.942  -0.669  -0.454  0.00  0.00     0.002 A 
ENDROOT
BRANCH   1   7
ATOM      7  C1  UNL d   1       0.164   1.061   0.011  0.00  0.00     0.055 C 
ATOM      8  C   UNL d   1      -0.013   1.377  -1.467  0.00  0.00     0.019 C 
ENDBRANCH   1   7
TORSDOF 1
ENDMDL
