MODEL 1
REMARK minimizedAffinity 0.0392799526
REMARK minimizedRMSD -1
REMARK  0 active torsions:
REMARK  status: ('A' for Active; 'I' for Inactive)
ROOT
ATOM      1  C   UNL d   1      -0.937  -3.018   0.756  0.00  0.00    -0.002 A 
ATOM      2  C1  UNL d   1      -1.199  -1.909   1.549  0.00  0.00     0.010 A 
ATOM      3  C2  UNL d   1      -0.906  -0.623   1.091  0.00  0.00     0.041 A 
ATOM      4  C3  UNL d   1      -0.343  -0.468  -0.191  0.00  0.00    -0.075 A 
ATOM      5  S   UNL d   1       0.097   1.010  -0.962  0.00  0.00     0.015 SA
ATOM      6  C4  UNL d   1       0.641   0.205  -2.362  0.00  0.00     0.022 A 
ATOM      7  C5  UNL d   1       0.498  -1.159  -2.261  0.00  0.00     0.026 A 
ATOM      8  C6  UNL d   1      -0.072  -1.569  -1.009  0.00  0.00    -0.082 A 
ATOM      9  C7  UNL d   1      -0.379  -2.860  -0.515  0.00  0.00     0.045 A 
ENDROOT
TORSDOF 0
ENDMDL
