MODEL 1
REMARK minimizedAffinity -2.80210328
REMARK minimizedRMSD -1
REMARK  0 active torsions:
REMARK  status: ('A' for Active; 'I' for Inactive)
ROOT
ATOM      1  C   UNL d   1      -0.993  -3.027   0.233  0.00  0.00    -0.002 A 
ATOM      2  C1  UNL d   1      -0.712  -3.164  -1.119  0.00  0.00     0.010 A 
ATOM      3  C2  UNL d   1      -0.322  -2.060  -1.879  0.00  0.00     0.041 A 
ATOM      4  C3  UNL d   1      -0.215  -0.804  -1.251  0.00  0.00    -0.075 A 
ATOM      5  S   UNL d   1       0.247   0.688  -1.982  0.00  0.00     0.015 SA
ATOM      6  C4  UNL d   1       0.083   1.543  -0.516  0.00  0.00     0.022 A 
ATOM      7  C5  UNL d   1      -0.314   0.725   0.516  0.00  0.00     0.026 A 
ATOM      8  C6  UNL d   1      -0.491  -0.640   0.110  0.00  0.00    -0.082 A 
ATOM      9  C7  UNL d   1      -0.886  -1.779   0.853  0.00  0.00     0.045 A 
ENDROOT
TORSDOF 0
ENDMDL
