MODEL 1
REMARK minimizedAffinity -2.15352821
REMARK minimizedRMSD -1
REMARK  0 active torsions:
REMARK  status: ('A' for Active; 'I' for Inactive)
ROOT
ATOM      1  C   UNL d   1      -1.415  -0.953   1.920  0.00  0.00    -0.002 A 
ATOM      2  C1  UNL d   1      -1.348  -2.267   1.479  0.00  0.00     0.010 A 
ATOM      3  C2  UNL d   1      -0.919  -2.561   0.183  0.00  0.00     0.041 A 
ATOM      4  C3  UNL d   1      -0.553  -1.501  -0.670  0.00  0.00    -0.075 A 
ATOM      5  S   UNL d   1       0.003  -1.621  -2.297  0.00  0.00     0.015 SA
ATOM      6  C4  UNL d   1       0.166   0.069  -2.445  0.00  0.00     0.022 A 
ATOM      7  C5  UNL d   1      -0.191   0.724  -1.290  0.00  0.00     0.026 A 
ATOM      8  C6  UNL d   1      -0.611  -0.169  -0.248  0.00  0.00    -0.082 A 
ATOM      9  C7  UNL d   1      -1.051   0.095   1.071  0.00  0.00     0.045 A 
ENDROOT
TORSDOF 0
ENDMDL
