MODEL 1
REMARK minimizedAffinity -2.47720909
REMARK minimizedRMSD -1
REMARK  0 active torsions:
REMARK  status: ('A' for Active; 'I' for Inactive)
ROOT
ATOM      1  C   UNL d   1      -1.362  -2.604   1.317  0.00  0.00    -0.002 A 
ATOM      2  C1  UNL d   1      -0.977  -3.158   0.104  0.00  0.00     0.010 A 
ATOM      3  C2  UNL d   1      -0.473  -2.350  -0.917  0.00  0.00     0.041 A 
ATOM      4  C3  UNL d   1      -0.360  -0.963  -0.696  0.00  0.00    -0.075 A 
ATOM      5  S   UNL d   1       0.231   0.221  -1.801  0.00  0.00     0.015 SA
ATOM      6  C4  UNL d   1      -0.013   1.489  -0.689  0.00  0.00     0.022 A 
ATOM      7  C5  UNL d   1      -0.532   1.038   0.502  0.00  0.00     0.026 A 
ATOM      8  C6  UNL d   1      -0.740  -0.383   0.518  0.00  0.00    -0.082 A 
ATOM      9  C7  UNL d   1      -1.248  -1.228   1.533  0.00  0.00     0.045 A 
ENDROOT
TORSDOF 0
ENDMDL
