MODEL 1
REMARK minimizedAffinity -0.717595696
REMARK minimizedRMSD -1
REMARK  0 active torsions:
REMARK  status: ('A' for Active; 'I' for Inactive)
ROOT
ATOM      1  C   UNL d   1      -1.281  -2.858   1.049  0.00  0.00    -0.002 A 
ATOM      2  C1  UNL d   1      -1.177  -3.111  -0.312  0.00  0.00     0.010 A 
ATOM      3  C2  UNL d   1      -0.736  -2.118  -1.188  0.00  0.00     0.041 A 
ATOM      4  C3  UNL d   1      -0.396  -0.853  -0.668  0.00  0.00    -0.075 A 
ATOM      5  S   UNL d   1       0.169   0.516  -1.551  0.00  0.00     0.015 SA
ATOM      6  C4  UNL d   1       0.286   1.469  -0.143  0.00  0.00     0.022 A 
ATOM      7  C5  UNL d   1      -0.093   0.776   0.982  0.00  0.00     0.026 A 
ATOM      8  C6  UNL d   1      -0.492  -0.574   0.698  0.00  0.00    -0.082 A 
ATOM      9  C7  UNL d   1      -0.943  -1.602   1.560  0.00  0.00     0.045 A 
ENDROOT
TORSDOF 0
ENDMDL
