MODEL 1
REMARK minimizedAffinity -4.09299326
REMARK minimizedRMSD -1
REMARK  0 active torsions:
REMARK  status: ('A' for Active; 'I' for Inactive)
ROOT
ATOM      1  C   UNL d   1      -0.413  -3.230   0.268  0.00  0.00    -0.002 A 
ATOM      2  C1  UNL d   1      -0.829  -2.337   1.246  0.00  0.00     0.010 A 
ATOM      3  C2  UNL d   1      -0.866  -0.966   0.986  0.00  0.00     0.041 A 
ATOM      4  C3  UNL d   1      -0.475  -0.502  -0.286  0.00  0.00    -0.075 A 
ATOM      5  S   UNL d   1      -0.440   1.133  -0.830  0.00  0.00     0.015 SA
ATOM      6  C4  UNL d   1       0.127   0.685  -2.374  0.00  0.00     0.022 A 
ATOM      7  C5  UNL d   1       0.291  -0.675  -2.488  0.00  0.00     0.026 A 
ATOM      8  C6  UNL d   1      -0.053  -1.382  -1.287  0.00  0.00    -0.082 A 
ATOM      9  C7  UNL d   1      -0.026  -2.766  -0.992  0.00  0.00     0.045 A 
ENDROOT
TORSDOF 0
ENDMDL
