MODEL 1
REMARK minimizedAffinity -3.46815848
REMARK minimizedRMSD -1
REMARK  0 active torsions:
REMARK  status: ('A' for Active; 'I' for Inactive)
ROOT
ATOM      1  C   UNL d   1      -0.057  -3.171   0.455  0.00  0.00    -0.002 A 
ATOM      2  C1  UNL d   1      -0.350  -2.347   1.533  0.00  0.00     0.010 A 
ATOM      3  C2  UNL d   1      -0.374  -0.959   1.380  0.00  0.00     0.041 A 
ATOM      4  C3  UNL d   1      -0.096  -0.408   0.114  0.00  0.00    -0.075 A 
ATOM      5  S   UNL d   1      -0.068   1.263  -0.308  0.00  0.00     0.015 SA
ATOM      6  C4  UNL d   1       0.334   0.923  -1.929  0.00  0.00     0.022 A 
ATOM      7  C5  UNL d   1       0.448  -0.427  -2.160  0.00  0.00     0.026 A 
ATOM      8  C6  UNL d   1       0.202  -1.217  -0.986  0.00  0.00    -0.082 A 
ATOM      9  C7  UNL d   1       0.218  -2.620  -0.800  0.00  0.00     0.045 A 
ENDROOT
TORSDOF 0
ENDMDL
