MODEL 1
REMARK minimizedAffinity -0.868371069
REMARK minimizedRMSD -1
REMARK  0 active torsions:
REMARK  status: ('A' for Active; 'I' for Inactive)
ROOT
ATOM      1  C   UNL d   1      -1.459  -3.005   0.694  0.00  0.00    -0.002 A 
ATOM      2  C1  UNL d   1      -1.277  -3.276  -0.655  0.00  0.00     0.010 A 
ATOM      3  C2  UNL d   1      -0.816  -2.284  -1.523  0.00  0.00     0.041 A 
ATOM      4  C3  UNL d   1      -0.535  -1.003  -1.006  0.00  0.00    -0.075 A 
ATOM      5  S   UNL d   1       0.041   0.367  -1.880  0.00  0.00     0.015 SA
ATOM      6  C4  UNL d   1       0.060   1.343  -0.483  0.00  0.00     0.022 A 
ATOM      7  C5  UNL d   1      -0.359   0.657   0.632  0.00  0.00     0.026 A 
ATOM      8  C6  UNL d   1      -0.709  -0.707   0.349  0.00  0.00    -0.082 A 
ATOM      9  C7  UNL d   1      -1.179  -1.734   1.202  0.00  0.00     0.045 A 
ENDROOT
TORSDOF 0
ENDMDL
