MODEL 1
REMARK minimizedAffinity -2.40027928
REMARK minimizedRMSD -1
REMARK  0 active torsions:
REMARK  status: ('A' for Active; 'I' for Inactive)
ROOT
ATOM      1  C   UNL d   1      -0.344  -2.808  -1.486  0.00  0.00    -0.002 A 
ATOM      2  C1  UNL d   1      -0.700  -3.129  -0.184  0.00  0.00     0.010 A 
ATOM      3  C2  UNL d   1      -0.646  -2.165   0.825  0.00  0.00     0.041 A 
ATOM      4  C3  UNL d   1      -0.224  -0.860   0.499  0.00  0.00    -0.075 A 
ATOM      5  S   UNL d   1      -0.080   0.483   1.570  0.00  0.00     0.015 SA
ATOM      6  C4  UNL d   1       0.457   1.514   0.324  0.00  0.00     0.022 A 
ATOM      7  C5  UNL d   1       0.531   0.865  -0.886  0.00  0.00     0.026 A 
ATOM      8  C6  UNL d   1       0.139  -0.514  -0.805  0.00  0.00    -0.082 A 
ATOM      9  C7  UNL d   1       0.074  -1.513  -1.805  0.00  0.00     0.045 A 
ENDROOT
TORSDOF 0
ENDMDL
