MODEL 1
REMARK minimizedAffinity 0.164479405
REMARK minimizedRMSD -1
REMARK  0 active torsions:
REMARK  status: ('A' for Active; 'I' for Inactive)
ROOT
ATOM      1  C   UNL d   1      -1.102  -1.997   1.595  0.00  0.00    -0.002 A 
ATOM      2  C1  UNL d   1      -1.159  -2.418   0.274  0.00  0.00     0.010 A 
ATOM      3  C2  UNL d   1      -0.807  -1.551  -0.763  0.00  0.00     0.041 A 
ATOM      4  C3  UNL d   1      -0.391  -0.243  -0.446  0.00  0.00    -0.075 A 
ATOM      5  S   UNL d   1       0.088   0.991  -1.551  0.00  0.00     0.015 SA
ATOM      6  C4  UNL d   1       0.380   2.106  -0.294  0.00  0.00     0.022 A 
ATOM      7  C5  UNL d   1       0.123   1.566   0.944  0.00  0.00     0.026 A 
ATOM      8  C6  UNL d   1      -0.325   0.203   0.876  0.00  0.00    -0.082 A 
ATOM      9  C7  UNL d   1      -0.689  -0.699   1.905  0.00  0.00     0.045 A 
ENDROOT
TORSDOF 0
ENDMDL
