MODEL 1
REMARK minimizedAffinity -1.47590971
REMARK minimizedRMSD -1
REMARK  0 active torsions:
REMARK  status: ('A' for Active; 'I' for Inactive)
ROOT
ATOM      1  C   UNL d   1       3.375  -1.545  -0.011  0.00  0.00     0.077 C 
ATOM      2  C1  UNL d   1       1.896  -1.415  -0.224  0.00  0.00    -0.074 A 
ATOM      3  C2  UNL d   1       1.105  -2.539  -0.484  0.00  0.00    -0.005 A 
ATOM      4  C3  UNL d   1      -0.270  -2.403  -0.670  0.00  0.00     0.006 A 
ATOM      5  C4  UNL d   1      -0.868  -1.144  -0.599  0.00  0.00    -0.005 A 
ATOM      6  C5  UNL d   1      -0.094  -0.009  -0.339  0.00  0.00    -0.074 A 
ATOM      7  C6  UNL d   1      -0.722   1.350  -0.249  0.00  0.00     0.077 C 
ATOM      8  C7  UNL d   1       1.287  -0.154  -0.146  0.00  0.00    -0.001 A 
ENDROOT
TORSDOF 0
ENDMDL
