MODEL 1
REMARK minimizedAffinity -5.2391057
REMARK minimizedRMSD -1
REMARK  0 active torsions:
REMARK  status: ('A' for Active; 'I' for Inactive)
ROOT
ATOM      1  C   UNL d   1       2.920   2.329   0.430  0.00  0.00     0.077 C 
ATOM      2  C1  UNL d   1       2.620   0.860   0.385  0.00  0.00    -0.074 A 
ATOM      3  C2  UNL d   1       3.635  -0.086   0.561  0.00  0.00    -0.005 A 
ATOM      4  C3  UNL d   1       3.340  -1.449   0.525  0.00  0.00     0.006 A 
ATOM      5  C4  UNL d   1       2.029  -1.878   0.314  0.00  0.00    -0.005 A 
ATOM      6  C5  UNL d   1       1.001  -0.947   0.137  0.00  0.00    -0.074 A 
ATOM      7  C6  UNL d   1      -0.414  -1.392  -0.082  0.00  0.00     0.077 C 
ATOM      8  C7  UNL d   1       1.305   0.421   0.180  0.00  0.00    -0.001 A 
ENDROOT
TORSDOF 0
ENDMDL
