MODEL 1
REMARK minimizedAffinity -6.26104021
REMARK minimizedRMSD -1
REMARK  0 active torsions:
REMARK  status: ('A' for Active; 'I' for Inactive)
ROOT
ATOM      1  C   UNL d   1       2.826   2.221   0.348  0.00  0.00     0.077 C 
ATOM      2  C1  UNL d   1       2.564   0.747   0.254  0.00  0.00    -0.074 A 
ATOM      3  C2  UNL d   1       3.612  -0.175   0.326  0.00  0.00    -0.005 A 
ATOM      4  C3  UNL d   1       3.351  -1.543   0.247  0.00  0.00     0.006 A 
ATOM      5  C4  UNL d   1       2.042  -2.002   0.097  0.00  0.00    -0.005 A 
ATOM      6  C5  UNL d   1       0.981  -1.094   0.024  0.00  0.00    -0.074 A 
ATOM      7  C6  UNL d   1      -0.434  -1.570  -0.128  0.00  0.00     0.077 C 
ATOM      8  C7  UNL d   1       1.250   0.279   0.111  0.00  0.00    -0.001 A 
ENDROOT
TORSDOF 0
ENDMDL
