MODEL 1
REMARK minimizedAffinity -4.84100342
REMARK minimizedRMSD -1
REMARK  0 active torsions:
REMARK  status: ('A' for Active; 'I' for Inactive)
ROOT
ATOM      1  C   UNL d   1       3.758  -1.205   0.813  0.00  0.00     0.077 C 
ATOM      2  C1  UNL d   1       2.386  -0.919   0.280  0.00  0.00    -0.074 A 
ATOM      3  C2  UNL d   1       1.489  -1.957   0.007  0.00  0.00    -0.005 A 
ATOM      4  C3  UNL d   1       0.213  -1.675  -0.480  0.00  0.00     0.006 A 
ATOM      5  C4  UNL d   1      -0.179  -0.354  -0.698  0.00  0.00    -0.005 A 
ATOM      6  C5  UNL d   1       0.703   0.698  -0.431  0.00  0.00    -0.074 A 
ATOM      7  C6  UNL d   1       0.294   2.124  -0.651  0.00  0.00     0.077 C 
ATOM      8  C7  UNL d   1       1.981   0.406   0.065  0.00  0.00    -0.001 A 
ENDROOT
TORSDOF 0
ENDMDL
