MODEL 1
REMARK minimizedAffinity -5.83570433
REMARK minimizedRMSD -1
REMARK  0 active torsions:
REMARK  status: ('A' for Active; 'I' for Inactive)
ROOT
ATOM      1  C   UNL d   1       0.696   2.826  -1.020  0.00  0.00     0.077 C 
ATOM      2  C1  UNL d   1       0.509   1.362  -0.755  0.00  0.00    -0.074 A 
ATOM      3  C2  UNL d   1      -0.531   0.649  -1.361  0.00  0.00    -0.005 A 
ATOM      4  C3  UNL d   1      -0.686  -0.715  -1.112  0.00  0.00     0.006 A 
ATOM      5  C4  UNL d   1       0.195  -1.378  -0.258  0.00  0.00    -0.005 A 
ATOM      6  C5  UNL d   1       1.241  -0.682   0.356  0.00  0.00    -0.074 A 
ATOM      7  C6  UNL d   1       2.203  -1.382   1.269  0.00  0.00     0.077 C 
ATOM      8  C7  UNL d   1       1.395   0.686   0.096  0.00  0.00    -0.001 A 
ENDROOT
TORSDOF 0
ENDMDL
