MODEL 1
REMARK minimizedAffinity 0.747220278
REMARK minimizedRMSD -1
REMARK  0 active torsions:
REMARK  status: ('A' for Active; 'I' for Inactive)
ROOT
ATOM      1  C   UNL d   1      -1.598   0.908  -0.061  0.00  0.00     0.077 C 
ATOM      2  C1  UNL d   1      -0.098   0.907  -0.056  0.00  0.00    -0.074 A 
ATOM      3  C2  UNL d   1       0.620   2.078   0.207  0.00  0.00    -0.005 A 
ATOM      4  C3  UNL d   1       2.015   2.060   0.218  0.00  0.00     0.006 A 
ATOM      5  C4  UNL d   1       2.704   0.873  -0.033  0.00  0.00    -0.005 A 
ATOM      6  C5  UNL d   1       2.003  -0.308  -0.297  0.00  0.00    -0.074 A 
ATOM      7  C6  UNL d   1       2.728  -1.594  -0.558  0.00  0.00     0.077 C 
ATOM      8  C7  UNL d   1       0.601  -0.283  -0.299  0.00  0.00    -0.001 A 
ENDROOT
TORSDOF 0
ENDMDL
