MODEL 1
REMARK minimizedAffinity 11.9259748
REMARK minimizedRMSD -1
REMARK  1 active torsions:
REMARK  status: ('A' for Active; 'I' for Inactive)
REMARK    1  A    between atoms: C1_2  and  C2_3 
ROOT
ATOM      1  C2  UNL d   1       0.605  -3.876   4.821  0.00  0.00    -0.081 A 
ATOM      2  C3  UNL d   1       0.271  -2.596   4.362  0.00  0.00     0.006 A 
ATOM      3  C4  UNL d   1       0.898  -2.063   3.233  0.00  0.00     0.002 A 
ATOM      4  C5  UNL d   1       1.863  -2.803   2.541  0.00  0.00    -0.080 A 
ATOM      5  C6  UNL d   1       2.522  -2.254   1.311  0.00  0.00     0.076 C 
ATOM      6  C7  UNL d   1       2.209  -4.074   3.010  0.00  0.00     0.002 A 
ATOM      7  C8  UNL d   1       1.583  -4.608   4.139  0.00  0.00     0.006 A 
ENDROOT
BRANCH   1   8
ATOM      8  C1  UNL d   1      -0.116  -4.480   5.999  0.00  0.00     0.054 C 
ATOM      9  C   UNL d   1      -0.002  -5.998   5.999  0.00  0.00     0.018 C 
ENDBRANCH   1   8
TORSDOF 1
ENDMDL
