MODEL 1
REMARK minimizedAffinity 11.4165096
REMARK minimizedRMSD -1
REMARK  1 active torsions:
REMARK  status: ('A' for Active; 'I' for Inactive)
REMARK    1  A    between atoms: C1_2  and  C2_3 
ROOT
ATOM      1  C2  UNL d   1       2.546   0.962  -0.246  0.00  0.00    -0.081 A 
ATOM      2  C3  UNL d   1       3.798   0.632  -0.780  0.00  0.00     0.006 A 
ATOM      3  C4  UNL d   1       4.914   1.426  -0.510  0.00  0.00     0.002 A 
ATOM      4  C5  UNL d   1       4.800   2.558   0.305  0.00  0.00    -0.080 A 
ATOM      5  C6  UNL d   1       5.997   3.402   0.628  0.00  0.00     0.076 C 
ATOM      6  C7  UNL d   1       3.546   2.897   0.824  0.00  0.00     0.002 A 
ATOM      7  C8  UNL d   1       2.429   2.104   0.554  0.00  0.00     0.006 A 
ENDROOT
BRANCH   1   8
ATOM      8  C1  UNL d   1       1.353   0.071  -0.483  0.00  0.00     0.054 C 
ATOM      9  C   UNL d   1       1.769  -1.386  -0.622  0.00  0.00     0.018 C 
ENDBRANCH   1   8
TORSDOF 1
ENDMDL
