MODEL 1
REMARK minimizedAffinity -0.174872667
REMARK minimizedRMSD -1
REMARK  1 active torsions:
REMARK  status: ('A' for Active; 'I' for Inactive)
REMARK    1  A    between atoms: C1_2  and  C2_3 
ROOT
ATOM      1  C2  UNL d   1      -4.571   5.928   3.936  0.00  0.00    -0.081 A 
ATOM      2  C3  UNL d   1      -3.368   5.987   3.221  0.00  0.00     0.006 A 
ATOM      3  C4  UNL d   1      -3.375   5.994   1.824  0.00  0.00     0.002 A 
ATOM      4  C5  UNL d   1      -4.584   5.950   1.120  0.00  0.00    -0.080 A 
ATOM      5  C6  UNL d   1      -4.606   5.987  -0.379  0.00  0.00     0.076 C 
ATOM      6  C7  UNL d   1      -5.784   5.873   1.834  0.00  0.00     0.002 A 
ATOM      7  C8  UNL d   1      -5.778   5.866   3.231  0.00  0.00     0.006 A 
ENDROOT
BRANCH   1   8
ATOM      8  C1  UNL d   1      -4.570   5.985   5.443  0.00  0.00     0.054 C 
ATOM      9  C   UNL d   1      -5.986   5.947   5.999  0.00  0.00     0.018 C 
ENDBRANCH   1   8
TORSDOF 1
ENDMDL
