MODEL 1
REMARK minimizedAffinity 0.920303047
REMARK minimizedRMSD -1
REMARK  1 active torsions:
REMARK  status: ('A' for Active; 'I' for Inactive)
REMARK    1  A    between atoms: C1_2  and  C2_3 
ROOT
ATOM      1  C2  UNL d   1      -4.186   5.938   1.685  0.00  0.00    -0.081 A 
ATOM      2  C3  UNL d   1      -5.408   5.878   2.365  0.00  0.00     0.006 A 
ATOM      3  C4  UNL d   1      -5.443   5.885   3.762  0.00  0.00     0.002 A 
ATOM      4  C5  UNL d   1      -4.257   5.958   4.501  0.00  0.00    -0.080 A 
ATOM      5  C6  UNL d   1      -4.282   5.997   6.000  0.00  0.00     0.076 C 
ATOM      6  C7  UNL d   1      -3.035   6.000   3.822  0.00  0.00     0.002 A 
ATOM      7  C8  UNL d   1      -3.000   5.993   2.425  0.00  0.00     0.006 A 
ENDROOT
BRANCH   1   8
ATOM      8  C1  UNL d   1      -4.149   5.996   0.179  0.00  0.00     0.054 C 
ATOM      9  C   UNL d   1      -5.551   5.944  -0.411  0.00  0.00     0.018 C 
ENDBRANCH   1   8
TORSDOF 1
ENDMDL
