MODEL 1
REMARK minimizedAffinity 7.02129793
REMARK minimizedRMSD -1
REMARK  1 active torsions:
REMARK  status: ('A' for Active; 'I' for Inactive)
REMARK    1  A    between atoms: C1_2  and  C2_3 
ROOT
ATOM      1  C2  UNL d   1      -1.104  -4.945   1.733  0.00  0.00    -0.081 A 
ATOM      2  C3  UNL d   1      -0.549  -3.966   2.566  0.00  0.00     0.006 A 
ATOM      3  C4  UNL d   1      -0.762  -4.006   3.946  0.00  0.00     0.002 A 
ATOM      4  C5  UNL d   1      -1.526  -5.029   4.516  0.00  0.00    -0.080 A 
ATOM      5  C6  UNL d   1      -1.738  -5.101   5.999  0.00  0.00     0.076 C 
ATOM      6  C7  UNL d   1      -2.095  -5.998   3.682  0.00  0.00     0.002 A 
ATOM      7  C8  UNL d   1      -1.883  -5.958   2.303  0.00  0.00     0.006 A 
ENDROOT
BRANCH   1   8
ATOM      8  C1  UNL d   1      -0.822  -4.941   0.252  0.00  0.00     0.054 C 
ATOM      9  C   UNL d   1       0.655  -4.709  -0.030  0.00  0.00     0.018 C 
ENDBRANCH   1   8
TORSDOF 1
ENDMDL
