MODEL 1
REMARK minimizedAffinity 5.27273178
REMARK minimizedRMSD -1
REMARK  1 active torsions:
REMARK  status: ('A' for Active; 'I' for Inactive)
REMARK    1  A    between atoms: C1_2  and  C2_3 
ROOT
ATOM      1  C2  UNL d   1       2.896  -1.997  -1.009  0.00  0.00    -0.073 A 
ATOM      2  C3  UNL d   1       4.190  -1.589  -1.350  0.00  0.00    -0.002 A 
ATOM      3  C4  UNL d   1       5.158  -2.533  -1.697  0.00  0.00     0.004 A 
ATOM      4  C5  UNL d   1       4.840  -3.891  -1.714  0.00  0.00    -0.004 A 
ATOM      5  C6  UNL d   1       3.549  -4.317  -1.389  0.00  0.00    -0.075 A 
ATOM      6  C7  UNL d   1       3.191  -5.775  -1.400  0.00  0.00     0.076 C 
ATOM      7  C8  UNL d   1       2.583  -3.364  -1.038  0.00  0.00     0.001 A 
ENDROOT
BRANCH   1   8
ATOM      8  C1  UNL d   1       1.846  -0.982  -0.640  0.00  0.00     0.053 C 
ATOM      9  C   UNL d   1       0.608  -1.098  -1.515  0.00  0.00     0.018 C 
ENDBRANCH   1   8
TORSDOF 1
ENDMDL
