MODEL 1
REMARK minimizedAffinity -0.809628904
REMARK minimizedRMSD -1
REMARK  1 active torsions:
REMARK  status: ('A' for Active; 'I' for Inactive)
REMARK    1  A    between atoms: C1_2  and  C2_3 
ROOT
ATOM      1  C2  UNL d   1      -0.371   2.367   1.356  0.00  0.00    -0.073 A 
ATOM      2  C3  UNL d   1      -0.408   3.717   0.989  0.00  0.00    -0.002 A 
ATOM      3  C4  UNL d   1      -0.394   4.082  -0.358  0.00  0.00     0.004 A 
ATOM      4  C5  UNL d   1      -0.350   3.102  -1.350  0.00  0.00    -0.004 A 
ATOM      5  C6  UNL d   1      -0.325   1.748  -1.004  0.00  0.00    -0.075 A 
ATOM      6  C7  UNL d   1      -0.276   0.682  -2.059  0.00  0.00     0.076 C 
ATOM      7  C8  UNL d   1      -0.337   1.390   0.351  0.00  0.00     0.001 A 
ENDROOT
BRANCH   1   8
ATOM      8  C1  UNL d   1      -0.392   1.968   2.809  0.00  0.00     0.053 C 
ATOM      9  C   UNL d   1       0.049   0.527   3.011  0.00  0.00     0.018 C 
ENDBRANCH   1   8
TORSDOF 1
ENDMDL
