MODEL 1
REMARK minimizedAffinity 5.91256523
REMARK minimizedRMSD -1
REMARK  1 active torsions:
REMARK  status: ('A' for Active; 'I' for Inactive)
REMARK    1  A    between atoms: C1_2  and  C2_3 
ROOT
ATOM      1  C2  UNL d   1      -0.796   1.833  -1.612  0.00  0.00    -0.073 A 
ATOM      2  C3  UNL d   1      -0.127   1.077  -2.581  0.00  0.00    -0.002 A 
ATOM      3  C4  UNL d   1      -0.664  -0.132  -3.026  0.00  0.00     0.004 A 
ATOM      4  C5  UNL d   1      -1.877  -0.593  -2.514  0.00  0.00    -0.004 A 
ATOM      5  C6  UNL d   1      -2.566   0.155  -1.554  0.00  0.00    -0.075 A 
ATOM      6  C7  UNL d   1      -3.871  -0.328  -0.990  0.00  0.00     0.076 C 
ATOM      7  C8  UNL d   1      -2.019   1.366  -1.110  0.00  0.00     0.001 A 
ENDROOT
BRANCH   1   8
ATOM      8  C1  UNL d   1      -0.224   3.142  -1.133  0.00  0.00     0.053 C 
ATOM      9  C   UNL d   1      -0.416   3.335   0.363  0.00  0.00     0.018 C 
ENDBRANCH   1   8
TORSDOF 1
ENDMDL
