MODEL 1
REMARK minimizedAffinity 4.88253307
REMARK minimizedRMSD -1
REMARK  1 active torsions:
REMARK  status: ('A' for Active; 'I' for Inactive)
REMARK    1  A    between atoms: C1_2  and  C2_3 
ROOT
ATOM      1  C2  UNL d   1       1.654  -1.567  -0.896  0.00  0.00    -0.073 A 
ATOM      2  C3  UNL d   1       0.826  -2.654  -1.201  0.00  0.00    -0.002 A 
ATOM      3  C4  UNL d   1      -0.464  -2.442  -1.689  0.00  0.00     0.004 A 
ATOM      4  C5  UNL d   1      -0.936  -1.144  -1.883  0.00  0.00    -0.004 A 
ATOM      5  C6  UNL d   1      -0.120  -0.045  -1.595  0.00  0.00    -0.075 A 
ATOM      6  C7  UNL d   1      -0.614   1.357  -1.797  0.00  0.00     0.076 C 
ATOM      7  C8  UNL d   1       1.173  -0.266  -1.103  0.00  0.00     0.001 A 
ENDROOT
BRANCH   1   8
ATOM      8  C1  UNL d   1       3.050  -1.791  -0.375  0.00  0.00     0.053 C 
ATOM      9  C   UNL d   1       4.065  -1.918  -1.500  0.00  0.00     0.018 C 
ENDBRANCH   1   8
TORSDOF 1
ENDMDL
