MODEL 1
REMARK minimizedAffinity 8.02676296
REMARK minimizedRMSD -1
REMARK  1 active torsions:
REMARK  status: ('A' for Active; 'I' for Inactive)
REMARK    1  A    between atoms: C1_2  and  C2_3 
ROOT
ATOM      1  C2  UNL d   1      -1.005   1.338  -0.215  0.00  0.00    -0.073 A 
ATOM      2  C3  UNL d   1       0.194   1.331   0.507  0.00  0.00    -0.002 A 
ATOM      3  C4  UNL d   1       0.399   2.246   1.541  0.00  0.00     0.004 A 
ATOM      4  C5  UNL d   1      -0.592   3.171   1.867  0.00  0.00    -0.004 A 
ATOM      5  C6  UNL d   1      -1.802   3.186   1.164  0.00  0.00    -0.075 A 
ATOM      6  C7  UNL d   1      -2.877   4.177   1.501  0.00  0.00     0.076 C 
ATOM      7  C8  UNL d   1      -1.999   2.266   0.126  0.00  0.00     0.001 A 
ENDROOT
BRANCH   1   8
ATOM      8  C1  UNL d   1      -1.234   0.348  -1.328  0.00  0.00     0.053 C 
ATOM      9  C   UNL d   1      -2.408  -0.574  -1.038  0.00  0.00     0.018 C 
ENDBRANCH   1   8
TORSDOF 1
ENDMDL
