MODEL 1
REMARK minimizedAffinity -2.16103101
REMARK minimizedRMSD -1
REMARK  0 active torsions:
REMARK  status: ('A' for Active; 'I' for Inactive)
ROOT
ATOM      1  C   UNL d   1       0.869  -0.635   0.823  0.00  0.00     0.023 A 
ATOM      2  C1  UNL d   1       1.583  -1.765   0.422  0.00  0.00     0.003 A 
ATOM      3  C2  UNL d   1       2.644  -1.639  -0.476  0.00  0.00     0.048 A 
ATOM      4  C3  UNL d   1       2.988  -0.380  -0.968  0.00  0.00     0.023 A 
ATOM      5  C4  UNL d   1       2.278   0.753  -0.569  0.00  0.00     0.048 A 
ATOM      6  C5  UNL d   1       1.216   0.622   0.328  0.00  0.00     0.003 A 
ATOM      7  I   UNL d   1       4.568  -0.191  -2.305  0.00  0.00    -0.146 I 
ENDROOT
TORSDOF 0
ENDMDL
