MODEL 1
REMARK minimizedAffinity -0.386049628
REMARK minimizedRMSD -1
REMARK  0 active torsions:
REMARK  status: ('A' for Active; 'I' for Inactive)
ROOT
ATOM      1  C   UNL d   1       1.330  -0.271   0.294  0.00  0.00     0.023 A 
ATOM      2  C1  UNL d   1       1.985  -1.492   0.129  0.00  0.00     0.003 A 
ATOM      3  C2  UNL d   1       3.134  -1.568  -0.661  0.00  0.00     0.048 A 
ATOM      4  C3  UNL d   1       3.624  -0.420  -1.282  0.00  0.00     0.023 A 
ATOM      5  C4  UNL d   1       2.973   0.804  -1.119  0.00  0.00     0.048 A 
ATOM      6  C5  UNL d   1       1.824   0.876  -0.329  0.00  0.00     0.003 A 
ATOM      7  I   UNL d   1       5.334  -0.531  -2.457  0.00  0.00    -0.146 I 
ENDROOT
TORSDOF 0
ENDMDL
