MODEL 1
REMARK minimizedAffinity -2.3157649
REMARK minimizedRMSD -1
REMARK  0 active torsions:
REMARK  status: ('A' for Active; 'I' for Inactive)
ROOT
ATOM      1  C   UNL d   1       1.416  -0.466   0.534  0.00  0.00     0.023 A 
ATOM      2  C1  UNL d   1       2.334  -1.516   0.489  0.00  0.00     0.003 A 
ATOM      3  C2  UNL d   1       3.355  -1.512  -0.463  0.00  0.00     0.048 A 
ATOM      4  C3  UNL d   1       3.454  -0.455  -1.367  0.00  0.00     0.023 A 
ATOM      5  C4  UNL d   1       2.539   0.598  -1.325  0.00  0.00     0.048 A 
ATOM      6  C5  UNL d   1       1.519   0.590  -0.372  0.00  0.00     0.003 A 
ATOM      7  I   UNL d   1       4.973  -0.447  -2.785  0.00  0.00    -0.146 I 
ENDROOT
TORSDOF 0
ENDMDL
