MODEL 1
REMARK minimizedAffinity -1.52347505
REMARK minimizedRMSD -1
REMARK  0 active torsions:
REMARK  status: ('A' for Active; 'I' for Inactive)
ROOT
ATOM      1  C   UNL d   1       4.205   0.129  -1.837  0.00  0.00     0.023 A 
ATOM      2  C1  UNL d   1       3.430   1.218  -1.439  0.00  0.00     0.003 A 
ATOM      3  C2  UNL d   1       2.322   1.022  -0.611  0.00  0.00     0.048 A 
ATOM      4  C3  UNL d   1       1.997  -0.265  -0.184  0.00  0.00     0.023 A 
ATOM      5  C4  UNL d   1       2.770  -1.357  -0.580  0.00  0.00     0.048 A 
ATOM      6  C5  UNL d   1       3.876  -1.157  -1.408  0.00  0.00     0.003 A 
ATOM      7  I   UNL d   1       0.349  -0.558   1.048  0.00  0.00    -0.146 I 
ENDROOT
TORSDOF 0
ENDMDL
