MODEL 1
REMARK minimizedAffinity -2.59602118
REMARK minimizedRMSD -1
REMARK  0 active torsions:
REMARK  status: ('A' for Active; 'I' for Inactive)
ROOT
ATOM      1  C   UNL d   1       2.092  -0.721  -0.817  0.00  0.00     0.023 A 
ATOM      2  C1  UNL d   1       1.656   0.556  -0.465  0.00  0.00     0.003 A 
ATOM      3  C2  UNL d   1       1.090   0.780   0.791  0.00  0.00     0.048 A 
ATOM      4  C3  UNL d   1       0.964  -0.277   1.692  0.00  0.00     0.023 A 
ATOM      5  C4  UNL d   1       1.400  -1.556   1.345  0.00  0.00     0.048 A 
ATOM      6  C5  UNL d   1       1.965  -1.776   0.087  0.00  0.00     0.003 A 
ATOM      7  I   UNL d   1       0.122   0.055   3.563  0.00  0.00    -0.146 I 
ENDROOT
TORSDOF 0
ENDMDL
