MODEL 1
REMARK minimizedAffinity 3.51847482
REMARK minimizedRMSD -1
REMARK  0 active torsions:
REMARK  status: ('A' for Active; 'I' for Inactive)
ROOT
ATOM      1  C   UNL d   1       2.096  -2.435  -0.960  0.00  0.00     0.023 A 
ATOM      2  C1  UNL d   1       3.175  -1.634  -1.332  0.00  0.00     0.003 A 
ATOM      3  C2  UNL d   1       3.220  -0.295  -0.939  0.00  0.00     0.048 A 
ATOM      4  C3  UNL d   1       2.183   0.236  -0.173  0.00  0.00     0.023 A 
ATOM      5  C4  UNL d   1       1.101  -0.562   0.202  0.00  0.00     0.048 A 
ATOM      6  C5  UNL d   1       1.060  -1.900  -0.194  0.00  0.00     0.003 A 
ATOM      7  I   UNL d   1       2.248   2.229   0.413  0.00  0.00    -0.146 I 
ENDROOT
TORSDOF 0
ENDMDL
