MODEL 1
REMARK minimizedAffinity -4.09856081
REMARK minimizedRMSD -1
REMARK  0 active torsions:
REMARK  status: ('A' for Active; 'I' for Inactive)
ROOT
ATOM      1  C   UNL d   1       3.267  -0.302  -1.452  0.00  0.00     0.023 A 
ATOM      2  C1  UNL d   1       3.129  -1.513  -0.774  0.00  0.00     0.003 A 
ATOM      3  C2  UNL d   1       2.168  -1.647   0.230  0.00  0.00     0.048 A 
ATOM      4  C3  UNL d   1       1.347  -0.566   0.550  0.00  0.00     0.023 A 
ATOM      5  C4  UNL d   1       1.480   0.647  -0.126  0.00  0.00     0.048 A 
ATOM      6  C5  UNL d   1       2.444   0.777  -1.129  0.00  0.00     0.003 A 
ATOM      7  I   UNL d   1      -0.085  -0.764   2.044  0.00  0.00    -0.146 I 
ENDROOT
TORSDOF 0
ENDMDL
