MODEL 1
REMARK minimizedAffinity -0.412989795
REMARK minimizedRMSD -1
REMARK  0 active torsions:
REMARK  status: ('A' for Active; 'I' for Inactive)
ROOT
ATOM      1  C   UNL d   1       0.812  -1.217   0.887  0.00  0.00     0.023 A 
ATOM      2  C1  UNL d   1       1.615  -0.083   1.016  0.00  0.00     0.003 A 
ATOM      3  C2  UNL d   1       2.664   0.137   0.120  0.00  0.00     0.048 A 
ATOM      4  C3  UNL d   1       2.903  -0.780  -0.903  0.00  0.00     0.023 A 
ATOM      5  C4  UNL d   1       2.102  -1.915  -1.036  0.00  0.00     0.048 A 
ATOM      6  C5  UNL d   1       1.055  -2.131  -0.138  0.00  0.00     0.003 A 
ATOM      7  I   UNL d   1       4.463  -0.454  -2.237  0.00  0.00    -0.146 I 
ENDROOT
TORSDOF 0
ENDMDL
