MODEL 1
REMARK minimizedAffinity -1.24946034
REMARK minimizedRMSD -1
REMARK  0 active torsions:
REMARK  status: ('A' for Active; 'I' for Inactive)
ROOT
ATOM      1  C   UNL d   1       1.098  -1.023   0.601  0.00  0.00     0.023 A 
ATOM      2  C1  UNL d   1       1.853  -2.058   0.050  0.00  0.00     0.003 A 
ATOM      3  C2  UNL d   1       2.994  -1.768  -0.701  0.00  0.00     0.048 A 
ATOM      4  C3  UNL d   1       3.376  -0.441  -0.894  0.00  0.00     0.023 A 
ATOM      5  C4  UNL d   1       2.624   0.598  -0.343  0.00  0.00     0.048 A 
ATOM      6  C5  UNL d   1       1.483   0.303   0.405  0.00  0.00     0.003 A 
ATOM      7  I   UNL d   1       5.075  -0.007  -2.010  0.00  0.00    -0.146 I 
ENDROOT
TORSDOF 0
ENDMDL
