MODEL 1
REMARK minimizedAffinity -3.106637
REMARK minimizedRMSD -1
REMARK  0 active torsions:
REMARK  status: ('A' for Active; 'I' for Inactive)
ROOT
ATOM      1  C   UNL d   1       1.103  -0.983   0.448  0.00  0.00     0.023 A 
ATOM      2  C1  UNL d   1       1.344   0.248  -0.161  0.00  0.00     0.003 A 
ATOM      3  C2  UNL d   1       2.439   0.405  -1.013  0.00  0.00     0.048 A 
ATOM      4  C3  UNL d   1       3.288  -0.675  -1.253  0.00  0.00     0.023 A 
ATOM      5  C4  UNL d   1       3.050  -1.910  -0.647  0.00  0.00     0.048 A 
ATOM      6  C5  UNL d   1       1.954  -2.061   0.205  0.00  0.00     0.003 A 
ATOM      7  I   UNL d   1       4.918  -0.445  -2.522  0.00  0.00    -0.146 I 
ENDROOT
TORSDOF 0
ENDMDL
