MODEL 1
REMARK minimizedAffinity -2.60145092
REMARK minimizedRMSD -1
REMARK  0 active torsions:
REMARK  status: ('A' for Active; 'I' for Inactive)
ROOT
ATOM      1  C   UNL d   1       1.048  -0.377   0.346  0.00  0.00     0.023 A 
ATOM      2  C1  UNL d   1       1.468   0.807  -0.261  0.00  0.00     0.003 A 
ATOM      3  C2  UNL d   1       2.605   0.814  -1.070  0.00  0.00     0.048 A 
ATOM      4  C3  UNL d   1       3.319  -0.368  -1.270  0.00  0.00     0.023 A 
ATOM      5  C4  UNL d   1       2.903  -1.555  -0.665  0.00  0.00     0.048 A 
ATOM      6  C5  UNL d   1       1.765  -1.556   0.144  0.00  0.00     0.003 A 
ATOM      7  I   UNL d   1       5.013  -0.361  -2.474  0.00  0.00    -0.146 I 
ENDROOT
TORSDOF 0
ENDMDL
