MODEL 1
REMARK minimizedAffinity -4.76340866
REMARK minimizedRMSD -1
REMARK  0 active torsions:
REMARK  status: ('A' for Active; 'I' for Inactive)
ROOT
ATOM      1  C   UNL d   1       0.851   0.147   0.314  0.00  0.00     0.023 A 
ATOM      2  C1  UNL d   1       1.492  -1.086   0.198  0.00  0.00     0.003 A 
ATOM      3  C2  UNL d   1       2.651  -1.202  -0.572  0.00  0.00     0.048 A 
ATOM      4  C3  UNL d   1       3.164  -0.081  -1.224  0.00  0.00     0.023 A 
ATOM      5  C4  UNL d   1       2.526   1.155  -1.110  0.00  0.00     0.048 A 
ATOM      6  C5  UNL d   1       1.367   1.267  -0.340  0.00  0.00     0.003 A 
ATOM      7  I   UNL d   1       4.889  -0.252  -2.371  0.00  0.00    -0.146 I 
ENDROOT
TORSDOF 0
ENDMDL
