MODEL 1
REMARK minimizedAffinity 0.542573452
REMARK minimizedRMSD -1
REMARK  1 active torsions:
REMARK  status: ('A' for Active; 'I' for Inactive)
REMARK    1  A    between atoms: C3_4  and  O_7 
ROOT
ATOM      1  C   UNL d   1      -1.745   1.408   1.246  0.00  0.00    -0.033 A 
ATOM      2  C1  UNL d   1      -1.562   0.071   0.887  0.00  0.00     0.039 A 
ATOM      3  C2  UNL d   1      -0.298  -0.514   0.988  0.00  0.00    -0.080 A 
ATOM      4  C3  UNL d   1       0.772   0.247   1.449  0.00  0.00     0.150 A 
ATOM      5  C4  UNL d   1       0.597   1.579   1.812  0.00  0.00    -0.007 A 
ATOM      6  C5  UNL d   1      -0.666   2.162   1.710  0.00  0.00     0.039 A 
ENDROOT
BRANCH   4   7
ATOM      7  O   UNL d   1       2.025  -0.279   1.561  0.00  0.00    -0.526 OA
ATOM      8  H5  UNL d   1       2.002  -1.199   1.248  0.00  0.00     0.418 HD
ENDBRANCH   4   7
TORSDOF 1
ENDMDL
