MODEL 1
REMARK minimizedAffinity -2.5072844
REMARK minimizedRMSD -1
REMARK  1 active torsions:
REMARK  status: ('A' for Active; 'I' for Inactive)
REMARK    1  A    between atoms: C3_4  and  O_7 
ROOT
ATOM      1  C   UNL d   1      -0.920   0.874   1.909  0.00  0.00    -0.033 A 
ATOM      2  C1  UNL d   1      -1.740  -0.203   2.253  0.00  0.00     0.039 A 
ATOM      3  C2  UNL d   1      -2.926   0.018   2.957  0.00  0.00    -0.080 A 
ATOM      4  C3  UNL d   1      -3.279   1.318   3.309  0.00  0.00     0.150 A 
ATOM      5  C4  UNL d   1      -2.469   2.395   2.967  0.00  0.00    -0.007 A 
ATOM      6  C5  UNL d   1      -1.285   2.172   2.265  0.00  0.00     0.039 A 
ENDROOT
BRANCH   4   7
ATOM      7  O   UNL d   1      -4.424   1.582   4.000  0.00  0.00    -0.526 OA
ATOM      8  H5  UNL d   1      -4.869   0.740   4.193  0.00  0.00     0.418 HD
ENDBRANCH   4   7
TORSDOF 1
ENDMDL
