MODEL 1
REMARK minimizedAffinity -3.1858325
REMARK minimizedRMSD -1
REMARK  1 active torsions:
REMARK  status: ('A' for Active; 'I' for Inactive)
REMARK    1  A    between atoms: C3_4  and  O_7 
ROOT
ATOM      1  C   UNL d   1      -0.081   0.489   1.168  0.00  0.00    -0.033 A 
ATOM      2  C1  UNL d   1      -1.120  -0.330   1.615  0.00  0.00     0.039 A 
ATOM      3  C2  UNL d   1      -2.142   0.203   2.403  0.00  0.00    -0.080 A 
ATOM      4  C3  UNL d   1      -2.114   1.555   2.736  0.00  0.00     0.150 A 
ATOM      5  C4  UNL d   1      -1.084   2.377   2.291  0.00  0.00    -0.007 A 
ATOM      6  C5  UNL d   1      -0.064   1.842   1.505  0.00  0.00     0.039 A 
ENDROOT
BRANCH   4   7
ATOM      7  O   UNL d   1      -3.086   2.119   3.506  0.00  0.00    -0.526 OA
ATOM      8  H5  UNL d   1      -3.716   1.425   3.764  0.00  0.00     0.418 HD
ENDBRANCH   4   7
TORSDOF 1
ENDMDL
