MODEL 1
REMARK minimizedAffinity -5.77376223
REMARK minimizedRMSD -1
REMARK  1 active torsions:
REMARK  status: ('A' for Active; 'I' for Inactive)
REMARK    1  A    between atoms: C3_4  and  O_7 
ROOT
ATOM      1  C   UNL d   1      -0.399   0.226   1.033  0.00  0.00    -0.033 A 
ATOM      2  C1  UNL d   1      -0.337   1.577   1.379  0.00  0.00     0.039 A 
ATOM      3  C2  UNL d   1      -1.308   2.131   2.216  0.00  0.00    -0.080 A 
ATOM      4  C3  UNL d   1      -2.333   1.323   2.700  0.00  0.00     0.150 A 
ATOM      5  C4  UNL d   1      -2.399  -0.025   2.363  0.00  0.00    -0.007 A 
ATOM      6  C5  UNL d   1      -1.429  -0.576   1.527  0.00  0.00     0.039 A 
ENDROOT
BRANCH   4   7
ATOM      7  O   UNL d   1      -3.306   1.819   3.516  0.00  0.00    -0.526 OA
ATOM      8  H5  UNL d   1      -3.149   2.770   3.640  0.00  0.00     0.418 HD
ENDBRANCH   4   7
TORSDOF 1
ENDMDL
