MODEL 1
REMARK minimizedAffinity -0.99344331
REMARK minimizedRMSD -1
REMARK  1 active torsions:
REMARK  status: ('A' for Active; 'I' for Inactive)
REMARK    1  A    between atoms: C3_4  and  O_7 
ROOT
ATOM      1  C   UNL d   1       0.588   0.388   1.559  0.00  0.00    -0.033 A 
ATOM      2  C1  UNL d   1       0.202   0.801   2.835  0.00  0.00     0.039 A 
ATOM      3  C2  UNL d   1      -0.463   2.017   3.006  0.00  0.00    -0.080 A 
ATOM      4  C3  UNL d   1      -0.737   2.808   1.893  0.00  0.00     0.150 A 
ATOM      5  C4  UNL d   1      -0.359   2.400   0.618  0.00  0.00    -0.007 A 
ATOM      6  C5  UNL d   1       0.306   1.186   0.450  0.00  0.00     0.039 A 
ENDROOT
BRANCH   4   7
ATOM      7  O   UNL d   1      -1.379   4.005   2.010  0.00  0.00    -0.526 OA
ATOM      8  H5  UNL d   1      -1.554   4.170   2.952  0.00  0.00     0.418 HD
ENDBRANCH   4   7
TORSDOF 1
ENDMDL
