MODEL 1
REMARK minimizedAffinity -0.0823188648
REMARK minimizedRMSD -1
REMARK  1 active torsions:
REMARK  status: ('A' for Active; 'I' for Inactive)
REMARK    1  A    between atoms: C3_4  and  O_7 
ROOT
ATOM      1  C   UNL d   1       1.317   0.573   1.466  0.00  0.00    -0.033 A 
ATOM      2  C1  UNL d   1       1.336   1.680   0.616  0.00  0.00     0.039 A 
ATOM      3  C2  UNL d   1       0.251   2.559   0.587  0.00  0.00    -0.080 A 
ATOM      4  C3  UNL d   1      -0.844   2.319   1.412  0.00  0.00     0.150 A 
ATOM      5  C4  UNL d   1      -0.869   1.220   2.263  0.00  0.00    -0.007 A 
ATOM      6  C5  UNL d   1       0.215   0.343   2.291  0.00  0.00     0.039 A 
ENDROOT
BRANCH   4   7
ATOM      7  O   UNL d   1      -1.928   3.146   1.414  0.00  0.00    -0.526 OA
ATOM      8  H5  UNL d   1      -1.783   3.846   0.756  0.00  0.00     0.418 HD
ENDBRANCH   4   7
TORSDOF 1
ENDMDL
