MODEL 1
REMARK minimizedAffinity -0.838338137
REMARK minimizedRMSD -1
REMARK  1 active torsions:
REMARK  status: ('A' for Active; 'I' for Inactive)
REMARK    1  A    between atoms: C3_4  and  O_7 
ROOT
ATOM      1  C   UNL d   1       1.092   1.404   1.951  0.00  0.00    -0.033 A 
ATOM      2  C1  UNL d   1       0.893   0.322   2.811  0.00  0.00     0.039 A 
ATOM      3  C2  UNL d   1      -0.378  -0.240   2.946  0.00  0.00    -0.080 A 
ATOM      4  C3  UNL d   1      -1.440   0.288   2.217  0.00  0.00     0.150 A 
ATOM      5  C4  UNL d   1      -1.248   1.364   1.355  0.00  0.00    -0.007 A 
ATOM      6  C5  UNL d   1       0.021   1.924   1.222  0.00  0.00     0.039 A 
ENDROOT
BRANCH   4   7
ATOM      7  O   UNL d   1      -2.699  -0.223   2.319  0.00  0.00    -0.526 OA
ATOM      8  H5  UNL d   1      -2.687  -0.943   2.972  0.00  0.00     0.418 HD
ENDBRANCH   4   7
TORSDOF 1
ENDMDL
