MODEL 1
REMARK minimizedAffinity -2.52439594
REMARK minimizedRMSD -1
REMARK  1 active torsions:
REMARK  status: ('A' for Active; 'I' for Inactive)
REMARK    1  A    between atoms: C3_4  and  O_7 
ROOT
ATOM      1  C   UNL d   1      -0.769   1.324   0.801  0.00  0.00    -0.033 A 
ATOM      2  C1  UNL d   1       0.466   0.857   1.255  0.00  0.00     0.039 A 
ATOM      3  C2  UNL d   1       0.522  -0.151   2.220  0.00  0.00    -0.080 A 
ATOM      4  C3  UNL d   1      -0.663  -0.683   2.721  0.00  0.00     0.150 A 
ATOM      5  C4  UNL d   1      -1.897  -0.225   2.271  0.00  0.00    -0.007 A 
ATOM      6  C5  UNL d   1      -1.951   0.782   1.308  0.00  0.00     0.039 A 
ENDROOT
BRANCH   4   7
ATOM      7  O   UNL d   1      -0.659  -1.664   3.667  0.00  0.00    -0.526 OA
ATOM      8  H5  UNL d   1       0.263  -1.860   3.904  0.00  0.00     0.418 HD
ENDBRANCH   4   7
TORSDOF 1
ENDMDL
