MODEL 1
REMARK minimizedAffinity -0.744015396
REMARK minimizedRMSD -1
REMARK  1 active torsions:
REMARK  status: ('A' for Active; 'I' for Inactive)
REMARK    1  A    between atoms: C3_4  and  O_7 
ROOT
ATOM      1  C   UNL d   1      -0.593   1.156   1.423  0.00  0.00    -0.033 A 
ATOM      2  C1  UNL d   1       0.612   0.603   1.861  0.00  0.00     0.039 A 
ATOM      3  C2  UNL d   1       0.607  -0.541   2.661  0.00  0.00    -0.080 A 
ATOM      4  C3  UNL d   1      -0.607  -1.124   3.013  0.00  0.00     0.150 A 
ATOM      5  C4  UNL d   1      -1.811  -0.581   2.577  0.00  0.00    -0.007 A 
ATOM      6  C5  UNL d   1      -1.805   0.562   1.779  0.00  0.00     0.039 A 
ENDROOT
BRANCH   4   7
ATOM      7  O   UNL d   1      -0.662  -2.239   3.795  0.00  0.00    -0.526 OA
ATOM      8  H5  UNL d   1       0.244  -2.485   4.045  0.00  0.00     0.418 HD
ENDBRANCH   4   7
TORSDOF 1
ENDMDL
