MODEL 1
REMARK minimizedAffinity -2.38872194
REMARK minimizedRMSD -1
REMARK  1 active torsions:
REMARK  status: ('A' for Active; 'I' for Inactive)
REMARK    1  A    between atoms: C3_4  and  O_7 
ROOT
ATOM      1  C   UNL d   1       0.241   1.768   0.994  0.00  0.00    -0.033 A 
ATOM      2  C1  UNL d   1      -0.190   0.462   1.236  0.00  0.00     0.039 A 
ATOM      3  C2  UNL d   1      -1.337   0.234   1.999  0.00  0.00    -0.080 A 
ATOM      4  C3  UNL d   1      -2.042   1.318   2.513  0.00  0.00     0.150 A 
ATOM      5  C4  UNL d   1      -1.621   2.621   2.274  0.00  0.00    -0.007 A 
ATOM      6  C5  UNL d   1      -0.475   2.848   1.512  0.00  0.00     0.039 A 
ENDROOT
BRANCH   4   7
ATOM      7  O   UNL d   1      -3.165   1.144   3.268  0.00  0.00    -0.526 OA
ATOM      8  H5  UNL d   1      -3.320   0.191   3.374  0.00  0.00     0.418 HD
ENDBRANCH   4   7
TORSDOF 1
ENDMDL
