MODEL 1
REMARK minimizedAffinity -2.26182342
REMARK minimizedRMSD -1
REMARK  1 active torsions:
REMARK  status: ('A' for Active; 'I' for Inactive)
REMARK    1  A    between atoms: C3_4  and  O_7 
ROOT
ATOM      1  C   UNL d   1       0.463   1.393   0.935  0.00  0.00    -0.033 A 
ATOM      2  C1  UNL d   1      -0.291   2.559   0.793  0.00  0.00     0.039 A 
ATOM      3  C2  UNL d   1      -1.401   2.779   1.612  0.00  0.00    -0.080 A 
ATOM      4  C3  UNL d   1      -1.743   1.827   2.568  0.00  0.00     0.150 A 
ATOM      5  C4  UNL d   1      -0.994   0.665   2.718  0.00  0.00    -0.007 A 
ATOM      6  C5  UNL d   1       0.113   0.447   1.898  0.00  0.00     0.039 A 
ENDROOT
BRANCH   4   7
ATOM      7  O   UNL d   1      -2.820   1.995   3.387  0.00  0.00    -0.526 OA
ATOM      8  H5  UNL d   1      -3.259   2.829   3.151  0.00  0.00     0.418 HD
ENDBRANCH   4   7
TORSDOF 1
ENDMDL
