MODEL 1
REMARK minimizedAffinity -1.58091283
REMARK minimizedRMSD -1
REMARK  1 active torsions:
REMARK  status: ('A' for Active; 'I' for Inactive)
REMARK    1  A    between atoms: C3_4  and  O_7 
ROOT
ATOM      1  C   UNL d   1       0.364   1.068   1.272  0.00  0.00    -0.033 A 
ATOM      2  C1  UNL d   1      -0.278  -0.164   1.409  0.00  0.00     0.039 A 
ATOM      3  C2  UNL d   1      -1.502  -0.245   2.076  0.00  0.00    -0.080 A 
ATOM      4  C3  UNL d   1      -2.073   0.911   2.599  0.00  0.00     0.150 A 
ATOM      5  C4  UNL d   1      -1.441   2.143   2.462  0.00  0.00    -0.007 A 
ATOM      6  C5  UNL d   1      -0.219   2.222   1.797  0.00  0.00     0.039 A 
ENDROOT
BRANCH   4   7
ATOM      7  O   UNL d   1      -3.264   0.881   3.262  0.00  0.00    -0.526 OA
ATOM      8  H5  UNL d   1      -3.569  -0.040   3.304  0.00  0.00     0.418 HD
ENDBRANCH   4   7
TORSDOF 1
ENDMDL
