MODEL 1
REMARK minimizedAffinity -2.33978176
REMARK minimizedRMSD -1
REMARK  1 active torsions:
REMARK  status: ('A' for Active; 'I' for Inactive)
REMARK    1  A    between atoms: C3_4  and  O_7 
ROOT
ATOM      1  C   UNL d   1      -2.742   1.211   3.039  0.00  0.00    -0.033 A 
ATOM      2  C1  UNL d   1      -2.255  -0.039   2.649  0.00  0.00     0.039 A 
ATOM      3  C2  UNL d   1      -1.103  -0.128   1.866  0.00  0.00    -0.080 A 
ATOM      4  C3  UNL d   1      -0.447   1.038   1.480  0.00  0.00     0.150 A 
ATOM      5  C4  UNL d   1      -0.924   2.286   1.867  0.00  0.00    -0.007 A 
ATOM      6  C5  UNL d   1      -2.076   2.373   2.649  0.00  0.00     0.039 A 
ENDROOT
BRANCH   4   7
ATOM      7  O   UNL d   1       0.678   1.002   0.711  0.00  0.00    -0.526 OA
ATOM      8  H5  UNL d   1       0.873   0.074   0.496  0.00  0.00     0.418 HD
ENDBRANCH   4   7
TORSDOF 1
ENDMDL
