MODEL 1
REMARK minimizedAffinity -1.61258292
REMARK minimizedRMSD -1
REMARK  1 active torsions:
REMARK  status: ('A' for Active; 'I' for Inactive)
REMARK    1  A    between atoms: C3_4  and  O_7 
ROOT
ATOM      1  C   UNL d   1       0.129   0.566   1.015  0.00  0.00    -0.033 A 
ATOM      2  C1  UNL d   1      -0.871  -0.356   1.332  0.00  0.00     0.039 A 
ATOM      3  C2  UNL d   1      -2.009   0.057   2.026  0.00  0.00    -0.080 A 
ATOM      4  C3  UNL d   1      -2.136   1.393   2.397  0.00  0.00     0.150 A 
ATOM      5  C4  UNL d   1      -1.145   2.318   2.081  0.00  0.00    -0.007 A 
ATOM      6  C5  UNL d   1      -0.009   1.903   1.389  0.00  0.00     0.039 A 
ENDROOT
BRANCH   4   7
ATOM      7  O   UNL d   1      -3.227   1.843   3.080  0.00  0.00    -0.526 OA
ATOM      8  H5  UNL d   1      -3.814   1.088   3.253  0.00  0.00     0.418 HD
ENDBRANCH   4   7
TORSDOF 1
ENDMDL
