MODEL 1
REMARK minimizedAffinity -4.96758223
REMARK minimizedRMSD -1
REMARK  1 active torsions:
REMARK  status: ('A' for Active; 'I' for Inactive)
REMARK    1  A    between atoms: C3_4  and  O_7 
ROOT
ATOM      1  C   UNL d   1       0.439  -0.057   0.965  0.00  0.00    -0.033 A 
ATOM      2  C1  UNL d   1      -0.792  -0.616   1.314  0.00  0.00     0.039 A 
ATOM      3  C2  UNL d   1      -1.737   0.147   2.003  0.00  0.00    -0.080 A 
ATOM      4  C3  UNL d   1      -1.439   1.466   2.336  0.00  0.00     0.150 A 
ATOM      5  C4  UNL d   1      -0.216   2.030   1.988  0.00  0.00    -0.007 A 
ATOM      6  C5  UNL d   1       0.727   1.266   1.301  0.00  0.00     0.039 A 
ENDROOT
BRANCH   4   7
ATOM      7  O   UNL d   1      -2.327   2.248   3.013  0.00  0.00    -0.526 OA
ATOM      8  H5  UNL d   1      -3.116   1.717   3.211  0.00  0.00     0.418 HD
ENDBRANCH   4   7
TORSDOF 1
ENDMDL
