MODEL 1
REMARK minimizedAffinity 2.05311632
REMARK minimizedRMSD -1
REMARK  1 active torsions:
REMARK  status: ('A' for Active; 'I' for Inactive)
REMARK    1  A    between atoms: C3_4  and  O_7 
ROOT
ATOM      1  C   UNL d   1      -1.633   0.837   2.288  0.00  0.00    -0.033 A 
ATOM      2  C1  UNL d   1      -2.605   0.005   2.845  0.00  0.00     0.039 A 
ATOM      3  C2  UNL d   1      -3.585   0.537   3.685  0.00  0.00    -0.080 A 
ATOM      4  C3  UNL d   1      -3.582   1.902   3.960  0.00  0.00     0.150 A 
ATOM      5  C4  UNL d   1      -2.618   2.738   3.405  0.00  0.00    -0.007 A 
ATOM      6  C5  UNL d   1      -1.640   2.204   2.567  0.00  0.00     0.039 A 
ENDROOT
BRANCH   4   7
ATOM      7  O   UNL d   1      -4.515   2.466   4.778  0.00  0.00    -0.526 OA
ATOM      8  H5  UNL d   1      -5.098   1.764   5.110  0.00  0.00     0.418 HD
ENDBRANCH   4   7
TORSDOF 1
ENDMDL
