MODEL 1
REMARK minimizedAffinity -1.26645744
REMARK minimizedRMSD -1
REMARK  1 active torsions:
REMARK  status: ('A' for Active; 'I' for Inactive)
REMARK    1  A    between atoms: C3_4  and  O_7 
ROOT
ATOM      1  C   UNL d   1      -3.333  -3.043  -0.534  0.00  0.00    -0.033 A 
ATOM      2  C1  UNL d   1      -2.923  -4.151  -1.277  0.00  0.00     0.039 A 
ATOM      3  C2  UNL d   1      -2.677  -4.024  -2.646  0.00  0.00    -0.080 A 
ATOM      4  C3  UNL d   1      -2.844  -2.785  -3.258  0.00  0.00     0.150 A 
ATOM      5  C4  UNL d   1      -3.248  -1.675  -2.522  0.00  0.00    -0.007 A 
ATOM      6  C5  UNL d   1      -3.494  -1.804  -1.156  0.00  0.00     0.039 A 
ENDROOT
BRANCH   4   7
ATOM      7  O   UNL d   1      -2.620  -2.613  -4.592  0.00  0.00    -0.526 OA
ATOM      8  H5  UNL d   1      -2.375  -3.471  -4.976  0.00  0.00     0.418 HD
ENDBRANCH   4   7
TORSDOF 1
ENDMDL
