MODEL 1
REMARK minimizedAffinity 0.158570305
REMARK minimizedRMSD -1
REMARK  1 active torsions:
REMARK  status: ('A' for Active; 'I' for Inactive)
REMARK    1  A    between atoms: C3_4  and  O_7 
ROOT
ATOM      1  C   UNL d   1      -1.276  -1.645   2.532  0.00  0.00    -0.033 A 
ATOM      2  C1  UNL d   1      -2.559  -1.122   2.366  0.00  0.00     0.039 A 
ATOM      3  C2  UNL d   1      -3.634  -1.667   3.073  0.00  0.00    -0.080 A 
ATOM      4  C3  UNL d   1      -3.411  -2.731   3.941  0.00  0.00     0.150 A 
ATOM      5  C4  UNL d   1      -2.134  -3.255   4.115  0.00  0.00    -0.007 A 
ATOM      6  C5  UNL d   1      -1.062  -2.710   3.408  0.00  0.00     0.039 A 
ENDROOT
BRANCH   4   7
ATOM      7  O   UNL d   1      -4.429  -3.299   4.649  0.00  0.00    -0.526 OA
ATOM      8  H5  UNL d   1      -5.258  -2.854   4.406  0.00  0.00     0.418 HD
ENDBRANCH   4   7
TORSDOF 1
ENDMDL
