MODEL 1
REMARK minimizedAffinity -5.29870176
REMARK minimizedRMSD -1
REMARK  0 active torsions:
REMARK  status: ('A' for Active; 'I' for Inactive)
ROOT
ATOM      1  O1  BZF d   1      -0.442   1.016  -1.527  0.00  0.00    -0.204 OA
ATOM      2  C2  BZF d   1      -1.016   0.914  -0.274  0.00  0.00     0.174 A 
ATOM      3  C3  BZF d   1      -0.163   0.341   0.599  0.00  0.00    -0.012 A 
ATOM      4  C3A BZF d   1       1.052   0.151  -0.133  0.00  0.00    -0.107 A 
ATOM      5  C4  BZF d   1       2.275  -0.361   0.195  0.00  0.00     0.055 A 
ATOM      6  C5  BZF d   1       3.225  -0.472  -0.770  0.00  0.00    -0.016 A 
ATOM      7  C6  BZF d   1       2.985  -0.087  -2.073  0.00  0.00     0.022 A 
ATOM      8  C7  BZF d   1       1.789   0.432  -2.445  0.00  0.00     0.029 A 
ATOM      9  C7A BZF d   1       0.838   0.576  -1.464  0.00  0.00     0.058 A 
ENDROOT
TORSDOF 0
ENDMDL
