MODEL 1
REMARK minimizedAffinity -5.09961319
REMARK minimizedRMSD -1
REMARK  0 active torsions:
REMARK  status: ('A' for Active; 'I' for Inactive)
ROOT
ATOM      1  O1  BZF d   1       1.977   1.386  -1.658  0.00  0.00    -0.204 OA
ATOM      2  C2  BZF d   1       2.820   0.350  -1.306  0.00  0.00     0.174 A 
ATOM      3  C3  BZF d   1       2.159  -0.583  -0.591  0.00  0.00    -0.012 A 
ATOM      4  C3A BZF d   1       0.798  -0.144  -0.567  0.00  0.00    -0.107 A 
ATOM      5  C4  BZF d   1      -0.345  -0.657  -0.024  0.00  0.00     0.055 A 
ATOM      6  C5  BZF d   1      -1.499   0.054  -0.118  0.00  0.00    -0.016 A 
ATOM      7  C6  BZF d   1      -1.545   1.283  -0.744  0.00  0.00     0.022 A 
ATOM      8  C7  BZF d   1      -0.439   1.830  -1.303  0.00  0.00     0.029 A 
ATOM      9  C7A BZF d   1       0.722   1.099  -1.238  0.00  0.00     0.058 A 
ENDROOT
TORSDOF 0
ENDMDL
