MODEL 1
REMARK minimizedAffinity -1.61546516
REMARK minimizedRMSD -1
REMARK  0 active torsions:
REMARK  status: ('A' for Active; 'I' for Inactive)
ROOT
ATOM      1  O1  BZF d   1      -1.673  -0.338   0.804  0.00  0.00    -0.204 OA
ATOM      2  C2  BZF d   1      -1.316   0.914   1.265  0.00  0.00     0.174 A 
ATOM      3  C3  BZF d   1      -0.015   1.164   1.010  0.00  0.00    -0.012 A 
ATOM      4  C3A BZF d   1       0.447   0.033   0.265  0.00  0.00    -0.107 A 
ATOM      5  C4  BZF d   1       1.650  -0.297  -0.290  0.00  0.00     0.055 A 
ATOM      6  C5  BZF d   1       1.790  -1.509  -0.888  0.00  0.00    -0.016 A 
ATOM      7  C6  BZF d   1       0.752  -2.416  -0.945  0.00  0.00     0.022 A 
ATOM      8  C7  BZF d   1      -0.462  -2.131  -0.412  0.00  0.00     0.029 A 
ATOM      9  C7A BZF d   1      -0.616  -0.894   0.164  0.00  0.00     0.058 A 
ENDROOT
TORSDOF 0
ENDMDL
