MODEL 1
REMARK minimizedAffinity -5.73742628
REMARK minimizedRMSD -1
REMARK  0 active torsions:
REMARK  status: ('A' for Active; 'I' for Inactive)
ROOT
ATOM      1  O1  BZF d   1       0.060   1.273   0.798  0.00  0.00    -0.204 OA
ATOM      2  C2  BZF d   1      -1.185   0.762   1.112  0.00  0.00     0.174 A 
ATOM      3  C3  BZF d   1      -1.362  -0.449   0.546  0.00  0.00    -0.012 A 
ATOM      4  C3A BZF d   1      -0.117  -0.752  -0.091  0.00  0.00    -0.107 A 
ATOM      5  C4  BZF d   1       0.335  -1.824  -0.808  0.00  0.00     0.055 A 
ATOM      6  C5  BZF d   1       1.578  -1.776  -1.354  0.00  0.00    -0.016 A 
ATOM      7  C6  BZF d   1       2.393  -0.672  -1.209  0.00  0.00     0.022 A 
ATOM      8  C7  BZF d   1       1.991   0.412  -0.503  0.00  0.00     0.029 A 
ATOM      9  C7A BZF d   1       0.748   0.354   0.079  0.00  0.00     0.058 A 
ENDROOT
TORSDOF 0
ENDMDL
