MODEL 1
REMARK minimizedAffinity -4.53816414
REMARK minimizedRMSD -1
REMARK  0 active torsions:
REMARK  status: ('A' for Active; 'I' for Inactive)
ROOT
ATOM      1  O1  BZF d   1      -0.831  -1.100  -0.253  0.00  0.00    -0.204 OA
ATOM      2  C2  BZF d   1      -1.204  -0.278   0.792  0.00  0.00     0.174 A 
ATOM      3  C3  BZF d   1      -0.153   0.443   1.233  0.00  0.00    -0.012 A 
ATOM      4  C3A BZF d   1       0.925   0.114   0.351  0.00  0.00    -0.107 A 
ATOM      5  C4  BZF d   1       2.226   0.521   0.266  0.00  0.00     0.055 A 
ATOM      6  C5  BZF d   1       3.036  -0.047  -0.666  0.00  0.00    -0.016 A 
ATOM      7  C6  BZF d   1       2.580  -1.026  -1.524  0.00  0.00     0.022 A 
ATOM      8  C7  BZF d   1       1.297  -1.459  -1.481  0.00  0.00     0.029 A 
ATOM      9  C7A BZF d   1       0.467  -0.863  -0.562  0.00  0.00     0.058 A 
ENDROOT
TORSDOF 0
ENDMDL
