MODEL 1
REMARK minimizedAffinity -3.13872886
REMARK minimizedRMSD -1
REMARK  0 active torsions:
REMARK  status: ('A' for Active; 'I' for Inactive)
ROOT
ATOM      1  O1  BZF d   1       3.159  -1.132  -0.897  0.00  0.00    -0.204 OA
ATOM      2  C2  BZF d   1       3.551   0.104  -0.420  0.00  0.00     0.174 A 
ATOM      3  C3  BZF d   1       2.487   0.808   0.017  0.00  0.00    -0.012 A 
ATOM      4  C3A BZF d   1       1.370  -0.077  -0.117  0.00  0.00    -0.107 A 
ATOM      5  C4  BZF d   1       0.040   0.041   0.167  0.00  0.00     0.055 A 
ATOM      6  C5  BZF d   1      -0.797  -0.982  -0.150  0.00  0.00    -0.016 A 
ATOM      7  C6  BZF d   1      -0.338  -2.134  -0.755  0.00  0.00     0.022 A 
ATOM      8  C7  BZF d   1       0.974  -2.299  -1.051  0.00  0.00     0.029 A 
ATOM      9  C7A BZF d   1       1.827  -1.280  -0.702  0.00  0.00     0.058 A 
ENDROOT
TORSDOF 0
ENDMDL
