MODEL 1
REMARK minimizedAffinity -2.54786634
REMARK minimizedRMSD -1
REMARK  0 active torsions:
REMARK  status: ('A' for Active; 'I' for Inactive)
ROOT
ATOM      1  O1  BZF d   1       0.074   0.732   0.876  0.00  0.00    -0.204 OA
ATOM      2  C2  BZF d   1      -1.062   0.232   0.269  0.00  0.00     0.174 A 
ATOM      3  C3  BZF d   1      -0.740  -0.518  -0.804  0.00  0.00    -0.012 A 
ATOM      4  C3A BZF d   1       0.690  -0.561  -0.819  0.00  0.00    -0.107 A 
ATOM      5  C4  BZF d   1       1.603  -1.164  -1.635  0.00  0.00     0.055 A 
ATOM      6  C5  BZF d   1       2.927  -0.948  -1.419  0.00  0.00    -0.016 A 
ATOM      7  C6  BZF d   1       3.373  -0.131  -0.401  0.00  0.00     0.022 A 
ATOM      8  C7  BZF d   1       2.505   0.485   0.438  0.00  0.00     0.029 A 
ATOM      9  C7A BZF d   1       1.167   0.242   0.243  0.00  0.00     0.058 A 
ENDROOT
TORSDOF 0
ENDMDL
