MODEL 1
REMARK minimizedAffinity -4.41842556
REMARK minimizedRMSD -1
REMARK  0 active torsions:
REMARK  status: ('A' for Active; 'I' for Inactive)
ROOT
ATOM      1  O1  BZF d   1       2.398   0.588  -1.713  0.00  0.00    -0.204 OA
ATOM      2  C2  BZF d   1       2.933  -0.617  -1.301  0.00  0.00     0.174 A 
ATOM      3  C3  BZF d   1       2.085  -1.257  -0.470  0.00  0.00    -0.012 A 
ATOM      4  C3A BZF d   1       0.911  -0.441  -0.428  0.00  0.00    -0.107 A 
ATOM      5  C4  BZF d   1      -0.289  -0.555   0.214  0.00  0.00     0.055 A 
ATOM      6  C5  BZF d   1      -1.196   0.451   0.103  0.00  0.00    -0.016 A 
ATOM      7  C6  BZF d   1      -0.933   1.587  -0.635  0.00  0.00     0.022 A 
ATOM      8  C7  BZF d   1       0.241   1.743  -1.294  0.00  0.00     0.029 A 
ATOM      9  C7A BZF d   1       1.146   0.713  -1.211  0.00  0.00     0.058 A 
ENDROOT
TORSDOF 0
ENDMDL
