MODEL 1
REMARK minimizedAffinity 1.93877065
REMARK minimizedRMSD -1
REMARK  0 active torsions:
REMARK  status: ('A' for Active; 'I' for Inactive)
ROOT
ATOM      1  O1  BZF d   1       1.760   0.652   0.576  0.00  0.00    -0.204 OA
ATOM      2  C2  BZF d   1       2.128   0.984  -0.713  0.00  0.00     0.174 A 
ATOM      3  C3  BZF d   1       1.050   1.029  -1.522  0.00  0.00    -0.012 A 
ATOM      4  C3A BZF d   1      -0.072   0.794  -0.666  0.00  0.00    -0.107 A 
ATOM      5  C4  BZF d   1      -1.420   0.732  -0.880  0.00  0.00     0.055 A 
ATOM      6  C5  BZF d   1      -2.239   0.412   0.156  0.00  0.00    -0.016 A 
ATOM      7  C6  BZF d   1      -1.745   0.143   1.416  0.00  0.00     0.022 A 
ATOM      8  C7  BZF d   1      -0.417   0.196   1.678  0.00  0.00     0.029 A 
ATOM      9  C7A BZF d   1       0.411   0.552   0.641  0.00  0.00     0.058 A 
ENDROOT
TORSDOF 0
ENDMDL
