MODEL 1
REMARK minimizedAffinity -3.77042699
REMARK minimizedRMSD -1
REMARK  0 active torsions:
REMARK  status: ('A' for Active; 'I' for Inactive)
ROOT
ATOM      1  O1  BZF d   1      -1.079  -1.242   0.651  0.00  0.00    -0.204 OA
ATOM      2  C2  BZF d   1      -1.139  -0.022   1.299  0.00  0.00     0.174 A 
ATOM      3  C3  BZF d   1      -0.111   0.767   0.927  0.00  0.00    -0.012 A 
ATOM      4  C3A BZF d   1       0.587   0.028  -0.080  0.00  0.00    -0.107 A 
ATOM      5  C4  BZF d   1       1.688   0.291  -0.844  0.00  0.00     0.055 A 
ATOM      6  C5  BZF d   1       2.155  -0.672  -1.682  0.00  0.00    -0.016 A 
ATOM      7  C6  BZF d   1       1.550  -1.908  -1.777  0.00  0.00     0.022 A 
ATOM      8  C7  BZF d   1       0.452  -2.213  -1.044  0.00  0.00     0.029 A 
ATOM      9  C7A BZF d   1      -0.042  -1.231  -0.220  0.00  0.00     0.058 A 
ENDROOT
TORSDOF 0
ENDMDL
