MODEL 1
REMARK minimizedAffinity -4.05467796
REMARK minimizedRMSD -1
REMARK  0 active torsions:
REMARK  status: ('A' for Active; 'I' for Inactive)
ROOT
ATOM      1  O1  BZF d   1       2.048  -0.072   0.815  0.00  0.00    -0.204 OA
ATOM      2  C2  BZF d   1       2.284  -0.821  -0.321  0.00  0.00     0.174 A 
ATOM      3  C3  BZF d   1       1.127  -1.109  -0.952  0.00  0.00    -0.012 A 
ATOM      4  C3A BZF d   1       0.113  -0.424  -0.211  0.00  0.00    -0.107 A 
ATOM      5  C4  BZF d   1      -1.240  -0.312  -0.354  0.00  0.00     0.055 A 
ATOM      6  C5  BZF d   1      -1.949   0.371   0.583  0.00  0.00    -0.016 A 
ATOM      7  C6  BZF d   1      -1.338   0.949   1.677  0.00  0.00     0.022 A 
ATOM      8  C7  BZF d   1       0.002   0.869   1.859  0.00  0.00     0.029 A 
ATOM      9  C7A BZF d   1       0.725   0.207   0.896  0.00  0.00     0.058 A 
ENDROOT
TORSDOF 0
ENDMDL
