MODEL 1
REMARK minimizedAffinity -4.20050192
REMARK minimizedRMSD -1
REMARK  0 active torsions:
REMARK  status: ('A' for Active; 'I' for Inactive)
ROOT
ATOM      1  O1  BZF d   1      -0.048   1.329   0.167  0.00  0.00    -0.204 OA
ATOM      2  C2  BZF d   1      -0.761   0.408   0.909  0.00  0.00     0.174 A 
ATOM      3  C3  BZF d   1      -0.346  -0.847   0.641  0.00  0.00    -0.012 A 
ATOM      4  C3A BZF d   1       0.754  -0.694  -0.262  0.00  0.00    -0.107 A 
ATOM      5  C4  BZF d   1       1.594  -1.578  -0.876  0.00  0.00     0.055 A 
ATOM      6  C5  BZF d   1       2.518  -1.110  -1.756  0.00  0.00    -0.016 A 
ATOM      7  C6  BZF d   1       2.627   0.234  -2.047  0.00  0.00     0.022 A 
ATOM      8  C7  BZF d   1       1.819   1.150  -1.458  0.00  0.00     0.029 A 
ATOM      9  C7A BZF d   1       0.906   0.683  -0.544  0.00  0.00     0.058 A 
ENDROOT
TORSDOF 0
ENDMDL
