MODEL 1
REMARK minimizedAffinity -0.852530181
REMARK minimizedRMSD -1
REMARK  0 active torsions:
REMARK  status: ('A' for Active; 'I' for Inactive)
ROOT
ATOM      1  O1  BZF d   1      -1.135  -1.413  -0.197  0.00  0.00    -0.204 OA
ATOM      2  C2  BZF d   1      -1.736  -0.564   0.712  0.00  0.00     0.174 A 
ATOM      3  C3  BZF d   1      -0.907   0.446   1.044  0.00  0.00    -0.012 A 
ATOM      4  C3A BZF d   1       0.253   0.266   0.226  0.00  0.00    -0.107 A 
ATOM      5  C4  BZF d   1       1.421   0.959   0.087  0.00  0.00     0.055 A 
ATOM      6  C5  BZF d   1       2.380   0.477  -0.746  0.00  0.00    -0.016 A 
ATOM      7  C6  BZF d   1       2.208  -0.697  -1.449  0.00  0.00     0.022 A 
ATOM      8  C7  BZF d   1       1.064  -1.417  -1.347  0.00  0.00     0.029 A 
ATOM      9  C7A BZF d   1       0.080  -0.915  -0.532  0.00  0.00     0.058 A 
ENDROOT
TORSDOF 0
ENDMDL
