MODEL 1
REMARK minimizedAffinity 1.26781368
REMARK minimizedRMSD -1
REMARK  0 active torsions:
REMARK  status: ('A' for Active; 'I' for Inactive)
ROOT
ATOM      1  O1  BZF d   1      -1.714  -0.191  -0.573  0.00  0.00    -0.204 OA
ATOM      2  C2  BZF d   1      -1.460  -1.404   0.037  0.00  0.00     0.174 A 
ATOM      3  C3  BZF d   1      -0.136  -1.582   0.218  0.00  0.00    -0.012 A 
ATOM      4  C3A BZF d   1       0.471  -0.366  -0.229  0.00  0.00    -0.107 A 
ATOM      5  C4  BZF d   1       1.763   0.073  -0.287  0.00  0.00     0.055 A 
ATOM      6  C5  BZF d   1       2.025   1.284  -0.847  0.00  0.00    -0.016 A 
ATOM      7  C6  BZF d   1       1.022   2.078  -1.362  0.00  0.00     0.022 A 
ATOM      8  C7  BZF d   1      -0.276   1.687  -1.323  0.00  0.00     0.029 A 
ATOM      9  C7A BZF d   1      -0.547   0.479  -0.728  0.00  0.00     0.058 A 
ENDROOT
TORSDOF 0
ENDMDL
