MODEL 1
REMARK minimizedAffinity -4.78814268
REMARK minimizedRMSD -1
REMARK  0 active torsions:
REMARK  status: ('A' for Active; 'I' for Inactive)
ROOT
ATOM      1  O1  BZF d   1      -0.530  -0.353  -0.564  0.00  0.00    -0.204 OA
ATOM      2  C2  BZF d   1      -0.236  -1.696  -0.424  0.00  0.00     0.174 A 
ATOM      3  C3  BZF d   1       1.033  -1.949  -0.801  0.00  0.00    -0.012 A 
ATOM      4  C3A BZF d   1       1.595  -0.671  -1.115  0.00  0.00    -0.107 A 
ATOM      5  C4  BZF d   1       2.830  -0.265  -1.535  0.00  0.00     0.055 A 
ATOM      6  C5  BZF d   1       3.032   1.047  -1.821  0.00  0.00    -0.016 A 
ATOM      7  C6  BZF d   1       2.022   1.980  -1.704  0.00  0.00     0.022 A 
ATOM      8  C7  BZF d   1       0.782   1.626  -1.287  0.00  0.00     0.029 A 
ATOM      9  C7A BZF d   1       0.584   0.306  -0.965  0.00  0.00     0.058 A 
ENDROOT
TORSDOF 0
ENDMDL
