MODEL 1
REMARK minimizedAffinity -1.87253392
REMARK minimizedRMSD -1
REMARK  0 active torsions:
REMARK  status: ('A' for Active; 'I' for Inactive)
ROOT
ATOM      1  C1  BNZ d   1       0.220  -2.606   1.353  0.00  0.00     0.000 A 
ATOM      2  C2  BNZ d   1       0.672  -3.647   0.587  0.00  0.00     0.000 A 
ATOM      3  C3  BNZ d   1       1.918  -3.615   0.026  0.00  0.00     0.000 A 
ATOM      4  C4  BNZ d   1       2.694  -2.526   0.198  0.00  0.00     0.000 A 
ATOM      5  C5  BNZ d   1       2.250  -1.464   0.960  0.00  0.00     0.000 A 
ATOM      6  C6  BNZ d   1       1.010  -1.516   1.555  0.00  0.00     0.000 A 
ENDROOT
TORSDOF 0
ENDMDL
