MODEL 1
REMARK minimizedAffinity -1.97345459
REMARK minimizedRMSD -1
REMARK  0 active torsions:
REMARK  status: ('A' for Active; 'I' for Inactive)
ROOT
ATOM      1  C1  BNZ d   1       2.453  -2.909   0.355  0.00  0.00     0.000 A 
ATOM      2  C2  BNZ d   1       2.479  -1.570   0.642  0.00  0.00     0.000 A 
ATOM      3  C3  BNZ d   1       1.344  -0.814   0.560  0.00  0.00     0.000 A 
ATOM      4  C4  BNZ d   1       0.193  -1.389   0.153  0.00  0.00     0.000 A 
ATOM      5  C5  BNZ d   1       0.153  -2.735  -0.149  0.00  0.00     0.000 A 
ATOM      6  C6  BNZ d   1       1.289  -3.501  -0.028  0.00  0.00     0.000 A 
ENDROOT
TORSDOF 0
ENDMDL
