MODEL 1
REMARK minimizedAffinity -2.30300522
REMARK minimizedRMSD -1
REMARK  0 active torsions:
REMARK  status: ('A' for Active; 'I' for Inactive)
ROOT
ATOM      1  C1  BNZ d   1       0.917  -0.774  -0.382  0.00  0.00     0.000 A 
ATOM      2  C2  BNZ d   1      -0.245  -1.220   0.189  0.00  0.00     0.000 A 
ATOM      3  C3  BNZ d   1      -0.492  -1.025   1.519  0.00  0.00     0.000 A 
ATOM      4  C4  BNZ d   1       0.438  -0.419   2.284  0.00  0.00     0.000 A 
ATOM      5  C5  BNZ d   1       1.619   0.029   1.725  0.00  0.00     0.000 A 
ATOM      6  C6  BNZ d   1       1.847  -0.135   0.378  0.00  0.00     0.000 A 
ENDROOT
TORSDOF 0
ENDMDL
