MODEL 1
REMARK minimizedAffinity -2.43927765
REMARK minimizedRMSD -1
REMARK  0 active torsions:
REMARK  status: ('A' for Active; 'I' for Inactive)
ROOT
ATOM      1  C1  BNZ d   1       0.199  -0.714   0.949  0.00  0.00     0.000 A 
ATOM      2  C2  BNZ d   1       1.504  -0.444   0.633  0.00  0.00     0.000 A 
ATOM      3  C3  BNZ d   1       2.320  -1.420   0.134  0.00  0.00     0.000 A 
ATOM      4  C4  BNZ d   1       1.843  -2.673  -0.011  0.00  0.00     0.000 A 
ATOM      5  C5  BNZ d   1       0.533  -2.964   0.312  0.00  0.00     0.000 A 
ATOM      6  C6  BNZ d   1      -0.297  -1.970   0.777  0.00  0.00     0.000 A 
ENDROOT
TORSDOF 0
ENDMDL
