MODEL 1
REMARK minimizedAffinity -2.27762794
REMARK minimizedRMSD -1
REMARK  0 active torsions:
REMARK  status: ('A' for Active; 'I' for Inactive)
ROOT
ATOM      1  C1  BNZ d   1      -0.442  -1.894   0.325  0.00  0.00     0.000 A 
ATOM      2  C2  BNZ d   1       0.173  -3.071  -0.010  0.00  0.00     0.000 A 
ATOM      3  C3  BNZ d   1       1.534  -3.185   0.026  0.00  0.00     0.000 A 
ATOM      4  C4  BNZ d   1       2.281  -2.112   0.358  0.00  0.00     0.000 A 
ATOM      5  C5  BNZ d   1       1.677  -0.915   0.688  0.00  0.00     0.000 A 
ATOM      6  C6  BNZ d   1       0.304  -0.815   0.689  0.00  0.00     0.000 A 
ENDROOT
TORSDOF 0
ENDMDL
