MODEL 1
REMARK minimizedAffinity -1.36908138
REMARK minimizedRMSD -1
REMARK  0 active torsions:
REMARK  status: ('A' for Active; 'I' for Inactive)
ROOT
ATOM      1  C1  BNZ d   1       2.477  -1.562   0.907  0.00  0.00     0.000 A 
ATOM      2  C2  BNZ d   1       1.588  -2.559   0.604  0.00  0.00     0.000 A 
ATOM      3  C3  BNZ d   1       0.241  -2.341   0.678  0.00  0.00     0.000 A 
ATOM      4  C4  BNZ d   1      -0.215  -1.142   1.094  0.00  0.00     0.000 A 
ATOM      5  C5  BNZ d   1       0.669  -0.130   1.412  0.00  0.00     0.000 A 
ATOM      6  C6  BNZ d   1       2.024  -0.341   1.299  0.00  0.00     0.000 A 
ENDROOT
TORSDOF 0
ENDMDL
