MODEL 1
REMARK minimizedAffinity 1.68825209
REMARK minimizedRMSD -1
REMARK  0 active torsions:
REMARK  status: ('A' for Active; 'I' for Inactive)
ROOT
ATOM      1  C1  BNZ d   1       3.017  -4.878   0.205  0.00  0.00     0.000 A 
ATOM      2  C2  BNZ d   1       3.784  -5.992   0.420  0.00  0.00     0.000 A 
ATOM      3  C3  BNZ d   1       5.117  -5.993   0.118  0.00  0.00     0.000 A 
ATOM      4  C4  BNZ d   1       5.672  -4.895  -0.435  0.00  0.00     0.000 A 
ATOM      5  C5  BNZ d   1       4.910  -3.768  -0.667  0.00  0.00     0.000 A 
ATOM      6  C6  BNZ d   1       3.577  -3.757  -0.325  0.00  0.00     0.000 A 
ENDROOT
TORSDOF 0
ENDMDL
