MODEL 1
REMARK minimizedAffinity -3.47354889
REMARK minimizedRMSD -1
REMARK  0 active torsions:
REMARK  status: ('A' for Active; 'I' for Inactive)
ROOT
ATOM      1  C1  BNZ d   1       1.568  -3.749   0.194  0.00  0.00     0.000 A 
ATOM      2  C2  BNZ d   1       0.497  -2.898   0.272  0.00  0.00     0.000 A 
ATOM      3  C3  BNZ d   1       0.680  -1.544   0.303  0.00  0.00     0.000 A 
ATOM      4  C4  BNZ d   1       1.932  -1.044   0.297  0.00  0.00     0.000 A 
ATOM      5  C5  BNZ d   1       3.022  -1.889   0.228  0.00  0.00     0.000 A 
ATOM      6  C6  BNZ d   1       2.833  -3.250   0.158  0.00  0.00     0.000 A 
ENDROOT
TORSDOF 0
ENDMDL
