MODEL 1
REMARK minimizedAffinity -4.32395267
REMARK minimizedRMSD -1
REMARK  0 active torsions:
REMARK  status: ('A' for Active; 'I' for Inactive)
ROOT
ATOM      1  C1  BNZ d   1       1.699  -2.297   0.146  0.00  0.00     0.000 A 
ATOM      2  C2  BNZ d   1       0.472  -2.713   0.588  0.00  0.00     0.000 A 
ATOM      3  C3  BNZ d   1      -0.420  -1.823   1.118  0.00  0.00     0.000 A 
ATOM      4  C4  BNZ d   1      -0.069  -0.527   1.241  0.00  0.00     0.000 A 
ATOM      5  C5  BNZ d   1       1.168  -0.093   0.809  0.00  0.00     0.000 A 
ATOM      6  C6  BNZ d   1       2.048  -0.985   0.240  0.00  0.00     0.000 A 
ENDROOT
TORSDOF 0
ENDMDL
