MODEL 1
REMARK minimizedAffinity -3.69310737
REMARK minimizedRMSD -1
REMARK  0 active torsions:
REMARK  status: ('A' for Active; 'I' for Inactive)
ROOT
ATOM      1  C1  BNZ d   1       2.815  -2.322   0.443  0.00  0.00     0.000 A 
ATOM      2  C2  BNZ d   1       2.044  -1.220   0.699  0.00  0.00     0.000 A 
ATOM      3  C3  BNZ d   1       0.681  -1.285   0.618  0.00  0.00     0.000 A 
ATOM      4  C4  BNZ d   1       0.093  -2.440   0.243  0.00  0.00     0.000 A 
ATOM      5  C5  BNZ d   1       0.858  -3.557  -0.028  0.00  0.00     0.000 A 
ATOM      6  C6  BNZ d   1       2.227  -3.498   0.092  0.00  0.00     0.000 A 
ENDROOT
TORSDOF 0
ENDMDL
