MODEL 1
REMARK minimizedAffinity -0.414762497
REMARK minimizedRMSD -1
REMARK  0 active torsions:
REMARK  status: ('A' for Active; 'I' for Inactive)
ROOT
ATOM      1  C1  BNZ d   1       3.206  -3.808  -0.196  0.00  0.00     0.000 A 
ATOM      2  C2  BNZ d   1       1.933  -4.310  -0.164  0.00  0.00     0.000 A 
ATOM      3  C3  BNZ d   1       0.864  -3.491   0.072  0.00  0.00     0.000 A 
ATOM      4  C4  BNZ d   1       1.073  -2.181   0.314  0.00  0.00     0.000 A 
ATOM      5  C5  BNZ d   1       2.352  -1.662   0.294  0.00  0.00     0.000 A 
ATOM      6  C6  BNZ d   1       3.422  -2.482   0.018  0.00  0.00     0.000 A 
ENDROOT
TORSDOF 0
ENDMDL
