MODEL 1
REMARK minimizedAffinity -2.47473574
REMARK minimizedRMSD -1
REMARK  0 active torsions:
REMARK  status: ('A' for Active; 'I' for Inactive)
ROOT
ATOM      1  C1  BNZ d   1       1.929  -1.170   0.255  0.00  0.00     0.000 A 
ATOM      2  C2  BNZ d   1       2.950  -2.044  -0.003  0.00  0.00     0.000 A 
ATOM      3  C3  BNZ d   1       2.718  -3.389  -0.078  0.00  0.00     0.000 A 
ATOM      4  C4  BNZ d   1       1.474  -3.861   0.145  0.00  0.00     0.000 A 
ATOM      5  C5  BNZ d   1       0.436  -2.993   0.416  0.00  0.00     0.000 A 
ATOM      6  C6  BNZ d   1       0.666  -1.636   0.452  0.00  0.00     0.000 A 
ENDROOT
TORSDOF 0
ENDMDL
