MODEL 1
REMARK minimizedAffinity 2.50177336
REMARK minimizedRMSD -1
REMARK  0 active torsions:
REMARK  status: ('A' for Active; 'I' for Inactive)
ROOT
ATOM      1  C1  BNZ d   1      -3.457   0.529   0.141  0.00  0.00     0.000 A 
ATOM      2  C2  BNZ d   1      -3.512   1.881  -0.070  0.00  0.00     0.000 A 
ATOM      3  C3  BNZ d   1      -2.743   2.736   0.669  0.00  0.00     0.000 A 
ATOM      4  C4  BNZ d   1      -1.951   2.243   1.643  0.00  0.00     0.000 A 
ATOM      5  C5  BNZ d   1      -1.892   0.883   1.874  0.00  0.00     0.000 A 
ATOM      6  C6  BNZ d   1      -2.638   0.022   1.103  0.00  0.00     0.000 A 
ENDROOT
TORSDOF 0
ENDMDL
