MODEL 1
REMARK minimizedAffinity -4.51882267
REMARK minimizedRMSD -1
REMARK  0 active torsions:
REMARK  status: ('A' for Active; 'I' for Inactive)
ROOT
ATOM      1  C1  BNZ d   1       1.824  -2.208   0.412  0.00  0.00     0.000 A 
ATOM      2  C2  BNZ d   1       1.230  -1.050   0.837  0.00  0.00     0.000 A 
ATOM      3  C3  BNZ d   1      -0.130  -0.955   0.935  0.00  0.00     0.000 A 
ATOM      4  C4  BNZ d   1      -0.895  -2.004   0.570  0.00  0.00     0.000 A 
ATOM      5  C5  BNZ d   1      -0.311  -3.176   0.131  0.00  0.00     0.000 A 
ATOM      6  C6  BNZ d   1       1.059  -3.280   0.071  0.00  0.00     0.000 A 
ENDROOT
TORSDOF 0
ENDMDL
