MODEL 1
REMARK minimizedAffinity -3.88777256
REMARK minimizedRMSD -1
REMARK  0 active torsions:
REMARK  status: ('A' for Active; 'I' for Inactive)
ROOT
ATOM      1  C1  BNZ d   1      -0.287  -0.650   1.237  0.00  0.00     0.000 A 
ATOM      2  C2  BNZ d   1      -0.875  -1.854   0.957  0.00  0.00     0.000 A 
ATOM      3  C3  BNZ d   1      -0.153  -2.874   0.404  0.00  0.00     0.000 A 
ATOM      4  C4  BNZ d   1       1.145  -2.676   0.095  0.00  0.00     0.000 A 
ATOM      5  C5  BNZ d   1       1.750  -1.465   0.362  0.00  0.00     0.000 A 
ATOM      6  C6  BNZ d   1       1.030  -0.453   0.955  0.00  0.00     0.000 A 
ENDROOT
TORSDOF 0
ENDMDL
