MODEL 1
REMARK minimizedAffinity 0.122622587
REMARK minimizedRMSD -1
REMARK  0 active torsions:
REMARK  status: ('A' for Active; 'I' for Inactive)
ROOT
ATOM      1  C1  BNZ d   1       1.760  -2.239   0.795  0.00  0.00     0.000 A 
ATOM      2  C2  BNZ d   1       1.564  -0.899   0.996  0.00  0.00     0.000 A 
ATOM      3  C3  BNZ d   1       0.316  -0.350   0.887  0.00  0.00     0.000 A 
ATOM      4  C4  BNZ d   1      -0.724  -1.134   0.537  0.00  0.00     0.000 A 
ATOM      5  C5  BNZ d   1      -0.541  -2.485   0.322  0.00  0.00     0.000 A 
ATOM      6  C6  BNZ d   1       0.709  -3.041   0.471  0.00  0.00     0.000 A 
ENDROOT
TORSDOF 0
ENDMDL
