MODEL 1
REMARK minimizedAffinity -1.63516521
REMARK minimizedRMSD -1
REMARK  3 active torsions:
REMARK  status: ('A' for Active; 'I' for Inactive)
REMARK    1  A    between atoms: C3'_2  and  C2'_3 
REMARK    2  A    between atoms: C2'_3  and  C1'_4 
REMARK    3  A    between atoms: C1'_4  and  C1_5 
ROOT
ATOM      1  C1  N4B d   1       2.047   0.562   2.065  0.00  0.00    -0.075 A 
ATOM      2  C2  N4B d   1       0.964  -0.248   1.661  0.00  0.00     0.002 A 
ATOM      3  C3  N4B d   1       0.021   0.248   0.795  0.00  0.00     0.002 A 
ATOM      4  C4  N4B d   1       0.130   1.553   0.337  0.00  0.00    -0.004 A 
ATOM      5  C5  N4B d   1       1.193   2.320   0.711  0.00  0.00     0.002 A 
ATOM      6  C6  N4B d   1       2.151   1.833   1.578  0.00  0.00     0.002 A 
ENDROOT
BRANCH   1   7
ATOM      7  C1' N4B d   1       3.056   0.092   3.077  0.00  0.00     0.057 C 
BRANCH   7   8
ATOM      8  C2' N4B d   1       2.505  -1.131   3.804  0.00  0.00     0.009 C 
BRANCH   8   9
ATOM      9  C3' N4B d   1       2.795  -1.086   5.294  0.00  0.00     0.004 C 
ATOM     10  C4' N4B d   1       3.598  -2.261   5.765  0.00  0.00     0.003 C 
ENDBRANCH   8   9
ENDBRANCH   7   8
ENDBRANCH   1   7
TORSDOF 3
ENDMDL
