MODEL 1
REMARK minimizedAffinity -1.06440949
REMARK minimizedRMSD -1
REMARK  0 active torsions:
REMARK  status: ('A' for Active; 'I' for Inactive)
ROOT
ATOM      1  C   UNL d   1       2.356  -2.317   0.840  0.00  0.00     0.078 C 
ATOM      2  C1  UNL d   1       1.181  -2.184   1.763  0.00  0.00    -0.077 A 
ATOM      3  C2  UNL d   1       0.462  -3.310   2.181  0.00  0.00    -0.001 A 
ATOM      4  C3  UNL d   1      -0.635  -3.171   3.033  0.00  0.00     0.003 A 
ATOM      5  C4  UNL d   1      -1.023  -1.907   3.473  0.00  0.00    -0.005 A 
ATOM      6  C5  UNL d   1      -0.315  -0.780   3.060  0.00  0.00     0.003 A 
ATOM      7  C6  UNL d   1       0.782  -0.918   2.209  0.00  0.00    -0.001 A 
ENDROOT
TORSDOF 0
ENDMDL
