MODEL 1
REMARK minimizedAffinity -1.31584823
REMARK minimizedRMSD -1
REMARK  0 active torsions:
REMARK  status: ('A' for Active; 'I' for Inactive)
ROOT
ATOM      1  C   UNL d   1       2.974  -4.068   2.377  0.00  0.00     0.078 C 
ATOM      2  C1  UNL d   1       1.684  -3.373   2.696  0.00  0.00    -0.077 A 
ATOM      3  C2  UNL d   1       1.589  -1.977   2.658  0.00  0.00    -0.001 A 
ATOM      4  C3  UNL d   1       0.384  -1.343   2.966  0.00  0.00     0.003 A 
ATOM      5  C4  UNL d   1      -0.734  -2.097   3.316  0.00  0.00    -0.005 A 
ATOM      6  C5  UNL d   1      -0.648  -3.487   3.358  0.00  0.00     0.003 A 
ATOM      7  C6  UNL d   1       0.556  -4.123   3.050  0.00  0.00    -0.001 A 
ENDROOT
TORSDOF 0
ENDMDL
