MODEL 1
REMARK minimizedAffinity 5.09794712
REMARK minimizedRMSD -1
REMARK  0 active torsions:
REMARK  status: ('A' for Active; 'I' for Inactive)
ROOT
ATOM      1  C   UNL d   1       2.749  -3.228   1.095  0.00  0.00     0.078 C 
ATOM      2  C1  UNL d   1       1.531  -2.767   1.838  0.00  0.00    -0.077 A 
ATOM      3  C2  UNL d   1       1.339  -1.413   2.138  0.00  0.00    -0.001 A 
ATOM      4  C3  UNL d   1       0.206  -0.999   2.840  0.00  0.00     0.003 A 
ATOM      5  C4  UNL d   1      -0.744  -1.933   3.248  0.00  0.00    -0.005 A 
ATOM      6  C5  UNL d   1      -0.560  -3.283   2.956  0.00  0.00     0.003 A 
ATOM      7  C6  UNL d   1       0.573  -3.699   2.255  0.00  0.00    -0.001 A 
ENDROOT
TORSDOF 0
ENDMDL
