MODEL 1
REMARK minimizedAffinity -0.106095172
REMARK minimizedRMSD -1
REMARK  0 active torsions:
REMARK  status: ('A' for Active; 'I' for Inactive)
ROOT
ATOM      1  C   UNL d   1      -0.591  -1.129   3.050  0.00  0.00     0.078 C 
ATOM      2  C1  UNL d   1       0.281  -2.231   2.525  0.00  0.00    -0.077 A 
ATOM      3  C2  UNL d   1      -0.132  -3.568   2.585  0.00  0.00    -0.001 A 
ATOM      4  C3  UNL d   1       0.694  -4.584   2.102  0.00  0.00     0.003 A 
ATOM      5  C4  UNL d   1       1.939  -4.273   1.556  0.00  0.00    -0.005 A 
ATOM      6  C5  UNL d   1       2.358  -2.946   1.494  0.00  0.00     0.003 A 
ATOM      7  C6  UNL d   1       1.534  -1.929   1.977  0.00  0.00    -0.001 A 
ENDROOT
TORSDOF 0
ENDMDL
