MODEL 1
REMARK minimizedAffinity 6.23910475
REMARK minimizedRMSD -1
REMARK  0 active torsions:
REMARK  status: ('A' for Active; 'I' for Inactive)
ROOT
ATOM      1  C   UNL d   1       5.918   2.090  -3.496  0.00  0.00     0.078 C 
ATOM      2  C1  UNL d   1       5.953   1.396  -2.167  0.00  0.00    -0.077 A 
ATOM      3  C2  UNL d   1       5.960  -0.002  -2.084  0.00  0.00    -0.001 A 
ATOM      4  C3  UNL d   1       5.984  -0.635  -0.840  0.00  0.00     0.003 A 
ATOM      5  C4  UNL d   1       6.000   0.122   0.330  0.00  0.00    -0.005 A 
ATOM      6  C5  UNL d   1       5.991   1.513   0.257  0.00  0.00     0.003 A 
ATOM      7  C6  UNL d   1       5.968   2.148  -0.986  0.00  0.00    -0.001 A 
ENDROOT
TORSDOF 0
ENDMDL
