MODEL 1
REMARK minimizedAffinity 6.67202997
REMARK minimizedRMSD -1
REMARK  0 active torsions:
REMARK  status: ('A' for Active; 'I' for Inactive)
ROOT
ATOM      1  C   UNL d   1       0.711   0.335  -3.210  0.00  0.00     0.078 C 
ATOM      2  C1  UNL d   1       0.670  -0.507  -1.969  0.00  0.00    -0.077 A 
ATOM      3  C2  UNL d   1      -0.536  -1.043  -1.501  0.00  0.00    -0.001 A 
ATOM      4  C3  UNL d   1      -0.560  -1.817  -0.339  0.00  0.00     0.003 A 
ATOM      5  C4  UNL d   1       0.618  -2.061   0.364  0.00  0.00    -0.005 A 
ATOM      6  C5  UNL d   1       1.822  -1.530  -0.093  0.00  0.00     0.003 A 
ATOM      7  C6  UNL d   1       1.849  -0.756  -1.255  0.00  0.00    -0.001 A 
ENDROOT
TORSDOF 0
ENDMDL
