MODEL 1
REMARK minimizedAffinity 9.4965992
REMARK minimizedRMSD -1
REMARK  0 active torsions:
REMARK  status: ('A' for Active; 'I' for Inactive)
ROOT
ATOM      1  C   UNL d   1       0.653  -5.270   0.309  0.00  0.00     0.078 C 
ATOM      2  C1  UNL d   1       1.098  -3.846   0.456  0.00  0.00    -0.077 A 
ATOM      3  C2  UNL d   1       2.140  -3.331  -0.325  0.00  0.00    -0.001 A 
ATOM      4  C3  UNL d   1       2.551  -2.006  -0.171  0.00  0.00     0.003 A 
ATOM      5  C4  UNL d   1       1.926  -1.185   0.765  0.00  0.00    -0.005 A 
ATOM      6  C5  UNL d   1       0.890  -1.688   1.549  0.00  0.00     0.003 A 
ATOM      7  C6  UNL d   1       0.478  -3.013   1.396  0.00  0.00    -0.001 A 
ENDROOT
TORSDOF 0
ENDMDL
