MODEL 1
REMARK minimizedAffinity 1.73744643
REMARK minimizedRMSD -1
REMARK  0 active torsions:
REMARK  status: ('A' for Active; 'I' for Inactive)
ROOT
ATOM      1  C   UNL d   1      -4.561   5.089  -4.219  0.00  0.00     0.078 C 
ATOM      2  C1  UNL d   1      -3.367   4.185  -4.140  0.00  0.00    -0.077 A 
ATOM      3  C2  UNL d   1      -3.348   3.089  -3.269  0.00  0.00    -0.001 A 
ATOM      4  C3  UNL d   1      -2.225   2.263  -3.200  0.00  0.00     0.003 A 
ATOM      5  C4  UNL d   1      -1.113   2.524  -3.997  0.00  0.00    -0.005 A 
ATOM      6  C5  UNL d   1      -1.122   3.614  -4.866  0.00  0.00     0.003 A 
ATOM      7  C6  UNL d   1      -2.244   4.442  -4.937  0.00  0.00    -0.001 A 
ENDROOT
TORSDOF 0
ENDMDL
