MODEL 1
REMARK minimizedAffinity 2.30325532
REMARK minimizedRMSD -1
REMARK  0 active torsions:
REMARK  status: ('A' for Active; 'I' for Inactive)
ROOT
ATOM      1  C   UNL d   1      -1.284   2.506  -3.060  0.00  0.00     0.078 C 
ATOM      2  C1  UNL d   1      -2.596   2.741  -3.748  0.00  0.00    -0.077 A 
ATOM      3  C2  UNL d   1      -3.336   3.905  -3.511  0.00  0.00    -0.001 A 
ATOM      4  C3  UNL d   1      -4.560   4.106  -4.151  0.00  0.00     0.003 A 
ATOM      5  C4  UNL d   1      -5.055   3.147  -5.032  0.00  0.00    -0.005 A 
ATOM      6  C5  UNL d   1      -4.326   1.984  -5.273  0.00  0.00     0.003 A 
ATOM      7  C6  UNL d   1      -3.102   1.781  -4.633  0.00  0.00    -0.001 A 
ENDROOT
TORSDOF 0
ENDMDL
