MODEL 1
REMARK minimizedAffinity 3.51852798
REMARK minimizedRMSD -1
REMARK  0 active torsions:
REMARK  status: ('A' for Active; 'I' for Inactive)
ROOT
ATOM      1  C   UNL d   1      -6.000   3.757  -5.988  0.00  0.00     0.078 C 
ATOM      2  C1  UNL d   1      -5.120   3.433  -4.819  0.00  0.00    -0.077 A 
ATOM      3  C2  UNL d   1      -4.496   4.447  -4.082  0.00  0.00    -0.001 A 
ATOM      4  C3  UNL d   1      -3.671   4.130  -3.002  0.00  0.00     0.003 A 
ATOM      5  C4  UNL d   1      -3.462   2.798  -2.648  0.00  0.00    -0.005 A 
ATOM      6  C5  UNL d   1      -4.076   1.782  -3.377  0.00  0.00     0.003 A 
ATOM      7  C6  UNL d   1      -4.901   2.097  -4.458  0.00  0.00    -0.001 A 
ENDROOT
TORSDOF 0
ENDMDL
