MODEL 1
REMARK minimizedAffinity 5.0662756
REMARK minimizedRMSD -1
REMARK  0 active torsions:
REMARK  status: ('A' for Active; 'I' for Inactive)
ROOT
ATOM      1  C   UNL d   1       1.614  -2.903  -0.157  0.00  0.00     0.078 C 
ATOM      2  C1  UNL d   1       1.164  -2.021   0.969  0.00  0.00    -0.077 A 
ATOM      3  C2  UNL d   1       2.088  -1.300   1.735  0.00  0.00    -0.001 A 
ATOM      4  C3  UNL d   1       1.656  -0.490   2.786  0.00  0.00     0.003 A 
ATOM      5  C4  UNL d   1       0.298  -0.395   3.083  0.00  0.00    -0.005 A 
ATOM      6  C5  UNL d   1      -0.630  -1.110   2.328  0.00  0.00     0.003 A 
ATOM      7  C6  UNL d   1      -0.199  -1.921   1.276  0.00  0.00    -0.001 A 
ENDROOT
TORSDOF 0
ENDMDL
