MODEL 1
REMARK minimizedAffinity -5.01867723
REMARK minimizedRMSD -1
REMARK  0 active torsions:
REMARK  status: ('A' for Active; 'I' for Inactive)
ROOT
ATOM      1  C1  BNZ d   1       0.589  -0.124   3.399  0.00  0.00     0.000 A 
ATOM      2  C2  BNZ d   1       0.124   0.440   4.557  0.00  0.00     0.000 A 
ATOM      3  C3  BNZ d   1      -1.008   1.206   4.557  0.00  0.00     0.000 A 
ATOM      4  C4  BNZ d   1      -1.650   1.441   3.394  0.00  0.00     0.000 A 
ATOM      5  C5  BNZ d   1      -1.188   0.887   2.217  0.00  0.00     0.000 A 
ATOM      6  C6  BNZ d   1      -0.071   0.084   2.227  0.00  0.00     0.000 A 
ENDROOT
TORSDOF 0
ENDMDL
