MODEL 1
REMARK minimizedAffinity 2.34491897
REMARK minimizedRMSD -1
REMARK  0 active torsions:
REMARK  status: ('A' for Active; 'I' for Inactive)
ROOT
ATOM      1  C1  BNZ d   1      -2.118  -0.010   2.082  0.00  0.00     0.000 A 
ATOM      2  C2  BNZ d   1      -2.000  -0.532   3.343  0.00  0.00     0.000 A 
ATOM      3  C3  BNZ d   1      -0.784  -0.932   3.823  0.00  0.00     0.000 A 
ATOM      4  C4  BNZ d   1       0.303  -0.846   3.030  0.00  0.00     0.000 A 
ATOM      5  C5  BNZ d   1       0.198  -0.330   1.754  0.00  0.00     0.000 A 
ATOM      6  C6  BNZ d   1      -1.020   0.107   1.287  0.00  0.00     0.000 A 
ENDROOT
TORSDOF 0
ENDMDL
