MODEL 1
REMARK minimizedAffinity 3.27075171
REMARK minimizedRMSD -1
REMARK  0 active torsions:
REMARK  status: ('A' for Active; 'I' for Inactive)
ROOT
ATOM      1  C1  BNZ d   1       2.960   4.370  -0.966  0.00  0.00     0.000 A 
ATOM      2  C2  BNZ d   1       3.067   3.052  -1.325  0.00  0.00     0.000 A 
ATOM      3  C3  BNZ d   1       3.084   2.068  -0.377  0.00  0.00     0.000 A 
ATOM      4  C4  BNZ d   1       3.036   2.403   0.928  0.00  0.00     0.000 A 
ATOM      5  C5  BNZ d   1       2.938   3.727   1.307  0.00  0.00     0.000 A 
ATOM      6  C6  BNZ d   1       2.882   4.713   0.349  0.00  0.00     0.000 A 
ENDROOT
TORSDOF 0
ENDMDL
