MODEL 1
REMARK minimizedAffinity -1.73777604
REMARK minimizedRMSD -1
REMARK  0 active torsions:
REMARK  status: ('A' for Active; 'I' for Inactive)
ROOT
ATOM      1  C1  BNZ d   1      -1.747   0.580   1.633  0.00  0.00     0.000 A 
ATOM      2  C2  BNZ d   1      -1.806  -0.031   2.857  0.00  0.00     0.000 A 
ATOM      3  C3  BNZ d   1      -0.709  -0.654   3.382  0.00  0.00     0.000 A 
ATOM      4  C4  BNZ d   1       0.433  -0.701   2.666  0.00  0.00     0.000 A 
ATOM      5  C5  BNZ d   1       0.506  -0.099   1.426  0.00  0.00     0.000 A 
ATOM      6  C6  BNZ d   1      -0.590   0.561   0.917  0.00  0.00     0.000 A 
ENDROOT
TORSDOF 0
ENDMDL
