MODEL 1
REMARK minimizedAffinity 2.38670373
REMARK minimizedRMSD -1
REMARK  0 active torsions:
REMARK  status: ('A' for Active; 'I' for Inactive)
ROOT
ATOM      1  C1  BNZ d   1      -1.836   0.389   1.856  0.00  0.00     0.000 A 
ATOM      2  C2  BNZ d   1      -0.698   0.265   1.103  0.00  0.00     0.000 A 
ATOM      3  C3  BNZ d   1      -0.760  -0.171  -0.191  0.00  0.00     0.000 A 
ATOM      4  C4  BNZ d   1      -1.951  -0.519  -0.717  0.00  0.00     0.000 A 
ATOM      5  C5  BNZ d   1      -3.106  -0.409   0.032  0.00  0.00     0.000 A 
ATOM      6  C6  BNZ d   1      -3.045   0.067   1.321  0.00  0.00     0.000 A 
ENDROOT
TORSDOF 0
ENDMDL
