MODEL 1
REMARK minimizedAffinity 3.82085156
REMARK minimizedRMSD -1
REMARK  0 active torsions:
REMARK  status: ('A' for Active; 'I' for Inactive)
ROOT
ATOM      1  C1  BNZ d   1      -0.682  -1.096   2.894  0.00  0.00     0.000 A 
ATOM      2  C2  BNZ d   1      -0.861   0.052   2.169  0.00  0.00     0.000 A 
ATOM      3  C3  BNZ d   1      -2.110   0.579   1.989  0.00  0.00     0.000 A 
ATOM      4  C4  BNZ d   1      -3.180  -0.063   2.500  0.00  0.00     0.000 A 
ATOM      5  C5  BNZ d   1      -3.017  -1.226   3.225  0.00  0.00     0.000 A 
ATOM      6  C6  BNZ d   1      -1.755  -1.733   3.438  0.00  0.00     0.000 A 
ENDROOT
TORSDOF 0
ENDMDL
