MODEL 1
REMARK minimizedAffinity 4.64677382
REMARK minimizedRMSD -1
REMARK  0 active torsions:
REMARK  status: ('A' for Active; 'I' for Inactive)
ROOT
ATOM      1  C1  BNZ d   1       1.493   5.998  -1.173  0.00  0.00     0.000 A 
ATOM      2  C2  BNZ d   1       0.128   5.998  -1.068  0.00  0.00     0.000 A 
ATOM      3  C3  BNZ d   1      -0.485   5.589   0.083  0.00  0.00     0.000 A 
ATOM      4  C4  BNZ d   1       0.265   5.145   1.112  0.00  0.00     0.000 A 
ATOM      5  C5  BNZ d   1       1.642   5.131   1.018  0.00  0.00     0.000 A 
ATOM      6  C6  BNZ d   1       2.257   5.579  -0.128  0.00  0.00     0.000 A 
ENDROOT
TORSDOF 0
ENDMDL
