MODEL 1
REMARK minimizedAffinity -2.46656823
REMARK minimizedRMSD -1
REMARK  0 active torsions:
REMARK  status: ('A' for Active; 'I' for Inactive)
ROOT
ATOM      1  C1  BNZ d   1       0.246  -0.179   1.749  0.00  0.00     0.000 A 
ATOM      2  C2  BNZ d   1      -0.883   0.437   1.278  0.00  0.00     0.000 A 
ATOM      3  C3  BNZ d   1      -2.059   0.365   1.970  0.00  0.00     0.000 A 
ATOM      4  C4  BNZ d   1      -2.115  -0.355   3.110  0.00  0.00     0.000 A 
ATOM      5  C5  BNZ d   1      -0.988  -0.989   3.593  0.00  0.00     0.000 A 
ATOM      6  C6  BNZ d   1       0.204  -0.882   2.914  0.00  0.00     0.000 A 
ENDROOT
TORSDOF 0
ENDMDL
