MODEL 1
REMARK minimizedAffinity 2.37299323
REMARK minimizedRMSD -1
REMARK  0 active torsions:
REMARK  status: ('A' for Active; 'I' for Inactive)
ROOT
ATOM      1  C1  BNZ d   1      -1.173   0.008   2.109  0.00  0.00     0.000 A 
ATOM      2  C2  BNZ d   1      -1.972   0.236   1.021  0.00  0.00     0.000 A 
ATOM      3  C3  BNZ d   1      -1.471   0.147  -0.247  0.00  0.00     0.000 A 
ATOM      4  C4  BNZ d   1      -0.163  -0.130  -0.425  0.00  0.00     0.000 A 
ATOM      5  C5  BNZ d   1       0.659  -0.353   0.662  0.00  0.00     0.000 A 
ATOM      6  C6  BNZ d   1       0.141  -0.301   1.936  0.00  0.00     0.000 A 
ENDROOT
TORSDOF 0
ENDMDL
