MODEL 1
REMARK minimizedAffinity -1.65470505
REMARK minimizedRMSD -1
REMARK  0 active torsions:
REMARK  status: ('A' for Active; 'I' for Inactive)
ROOT
ATOM      1  C1  BNZ d   1      -1.043  -0.405   3.118  0.00  0.00     0.000 A 
ATOM      2  C2  BNZ d   1      -2.335  -0.416   2.664  0.00  0.00     0.000 A 
ATOM      3  C3  BNZ d   1      -3.264  -1.252   3.218  0.00  0.00     0.000 A 
ATOM      4  C4  BNZ d   1      -2.890  -2.103   4.196  0.00  0.00     0.000 A 
ATOM      5  C5  BNZ d   1      -1.589  -2.110   4.657  0.00  0.00     0.000 A 
ATOM      6  C6  BNZ d   1      -0.666  -1.240   4.124  0.00  0.00     0.000 A 
ENDROOT
TORSDOF 0
ENDMDL
