MODEL 1
REMARK minimizedAffinity -2.11389399
REMARK minimizedRMSD -1
REMARK  0 active torsions:
REMARK  status: ('A' for Active; 'I' for Inactive)
ROOT
ATOM      1  C1  BNZ d   1      -2.267  -0.209  -0.099  0.00  0.00     0.000 A 
ATOM      2  C2  BNZ d   1      -2.707   0.180   1.138  0.00  0.00     0.000 A 
ATOM      3  C3  BNZ d   1      -1.867   0.165   2.217  0.00  0.00     0.000 A 
ATOM      4  C4  BNZ d   1      -0.601  -0.276   2.065  0.00  0.00     0.000 A 
ATOM      5  C5  BNZ d   1      -0.146  -0.680   0.826  0.00  0.00     0.000 A 
ATOM      6  C6  BNZ d   1      -0.983  -0.627  -0.265  0.00  0.00     0.000 A 
ENDROOT
TORSDOF 0
ENDMDL
