MODEL 1
REMARK minimizedAffinity -3.06249428
REMARK minimizedRMSD -1
REMARK  1 active torsions:
REMARK  status: ('A' for Active; 'I' for Inactive)
REMARK    1  A    between atoms: N_2  and  C1_3 
ROOT
ATOM      1  C1  UNL d   1       5.795  -4.442   3.588  0.00  0.00     0.143 A 
ATOM      2  C2  UNL d   1       5.969  -3.062   3.729  0.00  0.00    -0.057 A 
ATOM      3  C3  UNL d   1       5.650  -2.408   4.926  0.00  0.00     0.033 A 
ATOM      4  C4  UNL d   1       5.122  -3.123   5.996  0.00  0.00    -0.042 A 
ATOM      5  C5  UNL d   1       4.917  -4.492   5.870  0.00  0.00     0.033 A 
ATOM      6  C6  UNL d   1       5.244  -5.140   4.675  0.00  0.00    -0.057 A 
ENDROOT
BRANCH   1   7
ATOM      7  N   UNL d   1       6.000  -5.134   2.392  0.00  0.00    -0.732 N 
ATOM      8  C   UNL d   1       6.000  -4.433   1.126  0.00  0.00     0.284 C 
ATOM      9  H3  UNL d   1       6.723  -5.845   2.473  0.00  0.00     0.395 HD
ENDBRANCH   1   7
TORSDOF 1
ENDMDL
