MODEL 1
REMARK minimizedAffinity 2.06597853
REMARK minimizedRMSD -1
REMARK  1 active torsions:
REMARK  status: ('A' for Active; 'I' for Inactive)
REMARK    1  A    between atoms: N_2  and  C1_3 
ROOT
ATOM      1  C1  UNL d   1       5.602  -4.668   3.075  0.00  0.00     0.143 A 
ATOM      2  C2  UNL d   1       5.266  -3.486   3.743  0.00  0.00    -0.057 A 
ATOM      3  C3  UNL d   1       5.268  -2.252   3.081  0.00  0.00     0.033 A 
ATOM      4  C4  UNL d   1       5.637  -2.175   1.742  0.00  0.00    -0.042 A 
ATOM      5  C5  UNL d   1       5.999  -3.334   1.065  0.00  0.00     0.033 A 
ATOM      6  C6  UNL d   1       5.988  -4.564   1.730  0.00  0.00    -0.057 A 
ENDROOT
BRANCH   1   7
ATOM      7  N   UNL d   1       5.714  -5.911   3.703  0.00  0.00    -0.732 N 
ATOM      8  C   UNL d   1       5.979  -5.999   5.123  0.00  0.00     0.284 C 
ATOM      9  H3  UNL d   1       5.024  -6.579   3.367  0.00  0.00     0.395 HD
ENDBRANCH   1   7
TORSDOF 1
ENDMDL
