MODEL 1
REMARK minimizedAffinity -3.46747899
REMARK minimizedRMSD -1
REMARK  1 active torsions:
REMARK  status: ('A' for Active; 'I' for Inactive)
REMARK    1  A    between atoms: N_2  and  C1_3 
ROOT
ATOM      1  C1  UNL d   1       5.582  -4.322   4.208  0.00  0.00     0.143 A 
ATOM      2  C2  UNL d   1       5.807  -3.221   5.041  0.00  0.00    -0.057 A 
ATOM      3  C3  UNL d   1       6.000  -1.939   4.513  0.00  0.00     0.033 A 
ATOM      4  C4  UNL d   1       5.999  -1.739   3.136  0.00  0.00    -0.042 A 
ATOM      5  C5  UNL d   1       5.802  -2.824   2.288  0.00  0.00     0.033 A 
ATOM      6  C6  UNL d   1       5.603  -4.101   2.822  0.00  0.00    -0.057 A 
ENDROOT
BRANCH   1   7
ATOM      7  N   UNL d   1       5.481  -5.637   4.668  0.00  0.00    -0.732 N 
ATOM      8  C   UNL d   1       5.927  -5.989   5.999  0.00  0.00     0.284 C 
ATOM      9  H3  UNL d   1       4.608  -6.080   4.392  0.00  0.00     0.395 HD
ENDBRANCH   1   7
TORSDOF 1
ENDMDL
