MODEL 1
REMARK minimizedAffinity -3.58400965
REMARK minimizedRMSD -1
REMARK  1 active torsions:
REMARK  status: ('A' for Active; 'I' for Inactive)
REMARK    1  A    between atoms: N_2  and  C1_3 
ROOT
ATOM      1  C1  UNL d   1       5.881  -2.748   3.698  0.00  0.00     0.143 A 
ATOM      2  C2  UNL d   1       5.955  -1.960   2.545  0.00  0.00    -0.057 A 
ATOM      3  C3  UNL d   1       6.000  -2.538   1.271  0.00  0.00     0.033 A 
ATOM      4  C4  UNL d   1       6.000  -3.922   1.128  0.00  0.00    -0.042 A 
ATOM      5  C5  UNL d   1       5.952  -4.726   2.262  0.00  0.00     0.033 A 
ATOM      6  C6  UNL d   1       5.901  -4.142   3.531  0.00  0.00    -0.057 A 
ENDROOT
BRANCH   1   7
ATOM      7  N   UNL d   1       5.934  -2.235   4.996  0.00  0.00    -0.732 N 
ATOM      8  C   UNL d   1       4.956  -2.632   5.986  0.00  0.00     0.284 C 
ATOM      9  H3  UNL d   1       6.885  -2.175   5.352  0.00  0.00     0.395 HD
ENDBRANCH   1   7
TORSDOF 1
ENDMDL
