MODEL 1
REMARK minimizedAffinity -1.31790268
REMARK minimizedRMSD -1
REMARK  1 active torsions:
REMARK  status: ('A' for Active; 'I' for Inactive)
REMARK    1  A    between atoms: N_2  and  C1_3 
ROOT
ATOM      1  C1  UNL d   1       4.798  -4.852   4.043  0.00  0.00     0.143 A 
ATOM      2  C2  UNL d   1       5.393  -4.716   2.784  0.00  0.00    -0.057 A 
ATOM      3  C3  UNL d   1       5.999  -3.516   2.392  0.00  0.00     0.033 A 
ATOM      4  C4  UNL d   1       5.994  -2.417   3.245  0.00  0.00    -0.042 A 
ATOM      5  C5  UNL d   1       5.387  -2.521   4.491  0.00  0.00     0.033 A 
ATOM      6  C6  UNL d   1       4.790  -3.724   4.879  0.00  0.00    -0.057 A 
ENDROOT
BRANCH   1   7
ATOM      7  N   UNL d   1       4.094  -5.986   4.452  0.00  0.00    -0.732 N 
ATOM      8  C   UNL d   1       2.647  -5.990   4.468  0.00  0.00     0.284 C 
ATOM      9  H3  UNL d   1       4.508  -6.848   4.103  0.00  0.00     0.395 HD
ENDBRANCH   1   7
TORSDOF 1
ENDMDL
