MODEL 1
REMARK minimizedAffinity -3.50822353
REMARK minimizedRMSD -1
REMARK  1 active torsions:
REMARK  status: ('A' for Active; 'I' for Inactive)
REMARK    1  A    between atoms: N_2  and  C1_3 
ROOT
ATOM      1  C1  UNL d   1       4.848  -4.341   4.631  0.00  0.00     0.143 A 
ATOM      2  C2  UNL d   1       4.886  -2.957   4.833  0.00  0.00    -0.057 A 
ATOM      3  C3  UNL d   1       5.443  -2.098   3.877  0.00  0.00     0.033 A 
ATOM      4  C4  UNL d   1       6.000  -2.613   2.711  0.00  0.00    -0.042 A 
ATOM      5  C5  UNL d   1       5.996  -3.988   2.500  0.00  0.00     0.033 A 
ATOM      6  C6  UNL d   1       5.432  -4.839   3.455  0.00  0.00    -0.057 A 
ENDROOT
BRANCH   1   7
ATOM      7  N   UNL d   1       4.397  -5.255   5.586  0.00  0.00    -0.732 N 
ATOM      8  C   UNL d   1       3.009  -5.270   5.994  0.00  0.00     0.284 C 
ATOM      9  H3  UNL d   1       4.804  -6.179   5.462  0.00  0.00     0.395 HD
ENDBRANCH   1   7
TORSDOF 1
ENDMDL
