MODEL 1
REMARK minimizedAffinity -3.01243854
REMARK minimizedRMSD -1
REMARK  1 active torsions:
REMARK  status: ('A' for Active; 'I' for Inactive)
REMARK    1  A    between atoms: N_2  and  C1_3 
ROOT
ATOM      1  C1  UNL d   1       5.782  -3.789   4.322  0.00  0.00     0.143 A 
ATOM      2  C2  UNL d   1       5.763  -5.181   4.185  0.00  0.00    -0.057 A 
ATOM      3  C3  UNL d   1       5.868  -5.788   2.927  0.00  0.00     0.033 A 
ATOM      4  C4  UNL d   1       5.965  -5.009   1.778  0.00  0.00    -0.042 A 
ATOM      5  C5  UNL d   1       5.960  -3.623   1.889  0.00  0.00     0.033 A 
ATOM      6  C6  UNL d   1       5.861  -3.023   3.148  0.00  0.00    -0.057 A 
ENDROOT
BRANCH   1   7
ATOM      7  N   UNL d   1       5.582  -3.124   5.535  0.00  0.00    -0.732 N 
ATOM      8  C   UNL d   1       4.305  -2.516   5.840  0.00  0.00     0.284 C 
ATOM      9  H3  UNL d   1       6.009  -3.611   6.319  0.00  0.00     0.395 HD
ENDBRANCH   1   7
TORSDOF 1
ENDMDL
