MODEL 1
REMARK minimizedAffinity -1.27992702
REMARK minimizedRMSD -1
REMARK  1 active torsions:
REMARK  status: ('A' for Active; 'I' for Inactive)
REMARK    1  A    between atoms: N_2  and  C1_3 
ROOT
ATOM      1  C1  UNL d   1       5.899  -2.779   3.191  0.00  0.00     0.143 A 
ATOM      2  C2  UNL d   1       5.739  -1.708   4.077  0.00  0.00    -0.057 A 
ATOM      3  C3  UNL d   1       5.724  -1.908   5.462  0.00  0.00     0.033 A 
ATOM      4  C4  UNL d   1       5.839  -3.190   5.987  0.00  0.00    -0.042 A 
ATOM      5  C5  UNL d   1       5.973  -4.273   5.125  0.00  0.00     0.033 A 
ATOM      6  C6  UNL d   1       5.995  -4.066   3.742  0.00  0.00    -0.057 A 
ENDROOT
BRANCH   1   7
ATOM      7  N   UNL d   1       5.823  -2.657   1.801  0.00  0.00    -0.732 N 
ATOM      8  C   UNL d   1       5.994  -3.814   0.949  0.00  0.00     0.284 C 
ATOM      9  H3  UNL d   1       5.078  -2.030   1.506  0.00  0.00     0.395 HD
ENDBRANCH   1   7
TORSDOF 1
ENDMDL
