MODEL 1
REMARK minimizedAffinity -3.16971469
REMARK minimizedRMSD -1
REMARK  1 active torsions:
REMARK  status: ('A' for Active; 'I' for Inactive)
REMARK    1  A    between atoms: N_2  and  C1_3 
ROOT
ATOM      1  C1  UNL d   1       5.981  -4.247   3.452  0.00  0.00     0.143 A 
ATOM      2  C2  UNL d   1       5.904  -2.857   3.589  0.00  0.00    -0.057 A 
ATOM      3  C3  UNL d   1       5.820  -2.255   4.851  0.00  0.00     0.033 A 
ATOM      4  C4  UNL d   1       5.783  -3.038   6.000  0.00  0.00    -0.042 A 
ATOM      5  C5  UNL d   1       5.833  -4.422   5.886  0.00  0.00     0.033 A 
ATOM      6  C6  UNL d   1       5.924  -5.017   4.624  0.00  0.00    -0.057 A 
ENDROOT
BRANCH   1   7
ATOM      7  N   UNL d   1       5.967  -4.909   2.222  0.00  0.00    -0.732 N 
ATOM      8  C   UNL d   1       5.999  -4.163   0.983  0.00  0.00     0.284 C 
ATOM      9  H3  UNL d   1       6.554  -5.741   2.222  0.00  0.00     0.395 HD
ENDBRANCH   1   7
TORSDOF 1
ENDMDL
