MODEL 1
REMARK minimizedAffinity -2.69962692
REMARK minimizedRMSD -1
REMARK  1 active torsions:
REMARK  status: ('A' for Active; 'I' for Inactive)
REMARK    1  A    between atoms: N_2  and  C1_3 
ROOT
ATOM      1  C1  UNL d   1       5.920  -4.201   3.454  0.00  0.00     0.143 A 
ATOM      2  C2  UNL d   1       5.953  -4.900   4.665  0.00  0.00    -0.057 A 
ATOM      3  C3  UNL d   1       5.976  -4.227   5.892  0.00  0.00     0.033 A 
ATOM      4  C4  UNL d   1       5.998  -2.837   5.929  0.00  0.00    -0.042 A 
ATOM      5  C5  UNL d   1       5.991  -2.121   4.737  0.00  0.00     0.033 A 
ATOM      6  C6  UNL d   1       5.961  -2.799   3.515  0.00  0.00    -0.057 A 
ENDROOT
BRANCH   1   7
ATOM      7  N   UNL d   1       5.995  -4.813   2.200  0.00  0.00    -0.732 N 
ATOM      8  C   UNL d   1       5.614  -4.092   1.005  0.00  0.00     0.284 C 
ATOM      9  H3  UNL d   1       6.833  -5.380   2.094  0.00  0.00     0.395 HD
ENDBRANCH   1   7
TORSDOF 1
ENDMDL
