MODEL 1
REMARK minimizedAffinity -4.03241253
REMARK minimizedRMSD -1
REMARK  1 active torsions:
REMARK  status: ('A' for Active; 'I' for Inactive)
REMARK    1  A    between atoms: N_2  and  C1_3 
ROOT
ATOM      1  C1  UNL d   1       5.213  -4.616   4.022  0.00  0.00     0.143 A 
ATOM      2  C2  UNL d   1       5.221  -3.285   4.451  0.00  0.00    -0.057 A 
ATOM      3  C3  UNL d   1       5.585  -2.245   3.586  0.00  0.00     0.033 A 
ATOM      4  C4  UNL d   1       5.976  -2.524   2.281  0.00  0.00    -0.042 A 
ATOM      5  C5  UNL d   1       6.000  -3.842   1.840  0.00  0.00     0.033 A 
ATOM      6  C6  UNL d   1       5.629  -4.875   2.707  0.00  0.00    -0.057 A 
ENDROOT
BRANCH   1   7
ATOM      7  N   UNL d   1       4.957  -5.702   4.863  0.00  0.00    -0.732 N 
ATOM      8  C   UNL d   1       5.836  -5.999   5.973  0.00  0.00     0.284 C 
ATOM      9  H3  UNL d   1       3.968  -5.802   5.078  0.00  0.00     0.395 HD
ENDBRANCH   1   7
TORSDOF 1
ENDMDL
