MODEL 1
REMARK minimizedAffinity 0.352713138
REMARK minimizedRMSD -1
REMARK  0 active torsions:
REMARK  status: ('A' for Active; 'I' for Inactive)
ROOT
ATOM      1  O1  BZF d   1      -0.740   0.928   2.299  0.00  0.00    -0.204 OA
ATOM      2  C2  BZF d   1      -1.508   2.021   1.947  0.00  0.00     0.174 A 
ATOM      3  C3  BZF d   1      -1.506   2.196   0.610  0.00  0.00    -0.012 A 
ATOM      4  C3A BZF d   1      -0.761   1.092   0.087  0.00  0.00    -0.107 A 
ATOM      5  C4  BZF d   1      -0.423   0.702  -1.178  0.00  0.00     0.055 A 
ATOM      6  C5  BZF d   1       0.375  -0.385  -1.343  0.00  0.00    -0.016 A 
ATOM      7  C6  BZF d   1       0.858  -1.101  -0.267  0.00  0.00     0.022 A 
ATOM      8  C7  BZF d   1       0.547  -0.755   1.006  0.00  0.00     0.029 A 
ATOM      9  C7A BZF d   1      -0.287   0.323   1.175  0.00  0.00     0.058 A 
ENDROOT
TORSDOF 0
ENDMDL
