MODEL 1
REMARK minimizedAffinity -5.66717052
REMARK minimizedRMSD -1
REMARK  0 active torsions:
REMARK  status: ('A' for Active; 'I' for Inactive)
ROOT
ATOM      1  O1  BZF d   1       0.154   0.283  -0.859  0.00  0.00    -0.204 OA
ATOM      2  C2  BZF d   1      -0.103  -0.790  -0.027  0.00  0.00     0.174 A 
ATOM      3  C3  BZF d   1      -0.775  -0.393   1.072  0.00  0.00    -0.012 A 
ATOM      4  C3A BZF d   1      -1.030   1.001   0.875  0.00  0.00    -0.107 A 
ATOM      5  C4  BZF d   1      -1.674   1.952   1.613  0.00  0.00     0.055 A 
ATOM      6  C5  BZF d   1      -1.682   3.238   1.172  0.00  0.00    -0.016 A 
ATOM      7  C6  BZF d   1      -1.054   3.608   0.002  0.00  0.00     0.022 A 
ATOM      8  C7  BZF d   1      -0.407   2.699  -0.768  0.00  0.00     0.029 A 
ATOM      9  C7A BZF d   1      -0.424   1.393  -0.342  0.00  0.00     0.058 A 
ENDROOT
TORSDOF 0
ENDMDL
