MODEL 1
REMARK minimizedAffinity -3.46717095
REMARK minimizedRMSD -1
REMARK  0 active torsions:
REMARK  status: ('A' for Active; 'I' for Inactive)
ROOT
ATOM      1  O1  BZF d   1      -0.330   0.097  -1.635  0.00  0.00    -0.204 OA
ATOM      2  C2  BZF d   1       0.280   0.477  -0.455  0.00  0.00     0.174 A 
ATOM      3  C3  BZF d   1       1.005  -0.538   0.057  0.00  0.00    -0.012 A 
ATOM      4  C3A BZF d   1       0.912  -1.591  -0.907  0.00  0.00    -0.107 A 
ATOM      5  C4  BZF d   1       1.434  -2.851  -0.975  0.00  0.00     0.055 A 
ATOM      6  C5  BZF d   1       1.091  -3.653  -2.017  0.00  0.00    -0.016 A 
ATOM      7  C6  BZF d   1       0.227  -3.229  -3.006  0.00  0.00     0.022 A 
ATOM      8  C7  BZF d   1      -0.311  -1.985  -2.985  0.00  0.00     0.029 A 
ATOM      9  C7A BZF d   1       0.059  -1.161  -1.950  0.00  0.00     0.058 A 
ENDROOT
TORSDOF 0
ENDMDL
