MODEL 1
REMARK minimizedAffinity -3.52027917
REMARK minimizedRMSD -1
REMARK  0 active torsions:
REMARK  status: ('A' for Active; 'I' for Inactive)
ROOT
ATOM      1  O1  BZF d   1       0.628   0.551  -0.889  0.00  0.00    -0.204 OA
ATOM      2  C2  BZF d   1       0.795  -0.815  -1.014  0.00  0.00     0.174 A 
ATOM      3  C3  BZF d   1       0.202  -1.465   0.007  0.00  0.00    -0.012 A 
ATOM      4  C3A BZF d   1      -0.450  -0.448   0.773  0.00  0.00    -0.107 A 
ATOM      5  C4  BZF d   1      -1.219  -0.470   1.902  0.00  0.00     0.055 A 
ATOM      6  C5  BZF d   1      -1.642   0.706   2.436  0.00  0.00    -0.016 A 
ATOM      7  C6  BZF d   1      -1.311   1.921   1.871  0.00  0.00     0.022 A 
ATOM      8  C7  BZF d   1      -0.554   1.993   0.749  0.00  0.00     0.029 A 
ATOM      9  C7A BZF d   1      -0.153   0.805   0.188  0.00  0.00     0.058 A 
ENDROOT
TORSDOF 0
ENDMDL
