MODEL 1
REMARK minimizedAffinity -4.75484467
REMARK minimizedRMSD -1
REMARK  0 active torsions:
REMARK  status: ('A' for Active; 'I' for Inactive)
ROOT
ATOM      1  O1  BZF d   1       0.712   1.098  -1.127  0.00  0.00    -0.204 OA
ATOM      2  C2  BZF d   1       1.414  -0.091  -1.081  0.00  0.00     0.174 A 
ATOM      3  C3  BZF d   1       0.995  -0.855  -0.051  0.00  0.00    -0.012 A 
ATOM      4  C3A BZF d   1      -0.096  -0.135   0.532  0.00  0.00    -0.107 A 
ATOM      5  C4  BZF d   1      -0.934  -0.387   1.580  0.00  0.00     0.055 A 
ATOM      6  C5  BZF d   1      -1.848   0.554   1.936  0.00  0.00    -0.016 A 
ATOM      7  C6  BZF d   1      -1.947   1.759   1.271  0.00  0.00     0.022 A 
ATOM      8  C7  BZF d   1      -1.140   2.052   0.222  0.00  0.00     0.029 A 
ATOM      9  C7A BZF d   1      -0.238   1.090  -0.162  0.00  0.00     0.058 A 
ENDROOT
TORSDOF 0
ENDMDL
