MODEL 1
REMARK minimizedAffinity -1.45018685
REMARK minimizedRMSD -1
REMARK  0 active torsions:
REMARK  status: ('A' for Active; 'I' for Inactive)
ROOT
ATOM      1  O1  BZF d   1      -0.688   2.179   0.799  0.00  0.00    -0.204 OA
ATOM      2  C2  BZF d   1      -1.316   1.455   1.793  0.00  0.00     0.174 A 
ATOM      3  C3  BZF d   1      -1.112   0.132   1.623  0.00  0.00    -0.012 A 
ATOM      4  C3A BZF d   1      -0.229   0.029   0.502  0.00  0.00    -0.107 A 
ATOM      5  C4  BZF d   1       0.351  -1.027  -0.142  0.00  0.00     0.055 A 
ATOM      6  C5  BZF d   1       1.103  -0.792  -1.249  0.00  0.00    -0.016 A 
ATOM      7  C6  BZF d   1       1.292   0.482  -1.742  0.00  0.00     0.022 A 
ATOM      8  C7  BZF d   1       0.742   1.561  -1.134  0.00  0.00     0.029 A 
ATOM      9  C7A BZF d   1       0.008   1.331   0.004  0.00  0.00     0.058 A 
ENDROOT
TORSDOF 0
ENDMDL
