MODEL 1
REMARK minimizedAffinity -4.64375544
REMARK minimizedRMSD -1
REMARK  0 active torsions:
REMARK  status: ('A' for Active; 'I' for Inactive)
ROOT
ATOM      1  O1  BZF d   1       2.563  -0.732  -2.463  0.00  0.00    -0.204 OA
ATOM      2  C2  BZF d   1       2.526  -0.650  -1.085  0.00  0.00     0.174 A 
ATOM      3  C3  BZF d   1       1.581  -1.471  -0.582  0.00  0.00    -0.012 A 
ATOM      4  C3A BZF d   1       1.054  -2.174  -1.712  0.00  0.00    -0.107 A 
ATOM      5  C4  BZF d   1       0.098  -3.139  -1.855  0.00  0.00     0.055 A 
ATOM      6  C5  BZF d   1      -0.232  -3.562  -3.104  0.00  0.00    -0.016 A 
ATOM      7  C6  BZF d   1       0.370  -3.039  -4.230  0.00  0.00     0.022 A 
ATOM      8  C7  BZF d   1       1.327  -2.084  -4.138  0.00  0.00     0.029 A 
ATOM      9  C7A BZF d   1       1.686  -1.678  -2.876  0.00  0.00     0.058 A 
ENDROOT
TORSDOF 0
ENDMDL
