MODEL 1
REMARK minimizedAffinity -4.8054862
REMARK minimizedRMSD -1
REMARK  0 active torsions:
REMARK  status: ('A' for Active; 'I' for Inactive)
ROOT
ATOM      1  O1  BZF d   1       0.745  -0.810   0.360  0.00  0.00    -0.204 OA
ATOM      2  C2  BZF d   1       0.889  -0.449  -0.966  0.00  0.00     0.174 A 
ATOM      3  C3  BZF d   1      -0.013   0.495  -1.305  0.00  0.00    -0.012 A 
ATOM      4  C3A BZF d   1      -0.707   0.804  -0.093  0.00  0.00    -0.107 A 
ATOM      5  C4  BZF d   1      -1.710   1.678   0.218  0.00  0.00     0.055 A 
ATOM      6  C5  BZF d   1      -2.213   1.684   1.480  0.00  0.00    -0.016 A 
ATOM      7  C6  BZF d   1      -1.743   0.826   2.453  0.00  0.00     0.022 A 
ATOM      8  C7  BZF d   1      -0.747  -0.055   2.194  0.00  0.00     0.029 A 
ATOM      9  C7A BZF d   1      -0.213  -0.040   0.928  0.00  0.00     0.058 A 
ENDROOT
TORSDOF 0
ENDMDL
