MODEL 1
REMARK minimizedAffinity -4.3343215
REMARK minimizedRMSD -1
REMARK  0 active torsions:
REMARK  status: ('A' for Active; 'I' for Inactive)
ROOT
ATOM      1  O1  BZF d   1      -0.408   0.378  -1.280  0.00  0.00    -0.204 OA
ATOM      2  C2  BZF d   1       0.262  -0.817  -1.107  0.00  0.00     0.174 A 
ATOM      3  C3  BZF d   1       0.418  -1.093   0.204  0.00  0.00    -0.012 A 
ATOM      4  C3A BZF d   1      -0.275  -0.047   0.893  0.00  0.00    -0.107 A 
ATOM      5  C4  BZF d   1      -0.492   0.223   2.214  0.00  0.00     0.055 A 
ATOM      6  C5  BZF d   1      -1.145   1.365   2.556  0.00  0.00    -0.016 A 
ATOM      7  C6  BZF d   1      -1.590   2.259   1.605  0.00  0.00     0.022 A 
ATOM      8  C7  BZF d   1      -1.402   2.032   0.282  0.00  0.00     0.029 A 
ATOM      9  C7A BZF d   1      -0.771   0.863  -0.068  0.00  0.00     0.058 A 
ENDROOT
TORSDOF 0
ENDMDL
