MODEL 1
REMARK minimizedAffinity -3.72260642
REMARK minimizedRMSD -1
REMARK  0 active torsions:
REMARK  status: ('A' for Active; 'I' for Inactive)
ROOT
ATOM      1  O1  BZF d   1      -0.977   1.143   2.071  0.00  0.00    -0.204 OA
ATOM      2  C2  BZF d   1      -1.627   2.154   1.390  0.00  0.00     0.174 A 
ATOM      3  C3  BZF d   1      -1.374   2.079   0.067  0.00  0.00    -0.012 A 
ATOM      4  C3A BZF d   1      -0.586   0.896  -0.099  0.00  0.00    -0.107 A 
ATOM      5  C4  BZF d   1      -0.037   0.279  -1.186  0.00  0.00     0.055 A 
ATOM      6  C5  BZF d   1       0.738  -0.821  -1.000  0.00  0.00    -0.016 A 
ATOM      7  C6  BZF d   1       0.989  -1.328   0.259  0.00  0.00     0.022 A 
ATOM      8  C7  BZF d   1       0.463  -0.752   1.367  0.00  0.00     0.029 A 
ATOM      9  C7A BZF d   1      -0.348   0.340   1.179  0.00  0.00     0.058 A 
ENDROOT
TORSDOF 0
ENDMDL
