MODEL 1
REMARK minimizedAffinity -0.234229475
REMARK minimizedRMSD -1
REMARK  0 active torsions:
REMARK  status: ('A' for Active; 'I' for Inactive)
ROOT
ATOM      1  O1  BZF d   1       0.753   0.249  -1.416  0.00  0.00    -0.204 OA
ATOM      2  C2  BZF d   1       1.199  -1.051  -1.278  0.00  0.00     0.174 A 
ATOM      3  C3  BZF d   1       0.816  -1.565  -0.092  0.00  0.00    -0.012 A 
ATOM      4  C3A BZF d   1       0.006  -0.552   0.513  0.00  0.00    -0.107 A 
ATOM      5  C4  BZF d   1      -0.677  -0.476   1.694  0.00  0.00     0.055 A 
ATOM      6  C5  BZF d   1      -1.310   0.682   2.018  0.00  0.00    -0.016 A 
ATOM      7  C6  BZF d   1      -1.276   1.784   1.189  0.00  0.00     0.022 A 
ATOM      8  C7  BZF d   1      -0.616   1.755   0.005  0.00  0.00     0.029 A 
ATOM      9  C7A BZF d   1      -0.004   0.575  -0.340  0.00  0.00     0.058 A 
ENDROOT
TORSDOF 0
ENDMDL
