MODEL 1
REMARK minimizedAffinity -5.09470606
REMARK minimizedRMSD -1
REMARK  0 active torsions:
REMARK  status: ('A' for Active; 'I' for Inactive)
ROOT
ATOM      1  O1  BZF d   1      -0.798   1.962   0.343  0.00  0.00    -0.204 OA
ATOM      2  C2  BZF d   1      -1.608   1.995   1.463  0.00  0.00     0.174 A 
ATOM      3  C3  BZF d   1      -1.603   0.802   2.091  0.00  0.00    -0.012 A 
ATOM      4  C3A BZF d   1      -0.664  -0.001   1.369  0.00  0.00    -0.107 A 
ATOM      5  C4  BZF d   1      -0.212  -1.280   1.519  0.00  0.00     0.055 A 
ATOM      6  C5  BZF d   1       0.651  -1.788   0.600  0.00  0.00    -0.016 A 
ATOM      7  C6  BZF d   1       1.077  -1.047  -0.483  0.00  0.00     0.022 A 
ATOM      8  C7  BZF d   1       0.659   0.229  -0.672  0.00  0.00     0.029 A 
ATOM      9  C7A BZF d   1      -0.187   0.755   0.273  0.00  0.00     0.058 A 
ENDROOT
TORSDOF 0
ENDMDL
