MODEL 1
REMARK minimizedAffinity -1.88325918
REMARK minimizedRMSD -1
REMARK  0 active torsions:
REMARK  status: ('A' for Active; 'I' for Inactive)
ROOT
ATOM      1  O1  BZF d   1      -1.876   1.762  -0.067  0.00  0.00    -0.204 OA
ATOM      2  C2  BZF d   1      -2.260   1.988   1.241  0.00  0.00     0.174 A 
ATOM      3  C3  BZF d   1      -1.583   1.182   2.084  0.00  0.00    -0.012 A 
ATOM      4  C3A BZF d   1      -0.656   0.468   1.260  0.00  0.00    -0.107 A 
ATOM      5  C4  BZF d   1       0.302  -0.469   1.519  0.00  0.00     0.055 A 
ATOM      6  C5  BZF d   1       0.985  -1.020   0.482  0.00  0.00    -0.016 A 
ATOM      7  C6  BZF d   1       0.732  -0.661  -0.826  0.00  0.00     0.022 A 
ATOM      8  C7  BZF d   1      -0.206   0.267  -1.133  0.00  0.00     0.029 A 
ATOM      9  C7A BZF d   1      -0.875   0.850  -0.084  0.00  0.00     0.058 A 
ENDROOT
TORSDOF 0
ENDMDL
