MODEL 1
REMARK minimizedAffinity -5.30965948
REMARK minimizedRMSD -1
REMARK  0 active torsions:
REMARK  status: ('A' for Active; 'I' for Inactive)
ROOT
ATOM      1  O1  BZF d   1       0.481   0.531  -1.363  0.00  0.00    -0.204 OA
ATOM      2  C2  BZF d   1       1.084  -0.688  -1.122  0.00  0.00     0.174 A 
ATOM      3  C3  BZF d   1       0.713  -1.176   0.080  0.00  0.00    -0.012 A 
ATOM      4  C3A BZF d   1      -0.249  -0.245   0.583  0.00  0.00    -0.107 A 
ATOM      5  C4  BZF d   1      -0.992  -0.189   1.728  0.00  0.00     0.055 A 
ATOM      6  C5  BZF d   1      -1.784   0.893   1.949  0.00  0.00    -0.016 A 
ATOM      7  C6  BZF d   1      -1.853   1.938   1.051  0.00  0.00     0.022 A 
ATOM      8  C7  BZF d   1      -1.138   1.925  -0.100  0.00  0.00     0.029 A 
ATOM      9  C7A BZF d   1      -0.362   0.818  -0.342  0.00  0.00     0.058 A 
ENDROOT
TORSDOF 0
ENDMDL
