MODEL 1
REMARK minimizedAffinity -5.34836149
REMARK minimizedRMSD -1
REMARK  0 active torsions:
REMARK  status: ('A' for Active; 'I' for Inactive)
ROOT
ATOM      1  O1  BZF d   1       0.725   1.429  -1.049  0.00  0.00    -0.204 OA
ATOM      2  C2  BZF d   1       1.474   0.281  -0.876  0.00  0.00     0.174 A 
ATOM      3  C3  BZF d   1       1.023  -0.430   0.178  0.00  0.00    -0.012 A 
ATOM      4  C3A BZF d   1      -0.134   0.274   0.640  0.00  0.00    -0.107 A 
ATOM      5  C4  BZF d   1      -1.026   0.054   1.649  0.00  0.00     0.055 A 
ATOM      6  C5  BZF d   1      -2.001   0.971   1.881  0.00  0.00    -0.016 A 
ATOM      7  C6  BZF d   1      -2.110   2.122   1.127  0.00  0.00     0.022 A 
ATOM      8  C7  BZF d   1      -1.251   2.382   0.112  0.00  0.00     0.029 A 
ATOM      9  C7A BZF d   1      -0.285   1.440  -0.146  0.00  0.00     0.058 A 
ENDROOT
TORSDOF 0
ENDMDL
