MODEL 1
REMARK minimizedAffinity -2.8259728
REMARK minimizedRMSD -1
REMARK  0 active torsions:
REMARK  status: ('A' for Active; 'I' for Inactive)
ROOT
ATOM      1  O1  BZF d   1      -1.487   1.342   2.411  0.00  0.00    -0.204 OA
ATOM      2  C2  BZF d   1      -2.182   2.367   1.800  0.00  0.00     0.174 A 
ATOM      3  C3  BZF d   1      -1.851   2.459   0.496  0.00  0.00    -0.012 A 
ATOM      4  C3A BZF d   1      -0.957   1.368   0.256  0.00  0.00    -0.107 A 
ATOM      5  C4  BZF d   1      -0.299   0.920  -0.853  0.00  0.00     0.055 A 
ATOM      6  C5  BZF d   1       0.557  -0.129  -0.734  0.00  0.00    -0.016 A 
ATOM      7  C6  BZF d   1       0.781  -0.750   0.477  0.00  0.00     0.022 A 
ATOM      8  C7  BZF d   1       0.147  -0.344   1.604  0.00  0.00     0.029 A 
ATOM      9  C7A BZF d   1      -0.743   0.695   1.481  0.00  0.00     0.058 A 
ENDROOT
TORSDOF 0
ENDMDL
