MODEL 1
REMARK minimizedAffinity -4.68311977
REMARK minimizedRMSD -1
REMARK  0 active torsions:
REMARK  status: ('A' for Active; 'I' for Inactive)
ROOT
ATOM      1  O1  BZF d   1       0.145  -0.020  -1.032  0.00  0.00    -0.204 OA
ATOM      2  C2  BZF d   1       0.614  -1.042  -0.229  0.00  0.00     0.174 A 
ATOM      3  C3  BZF d   1       0.242  -0.852   1.054  0.00  0.00    -0.012 A 
ATOM      4  C3A BZF d   1      -0.584   0.316   1.037  0.00  0.00    -0.107 A 
ATOM      5  C4  BZF d   1      -1.266   0.998   2.004  0.00  0.00     0.055 A 
ATOM      6  C5  BZF d   1      -1.918   2.143   1.669  0.00  0.00    -0.016 A 
ATOM      7  C6  BZF d   1      -1.905   2.636   0.381  0.00  0.00     0.022 A 
ATOM      8  C7  BZF d   1      -1.247   1.992  -0.613  0.00  0.00     0.029 A 
ATOM      9  C7A BZF d   1      -0.615   0.817  -0.285  0.00  0.00     0.058 A 
ENDROOT
TORSDOF 0
ENDMDL
