MODEL 1
REMARK minimizedAffinity 6.38715601
REMARK minimizedRMSD -1
REMARK  0 active torsions:
REMARK  status: ('A' for Active; 'I' for Inactive)
ROOT
ATOM      1  C   UNL d   1       3.290  -1.327   2.895  0.00  0.00     0.124 A 
ATOM      2  C1  UNL d   1       1.965  -1.696   3.082  0.00  0.00     0.062 A 
ATOM      3  C2  UNL d   1       1.655  -2.897   3.714  0.00  0.00     0.162 A 
ATOM      4  C3  UNL d   1       2.673  -3.737   4.166  0.00  0.00    -0.034 A 
ATOM      5  C4  UNL d   1       4.003  -3.360   3.974  0.00  0.00     0.162 A 
ATOM      6  C5  UNL d   1       4.308  -2.159   3.341  0.00  0.00     0.062 A 
ATOM      7  F   UNL d   1       5.588  -1.804   3.161  0.00  0.00    -0.097 F 
ATOM      8  F1  UNL d   1       5.006  -4.144   4.396  0.00  0.00    -0.096 F 
ATOM      9  I   UNL d   1       2.214  -5.533   5.113  0.00  0.00    -0.060 I 
ATOM     10  F2  UNL d   1       0.366  -3.228   3.881  0.00  0.00    -0.096 F 
ATOM     11  F3  UNL d   1       0.981  -0.895   2.651  0.00  0.00    -0.097 F 
ATOM     12  F4  UNL d   1       3.586  -0.172   2.285  0.00  0.00    -0.092 F 
ENDROOT
TORSDOF 0
ENDMDL
