MODEL 1
REMARK minimizedAffinity 16.013361
REMARK minimizedRMSD -1
REMARK  0 active torsions:
REMARK  status: ('A' for Active; 'I' for Inactive)
ROOT
ATOM      1  C   UNL d   1       2.839  -2.129   3.273  0.00  0.00     0.124 A 
ATOM      2  C1  UNL d   1       1.509  -2.324   2.928  0.00  0.00     0.062 A 
ATOM      3  C2  UNL d   1       0.808  -3.418   3.428  0.00  0.00     0.162 A 
ATOM      4  C3  UNL d   1       1.437  -4.326   4.280  0.00  0.00    -0.034 A 
ATOM      5  C4  UNL d   1       2.775  -4.124   4.622  0.00  0.00     0.162 A 
ATOM      6  C5  UNL d   1       3.471  -3.029   4.120  0.00  0.00     0.062 A 
ATOM      7  F   UNL d   1       4.756  -2.843   4.454  0.00  0.00    -0.097 F 
ATOM      8  F1  UNL d   1       3.410  -4.978   5.439  0.00  0.00    -0.096 F 
ATOM      9  I   UNL d   1       0.393  -5.963   5.030  0.00  0.00    -0.060 I 
ATOM     10  F2  UNL d   1      -0.476  -3.581   3.078  0.00  0.00    -0.096 F 
ATOM     11  F3  UNL d   1       0.896  -1.456   2.109  0.00  0.00    -0.097 F 
ATOM     12  F4  UNL d   1       3.510  -1.076   2.790  0.00  0.00    -0.092 F 
ENDROOT
TORSDOF 0
ENDMDL
