MODEL 1
REMARK minimizedAffinity 16.8944778
REMARK minimizedRMSD -1
REMARK  0 active torsions:
REMARK  status: ('A' for Active; 'I' for Inactive)
ROOT
ATOM      1  C   UNL d   1       3.071   2.389   1.792  0.00  0.00     0.124 A 
ATOM      2  C1  UNL d   1       2.503   2.011   3.001  0.00  0.00     0.062 A 
ATOM      3  C2  UNL d   1       1.976   0.732   3.156  0.00  0.00     0.162 A 
ATOM      4  C3  UNL d   1       2.015  -0.179   2.101  0.00  0.00    -0.034 A 
ATOM      5  C4  UNL d   1       2.587   0.209   0.888  0.00  0.00     0.162 A 
ATOM      6  C5  UNL d   1       3.113   1.489   0.737  0.00  0.00     0.062 A 
ATOM      7  F   UNL d   1       3.661   1.852  -0.431  0.00  0.00    -0.097 F 
ATOM      8  F1  UNL d   1       2.641  -0.641  -0.148  0.00  0.00    -0.096 F 
ATOM      9  I   UNL d   1       1.228  -2.091   2.330  0.00  0.00    -0.060 I 
ATOM     10  F2  UNL d   1       1.433   0.394   4.336  0.00  0.00    -0.096 F 
ATOM     11  F3  UNL d   1       2.461   2.880   4.021  0.00  0.00    -0.097 F 
ATOM     12  F4  UNL d   1       3.577   3.621   1.644  0.00  0.00    -0.092 F 
ENDROOT
TORSDOF 0
ENDMDL
