MODEL 1
REMARK minimizedAffinity 24.305439
REMARK minimizedRMSD -1
REMARK  0 active torsions:
REMARK  status: ('A' for Active; 'I' for Inactive)
ROOT
ATOM      1  C   UNL d   1      -2.646   0.546  -0.719  0.00  0.00     0.124 A 
ATOM      2  C1  UNL d   1      -3.608   1.434  -0.258  0.00  0.00     0.062 A 
ATOM      3  C2  UNL d   1      -4.443   2.090  -1.158  0.00  0.00     0.162 A 
ATOM      4  C3  UNL d   1      -4.321   1.860  -2.528  0.00  0.00    -0.034 A 
ATOM      5  C4  UNL d   1      -3.350   0.967  -2.984  0.00  0.00     0.162 A 
ATOM      6  C5  UNL d   1      -2.518   0.313  -2.081  0.00  0.00     0.062 A 
ATOM      7  F   UNL d   1      -1.589  -0.544  -2.528  0.00  0.00    -0.097 F 
ATOM      8  F1  UNL d   1      -3.205   0.722  -4.295  0.00  0.00    -0.096 F 
ATOM      9  I   UNL d   1      -5.567   2.840  -3.877  0.00  0.00    -0.060 I 
ATOM     10  F2  UNL d   1      -5.364   2.942  -0.684  0.00  0.00    -0.096 F 
ATOM     11  F3  UNL d   1      -3.734   1.661   1.057  0.00  0.00    -0.097 F 
ATOM     12  F4  UNL d   1      -1.843  -0.084   0.148  0.00  0.00    -0.092 F 
ENDROOT
TORSDOF 0
ENDMDL
