MODEL 1
REMARK minimizedAffinity 12.4573793
REMARK minimizedRMSD -1
REMARK  0 active torsions:
REMARK  status: ('A' for Active; 'I' for Inactive)
ROOT
ATOM      1  C   UNL d   1      -3.894  -1.743  -2.159  0.00  0.00     0.124 A 
ATOM      2  C1  UNL d   1      -2.825  -0.915  -2.471  0.00  0.00     0.062 A 
ATOM      3  C2  UNL d   1      -1.569  -1.155  -1.921  0.00  0.00     0.162 A 
ATOM      4  C3  UNL d   1      -1.375  -2.230  -1.054  0.00  0.00    -0.034 A 
ATOM      5  C4  UNL d   1      -2.456  -3.058  -0.744  0.00  0.00     0.162 A 
ATOM      6  C5  UNL d   1      -3.709  -2.814  -1.296  0.00  0.00     0.062 A 
ATOM      7  F   UNL d   1      -4.740  -3.615  -0.994  0.00  0.00    -0.097 F 
ATOM      8  F1  UNL d   1      -2.304  -4.101   0.086  0.00  0.00    -0.096 F 
ATOM      9  I   UNL d   1       0.501  -2.594  -0.229  0.00  0.00    -0.060 I 
ATOM     10  F2  UNL d   1      -0.554  -0.339  -2.240  0.00  0.00    -0.096 F 
ATOM     11  F3  UNL d   1      -3.002   0.121  -3.304  0.00  0.00    -0.097 F 
ATOM     12  F4  UNL d   1      -5.102  -1.508  -2.689  0.00  0.00    -0.092 F 
ENDROOT
TORSDOF 0
ENDMDL
