MODEL 1
REMARK minimizedAffinity 13.3437815
REMARK minimizedRMSD -1
REMARK  0 active torsions:
REMARK  status: ('A' for Active; 'I' for Inactive)
ROOT
ATOM      1  C   UNL d   1       1.675  -1.094   3.756  0.00  0.00     0.124 A 
ATOM      2  C1  UNL d   1       1.737   0.205   4.242  0.00  0.00     0.062 A 
ATOM      3  C2  UNL d   1       2.006   1.263   3.380  0.00  0.00     0.162 A 
ATOM      4  C3  UNL d   1       2.213   1.029   2.021  0.00  0.00    -0.034 A 
ATOM      5  C4  UNL d   1       2.150  -0.280   1.539  0.00  0.00     0.162 A 
ATOM      6  C5  UNL d   1       1.881  -1.335   2.405  0.00  0.00     0.062 A 
ATOM      7  F   UNL d   1       1.820  -2.588   1.932  0.00  0.00    -0.097 F 
ATOM      8  F1  UNL d   1       2.344  -0.541   0.237  0.00  0.00    -0.096 F 
ATOM      9  I   UNL d   1       2.616   2.609   0.728  0.00  0.00    -0.060 I 
ATOM     10  F2  UNL d   1       2.061   2.508   3.878  0.00  0.00    -0.096 F 
ATOM     11  F3  UNL d   1       1.540   0.440   5.548  0.00  0.00    -0.097 F 
ATOM     12  F4  UNL d   1       1.417  -2.111   4.588  0.00  0.00    -0.092 F 
ENDROOT
TORSDOF 0
ENDMDL
