MODEL 1
REMARK minimizedAffinity 17.1829548
REMARK minimizedRMSD -1
REMARK  0 active torsions:
REMARK  status: ('A' for Active; 'I' for Inactive)
ROOT
ATOM      1  C   UNL d   1       2.550  -4.733   3.759  0.00  0.00     0.124 A 
ATOM      2  C1  UNL d   1       2.374  -3.700   4.670  0.00  0.00     0.062 A 
ATOM      3  C2  UNL d   1       2.120  -2.407   4.221  0.00  0.00     0.162 A 
ATOM      4  C3  UNL d   1       2.041  -2.140   2.854  0.00  0.00    -0.034 A 
ATOM      5  C4  UNL d   1       2.221  -3.183   1.945  0.00  0.00     0.162 A 
ATOM      6  C5  UNL d   1       2.474  -4.474   2.398  0.00  0.00     0.062 A 
ATOM      7  F   UNL d   1       2.644  -5.471   1.517  0.00  0.00    -0.097 F 
ATOM      8  F1  UNL d   1       2.151  -2.961   0.624  0.00  0.00    -0.096 F 
ATOM      9  I   UNL d   1       1.663  -0.208   2.179  0.00  0.00    -0.060 I 
ATOM     10  F2  UNL d   1       1.954  -1.429   5.123  0.00  0.00    -0.096 F 
ATOM     11  F3  UNL d   1       2.448  -3.948   5.985  0.00  0.00    -0.097 F 
ATOM     12  F4  UNL d   1       2.795  -5.976   4.194  0.00  0.00    -0.092 F 
ENDROOT
TORSDOF 0
ENDMDL
