MODEL 1
REMARK minimizedAffinity 1.97526515
REMARK minimizedRMSD -1
REMARK  0 active torsions:
REMARK  status: ('A' for Active; 'I' for Inactive)
ROOT
ATOM      1  N1  IND d   1       1.748   4.530  -0.146  0.00  0.00    -0.196 N 
ATOM      2  C2  IND d   1       0.903   4.485  -1.219  0.00  0.00     0.054 A 
ATOM      3  C3  IND d   1       0.085   3.412  -1.130  0.00  0.00    -0.031 A 
ATOM      4  C4  IND d   1      -0.107   1.655   0.742  0.00  0.00     0.051 A 
ATOM      5  C5  IND d   1       0.479   1.257   1.911  0.00  0.00    -0.031 A 
ATOM      6  C6  IND d   1       1.538   1.946   2.466  0.00  0.00     0.015 A 
ATOM      7  C7  IND d   1       2.045   3.069   1.877  0.00  0.00    -0.016 A 
ATOM      8  C8  IND d   1       1.457   3.472   0.686  0.00  0.00    -0.047 A 
ATOM      9  C9  IND d   1       0.410   2.753   0.096  0.00  0.00    -0.096 A 
ATOM     10  HN1 IND d   1       2.359   5.120  -0.013  0.00  0.00     0.298 HD
ENDROOT
TORSDOF 0
ENDMDL
