MODEL 1
REMARK minimizedAffinity -3.00143981
REMARK minimizedRMSD -1
REMARK  0 active torsions:
REMARK  status: ('A' for Active; 'I' for Inactive)
ROOT
ATOM      1  N1  IND d   1       1.173   1.957   1.598  0.00  0.00    -0.196 N 
ATOM      2  C2  IND d   1       0.017   1.228   1.652  0.00  0.00     0.054 A 
ATOM      3  C3  IND d   1      -0.818   1.596   0.654  0.00  0.00    -0.031 A 
ATOM      4  C4  IND d   1      -0.451   3.298  -1.242  0.00  0.00     0.051 A 
ATOM      5  C5  IND d   1       0.434   4.238  -1.689  0.00  0.00    -0.031 A 
ATOM      6  C6  IND d   1       1.636   4.468  -1.052  0.00  0.00     0.015 A 
ATOM      7  C7  IND d   1       2.005   3.756   0.054  0.00  0.00    -0.016 A 
ATOM      8  C8  IND d   1       1.105   2.806   0.515  0.00  0.00    -0.047 A 
ATOM      9  C9  IND d   1      -0.135   2.597  -0.102  0.00  0.00    -0.096 A 
ATOM     10  HN1 IND d   1       1.831   1.895   2.147  0.00  0.00     0.298 HD
ENDROOT
TORSDOF 0
ENDMDL
