MODEL 1
REMARK minimizedAffinity 0.347569197
REMARK minimizedRMSD -1
REMARK  0 active torsions:
REMARK  status: ('A' for Active; 'I' for Inactive)
ROOT
ATOM      1  N1  IND d   1       0.601   4.196  -1.703  0.00  0.00    -0.196 N 
ATOM      2  C2  IND d   1       1.669   4.883  -1.195  0.00  0.00     0.054 A 
ATOM      3  C3  IND d   1       2.009   4.393   0.018  0.00  0.00    -0.031 A 
ATOM      4  C4  IND d   1       1.018   2.402   1.315  0.00  0.00     0.051 A 
ATOM      5  C5  IND d   1       0.004   1.487   1.273  0.00  0.00    -0.031 A 
ATOM      6  C6  IND d   1      -0.879   1.425   0.214  0.00  0.00     0.015 A 
ATOM      7  C7  IND d   1      -0.773   2.272  -0.853  0.00  0.00    -0.016 A 
ATOM      8  C8  IND d   1       0.251   3.208  -0.810  0.00  0.00    -0.047 A 
ATOM      9  C9  IND d   1       1.124   3.304   0.282  0.00  0.00    -0.096 A 
ATOM     10  HN1 IND d   1       0.214   4.355  -2.454  0.00  0.00     0.298 HD
ENDROOT
TORSDOF 0
ENDMDL
