MODEL 1
REMARK minimizedAffinity 0.428210199
REMARK minimizedRMSD -1
REMARK  0 active torsions:
REMARK  status: ('A' for Active; 'I' for Inactive)
ROOT
ATOM      1  N1  IND d   1       0.335   4.202  -1.714  0.00  0.00    -0.196 N 
ATOM      2  C2  IND d   1       1.001   5.260  -1.162  0.00  0.00     0.054 A 
ATOM      3  C3  IND d   1       1.349   4.984   0.114  0.00  0.00    -0.031 A 
ATOM      4  C4  IND d   1       1.017   2.819   1.467  0.00  0.00     0.051 A 
ATOM      5  C5  IND d   1       0.429   1.587   1.401  0.00  0.00    -0.031 A 
ATOM      6  C6  IND d   1      -0.232   1.154   0.269  0.00  0.00     0.015 A 
ATOM      7  C7  IND d   1      -0.319   1.936  -0.847  0.00  0.00    -0.016 A 
ATOM      8  C8  IND d   1       0.271   3.190  -0.782  0.00  0.00    -0.047 A 
ATOM      9  C9  IND d   1       0.906   3.651   0.379  0.00  0.00    -0.096 A 
ATOM     10  HN1 IND d   1       0.011   4.172  -2.510  0.00  0.00     0.298 HD
ENDROOT
TORSDOF 0
ENDMDL
