MODEL 1
REMARK minimizedAffinity 1.50777149
REMARK minimizedRMSD -1
REMARK  0 active torsions:
REMARK  status: ('A' for Active; 'I' for Inactive)
ROOT
ATOM      1  N1  IND d   1      -0.810   1.788   1.442  0.00  0.00    -0.196 N 
ATOM      2  C2  IND d   1      -0.097   2.649   0.655  0.00  0.00     0.054 A 
ATOM      3  C3  IND d   1       1.092   2.102   0.316  0.00  0.00    -0.031 A 
ATOM      4  C4  IND d   1       2.031  -0.233   0.857  0.00  0.00     0.051 A 
ATOM      5  C5  IND d   1       1.760  -1.363   1.577  0.00  0.00    -0.031 A 
ATOM      6  C6  IND d   1       0.594  -1.504   2.302  0.00  0.00     0.015 A 
ATOM      7  C7  IND d   1      -0.354  -0.520   2.324  0.00  0.00    -0.016 A 
ATOM      8  C8  IND d   1      -0.080   0.631   1.599  0.00  0.00    -0.047 A 
ATOM      9  C9  IND d   1       1.121   0.797   0.897  0.00  0.00    -0.096 A 
ATOM     10  HN1 IND d   1      -1.585   1.944   1.782  0.00  0.00     0.298 HD
ENDROOT
TORSDOF 0
ENDMDL
