MODEL 1
REMARK minimizedAffinity 3.7093761
REMARK minimizedRMSD -1
REMARK  0 active torsions:
REMARK  status: ('A' for Active; 'I' for Inactive)
ROOT
ATOM      1  N1  IND d   1       1.123   3.890  -1.518  0.00  0.00    -0.196 N 
ATOM      2  C2  IND d   1       0.200   4.887  -1.674  0.00  0.00     0.054 A 
ATOM      3  C3  IND d   1      -0.887   4.645  -0.907  0.00  0.00    -0.031 A 
ATOM      4  C4  IND d   1      -1.322   2.729   0.756  0.00  0.00     0.051 A 
ATOM      5  C5  IND d   1      -0.787   1.558   1.215  0.00  0.00    -0.031 A 
ATOM      6  C6  IND d   1       0.438   1.097   0.779  0.00  0.00     0.015 A 
ATOM      7  C7  IND d   1       1.182   1.798  -0.127  0.00  0.00    -0.016 A 
ATOM      8  C8  IND d   1       0.639   2.984  -0.600  0.00  0.00    -0.047 A 
ATOM      9  C9  IND d   1      -0.623   3.436  -0.194  0.00  0.00    -0.096 A 
ATOM     10  HN1 IND d   1       1.878   3.838  -1.925  0.00  0.00     0.298 HD
ENDROOT
TORSDOF 0
ENDMDL
