MODEL 1
REMARK minimizedAffinity 7.87559557
REMARK minimizedRMSD -1
REMARK  0 active torsions:
REMARK  status: ('A' for Active; 'I' for Inactive)
ROOT
ATOM      1  N1  IND d   1       1.300   3.560  -1.431  0.00  0.00    -0.196 N 
ATOM      2  C2  IND d   1       0.291   2.932  -2.107  0.00  0.00     0.054 A 
ATOM      3  C3  IND d   1      -0.309   2.017  -1.312  0.00  0.00    -0.031 A 
ATOM      4  C4  IND d   1       0.136   1.457   1.161  0.00  0.00     0.051 A 
ATOM      5  C5  IND d   1       0.984   1.741   2.194  0.00  0.00    -0.031 A 
ATOM      6  C6  IND d   1       1.999   2.667   2.070  0.00  0.00     0.015 A 
ATOM      7  C7  IND d   1       2.199   3.354   0.906  0.00  0.00    -0.016 A 
ATOM      8  C8  IND d   1       1.344   3.063  -0.147  0.00  0.00    -0.047 A 
ATOM      9  C9  IND d   1       0.338   2.094  -0.041  0.00  0.00    -0.096 A 
ATOM     10  HN1 IND d   1       1.821   4.163  -1.755  0.00  0.00     0.298 HD
ENDROOT
TORSDOF 0
ENDMDL
