MODEL 1
REMARK minimizedAffinity -0.119623654
REMARK minimizedRMSD -1
REMARK  0 active torsions:
REMARK  status: ('A' for Active; 'I' for Inactive)
ROOT
ATOM      1  N1  IND d   1       0.007   3.659  -2.046  0.00  0.00    -0.196 N 
ATOM      2  C2  IND d   1       0.743   4.746  -1.666  0.00  0.00     0.054 A 
ATOM      3  C3  IND d   1       1.165   4.604  -0.389  0.00  0.00    -0.031 A 
ATOM      4  C4  IND d   1       0.851   2.625   1.227  0.00  0.00     0.051 A 
ATOM      5  C5  IND d   1       0.218   1.420   1.344  0.00  0.00    -0.031 A 
ATOM      6  C6  IND d   1      -0.531   0.887   0.314  0.00  0.00     0.015 A 
ATOM      7  C7  IND d   1      -0.665   1.538  -0.880  0.00  0.00    -0.016 A 
ATOM      8  C8  IND d   1      -0.030   2.766  -0.999  0.00  0.00    -0.047 A 
ATOM      9  C9  IND d   1       0.696   3.331   0.057  0.00  0.00    -0.096 A 
ATOM     10  HN1 IND d   1      -0.371   3.552  -2.812  0.00  0.00     0.298 HD
ENDROOT
TORSDOF 0
ENDMDL
