MODEL 1
REMARK minimizedAffinity 11.469058
REMARK minimizedRMSD -1
REMARK  1 active torsions:
REMARK  status: ('A' for Active; 'I' for Inactive)
REMARK    1  A    between atoms: C1_2  and  C2_3 
ROOT
ATOM      1  C2  UNL d   1      -4.262   2.953  -3.801  0.00  0.00    -0.081 A 
ATOM      2  C3  UNL d   1      -4.693   1.837  -4.529  0.00  0.00     0.006 A 
ATOM      3  C4  UNL d   1      -4.528   0.549  -4.014  0.00  0.00     0.002 A 
ATOM      4  C5  UNL d   1      -3.937   0.355  -2.761  0.00  0.00    -0.080 A 
ATOM      5  C6  UNL d   1      -3.782  -1.020  -2.184  0.00  0.00     0.076 C 
ATOM      6  C7  UNL d   1      -3.491   1.469  -2.042  0.00  0.00     0.002 A 
ATOM      7  C8  UNL d   1      -3.655   2.757  -2.556  0.00  0.00     0.006 A 
ENDROOT
BRANCH   1   8
ATOM      8  C1  UNL d   1      -4.496   4.346  -4.325  0.00  0.00     0.054 C 
ATOM      9  C   UNL d   1      -5.767   4.950  -3.742  0.00  0.00     0.018 C 
ENDBRANCH   1   8
TORSDOF 1
ENDMDL
