MODEL 1
REMARK minimizedAffinity 2.57206988
REMARK minimizedRMSD -1
REMARK  1 active torsions:
REMARK  status: ('A' for Active; 'I' for Inactive)
REMARK    1  A    between atoms: C1_2  and  C2_3 
ROOT
ATOM      1  C2  UNL d   1       0.944  -1.998   3.073  0.00  0.00    -0.081 A 
ATOM      2  C3  UNL d   1       2.008  -2.200   3.961  0.00  0.00     0.006 A 
ATOM      3  C4  UNL d   1       3.045  -3.077   3.635  0.00  0.00     0.002 A 
ATOM      4  C5  UNL d   1       3.039  -3.761   2.415  0.00  0.00    -0.080 A 
ATOM      5  C6  UNL d   1       4.162  -4.682   2.040  0.00  0.00     0.076 C 
ATOM      6  C7  UNL d   1       1.968  -3.573   1.535  0.00  0.00     0.002 A 
ATOM      7  C8  UNL d   1       0.930  -2.696   1.861  0.00  0.00     0.006 A 
ENDROOT
BRANCH   1   8
ATOM      8  C1  UNL d   1      -0.143  -1.004   3.393  0.00  0.00     0.054 C 
ATOM      9  C   UNL d   1      -1.524  -1.628   3.251  0.00  0.00     0.018 C 
ENDBRANCH   1   8
TORSDOF 1
ENDMDL
