MODEL 1
REMARK minimizedAffinity 11.2627363
REMARK minimizedRMSD -1
REMARK  1 active torsions:
REMARK  status: ('A' for Active; 'I' for Inactive)
REMARK    1  A    between atoms: C1_2  and  C2_3 
ROOT
ATOM      1  C2  UNL d   1       3.449  -3.560   1.129  0.00  0.00    -0.081 A 
ATOM      2  C3  UNL d   1       4.810  -3.755   1.391  0.00  0.00     0.006 A 
ATOM      3  C4  UNL d   1       5.635  -4.364   0.442  0.00  0.00     0.002 A 
ATOM      4  C5  UNL d   1       5.114  -4.782  -0.787  0.00  0.00    -0.080 A 
ATOM      5  C6  UNL d   1       5.994  -5.410  -1.826  0.00  0.00     0.076 C 
ATOM      6  C7  UNL d   1       3.750  -4.604  -1.042  0.00  0.00     0.002 A 
ATOM      7  C8  UNL d   1       2.925  -3.995  -0.094  0.00  0.00     0.006 A 
ENDROOT
BRANCH   1   8
ATOM      8  C1  UNL d   1       2.571  -2.845   2.123  0.00  0.00     0.054 C 
ATOM      9  C   UNL d   1       1.432  -2.112   1.429  0.00  0.00     0.018 C 
ENDBRANCH   1   8
TORSDOF 1
ENDMDL
