MODEL 1
REMARK minimizedAffinity 4.4970603
REMARK minimizedRMSD -1
REMARK  1 active torsions:
REMARK  status: ('A' for Active; 'I' for Inactive)
REMARK    1  A    between atoms: C1_2  and  C2_3 
ROOT
ATOM      1  C2  UNL d   1       3.122  -3.650   1.329  0.00  0.00    -0.081 A 
ATOM      2  C3  UNL d   1       4.482  -3.349   1.467  0.00  0.00     0.006 A 
ATOM      3  C4  UNL d   1       5.418  -3.872   0.571  0.00  0.00     0.002 A 
ATOM      4  C5  UNL d   1       5.009  -4.697  -0.481  0.00  0.00    -0.080 A 
ATOM      5  C6  UNL d   1       6.000  -5.241  -1.467  0.00  0.00     0.076 C 
ATOM      6  C7  UNL d   1       3.652  -5.013  -0.609  0.00  0.00     0.002 A 
ATOM      7  C8  UNL d   1       2.716  -4.491   0.286  0.00  0.00     0.006 A 
ENDROOT
BRANCH   1   8
ATOM      8  C1  UNL d   1       2.102  -3.036   2.254  0.00  0.00     0.054 C 
ATOM      9  C   UNL d   1       0.839  -2.641   1.502  0.00  0.00     0.018 C 
ENDBRANCH   1   8
TORSDOF 1
ENDMDL
