MODEL 1
REMARK minimizedAffinity 4.5620656
REMARK minimizedRMSD -1
REMARK  1 active torsions:
REMARK  status: ('A' for Active; 'I' for Inactive)
REMARK    1  A    between atoms: C1_2  and  C2_3 
ROOT
ATOM      1  C2  UNL d   1       2.826  -3.754   1.287  0.00  0.00    -0.081 A 
ATOM      2  C3  UNL d   1       2.303  -2.470   1.090  0.00  0.00     0.006 A 
ATOM      3  C4  UNL d   1       1.117  -2.085   1.719  0.00  0.00     0.002 A 
ATOM      4  C5  UNL d   1       0.439  -2.973   2.561  0.00  0.00    -0.080 A 
ATOM      5  C6  UNL d   1      -0.820  -2.562   3.266  0.00  0.00     0.076 C 
ATOM      6  C7  UNL d   1       0.952  -4.261   2.744  0.00  0.00     0.002 A 
ATOM      7  C8  UNL d   1       2.138  -4.647   2.115  0.00  0.00     0.006 A 
ENDROOT
BRANCH   1   8
ATOM      8  C1  UNL d   1       4.139  -4.150   0.662  0.00  0.00     0.054 C 
ATOM      9  C   UNL d   1       5.260  -3.212   1.087  0.00  0.00     0.018 C 
ENDBRANCH   1   8
TORSDOF 1
ENDMDL
