MODEL 1
REMARK minimizedAffinity -3.20405412
REMARK minimizedRMSD -1
REMARK  0 active torsions:
REMARK  status: ('A' for Active; 'I' for Inactive)
ROOT
ATOM      1  C1  DEN d   1       1.050   1.785  -0.590  0.00  0.00     0.130 A 
ATOM      2  C2  DEN d   1       1.900   1.456  -1.731  0.00  0.00    -0.031 A 
ATOM      3  C3  DEN d   1       1.955  -0.015  -1.849  0.00  0.00     0.027 A 
ATOM      4  C4  DEN d   1       0.809  -1.805  -0.388  0.00  0.00     0.027 A 
ATOM      5  C5  DEN d   1      -0.004  -2.009   0.705  0.00  0.00    -0.003 A 
ATOM      6  C6  DEN d   1      -0.491  -0.973   1.457  0.00  0.00     0.001 A 
ATOM      7  C7  DEN d   1      -0.206   0.318   1.099  0.00  0.00     0.017 A 
ATOM      8  C8  DEN d   1       0.619   0.532   0.002  0.00  0.00    -0.094 A 
ATOM      9  C9  DEN d   1       1.091  -0.528  -0.752  0.00  0.00    -0.072 A 
ENDROOT
TORSDOF 0
ENDMDL
