MODEL 1
REMARK minimizedAffinity -3.10624862
REMARK minimizedRMSD -1
REMARK  0 active torsions:
REMARK  status: ('A' for Active; 'I' for Inactive)
ROOT
ATOM      1  C1  DEN d   1      -2.420   2.488   4.861  0.00  0.00     0.130 A 
ATOM      2  C2  DEN d   1      -3.188   3.729   4.823  0.00  0.00    -0.031 A 
ATOM      3  C3  DEN d   1      -4.133   3.647   3.691  0.00  0.00     0.027 A 
ATOM      4  C4  DEN d   1      -4.482   1.725   2.006  0.00  0.00     0.027 A 
ATOM      5  C5  DEN d   1      -4.055   0.471   1.629  0.00  0.00    -0.003 A 
ATOM      6  C6  DEN d   1      -3.039  -0.179   2.277  0.00  0.00     0.001 A 
ATOM      7  C7  DEN d   1      -2.445   0.403   3.366  0.00  0.00     0.017 A 
ATOM      8  C8  DEN d   1      -2.865   1.671   3.747  0.00  0.00    -0.094 A 
ATOM      9  C9  DEN d   1      -3.902   2.307   3.086  0.00  0.00    -0.072 A 
ENDROOT
TORSDOF 0
ENDMDL
