MODEL 1
REMARK minimizedAffinity -4.82698584
REMARK minimizedRMSD -1
REMARK  0 active torsions:
REMARK  status: ('A' for Active; 'I' for Inactive)
ROOT
ATOM      1  C1  DEN d   1       2.339   2.411  -0.818  0.00  0.00     0.130 A 
ATOM      2  C2  DEN d   1       1.954   2.536   0.586  0.00  0.00    -0.031 A 
ATOM      3  C3  DEN d   1       0.916   1.524   0.866  0.00  0.00     0.027 A 
ATOM      4  C4  DEN d   1      -0.123  -0.219  -0.726  0.00  0.00     0.027 A 
ATOM      5  C5  DEN d   1      -0.124  -0.701  -2.016  0.00  0.00    -0.003 A 
ATOM      6  C6  DEN d   1       0.664  -0.162  -2.998  0.00  0.00     0.001 A 
ATOM      7  C7  DEN d   1       1.521   0.863  -2.693  0.00  0.00     0.017 A 
ATOM      8  C8  DEN d   1       1.522   1.359  -1.396  0.00  0.00    -0.094 A 
ATOM      9  C9  DEN d   1       0.726   0.793  -0.415  0.00  0.00    -0.072 A 
ENDROOT
TORSDOF 0
ENDMDL
