MODEL 1
REMARK minimizedAffinity -4.45610476
REMARK minimizedRMSD -1
REMARK  0 active torsions:
REMARK  status: ('A' for Active; 'I' for Inactive)
ROOT
ATOM      1  C1  DEN d   1       1.042   1.647   0.447  0.00  0.00     0.130 A 
ATOM      2  C2  DEN d   1      -0.236   1.260   1.038  0.00  0.00    -0.031 A 
ATOM      3  C3  DEN d   1      -0.778   0.132   0.254  0.00  0.00     0.027 A 
ATOM      4  C4  DEN d   1       0.233  -1.049  -1.804  0.00  0.00     0.027 A 
ATOM      5  C5  DEN d   1       1.297  -1.065  -2.679  0.00  0.00    -0.003 A 
ATOM      6  C6  DEN d   1       2.326  -0.165  -2.594  0.00  0.00     0.001 A 
ATOM      7  C7  DEN d   1       2.335   0.763  -1.586  0.00  0.00     0.017 A 
ATOM      8  C8  DEN d   1       1.262   0.790  -0.705  0.00  0.00    -0.094 A 
ATOM      9  C9  DEN d   1       0.238  -0.137  -0.800  0.00  0.00    -0.072 A 
ENDROOT
TORSDOF 0
ENDMDL
