MODEL 1
REMARK minimizedAffinity -1.96039426
REMARK minimizedRMSD -1
REMARK  0 active torsions:
REMARK  status: ('A' for Active; 'I' for Inactive)
ROOT
ATOM      1  C1  DEN d   1       0.851   1.330   0.639  0.00  0.00     0.130 A 
ATOM      2  C2  DEN d   1      -0.434   0.728   0.984  0.00  0.00    -0.031 A 
ATOM      3  C3  DEN d   1      -0.706  -0.354   0.017  0.00  0.00     0.027 A 
ATOM      4  C4  DEN d   1       0.732  -1.155  -1.969  0.00  0.00     0.027 A 
ATOM      5  C5  DEN d   1       1.900  -0.942  -2.667  0.00  0.00    -0.003 A 
ATOM      6  C6  DEN d   1       2.777   0.056  -2.335  0.00  0.00     0.001 A 
ATOM      7  C7  DEN d   1       2.521   0.852  -1.250  0.00  0.00     0.017 A 
ATOM      8  C8  DEN d   1       1.342   0.648  -0.546  0.00  0.00    -0.094 A 
ATOM      9  C9  DEN d   1       0.474  -0.375  -0.889  0.00  0.00    -0.072 A 
ENDROOT
TORSDOF 0
ENDMDL
