MODEL 1
REMARK minimizedAffinity -3.35659599
REMARK minimizedRMSD -1
REMARK  0 active torsions:
REMARK  status: ('A' for Active; 'I' for Inactive)
ROOT
ATOM      1  C1  DEN d   1      -0.355  -0.668   1.954  0.00  0.00     0.130 A 
ATOM      2  C2  DEN d   1      -1.793  -0.476   2.119  0.00  0.00    -0.031 A 
ATOM      3  C3  DEN d   1      -2.248   0.477   1.087  0.00  0.00     0.027 A 
ATOM      4  C4  DEN d   1      -0.873   1.663  -0.745  0.00  0.00     0.027 A 
ATOM      5  C5  DEN d   1       0.389   1.825  -1.274  0.00  0.00    -0.003 A 
ATOM      6  C6  DEN d   1       1.487   1.198  -0.747  0.00  0.00     0.001 A 
ATOM      7  C7  DEN d   1       1.338   0.345   0.314  0.00  0.00     0.017 A 
ATOM      8  C8  DEN d   1       0.071   0.183   0.857  0.00  0.00    -0.094 A 
ATOM      9  C9  DEN d   1      -1.029   0.815   0.303  0.00  0.00    -0.072 A 
ENDROOT
TORSDOF 0
ENDMDL
