MODEL 1
REMARK minimizedAffinity -3.64613056
REMARK minimizedRMSD -1
REMARK  0 active torsions:
REMARK  status: ('A' for Active; 'I' for Inactive)
ROOT
ATOM      1  C1  DEN d   1       0.399  -0.922  -2.136  0.00  0.00     0.130 A 
ATOM      2  C2  DEN d   1      -0.856  -0.958  -1.391  0.00  0.00    -0.031 A 
ATOM      3  C3  DEN d   1      -0.809   0.104  -0.366  0.00  0.00     0.027 A 
ATOM      4  C4  DEN d   1       1.073   1.796   0.132  0.00  0.00     0.027 A 
ATOM      5  C5  DEN d   1       2.336   2.208  -0.230  0.00  0.00    -0.003 A 
ATOM      6  C6  DEN d   1       3.051   1.589  -1.221  0.00  0.00     0.001 A 
ATOM      7  C7  DEN d   1       2.488   0.552  -1.916  0.00  0.00     0.017 A 
ATOM      8  C8  DEN d   1       1.217   0.126  -1.553  0.00  0.00    -0.094 A 
ATOM      9  C9  DEN d   1       0.506   0.773  -0.556  0.00  0.00    -0.072 A 
ENDROOT
TORSDOF 0
ENDMDL
