MODEL 1
REMARK minimizedAffinity -4.53813124
REMARK minimizedRMSD -1
REMARK  0 active torsions:
REMARK  status: ('A' for Active; 'I' for Inactive)
ROOT
ATOM      1  C1  DEN d   1      -0.169   0.227   0.943  0.00  0.00     0.130 A 
ATOM      2  C2  DEN d   1      -0.080   1.675   0.772  0.00  0.00    -0.031 A 
ATOM      3  C3  DEN d   1       0.871   1.948  -0.324  0.00  0.00     0.027 A 
ATOM      4  C4  DEN d   1       2.203   0.278  -1.770  0.00  0.00     0.027 A 
ATOM      5  C5  DEN d   1       2.466  -1.056  -1.989  0.00  0.00    -0.003 A 
ATOM      6  C6  DEN d   1       1.900  -2.046  -1.231  0.00  0.00     0.001 A 
ATOM      7  C7  DEN d   1       1.006  -1.720  -0.245  0.00  0.00     0.017 A 
ATOM      8  C8  DEN d   1       0.742  -0.376  -0.013  0.00  0.00    -0.094 A 
ATOM      9  C9  DEN d   1       1.315   0.609  -0.799  0.00  0.00    -0.072 A 
ENDROOT
TORSDOF 0
ENDMDL
