MODEL 1
REMARK minimizedAffinity -3.49229026
REMARK minimizedRMSD -1
REMARK  0 active torsions:
REMARK  status: ('A' for Active; 'I' for Inactive)
ROOT
ATOM      1  C1  DEN d   1       2.137   0.240  -2.077  0.00  0.00     0.130 A 
ATOM      2  C2  DEN d   1       2.095   1.689  -1.894  0.00  0.00    -0.031 A 
ATOM      3  C3  DEN d   1       1.308   1.972  -0.678  0.00  0.00     0.027 A 
ATOM      4  C4  DEN d   1       0.158   0.318   0.933  0.00  0.00     0.027 A 
ATOM      5  C5  DEN d   1      -0.094  -1.013   1.185  0.00  0.00    -0.003 A 
ATOM      6  C6  DEN d   1       0.347  -2.009   0.354  0.00  0.00     0.001 A 
ATOM      7  C7  DEN d   1       1.103  -1.692  -0.743  0.00  0.00     0.017 A 
ATOM      8  C8  DEN d   1       1.356  -0.352  -1.007  0.00  0.00    -0.094 A 
ATOM      9  C9  DEN d   1       0.911   0.639  -0.149  0.00  0.00    -0.072 A 
ENDROOT
TORSDOF 0
ENDMDL
