MODEL 1
REMARK minimizedAffinity -4.09140539
REMARK minimizedRMSD -1
REMARK  0 active torsions:
REMARK  status: ('A' for Active; 'I' for Inactive)
ROOT
ATOM      1  C1  DEN d   1      -0.799   0.522   0.907  0.00  0.00     0.130 A 
ATOM      2  C2  DEN d   1      -0.770  -0.706   1.698  0.00  0.00    -0.031 A 
ATOM      3  C3  DEN d   1       0.282  -1.581   1.143  0.00  0.00     0.027 A 
ATOM      4  C4  DEN d   1       1.862  -1.156  -0.851  0.00  0.00     0.027 A 
ATOM      5  C5  DEN d   1       2.205  -0.261  -1.840  0.00  0.00    -0.003 A 
ATOM      6  C6  DEN d   1       1.553   0.932  -2.003  0.00  0.00     0.001 A 
ATOM      7  C7  DEN d   1       0.554   1.284  -1.135  0.00  0.00     0.017 A 
ATOM      8  C8  DEN d   1       0.197   0.384  -0.140  0.00  0.00    -0.094 A 
ATOM      9  C9  DEN d   1       0.876  -0.812   0.016  0.00  0.00    -0.072 A 
ENDROOT
TORSDOF 0
ENDMDL
