MODEL 1
REMARK minimizedAffinity -1.64378381
REMARK minimizedRMSD -1
REMARK  0 active torsions:
REMARK  status: ('A' for Active; 'I' for Inactive)
ROOT
ATOM      1  C1  DEN d   1      -0.504   0.019  -1.110  0.00  0.00     0.130 A 
ATOM      2  C2  DEN d   1       0.792  -0.297  -0.516  0.00  0.00    -0.031 A 
ATOM      3  C3  DEN d   1       0.650  -0.227   0.952  0.00  0.00     0.027 A 
ATOM      4  C4  DEN d   1      -1.440   0.333   2.355  0.00  0.00     0.027 A 
ATOM      5  C5  DEN d   1      -2.771   0.682   2.296  0.00  0.00    -0.003 A 
ATOM      6  C6  DEN d   1      -3.426   0.866   1.107  0.00  0.00     0.001 A 
ATOM      7  C7  DEN d   1      -2.762   0.657  -0.073  0.00  0.00     0.017 A 
ATOM      8  C8  DEN d   1      -1.417   0.313  -0.021  0.00  0.00    -0.094 A 
ATOM      9  C9  DEN d   1      -0.777   0.120   1.191  0.00  0.00    -0.072 A 
ENDROOT
TORSDOF 0
ENDMDL
