MODEL 1
REMARK minimizedAffinity -1.93617082
REMARK minimizedRMSD -1
REMARK  3 active torsions:
REMARK  status: ('A' for Active; 'I' for Inactive)
REMARK    1  A    between atoms: C3'_2  and  C2'_3 
REMARK    2  A    between atoms: C2'_3  and  C1'_4 
REMARK    3  A    between atoms: C1'_4  and  C1_5 
ROOT
ATOM      1  C1  N4B d   1      -1.223  -1.337  -0.859  0.00  0.00    -0.075 A 
ATOM      2  C2  N4B d   1      -1.659  -0.700   0.324  0.00  0.00     0.002 A 
ATOM      3  C3  N4B d   1      -2.805  -1.126   0.950  0.00  0.00     0.002 A 
ATOM      4  C4  N4B d   1      -3.537  -2.170   0.405  0.00  0.00    -0.004 A 
ATOM      5  C5  N4B d   1      -3.095  -2.796  -0.723  0.00  0.00     0.002 A 
ATOM      6  C6  N4B d   1      -1.943  -2.382  -1.361  0.00  0.00     0.002 A 
ENDROOT
BRANCH   1   7
ATOM      7  C1' N4B d   1      -0.024  -0.851  -1.626  0.00  0.00     0.057 C 
BRANCH   7   8
ATOM      8  C2' N4B d   1       1.073  -0.454  -0.643  0.00  0.00     0.009 C 
BRANCH   8   9
ATOM      9  C3' N4B d   1       2.357  -0.058  -1.352  0.00  0.00     0.004 C 
ATOM     10  C4' N4B d   1       2.696   1.392  -1.172  0.00  0.00     0.003 C 
ENDBRANCH   8   9
ENDBRANCH   7   8
ENDBRANCH   1   7
TORSDOF 3
ENDMDL
