MODEL 1
REMARK minimizedAffinity -2.36131835
REMARK minimizedRMSD -1
REMARK  3 active torsions:
REMARK  status: ('A' for Active; 'I' for Inactive)
REMARK    1  A    between atoms: C3'_2  and  C2'_3 
REMARK    2  A    between atoms: C2'_3  and  C1'_4 
REMARK    3  A    between atoms: C1'_4  and  C1_5 
ROOT
ATOM      1  C1  N4B d   1      -5.134   4.878   2.153  0.00  0.00    -0.075 A 
ATOM      2  C2  N4B d   1      -5.285   5.991   1.296  0.00  0.00     0.002 A 
ATOM      3  C3  N4B d   1      -5.564   5.799  -0.035  0.00  0.00     0.002 A 
ATOM      4  C4  N4B d   1      -5.676   4.510  -0.534  0.00  0.00    -0.004 A 
ATOM      5  C5  N4B d   1      -5.554   3.442   0.305  0.00  0.00     0.002 A 
ATOM      6  C6  N4B d   1      -5.278   3.619   1.646  0.00  0.00     0.002 A 
ENDROOT
BRANCH   1   7
ATOM      7  C1' N4B d   1      -4.744   5.036   3.597  0.00  0.00     0.057 C 
BRANCH   7   8
ATOM      8  C2' N4B d   1      -6.000   5.267   4.432  0.00  0.00     0.009 C 
BRANCH   8   9
ATOM      9  C3' N4B d   1      -5.949   4.519   5.753  0.00  0.00     0.004 C 
ATOM     10  C4' N4B d   1      -4.728   3.659   5.888  0.00  0.00     0.003 C 
ENDBRANCH   8   9
ENDBRANCH   7   8
ENDBRANCH   1   7
TORSDOF 3
ENDMDL
