MODEL 1
REMARK minimizedAffinity -2.58117843
REMARK minimizedRMSD -1
REMARK  3 active torsions:
REMARK  status: ('A' for Active; 'I' for Inactive)
REMARK    1  A    between atoms: C3'_2  and  C2'_3 
REMARK    2  A    between atoms: C2'_3  and  C1'_4 
REMARK    3  A    between atoms: C1'_4  and  C1_5 
ROOT
ATOM      1  C1  N4B d   1      -5.237   4.374   4.192  0.00  0.00    -0.075 A 
ATOM      2  C2  N4B d   1      -5.814   5.599   3.790  0.00  0.00     0.002 A 
ATOM      3  C3  N4B d   1      -5.731   6.000   2.479  0.00  0.00     0.002 A 
ATOM      4  C4  N4B d   1      -5.063   5.205   1.560  0.00  0.00    -0.004 A 
ATOM      5  C5  N4B d   1      -4.531   4.011   1.951  0.00  0.00     0.002 A 
ATOM      6  C6  N4B d   1      -4.610   3.594   3.264  0.00  0.00     0.002 A 
ENDROOT
BRANCH   1   7
ATOM      7  C1' N4B d   1      -5.227   3.935   5.630  0.00  0.00     0.057 C 
BRANCH   7   8
ATOM      8  C2' N4B d   1      -4.061   2.976   5.853  0.00  0.00     0.009 C 
BRANCH   8   9
ATOM      9  C3' N4B d   1      -4.529   1.538   5.999  0.00  0.00     0.004 C 
ATOM     10  C4' N4B d   1      -5.988   1.368   5.699  0.00  0.00     0.003 C 
ENDBRANCH   8   9
ENDBRANCH   7   8
ENDBRANCH   1   7
TORSDOF 3
ENDMDL
