MODEL 1
REMARK minimizedAffinity -1.92080688
REMARK minimizedRMSD -1
REMARK  3 active torsions:
REMARK  status: ('A' for Active; 'I' for Inactive)
REMARK    1  A    between atoms: C3'_2  and  C2'_3 
REMARK    2  A    between atoms: C2'_3  and  C1'_4 
REMARK    3  A    between atoms: C1'_4  and  C1_5 
ROOT
ATOM      1  C1  N4B d   1      -5.486   3.401   3.370  0.00  0.00    -0.075 A 
ATOM      2  C2  N4B d   1      -5.997   4.196   4.419  0.00  0.00     0.002 A 
ATOM      3  C3  N4B d   1      -6.000   3.716   5.705  0.00  0.00     0.002 A 
ATOM      4  C4  N4B d   1      -5.515   2.442   5.963  0.00  0.00    -0.004 A 
ATOM      5  C5  N4B d   1      -4.999   1.691   4.948  0.00  0.00     0.002 A 
ATOM      6  C6  N4B d   1      -4.987   2.162   3.651  0.00  0.00     0.002 A 
ENDROOT
BRANCH   1   7
ATOM      7  C1' N4B d   1      -5.541   3.848   1.934  0.00  0.00     0.057 C 
BRANCH   7   8
ATOM      8  C2' N4B d   1      -5.268   5.348   1.867  0.00  0.00     0.009 C 
BRANCH   8   9
ATOM      9  C3' N4B d   1      -5.956   5.997   0.678  0.00  0.00     0.004 C 
ATOM     10  C4' N4B d   1      -5.594   5.352  -0.626  0.00  0.00     0.003 C 
ENDBRANCH   8   9
ENDBRANCH   7   8
ENDBRANCH   1   7
TORSDOF 3
ENDMDL
