MODEL 1
REMARK minimizedAffinity 0.923525631
REMARK minimizedRMSD -1
REMARK  3 active torsions:
REMARK  status: ('A' for Active; 'I' for Inactive)
REMARK    1  A    between atoms: C3'_2  and  C2'_3 
REMARK    2  A    between atoms: C2'_3  and  C1'_4 
REMARK    3  A    between atoms: C1'_4  and  C1_5 
ROOT
ATOM      1  C1  N4B d   1      -5.933   4.983   3.309  0.00  0.00    -0.075 A 
ATOM      2  C2  N4B d   1      -5.982   5.999   4.290  0.00  0.00     0.002 A 
ATOM      3  C3  N4B d   1      -5.998   5.666   5.622  0.00  0.00     0.002 A 
ATOM      4  C4  N4B d   1      -5.986   4.331   5.996  0.00  0.00    -0.004 A 
ATOM      5  C5  N4B d   1      -5.913   3.357   5.043  0.00  0.00     0.002 A 
ATOM      6  C6  N4B d   1      -5.892   3.677   3.701  0.00  0.00     0.002 A 
ENDROOT
BRANCH   1   7
ATOM      7  C1' N4B d   1      -6.000   5.295   1.839  0.00  0.00     0.057 C 
BRANCH   7   8
ATOM      8  C2' N4B d   1      -4.919   4.503   1.110  0.00  0.00     0.009 C 
BRANCH   8   9
ATOM      9  C3' N4B d   1      -5.361   3.081   0.811  0.00  0.00     0.004 C 
ATOM     10  C4' N4B d   1      -4.382   2.054   1.296  0.00  0.00     0.003 C 
ENDBRANCH   8   9
ENDBRANCH   7   8
ENDBRANCH   1   7
TORSDOF 3
ENDMDL
