MODEL 1
REMARK minimizedAffinity -1.80738723
REMARK minimizedRMSD -1
REMARK  3 active torsions:
REMARK  status: ('A' for Active; 'I' for Inactive)
REMARK    1  A    between atoms: C3'_2  and  C2'_3 
REMARK    2  A    between atoms: C2'_3  and  C1'_4 
REMARK    3  A    between atoms: C1'_4  and  C1_5 
ROOT
ATOM      1  C1  N4B d   1      -5.939   4.823   3.688  0.00  0.00    -0.075 A 
ATOM      2  C2  N4B d   1      -5.801   3.452   3.378  0.00  0.00     0.002 A 
ATOM      3  C3  N4B d   1      -5.714   2.526   4.389  0.00  0.00     0.002 A 
ATOM      4  C4  N4B d   1      -5.742   2.947   5.710  0.00  0.00    -0.004 A 
ATOM      5  C5  N4B d   1      -5.901   4.270   6.000  0.00  0.00     0.002 A 
ATOM      6  C6  N4B d   1      -5.995   5.212   4.995  0.00  0.00     0.002 A 
ENDROOT
BRANCH   1   7
ATOM      7  C1' N4B d   1      -5.953   5.881   2.618  0.00  0.00     0.057 C 
BRANCH   7   8
ATOM      8  C2' N4B d   1      -4.595   5.907   1.923  0.00  0.00     0.009 C 
BRANCH   8   9
ATOM      9  C3' N4B d   1      -4.634   5.211   0.573  0.00  0.00     0.004 C 
ATOM     10  C4' N4B d   1      -5.787   4.261   0.443  0.00  0.00     0.003 C 
ENDBRANCH   8   9
ENDBRANCH   7   8
ENDBRANCH   1   7
TORSDOF 3
ENDMDL
