MODEL 1
REMARK minimizedAffinity -0.692812145
REMARK minimizedRMSD -1
REMARK  1 active torsions:
REMARK  status: ('A' for Active; 'I' for Inactive)
REMARK    1  A    between atoms: C1_2  and  C2_3 
ROOT
ATOM      1  C2  UNL d   1       2.968  -1.064  -0.186  0.00  0.00    -0.077 A 
ATOM      2  C3  UNL d   1       4.203  -0.731  -0.760  0.00  0.00     0.002 A 
ATOM      3  C4  UNL d   1       4.530   0.604  -1.005  0.00  0.00     0.002 A 
ATOM      4  C5  UNL d   1       3.630   1.615  -0.677  0.00  0.00    -0.004 A 
ATOM      5  C6  UNL d   1       2.399   1.294  -0.108  0.00  0.00     0.002 A 
ATOM      6  C7  UNL d   1       2.069  -0.040   0.137  0.00  0.00     0.002 A 
ENDROOT
BRANCH   1   7
ATOM      7  C1  UNL d   1       2.633  -2.500   0.124  0.00  0.00     0.055 C 
ATOM      8  C   UNL d   1       1.147  -2.774  -0.058  0.00  0.00     0.019 C 
ENDBRANCH   1   7
TORSDOF 1
ENDMDL
