MODEL 1
REMARK minimizedAffinity 4.99897861
REMARK minimizedRMSD -1
REMARK  1 active torsions:
REMARK  status: ('A' for Active; 'I' for Inactive)
REMARK    1  A    between atoms: C1_2  and  C2_3 
ROOT
ATOM      1  C2  UNL d   1      -2.210   2.202   2.157  0.00  0.00    -0.077 A 
ATOM      2  C3  UNL d   1      -1.422   2.528   1.044  0.00  0.00     0.002 A 
ATOM      3  C4  UNL d   1      -0.038   2.347   1.081  0.00  0.00     0.002 A 
ATOM      4  C5  UNL d   1       0.569   1.837   2.227  0.00  0.00    -0.004 A 
ATOM      5  C6  UNL d   1      -0.205   1.512   3.340  0.00  0.00     0.002 A 
ATOM      6  C7  UNL d   1      -1.589   1.693   3.305  0.00  0.00     0.002 A 
ENDROOT
BRANCH   1   7
ATOM      7  C1  UNL d   1      -3.708   2.350   2.101  0.00  0.00     0.055 C 
ATOM      8  C   UNL d   1      -4.358   1.146   1.435  0.00  0.00     0.019 C 
ENDBRANCH   1   7
TORSDOF 1
ENDMDL
