MODEL 1
REMARK minimizedAffinity -1.68464756
REMARK minimizedRMSD -1
REMARK  1 active torsions:
REMARK  status: ('A' for Active; 'I' for Inactive)
REMARK    1  A    between atoms: C1_2  and  C2_3 
ROOT
ATOM      1  C2  UNL d   1       0.795  -2.809  -0.633  0.00  0.00    -0.077 A 
ATOM      2  C3  UNL d   1       0.063  -1.980  -1.495  0.00  0.00     0.002 A 
ATOM      3  C4  UNL d   1      -1.022  -2.488  -2.212  0.00  0.00     0.002 A 
ATOM      4  C5  UNL d   1      -1.387  -3.826  -2.071  0.00  0.00    -0.004 A 
ATOM      5  C6  UNL d   1      -0.664  -4.659  -1.218  0.00  0.00     0.002 A 
ATOM      6  C7  UNL d   1       0.421  -4.153  -0.502  0.00  0.00     0.002 A 
ENDROOT
BRANCH   1   7
ATOM      7  C1  UNL d   1       1.934  -2.251   0.178  0.00  0.00     0.055 C 
ATOM      8  C   UNL d   1       2.331  -0.864  -0.306  0.00  0.00     0.019 C 
ENDBRANCH   1   7
TORSDOF 1
ENDMDL
