MODEL 1
REMARK minimizedAffinity -3.69724202
REMARK minimizedRMSD -1
REMARK  1 active torsions:
REMARK  status: ('A' for Active; 'I' for Inactive)
REMARK    1  A    between atoms: C1_2  and  C2_3 
ROOT
ATOM      1  C2  UNL d   1      -1.027   0.650   0.368  0.00  0.00    -0.077 A 
ATOM      2  C3  UNL d   1      -1.043   1.428   1.535  0.00  0.00     0.002 A 
ATOM      3  C4  UNL d   1      -2.255   1.776   2.134  0.00  0.00     0.002 A 
ATOM      4  C5  UNL d   1      -3.458   1.347   1.578  0.00  0.00    -0.004 A 
ATOM      5  C6  UNL d   1      -3.453   0.574   0.418  0.00  0.00     0.002 A 
ATOM      6  C7  UNL d   1      -2.242   0.227  -0.184  0.00  0.00     0.002 A 
ENDROOT
BRANCH   1   7
ATOM      7  C1  UNL d   1       0.281   0.232  -0.252  0.00  0.00     0.055 C 
ATOM      8  C   UNL d   1       0.348  -1.276  -0.439  0.00  0.00     0.019 C 
ENDBRANCH   1   7
TORSDOF 1
ENDMDL
