MODEL 1
REMARK minimizedAffinity 8.25254631
REMARK minimizedRMSD -1
REMARK  1 active torsions:
REMARK  status: ('A' for Active; 'I' for Inactive)
REMARK    1  A    between atoms: C1_2  and  C2_3 
ROOT
ATOM      1  C2  UNL d   1      -1.557   4.036   1.062  0.00  0.00    -0.076 A 
ATOM      2  C3  UNL d   1      -1.553   4.752  -0.147  0.00  0.00     0.004 A 
ATOM      3  C4  UNL d   1      -0.818   4.304  -1.244  0.00  0.00    -0.003 A 
ATOM      4  C5  UNL d   1      -0.078   3.131  -1.149  0.00  0.00     0.000 A 
ATOM      5  C6  UNL d   1      -0.085   2.398   0.037  0.00  0.00     0.000 A 
ATOM      6  C7  UNL d   1      -0.833   2.827   1.147  0.00  0.00    -0.073 A 
ATOM      7  C8  UNL d   1      -0.800   2.001   2.403  0.00  0.00     0.078 C 
ENDROOT
BRANCH   1   8
ATOM      8  C1  UNL d   1      -2.351   4.585   2.226  0.00  0.00     0.053 C 
ATOM      9  C   UNL d   1      -2.857   5.996   1.972  0.00  0.00     0.018 C 
ENDBRANCH   1   8
TORSDOF 1
ENDMDL
