MODEL 1
REMARK minimizedAffinity 14.0741014
REMARK minimizedRMSD -1
REMARK  1 active torsions:
REMARK  status: ('A' for Active; 'I' for Inactive)
REMARK    1  A    between atoms: C1_2  and  C2_3 
ROOT
ATOM      1  C2  UNL d   1      -2.537   5.242  -0.804  0.00  0.00    -0.076 A 
ATOM      2  C3  UNL d   1      -2.396   5.677   0.526  0.00  0.00     0.004 A 
ATOM      3  C4  UNL d   1      -3.513   5.932   1.319  0.00  0.00    -0.003 A 
ATOM      4  C5  UNL d   1      -4.790   5.757   0.796  0.00  0.00     0.000 A 
ATOM      5  C6  UNL d   1      -4.948   5.310  -0.515  0.00  0.00     0.000 A 
ATOM      6  C7  UNL d   1      -3.833   5.032  -1.323  0.00  0.00    -0.073 A 
ATOM      7  C8  UNL d   1      -4.062   4.558  -2.732  0.00  0.00     0.078 C 
ENDROOT
BRANCH   1   8
ATOM      8  C1  UNL d   1      -1.290   5.007  -1.625  0.00  0.00     0.053 C 
ATOM      9  C   UNL d   1      -0.827   3.559  -1.580  0.00  0.00     0.018 C 
ENDBRANCH   1   8
TORSDOF 1
ENDMDL
