MODEL 1
REMARK minimizedAffinity 15.6161489
REMARK minimizedRMSD -1
REMARK  1 active torsions:
REMARK  status: ('A' for Active; 'I' for Inactive)
REMARK    1  A    between atoms: C1_2  and  C2_3 
ROOT
ATOM      1  C2  UNL d   1      -3.520   2.623  -1.983  0.00  0.00    -0.076 A 
ATOM      2  C3  UNL d   1      -3.824   1.508  -1.183  0.00  0.00     0.004 A 
ATOM      3  C4  UNL d   1      -5.054   0.861  -1.292  0.00  0.00    -0.003 A 
ATOM      4  C5  UNL d   1      -6.000   1.319  -2.202  0.00  0.00     0.000 A 
ATOM      5  C6  UNL d   1      -5.709   2.413  -3.016  0.00  0.00     0.000 A 
ATOM      6  C7  UNL d   1      -4.467   3.067  -2.931  0.00  0.00    -0.073 A 
ATOM      7  C8  UNL d   1      -4.209   4.245  -3.829  0.00  0.00     0.078 C 
ENDROOT
BRANCH   1   8
ATOM      8  C1  UNL d   1      -2.181   3.301  -1.802  0.00  0.00     0.053 C 
ATOM      9  C   UNL d   1      -1.433   2.796  -0.578  0.00  0.00     0.018 C 
ENDBRANCH   1   8
TORSDOF 1
ENDMDL
