MODEL 1
REMARK minimizedAffinity 8.03780079
REMARK minimizedRMSD -1
REMARK  1 active torsions:
REMARK  status: ('A' for Active; 'I' for Inactive)
REMARK    1  A    between atoms: C1_2  and  C2_3 
ROOT
ATOM      1  C2  UNL d   1       3.359  -4.401  -0.799  0.00  0.00    -0.076 A 
ATOM      2  C3  UNL d   1       2.591  -5.575  -0.716  0.00  0.00     0.004 A 
ATOM      3  C4  UNL d   1       1.198  -5.525  -0.738  0.00  0.00    -0.003 A 
ATOM      4  C5  UNL d   1       0.551  -4.298  -0.842  0.00  0.00     0.000 A 
ATOM      5  C6  UNL d   1       1.297  -3.125  -0.943  0.00  0.00     0.000 A 
ATOM      6  C7  UNL d   1       2.702  -3.160  -0.939  0.00  0.00    -0.073 A 
ATOM      7  C8  UNL d   1       3.457  -1.863  -1.045  0.00  0.00     0.078 C 
ENDROOT
BRANCH   1   8
ATOM      8  C1  UNL d   1       4.866  -4.516  -0.743  0.00  0.00     0.053 C 
ATOM      9  C   UNL d   1       5.330  -5.911  -0.355  0.00  0.00     0.018 C 
ENDBRANCH   1   8
TORSDOF 1
ENDMDL
