MODEL 1
REMARK minimizedAffinity 21.220747
REMARK minimizedRMSD -1
REMARK  1 active torsions:
REMARK  status: ('A' for Active; 'I' for Inactive)
REMARK    1  A    between atoms: C1_2  and  C2_3 
ROOT
ATOM      1  C2  UNL d   1       3.410  -4.237  -0.629  0.00  0.00    -0.076 A 
ATOM      2  C3  UNL d   1       4.233  -3.204  -0.150  0.00  0.00     0.004 A 
ATOM      3  C4  UNL d   1       3.686  -2.020   0.343  0.00  0.00    -0.003 A 
ATOM      4  C5  UNL d   1       2.306  -1.851   0.365  0.00  0.00     0.000 A 
ATOM      5  C6  UNL d   1       1.473  -2.873  -0.091  0.00  0.00     0.000 A 
ATOM      6  C7  UNL d   1       2.008  -4.079  -0.575  0.00  0.00    -0.073 A 
ATOM      7  C8  UNL d   1       1.064  -5.145  -1.059  0.00  0.00     0.078 C 
ENDROOT
BRANCH   1   8
ATOM      8  C1  UNL d   1       4.061  -5.487  -1.177  0.00  0.00     0.053 C 
ATOM      9  C   UNL d   1       5.515  -5.621  -0.751  0.00  0.00     0.018 C 
ENDBRANCH   1   8
TORSDOF 1
ENDMDL
