MODEL 1
REMARK minimizedAffinity 7.54206657
REMARK minimizedRMSD -1
REMARK  1 active torsions:
REMARK  status: ('A' for Active; 'I' for Inactive)
REMARK    1  A    between atoms: C1_2  and  C2_3 
ROOT
ATOM      1  C2  UNL d   1       3.143  -2.241  -0.115  0.00  0.00    -0.076 A 
ATOM      2  C3  UNL d   1       3.007  -3.638  -0.049  0.00  0.00     0.004 A 
ATOM      3  C4  UNL d   1       1.851  -4.269  -0.505  0.00  0.00    -0.003 A 
ATOM      4  C5  UNL d   1       0.811  -3.513  -1.034  0.00  0.00     0.000 A 
ATOM      5  C6  UNL d   1       0.936  -2.127  -1.123  0.00  0.00     0.000 A 
ATOM      6  C7  UNL d   1       2.101  -1.476  -0.684  0.00  0.00    -0.073 A 
ATOM      7  C8  UNL d   1       2.179   0.021  -0.798  0.00  0.00     0.078 C 
ENDROOT
BRANCH   1   8
ATOM      8  C1  UNL d   1       4.408  -1.609   0.420  0.00  0.00     0.053 C 
ATOM      9  C   UNL d   1       5.657  -2.382   0.024  0.00  0.00     0.018 C 
ENDBRANCH   1   8
TORSDOF 1
ENDMDL
