MODEL 1
REMARK minimizedAffinity 12.0963326
REMARK minimizedRMSD -1
REMARK  1 active torsions:
REMARK  status: ('A' for Active; 'I' for Inactive)
REMARK    1  A    between atoms: C1_2  and  C2_3 
ROOT
ATOM      1  C2  UNL d   1       2.076  -5.137  -3.970  0.00  0.00    -0.076 A 
ATOM      2  C3  UNL d   1       2.420  -5.875  -2.824  0.00  0.00     0.004 A 
ATOM      3  C4  UNL d   1       1.746  -5.685  -1.619  0.00  0.00    -0.003 A 
ATOM      4  C5  UNL d   1       0.716  -4.754  -1.541  0.00  0.00     0.000 A 
ATOM      5  C6  UNL d   1       0.350  -4.025  -2.672  0.00  0.00     0.000 A 
ATOM      6  C7  UNL d   1       1.008  -4.217  -3.899  0.00  0.00    -0.073 A 
ATOM      7  C8  UNL d   1       0.576  -3.399  -5.085  0.00  0.00     0.078 C 
ENDROOT
BRANCH   1   8
ATOM      8  C1  UNL d   1       2.861  -5.367  -5.242  0.00  0.00     0.053 C 
ATOM      9  C   UNL d   1       4.351  -5.531  -4.986  0.00  0.00     0.018 C 
ENDBRANCH   1   8
TORSDOF 1
ENDMDL
