MODEL 1
REMARK minimizedAffinity 0.928374469
REMARK minimizedRMSD -1
REMARK  1 active torsions:
REMARK  status: ('A' for Active; 'I' for Inactive)
REMARK    1  A    between atoms: C1_2  and  C2_3 
ROOT
ATOM      1  C2  UNL d   1       0.143  -0.979  -0.764  0.00  0.00    -0.081 A 
ATOM      2  C3  UNL d   1       0.080  -0.376   0.498  0.00  0.00     0.006 A 
ATOM      3  C4  UNL d   1       1.240   0.096   1.117  0.00  0.00     0.002 A 
ATOM      4  C5  UNL d   1       2.481  -0.020   0.481  0.00  0.00    -0.080 A 
ATOM      5  C6  UNL d   1       3.729   0.510   1.121  0.00  0.00     0.076 C 
ATOM      6  C7  UNL d   1       2.547  -0.638  -0.772  0.00  0.00     0.002 A 
ATOM      7  C8  UNL d   1       1.387  -1.111  -1.391  0.00  0.00     0.006 A 
ENDROOT
BRANCH   1   8
ATOM      8  C1  UNL d   1      -1.114  -1.430  -1.463  0.00  0.00     0.054 C 
ATOM      9  C   UNL d   1      -2.006  -0.248  -1.815  0.00  0.00     0.018 C 
ENDBRANCH   1   8
TORSDOF 1
ENDMDL
