MODEL 1
REMARK minimizedAffinity -3.49197149
REMARK minimizedRMSD -1
REMARK  1 active torsions:
REMARK  status: ('A' for Active; 'I' for Inactive)
REMARK    1  A    between atoms: C1_2  and  C2_3 
ROOT
ATOM      1  C2  UNL d   1      -4.167   4.485  -0.648  0.00  0.00    -0.081 A 
ATOM      2  C3  UNL d   1      -5.400   4.133  -0.086  0.00  0.00     0.006 A 
ATOM      3  C4  UNL d   1      -6.000   2.911  -0.401  0.00  0.00     0.002 A 
ATOM      4  C5  UNL d   1      -5.373   2.018  -1.276  0.00  0.00    -0.080 A 
ATOM      5  C6  UNL d   1      -5.991   0.690  -1.600  0.00  0.00     0.076 C 
ATOM      6  C7  UNL d   1      -4.149   2.377  -1.851  0.00  0.00     0.002 A 
ATOM      7  C8  UNL d   1      -3.549   3.598  -1.537  0.00  0.00     0.006 A 
ENDROOT
BRANCH   1   8
ATOM      8  C1  UNL d   1      -3.487   5.773  -0.260  0.00  0.00     0.054 C 
ATOM      9  C   UNL d   1      -2.222   5.999  -1.075  0.00  0.00     0.018 C 
ENDBRANCH   1   8
TORSDOF 1
ENDMDL
