MODEL 1
REMARK minimizedAffinity -2.34903741
REMARK minimizedRMSD -1
REMARK  1 active torsions:
REMARK  status: ('A' for Active; 'I' for Inactive)
REMARK    1  A    between atoms: C1_2  and  C2_3 
ROOT
ATOM      1  C2  UNL d   1      -1.831  -0.332   3.806  0.00  0.00    -0.081 A 
ATOM      2  C3  UNL d   1      -2.373  -0.063   2.543  0.00  0.00     0.006 A 
ATOM      3  C4  UNL d   1      -1.933   1.038   1.804  0.00  0.00     0.002 A 
ATOM      4  C5  UNL d   1      -0.940   1.883   2.311  0.00  0.00    -0.080 A 
ATOM      5  C6  UNL d   1      -0.438   3.050   1.515  0.00  0.00     0.076 C 
ATOM      6  C7  UNL d   1      -0.412   1.624   3.580  0.00  0.00     0.002 A 
ATOM      7  C8  UNL d   1      -0.851   0.524   4.320  0.00  0.00     0.006 A 
ENDROOT
BRANCH   1   8
ATOM      8  C1  UNL d   1      -2.257  -1.555   4.578  0.00  0.00     0.054 C 
ATOM      9  C   UNL d   1      -1.086  -2.169   5.331  0.00  0.00     0.018 C 
ENDBRANCH   1   8
TORSDOF 1
ENDMDL
