MODEL 1
REMARK minimizedAffinity 2.18962526
REMARK minimizedRMSD -1
REMARK  1 active torsions:
REMARK  status: ('A' for Active; 'I' for Inactive)
REMARK    1  A    between atoms: C1_2  and  C2_3 
ROOT
ATOM      1  C2  UNL d   1      -0.101  -3.373  -4.927  0.00  0.00    -0.081 A 
ATOM      2  C3  UNL d   1      -0.860  -4.500  -5.264  0.00  0.00     0.006 A 
ATOM      3  C4  UNL d   1      -1.507  -5.241  -4.272  0.00  0.00     0.002 A 
ATOM      4  C5  UNL d   1      -1.414  -4.862  -2.929  0.00  0.00    -0.080 A 
ATOM      5  C6  UNL d   1      -2.129  -5.631  -1.858  0.00  0.00     0.076 C 
ATOM      6  C7  UNL d   1      -0.641  -3.746  -2.590  0.00  0.00     0.002 A 
ATOM      7  C8  UNL d   1       0.007  -3.006  -3.581  0.00  0.00     0.006 A 
ENDROOT
BRANCH   1   8
ATOM      8  C1  UNL d   1       0.546  -2.535  -6.000  0.00  0.00     0.054 C 
ATOM      9  C   UNL d   1      -0.003  -1.116  -5.999  0.00  0.00     0.018 C 
ENDBRANCH   1   8
TORSDOF 1
ENDMDL
