MODEL 1
REMARK minimizedAffinity 5.96322489
REMARK minimizedRMSD -1
REMARK  1 active torsions:
REMARK  status: ('A' for Active; 'I' for Inactive)
REMARK    1  A    between atoms: C1_2  and  C2_3 
ROOT
ATOM      1  C2  UNL d   1      -2.671  -0.094   0.701  0.00  0.00    -0.081 A 
ATOM      2  C3  UNL d   1      -2.198   1.224   0.680  0.00  0.00     0.006 A 
ATOM      3  C4  UNL d   1      -1.569   1.769   1.801  0.00  0.00     0.002 A 
ATOM      4  C5  UNL d   1      -1.394   1.004   2.959  0.00  0.00    -0.080 A 
ATOM      5  C6  UNL d   1      -0.694   1.567   4.160  0.00  0.00     0.076 C 
ATOM      6  C7  UNL d   1      -1.882  -0.307   2.987  0.00  0.00     0.002 A 
ATOM      7  C8  UNL d   1      -2.512  -0.853   1.866  0.00  0.00     0.006 A 
ENDROOT
BRANCH   1   8
ATOM      8  C1  UNL d   1      -3.292  -0.706  -0.529  0.00  0.00     0.054 C 
ATOM      9  C   UNL d   1      -4.378   0.191  -1.104  0.00  0.00     0.018 C 
ENDBRANCH   1   8
TORSDOF 1
ENDMDL
