MODEL 1
REMARK minimizedAffinity 4.87631845
REMARK minimizedRMSD -1
REMARK  1 active torsions:
REMARK  status: ('A' for Active; 'I' for Inactive)
REMARK    1  A    between atoms: C1_2  and  C2_3 
ROOT
ATOM      1  C2  UNL d   1      -3.029   0.776   1.190  0.00  0.00    -0.081 A 
ATOM      2  C3  UNL d   1      -1.874   1.567   1.233  0.00  0.00     0.006 A 
ATOM      3  C4  UNL d   1      -0.804   1.213   2.059  0.00  0.00     0.002 A 
ATOM      4  C5  UNL d   1      -0.868   0.060   2.848  0.00  0.00    -0.080 A 
ATOM      5  C6  UNL d   1       0.286  -0.348   3.715  0.00  0.00     0.076 C 
ATOM      6  C7  UNL d   1      -2.028  -0.721   2.817  0.00  0.00     0.002 A 
ATOM      7  C8  UNL d   1      -3.099  -0.367   1.993  0.00  0.00     0.006 A 
ENDROOT
BRANCH   1   8
ATOM      8  C1  UNL d   1      -4.158   1.120   0.252  0.00  0.00     0.054 C 
ATOM      9  C   UNL d   1      -4.314   0.067  -0.836  0.00  0.00     0.018 C 
ENDBRANCH   1   8
TORSDOF 1
ENDMDL
