MODEL 1
REMARK minimizedAffinity 4.00362349
REMARK minimizedRMSD -1
REMARK  1 active torsions:
REMARK  status: ('A' for Active; 'I' for Inactive)
REMARK    1  A    between atoms: C1_2  and  C2_3 
ROOT
ATOM      1  C2  UNL d   1      -1.697   0.728   1.901  0.00  0.00    -0.081 A 
ATOM      2  C3  UNL d   1      -1.673  -0.636   1.586  0.00  0.00     0.006 A 
ATOM      3  C4  UNL d   1      -2.351  -1.116   0.464  0.00  0.00     0.002 A 
ATOM      4  C5  UNL d   1      -3.059  -0.241  -0.367  0.00  0.00    -0.080 A 
ATOM      5  C6  UNL d   1      -3.766  -0.739  -1.592  0.00  0.00     0.076 C 
ATOM      6  C7  UNL d   1      -3.098   1.120  -0.043  0.00  0.00     0.002 A 
ATOM      7  C8  UNL d   1      -2.420   1.601   1.079  0.00  0.00     0.006 A 
ENDROOT
BRANCH   1   8
ATOM      8  C1  UNL d   1      -0.913   1.259   3.074  0.00  0.00     0.054 C 
ATOM      9  C   UNL d   1       0.560   0.891   2.966  0.00  0.00     0.018 C 
ENDBRANCH   1   8
TORSDOF 1
ENDMDL
