MODEL 1
REMARK minimizedAffinity 2.78856826
REMARK minimizedRMSD -1
REMARK  1 active torsions:
REMARK  status: ('A' for Active; 'I' for Inactive)
REMARK    1  A    between atoms: C1_2  and  C2_3 
ROOT
ATOM      1  C2  UNL d   1      -3.585   0.403  -0.165  0.00  0.00    -0.081 A 
ATOM      2  C3  UNL d   1      -3.293  -0.957   0.002  0.00  0.00     0.006 A 
ATOM      3  C4  UNL d   1      -2.566  -1.394   1.112  0.00  0.00     0.002 A 
ATOM      4  C5  UNL d   1      -2.127  -0.481   2.077  0.00  0.00    -0.080 A 
ATOM      5  C6  UNL d   1      -1.372  -0.941   3.289  0.00  0.00     0.076 C 
ATOM      6  C7  UNL d   1      -2.404   0.879   1.902  0.00  0.00     0.002 A 
ATOM      7  C8  UNL d   1      -3.129   1.317   0.792  0.00  0.00     0.006 A 
ENDROOT
BRANCH   1   8
ATOM      8  C1  UNL d   1      -4.424   0.869  -1.327  0.00  0.00     0.054 C 
ATOM      9  C   UNL d   1      -5.738   1.474  -0.853  0.00  0.00     0.018 C 
ENDBRANCH   1   8
TORSDOF 1
ENDMDL
