MODEL 1
REMARK minimizedAffinity 11.3381767
REMARK minimizedRMSD -1
REMARK  1 active torsions:
REMARK  status: ('A' for Active; 'I' for Inactive)
REMARK    1  A    between atoms: C1_2  and  C2_3 
ROOT
ATOM      1  C2  UNL d   1      -1.429   0.628   1.786  0.00  0.00    -0.081 A 
ATOM      2  C3  UNL d   1      -2.591   1.321   2.149  0.00  0.00     0.006 A 
ATOM      3  C4  UNL d   1      -3.606   0.678   2.862  0.00  0.00     0.002 A 
ATOM      4  C5  UNL d   1      -3.472  -0.665   3.230  0.00  0.00    -0.080 A 
ATOM      5  C6  UNL d   1      -4.541  -1.359   4.022  0.00  0.00     0.076 C 
ATOM      6  C7  UNL d   1      -2.319  -1.362   2.853  0.00  0.00     0.002 A 
ATOM      7  C8  UNL d   1      -1.305  -0.720   2.140  0.00  0.00     0.006 A 
ENDROOT
BRANCH   1   8
ATOM      8  C1  UNL d   1      -0.305   1.336   1.074  0.00  0.00     0.054 C 
ATOM      9  C   UNL d   1       0.837   0.382   0.756  0.00  0.00     0.018 C 
ENDBRANCH   1   8
TORSDOF 1
ENDMDL
