MODEL 1
REMARK minimizedAffinity -1.936203
REMARK minimizedRMSD -1
REMARK  0 active torsions:
REMARK  status: ('A' for Active; 'I' for Inactive)
ROOT
ATOM      1  C   UNL d   1      -1.105  -0.200  -0.106  0.00  0.00     0.020 A 
ATOM      2  C1  UNL d   1      -0.138   0.802  -0.182  0.00  0.00     0.020 A 
ATOM      3  C2  UNL d   1       1.115   0.610   0.403  0.00  0.00     0.034 A 
ATOM      4  C3  UNL d   1       1.406  -0.587   1.067  0.00  0.00     0.017 A 
ATOM      5  C4  UNL d   1       0.435  -1.593   1.143  0.00  0.00     0.017 A 
ATOM      6  C5  UNL d   1      -0.818  -1.395   0.555  0.00  0.00     0.034 A 
ATOM      7 Cl   UNL d   1       0.720  -3.097   1.946  0.00  0.00    -0.070 Cl
ATOM      8 Cl1  UNL d   1       2.976  -0.757   1.767  0.00  0.00    -0.070 Cl
ENDROOT
TORSDOF 0
ENDMDL
