MODEL 1
REMARK minimizedAffinity -4.23511791
REMARK minimizedRMSD -1
REMARK  0 active torsions:
REMARK  status: ('A' for Active; 'I' for Inactive)
ROOT
ATOM      1  C   UNL d   1       3.280  -1.088   1.557  0.00  0.00     0.020 A 
ATOM      2  C1  UNL d   1       2.527  -2.261   1.541  0.00  0.00     0.020 A 
ATOM      3  C2  UNL d   1       1.198  -2.233   1.112  0.00  0.00     0.034 A 
ATOM      4  C3  UNL d   1       0.619  -1.028   0.697  0.00  0.00     0.017 A 
ATOM      5  C4  UNL d   1       1.375   0.149   0.713  0.00  0.00     0.017 A 
ATOM      6  C5  UNL d   1       2.705   0.115   1.144  0.00  0.00     0.034 A 
ATOM      7 Cl   UNL d   1       0.729   1.673   0.216  0.00  0.00    -0.070 Cl
ATOM      8 Cl1  UNL d   1      -1.029  -1.066   0.179  0.00  0.00    -0.070 Cl
ENDROOT
TORSDOF 0
ENDMDL
