MODEL 1
REMARK minimizedAffinity -4.44162846
REMARK minimizedRMSD -1
REMARK  0 active torsions:
REMARK  status: ('A' for Active; 'I' for Inactive)
ROOT
ATOM      1  C   UNL d   1       1.761   1.579   0.818  0.00  0.00     0.020 A 
ATOM      2  C1  UNL d   1       2.748   0.639   1.112  0.00  0.00     0.020 A 
ATOM      3  C2  UNL d   1       2.414  -0.712   1.223  0.00  0.00     0.034 A 
ATOM      4  C3  UNL d   1       1.090  -1.127   1.039  0.00  0.00     0.017 A 
ATOM      5  C4  UNL d   1       0.100  -0.183   0.744  0.00  0.00     0.017 A 
ATOM      6  C5  UNL d   1       0.440   1.169   0.634  0.00  0.00     0.034 A 
ATOM      7 Cl   UNL d   1      -1.555  -0.619   0.504  0.00  0.00    -0.070 Cl
ATOM      8 Cl1  UNL d   1       0.749  -2.814   1.190  0.00  0.00    -0.070 Cl
ENDROOT
TORSDOF 0
ENDMDL
