MODEL 1
REMARK minimizedAffinity -1.7127707
REMARK minimizedRMSD -1
REMARK  0 active torsions:
REMARK  status: ('A' for Active; 'I' for Inactive)
ROOT
ATOM      1  C   UNL d   1       2.328   1.319   0.504  0.00  0.00     0.020 A 
ATOM      2  C1  UNL d   1       1.198   1.812  -0.147  0.00  0.00     0.020 A 
ATOM      3  C2  UNL d   1      -0.034   1.174   0.014  0.00  0.00     0.034 A 
ATOM      4  C3  UNL d   1      -0.139   0.039   0.826  0.00  0.00     0.017 A 
ATOM      5  C4  UNL d   1       0.997  -0.456   1.478  0.00  0.00     0.017 A 
ATOM      6  C5  UNL d   1       2.227   0.187   1.314  0.00  0.00     0.034 A 
ATOM      7 Cl   UNL d   1       0.946  -1.852   2.496  0.00  0.00    -0.070 Cl
ATOM      8 Cl1  UNL d   1      -1.693  -0.699   0.978  0.00  0.00    -0.070 Cl
ENDROOT
TORSDOF 0
ENDMDL
