MODEL 1
REMARK minimizedAffinity -4.64132547
REMARK minimizedRMSD -1
REMARK  0 active torsions:
REMARK  status: ('A' for Active; 'I' for Inactive)
ROOT
ATOM      1  C   UNL d   1       2.364  -1.569   2.437  0.00  0.00     0.020 A 
ATOM      2  C1  UNL d   1       2.641  -0.410   1.713  0.00  0.00     0.020 A 
ATOM      3  C2  UNL d   1       1.663   0.147   0.887  0.00  0.00     0.034 A 
ATOM      4  C3  UNL d   1       0.403  -0.455   0.781  0.00  0.00     0.017 A 
ATOM      5  C4  UNL d   1       0.127  -1.618   1.508  0.00  0.00     0.017 A 
ATOM      6  C5  UNL d   1       1.109  -2.172   2.335  0.00  0.00     0.034 A 
ATOM      7 Cl   UNL d   1      -1.404  -2.418   1.430  0.00  0.00    -0.070 Cl
ATOM      8 Cl1  UNL d   1      -0.758   0.288  -0.260  0.00  0.00    -0.070 Cl
ENDROOT
TORSDOF 0
ENDMDL
