MODEL 1
REMARK minimizedAffinity -1.7189703
REMARK minimizedRMSD -1
REMARK  0 active torsions:
REMARK  status: ('A' for Active; 'I' for Inactive)
ROOT
ATOM      1  C   UNL d   1      -2.899   0.315  -3.911  0.00  0.00     0.020 A 
ATOM      2  C1  UNL d   1      -3.146  -0.918  -3.309  0.00  0.00     0.020 A 
ATOM      3  C2  UNL d   1      -2.570  -1.219  -2.072  0.00  0.00     0.034 A 
ATOM      4  C3  UNL d   1      -1.745  -0.285  -1.434  0.00  0.00     0.017 A 
ATOM      5  C4  UNL d   1      -1.498   0.952  -2.040  0.00  0.00     0.017 A 
ATOM      6  C5  UNL d   1      -2.077   1.248  -3.278  0.00  0.00     0.034 A 
ATOM      7 Cl   UNL d   1      -0.491   2.154  -1.314  0.00  0.00    -0.070 Cl
ATOM      8 Cl1  UNL d   1      -1.067  -0.724   0.093  0.00  0.00    -0.070 Cl
ENDROOT
TORSDOF 0
ENDMDL
