MODEL 1
REMARK minimizedAffinity -4.89172173
REMARK minimizedRMSD -1
REMARK  0 active torsions:
REMARK  status: ('A' for Active; 'I' for Inactive)
ROOT
ATOM      1  C   UNL d   1       3.181  -0.843   1.494  0.00  0.00     0.020 A 
ATOM      2  C1  UNL d   1       2.843   0.202   0.635  0.00  0.00     0.020 A 
ATOM      3  C2  UNL d   1       1.570   0.252   0.063  0.00  0.00     0.034 A 
ATOM      4  C3  UNL d   1       0.630  -0.745   0.351  0.00  0.00     0.017 A 
ATOM      5  C4  UNL d   1       0.970  -1.793   1.214  0.00  0.00     0.017 A 
ATOM      6  C5  UNL d   1       2.247  -1.838   1.783  0.00  0.00     0.034 A 
ATOM      7 Cl   UNL d   1      -0.136  -3.058   1.616  0.00  0.00    -0.070 Cl
ATOM      8 Cl1  UNL d   1      -0.925  -0.620  -0.391  0.00  0.00    -0.070 Cl
ENDROOT
TORSDOF 0
ENDMDL
