MODEL 1
REMARK minimizedAffinity 1.39172697
REMARK minimizedRMSD -1
REMARK  0 active torsions:
REMARK  status: ('A' for Active; 'I' for Inactive)
ROOT
ATOM      1  N1  IND d   1       0.653   3.517  -1.886  0.00  0.00    -0.196 N 
ATOM      2  C2  IND d   1       0.235   4.789  -1.612  0.00  0.00     0.054 A 
ATOM      3  C3  IND d   1      -0.573   4.796  -0.529  0.00  0.00    -0.031 A 
ATOM      4  C4  IND d   1      -1.261   2.850   1.011  0.00  0.00     0.051 A 
ATOM      5  C5  IND d   1      -1.159   1.494   1.144  0.00  0.00    -0.031 A 
ATOM      6  C6  IND d   1      -0.431   0.727   0.257  0.00  0.00     0.015 A 
ATOM      7  C7  IND d   1       0.235   1.293  -0.794  0.00  0.00    -0.016 A 
ATOM      8  C8  IND d   1       0.128   2.669  -0.936  0.00  0.00    -0.047 A 
ATOM      9  C9  IND d   1      -0.645   3.447  -0.064  0.00  0.00    -0.096 A 
ATOM     10  HN1 IND d   1       1.159   3.285  -2.541  0.00  0.00     0.298 HD
ENDROOT
TORSDOF 0
ENDMDL
