MODEL 1
REMARK minimizedAffinity 7.06181717
REMARK minimizedRMSD -1
REMARK  0 active torsions:
REMARK  status: ('A' for Active; 'I' for Inactive)
ROOT
ATOM      1  N1  IND d   1       5.262  -2.412  -2.595  0.00  0.00    -0.196 N 
ATOM      2  C2  IND d   1       6.000  -3.254  -3.380  0.00  0.00     0.054 A 
ATOM      3  C3  IND d   1       5.625  -4.537  -3.175  0.00  0.00    -0.031 A 
ATOM      4  C4  IND d   1       3.754  -5.475  -1.676  0.00  0.00     0.051 A 
ATOM      5  C5  IND d   1       2.831  -5.097  -0.741  0.00  0.00    -0.031 A 
ATOM      6  C6  IND d   1       2.666  -3.778  -0.371  0.00  0.00     0.015 A 
ATOM      7  C7  IND d   1       3.414  -2.782  -0.933  0.00  0.00    -0.016 A 
ATOM      8  C8  IND d   1       4.357  -3.162  -1.877  0.00  0.00    -0.047 A 
ATOM      9  C9  IND d   1       4.558  -4.504  -2.226  0.00  0.00    -0.096 A 
ATOM     10  HN1 IND d   1       5.349  -1.558  -2.556  0.00  0.00     0.298 HD
ENDROOT
TORSDOF 0
ENDMDL
