MODEL 1
REMARK minimizedAffinity 5.3392911
REMARK minimizedRMSD -1
REMARK  0 active torsions:
REMARK  status: ('A' for Active; 'I' for Inactive)
ROOT
ATOM      1  N1  IND d   1       1.531  -0.324   2.630  0.00  0.00    -0.196 N 
ATOM      2  C2  IND d   1       1.122   0.197   3.825  0.00  0.00     0.054 A 
ATOM      3  C3  IND d   1       0.192   1.159   3.625  0.00  0.00    -0.031 A 
ATOM      4  C4  IND d   1      -0.878   1.966   1.427  0.00  0.00     0.051 A 
ATOM      5  C5  IND d   1      -0.801   1.813   0.072  0.00  0.00    -0.031 A 
ATOM      6  C6  IND d   1       0.073   0.919  -0.513  0.00  0.00     0.015 A 
ATOM      7  C7  IND d   1       0.899   0.134   0.241  0.00  0.00    -0.016 A 
ATOM      8  C8  IND d   1       0.828   0.292   1.618  0.00  0.00    -0.047 A 
ATOM      9  C9  IND d   1      -0.027   1.227   2.215  0.00  0.00    -0.096 A 
ATOM     10  HN1 IND d   1       2.128  -0.935   2.527  0.00  0.00     0.298 HD
ENDROOT
TORSDOF 0
ENDMDL
