MODEL 1
REMARK minimizedAffinity 4.96280193
REMARK minimizedRMSD -1
REMARK  0 active torsions:
REMARK  status: ('A' for Active; 'I' for Inactive)
ROOT
ATOM      1  N1  IND d   1       1.236   4.476   0.778  0.00  0.00    -0.196 N 
ATOM      2  C2  IND d   1       0.714   4.961  -0.389  0.00  0.00     0.054 A 
ATOM      3  C3  IND d   1      -0.385   4.257  -0.741  0.00  0.00    -0.031 A 
ATOM      4  C4  IND d   1      -1.564   2.335   0.501  0.00  0.00     0.051 A 
ATOM      5  C5  IND d   1      -1.439   1.520   1.591  0.00  0.00    -0.031 A 
ATOM      6  C6  IND d   1      -0.397   1.653   2.486  0.00  0.00     0.015 A 
ATOM      7  C7  IND d   1       0.558   2.618   2.329  0.00  0.00    -0.016 A 
ATOM      8  C8  IND d   1       0.438   3.443   1.219  0.00  0.00    -0.047 A 
ATOM      9  C9  IND d   1      -0.594   3.285   0.285  0.00  0.00    -0.096 A 
ATOM     10  HN1 IND d   1       1.943   4.767   1.171  0.00  0.00     0.298 HD
ENDROOT
TORSDOF 0
ENDMDL
