MODEL 1
REMARK minimizedAffinity 0.378065377
REMARK minimizedRMSD -1
REMARK  0 active torsions:
REMARK  status: ('A' for Active; 'I' for Inactive)
ROOT
ATOM      1  N1  IND d   1      -0.688   0.678   0.828  0.00  0.00    -0.196 N 
ATOM      2  C2  IND d   1      -1.679   0.822   1.759  0.00  0.00     0.054 A 
ATOM      3  C3  IND d   1      -2.058   2.116   1.846  0.00  0.00    -0.031 A 
ATOM      4  C4  IND d   1      -1.258   4.150   0.486  0.00  0.00     0.051 A 
ATOM      5  C5  IND d   1      -0.339   4.523  -0.454  0.00  0.00    -0.031 A 
ATOM      6  C6  IND d   1       0.526   3.615  -1.029  0.00  0.00     0.015 A 
ATOM      7  C7  IND d   1       0.497   2.291  -0.691  0.00  0.00    -0.016 A 
ATOM      8  C8  IND d   1      -0.430   1.910   0.269  0.00  0.00    -0.047 A 
ATOM      9  C9  IND d   1      -1.282   2.835   0.886  0.00  0.00    -0.096 A 
ATOM     10  HN1 IND d   1      -0.292  -0.058   0.627  0.00  0.00     0.298 HD
ENDROOT
TORSDOF 0
ENDMDL
