MODEL 1
REMARK minimizedAffinity 3.29032803
REMARK minimizedRMSD -1
REMARK  0 active torsions:
REMARK  status: ('A' for Active; 'I' for Inactive)
ROOT
ATOM      1  N1  IND d   1       1.396  -0.432  -0.096  0.00  0.00    -0.196 N 
ATOM      2  C2  IND d   1       1.230  -0.317  -1.448  0.00  0.00     0.054 A 
ATOM      3  C3  IND d   1       0.183   0.491  -1.727  0.00  0.00    -0.031 A 
ATOM      4  C4  IND d   1      -1.335   1.813  -0.121  0.00  0.00     0.051 A 
ATOM      5  C5  IND d   1      -1.595   1.999   1.208  0.00  0.00    -0.031 A 
ATOM      6  C6  IND d   1      -0.854   1.373   2.190  0.00  0.00     0.015 A 
ATOM      7  C7  IND d   1       0.186   0.544   1.878  0.00  0.00    -0.016 A 
ATOM      8  C8  IND d   1       0.448   0.347   0.530  0.00  0.00    -0.047 A 
ATOM      9  C9  IND d   1      -0.328   0.946  -0.472  0.00  0.00    -0.096 A 
ATOM     10  HN1 IND d   1       1.992  -0.911   0.297  0.00  0.00     0.298 HD
ENDROOT
TORSDOF 0
ENDMDL
