MODEL 1
REMARK minimizedAffinity 4.53508186
REMARK minimizedRMSD -1
REMARK  0 active torsions:
REMARK  status: ('A' for Active; 'I' for Inactive)
ROOT
ATOM      1  N1  IND d   1      -1.419   2.062   0.914  0.00  0.00    -0.196 N 
ATOM      2  C2  IND d   1      -1.431   1.556   2.184  0.00  0.00     0.054 A 
ATOM      3  C3  IND d   1      -0.298   0.858   2.424  0.00  0.00    -0.031 A 
ATOM      4  C4  IND d   1       1.755   0.504   0.912  0.00  0.00     0.051 A 
ATOM      5  C5  IND d   1       2.216   0.743  -0.352  0.00  0.00    -0.031 A 
ATOM      6  C6  IND d   1       1.475   1.451  -1.277  0.00  0.00     0.015 A 
ATOM      7  C7  IND d   1       0.245   1.958  -0.966  0.00  0.00    -0.016 A 
ATOM      8  C8  IND d   1      -0.229   1.711   0.314  0.00  0.00    -0.047 A 
ATOM      9  C9  IND d   1       0.500   0.956   1.243  0.00  0.00    -0.096 A 
ATOM     10  HN1 IND d   1      -2.048   2.522   0.551  0.00  0.00     0.298 HD
ENDROOT
TORSDOF 0
ENDMDL
