MODEL 1
REMARK minimizedAffinity 6.44872379
REMARK minimizedRMSD -1
REMARK  0 active torsions:
REMARK  status: ('A' for Active; 'I' for Inactive)
ROOT
ATOM      1  N1  IND d   1      -2.221   3.104   0.742  0.00  0.00    -0.196 N 
ATOM      2  C2  IND d   1      -1.150   3.802   0.258  0.00  0.00     0.054 A 
ATOM      3  C3  IND d   1      -0.000   3.142   0.523  0.00  0.00    -0.031 A 
ATOM      4  C4  IND d   1       0.349   0.852   1.648  0.00  0.00     0.051 A 
ATOM      5  C5  IND d   1      -0.327  -0.147   2.289  0.00  0.00    -0.031 A 
ATOM      6  C6  IND d   1      -1.698  -0.115   2.448  0.00  0.00     0.015 A 
ATOM      7  C7  IND d   1      -2.447   0.918   1.959  0.00  0.00    -0.016 A 
ATOM      8  C8  IND d   1      -1.763   1.938   1.314  0.00  0.00    -0.047 A 
ATOM      9  C9  IND d   1      -0.368   1.931   1.187  0.00  0.00    -0.096 A 
ATOM     10  HN1 IND d   1      -3.043   3.352   0.696  0.00  0.00     0.298 HD
ENDROOT
TORSDOF 0
ENDMDL
