MODEL 1
REMARK minimizedAffinity -1.56699693
REMARK minimizedRMSD -1
REMARK  0 active torsions:
REMARK  status: ('A' for Active; 'I' for Inactive)
ROOT
ATOM      1  N1  IND d   1       0.529   3.063  -0.622  0.00  0.00    -0.196 N 
ATOM      2  C2  IND d   1      -0.194   4.066  -1.206  0.00  0.00     0.054 A 
ATOM      3  C3  IND d   1      -1.484   4.011  -0.804  0.00  0.00    -0.031 A 
ATOM      4  C4  IND d   1      -2.604   2.423   0.885  0.00  0.00     0.051 A 
ATOM      5  C5  IND d   1      -2.358   1.319   1.652  0.00  0.00    -0.031 A 
ATOM      6  C6  IND d   1      -1.111   0.730   1.704  0.00  0.00     0.015 A 
ATOM      7  C7  IND d   1      -0.056   1.232   0.996  0.00  0.00    -0.016 A 
ATOM      8  C8  IND d   1      -0.304   2.349   0.210  0.00  0.00    -0.047 A 
ATOM      9  C9  IND d   1      -1.578   2.925   0.120  0.00  0.00    -0.096 A 
ATOM     10  HN1 IND d   1       1.364   2.906  -0.753  0.00  0.00     0.298 HD
ENDROOT
TORSDOF 0
ENDMDL
