MODEL 1
REMARK minimizedAffinity 0.855536759
REMARK minimizedRMSD -1
REMARK  0 active torsions:
REMARK  status: ('A' for Active; 'I' for Inactive)
ROOT
ATOM      1  N1  IND d   1      -0.278   0.303   1.532  0.00  0.00    -0.196 N 
ATOM      2  C2  IND d   1      -1.103  -0.185   2.507  0.00  0.00     0.054 A 
ATOM      3  C3  IND d   1      -2.192   0.606   2.640  0.00  0.00    -0.031 A 
ATOM      4  C4  IND d   1      -2.873   2.691   1.293  0.00  0.00     0.051 A 
ATOM      5  C5  IND d   1      -2.422   3.542   0.323  0.00  0.00    -0.031 A 
ATOM      6  C6  IND d   1      -1.210   3.351  -0.308  0.00  0.00     0.015 A 
ATOM      7  C7  IND d   1      -0.406   2.291   0.000  0.00  0.00    -0.016 A 
ATOM      8  C8  IND d   1      -0.857   1.429   0.990  0.00  0.00    -0.047 A 
ATOM      9  C9  IND d   1      -2.066   1.642   1.664  0.00  0.00    -0.096 A 
ATOM     10  HN1 IND d   1       0.476  -0.037   1.297  0.00  0.00     0.298 HD
ENDROOT
TORSDOF 0
ENDMDL
