MODEL 1
REMARK minimizedAffinity 7.89403439
REMARK minimizedRMSD -1
REMARK  0 active torsions:
REMARK  status: ('A' for Active; 'I' for Inactive)
ROOT
ATOM      1  N1  IND d   1      -3.773  -3.039   5.999  0.00  0.00    -0.196 N 
ATOM      2  C2  IND d   1      -4.291  -2.087   5.166  0.00  0.00     0.054 A 
ATOM      3  C3  IND d   1      -3.430  -1.826   4.157  0.00  0.00    -0.031 A 
ATOM      4  C4  IND d   1      -1.160  -2.915   3.621  0.00  0.00     0.051 A 
ATOM      5  C5  IND d   1      -0.251  -3.808   4.115  0.00  0.00    -0.031 A 
ATOM      6  C6  IND d   1      -0.475  -4.507   5.283  0.00  0.00     0.015 A 
ATOM      7  C7  IND d   1      -1.627  -4.346   6.000  0.00  0.00    -0.016 A 
ATOM      8  C8  IND d   1      -2.549  -3.434   5.506  0.00  0.00    -0.047 A 
ATOM      9  C9  IND d   1      -2.309  -2.691   4.343  0.00  0.00    -0.096 A 
ATOM     10  HN1 IND d   1      -4.148  -3.340   6.712  0.00  0.00     0.298 HD
ENDROOT
TORSDOF 0
ENDMDL
