MODEL 1
REMARK minimizedAffinity 7.02169275
REMARK minimizedRMSD -1
REMARK  0 active torsions:
REMARK  status: ('A' for Active; 'I' for Inactive)
ROOT
ATOM      1  N1  IND d   1       0.375   1.752   2.681  0.00  0.00    -0.196 N 
ATOM      2  C2  IND d   1      -0.654   2.650   2.749  0.00  0.00     0.054 A 
ATOM      3  C3  IND d   1      -1.149   2.891   1.514  0.00  0.00    -0.031 A 
ATOM      4  C4  IND d   1      -0.493   1.846  -0.745  0.00  0.00     0.051 A 
ATOM      5  C5  IND d   1       0.417   1.002  -1.318  0.00  0.00    -0.031 A 
ATOM      6  C6  IND d   1       1.377   0.350  -0.571  0.00  0.00     0.015 A 
ATOM      7  C7  IND d   1       1.456   0.510   0.783  0.00  0.00    -0.016 A 
ATOM      8  C8  IND d   1       0.538   1.371   1.367  0.00  0.00    -0.047 A 
ATOM      9  C9  IND d   1      -0.412   2.068   0.609  0.00  0.00    -0.096 A 
ATOM     10  HN1 IND d   1       0.841   1.472   3.347  0.00  0.00     0.298 HD
ENDROOT
TORSDOF 0
ENDMDL
