MODEL 1
REMARK minimizedAffinity 7.14905024
REMARK minimizedRMSD -1
REMARK  0 active torsions:
REMARK  status: ('A' for Active; 'I' for Inactive)
ROOT
ATOM      1  N1  IND d   1       0.531   1.760   3.551  0.00  0.00    -0.196 N 
ATOM      2  C2  IND d   1      -0.573   2.546   3.379  0.00  0.00     0.054 A 
ATOM      3  C3  IND d   1      -1.039   2.433   2.115  0.00  0.00    -0.031 A 
ATOM      4  C4  IND d   1      -0.204   0.939   0.192  0.00  0.00     0.051 A 
ATOM      5  C5  IND d   1       0.799   0.073  -0.141  0.00  0.00    -0.031 A 
ATOM      6  C6  IND d   1       1.782  -0.286   0.758  0.00  0.00     0.015 A 
ATOM      7  C7  IND d   1       1.793   0.203   2.034  0.00  0.00    -0.016 A 
ATOM      8  C8  IND d   1       0.780   1.089   2.374  0.00  0.00    -0.047 A 
ATOM      9  C9  IND d   1      -0.196   1.489   1.452  0.00  0.00    -0.096 A 
ATOM     10  HN1 IND d   1       0.994   1.695   4.273  0.00  0.00     0.298 HD
ENDROOT
TORSDOF 0
ENDMDL
