MODEL 1
REMARK minimizedAffinity 14.9389248
REMARK minimizedRMSD -1
REMARK  0 active torsions:
REMARK  status: ('A' for Active; 'I' for Inactive)
ROOT
ATOM      1  C   UNL d   1      -1.715   2.350  -2.698  0.00  0.00     0.020 A 
ATOM      2  C1  UNL d   1      -3.022   2.171  -3.149  0.00  0.00     0.020 A 
ATOM      3  C2  UNL d   1      -3.687   0.968  -2.903  0.00  0.00     0.034 A 
ATOM      4  C3  UNL d   1      -3.045  -0.060  -2.203  0.00  0.00     0.017 A 
ATOM      5  C4  UNL d   1      -1.734   0.121  -1.751  0.00  0.00     0.017 A 
ATOM      6  C5  UNL d   1      -1.073   1.327  -2.000  0.00  0.00     0.034 A 
ATOM      7 Cl   UNL d   1      -0.876  -1.102  -0.881  0.00  0.00    -0.070 Cl
ATOM      8 Cl1  UNL d   1      -3.928  -1.521  -1.934  0.00  0.00    -0.070 Cl
ENDROOT
TORSDOF 0
ENDMDL
