MODEL 1
REMARK minimizedAffinity 4.22476244
REMARK minimizedRMSD -1
REMARK  0 active torsions:
REMARK  status: ('A' for Active; 'I' for Inactive)
ROOT
ATOM      1  C   UNL d   1      -0.317   5.651  -6.000  0.00  0.00     0.020 A 
ATOM      2  C1  UNL d   1       0.425   4.554  -5.563  0.00  0.00     0.020 A 
ATOM      3  C2  UNL d   1      -0.107   3.689  -4.604  0.00  0.00     0.034 A 
ATOM      4  C3  UNL d   1      -1.384   3.920  -4.079  0.00  0.00     0.017 A 
ATOM      5  C4  UNL d   1      -2.128   5.021  -4.518  0.00  0.00     0.017 A 
ATOM      6  C5  UNL d   1      -1.590   5.883  -5.479  0.00  0.00     0.034 A 
ATOM      7 Cl   UNL d   1      -3.710   5.370  -3.917  0.00  0.00    -0.070 Cl
ATOM      8 Cl1  UNL d   1      -1.979   2.809  -2.896  0.00  0.00    -0.070 Cl
ENDROOT
TORSDOF 0
ENDMDL
