MODEL 1
REMARK minimizedAffinity 9.29135799
REMARK minimizedRMSD -1
REMARK  0 active torsions:
REMARK  status: ('A' for Active; 'I' for Inactive)
ROOT
ATOM      1  C   UNL d   1       2.557  -1.787   3.397  0.00  0.00     0.020 A 
ATOM      2  C1  UNL d   1       2.190  -0.555   2.856  0.00  0.00     0.020 A 
ATOM      3  C2  UNL d   1       1.550  -0.500   1.616  0.00  0.00     0.034 A 
ATOM      4  C3  UNL d   1       1.275  -1.679   0.913  0.00  0.00     0.017 A 
ATOM      5  C4  UNL d   1       1.644  -2.914   1.457  0.00  0.00     0.017 A 
ATOM      6  C5  UNL d   1       2.284  -2.964   2.699  0.00  0.00     0.034 A 
ATOM      7 Cl   UNL d   1       1.337  -4.411   0.649  0.00  0.00    -0.070 Cl
ATOM      8 Cl1  UNL d   1       0.481  -1.536  -0.615  0.00  0.00    -0.070 Cl
ENDROOT
TORSDOF 0
ENDMDL
