MODEL 1
REMARK minimizedAffinity 7.77036905
REMARK minimizedRMSD -1
REMARK  0 active torsions:
REMARK  status: ('A' for Active; 'I' for Inactive)
ROOT
ATOM      1  C   UNL d   1       2.633  -3.461   0.895  0.00  0.00     0.020 A 
ATOM      2  C1  UNL d   1       1.500  -2.673   0.702  0.00  0.00     0.020 A 
ATOM      3  C2  UNL d   1       1.195  -1.655   1.608  0.00  0.00     0.034 A 
ATOM      4  C3  UNL d   1       2.025  -1.422   2.710  0.00  0.00     0.017 A 
ATOM      5  C4  UNL d   1       3.163  -2.214   2.903  0.00  0.00     0.017 A 
ATOM      6  C5  UNL d   1       3.463  -3.232   1.993  0.00  0.00     0.034 A 
ATOM      7 Cl   UNL d   1       4.235  -1.986   4.240  0.00  0.00    -0.070 Cl
ATOM      8 Cl1  UNL d   1       1.588  -0.146   3.790  0.00  0.00    -0.070 Cl
ENDROOT
TORSDOF 0
ENDMDL
