MODEL 1
REMARK minimizedAffinity 4.59213591
REMARK minimizedRMSD -1
REMARK  0 active torsions:
REMARK  status: ('A' for Active; 'I' for Inactive)
ROOT
ATOM      1  C   UNL d   1      -3.373   1.397  -1.487  0.00  0.00     0.020 A 
ATOM      2  C1  UNL d   1      -2.334   1.885  -2.278  0.00  0.00     0.020 A 
ATOM      3  C2  UNL d   1      -2.416   1.799  -3.669  0.00  0.00     0.034 A 
ATOM      4  C3  UNL d   1      -3.540   1.224  -4.274  0.00  0.00     0.017 A 
ATOM      5  C4  UNL d   1      -4.582   0.734  -3.479  0.00  0.00     0.017 A 
ATOM      6  C5  UNL d   1      -4.495   0.823  -2.086  0.00  0.00     0.034 A 
ATOM      7 Cl   UNL d   1      -6.000   0.010  -4.152  0.00  0.00    -0.070 Cl
ATOM      8 Cl1  UNL d   1      -3.574   1.151  -6.000  0.00  0.00    -0.070 Cl
ENDROOT
TORSDOF 0
ENDMDL
