MODEL 1
REMARK minimizedAffinity 11.8561697
REMARK minimizedRMSD -1
REMARK  0 active torsions:
REMARK  status: ('A' for Active; 'I' for Inactive)
ROOT
ATOM      1  C   UNL d   1       1.665   3.940  -5.734  0.00  0.00     0.020 A 
ATOM      2  C1  UNL d   1       1.764   5.319  -5.916  0.00  0.00     0.020 A 
ATOM      3  C2  UNL d   1       3.019   5.925  -5.995  0.00  0.00     0.034 A 
ATOM      4  C3  UNL d   1       4.182   5.153  -5.890  0.00  0.00     0.017 A 
ATOM      5  C4  UNL d   1       4.082   3.769  -5.707  0.00  0.00     0.017 A 
ATOM      6  C5  UNL d   1       2.822   3.167  -5.630  0.00  0.00     0.034 A 
ATOM      7 Cl   UNL d   1       5.471   2.749  -5.570  0.00  0.00    -0.070 Cl
ATOM      8 Cl1  UNL d   1       5.701   5.968  -5.996  0.00  0.00    -0.070 Cl
ENDROOT
TORSDOF 0
ENDMDL
