MODEL 1
REMARK minimizedAffinity 4.70987797
REMARK minimizedRMSD -1
REMARK  0 active torsions:
REMARK  status: ('A' for Active; 'I' for Inactive)
ROOT
ATOM      1  C   UNL d   1       4.081  -2.290   0.925  0.00  0.00     0.020 A 
ATOM      2  C1  UNL d   1       5.360  -2.161   0.387  0.00  0.00     0.020 A 
ATOM      3  C2  UNL d   1       5.934  -3.225  -0.312  0.00  0.00     0.034 A 
ATOM      4  C3  UNL d   1       5.228  -4.423  -0.474  0.00  0.00     0.017 A 
ATOM      5  C4  UNL d   1       3.944  -4.551   0.066  0.00  0.00     0.017 A 
ATOM      6  C5  UNL d   1       3.374  -3.482   0.765  0.00  0.00     0.034 A 
ATOM      7 Cl   UNL d   1       3.011  -5.997  -0.094  0.00  0.00    -0.070 Cl
ATOM      8 Cl1  UNL d   1       5.999  -5.697  -1.350  0.00  0.00    -0.070 Cl
ENDROOT
TORSDOF 0
ENDMDL
