MODEL 1
REMARK minimizedAffinity 10.7871304
REMARK minimizedRMSD -1
REMARK  0 active torsions:
REMARK  status: ('A' for Active; 'I' for Inactive)
ROOT
ATOM      1  C   UNL d   1       4.125   4.113  -5.487  0.00  0.00     0.020 A 
ATOM      2  C1  UNL d   1       3.979   5.441  -5.884  0.00  0.00     0.020 A 
ATOM      3  C2  UNL d   1       2.705   6.000  -6.000  0.00  0.00     0.034 A 
ATOM      4  C3  UNL d   1       1.571   5.229  -5.718  0.00  0.00     0.017 A 
ATOM      5  C4  UNL d   1       1.718   3.896  -5.319  0.00  0.00     0.017 A 
ATOM      6  C5  UNL d   1       2.997   3.342  -5.205  0.00  0.00     0.034 A 
ATOM      7 Cl   UNL d   1       0.366   2.883  -4.953  0.00  0.00    -0.070 Cl
ATOM      8 Cl1  UNL d   1       0.025   5.985  -5.881  0.00  0.00    -0.070 Cl
ENDROOT
TORSDOF 0
ENDMDL
