MODEL 1
REMARK minimizedAffinity 2.24299312
REMARK minimizedRMSD -1
REMARK  0 active torsions:
REMARK  status: ('A' for Active; 'I' for Inactive)
ROOT
ATOM      1  C   UNL d   1       0.803  -3.461   1.495  0.00  0.00     0.020 A 
ATOM      2  C1  UNL d   1       1.484  -2.252   1.631  0.00  0.00     0.020 A 
ATOM      3  C2  UNL d   1       2.852  -2.186   1.357  0.00  0.00     0.034 A 
ATOM      4  C3  UNL d   1       3.543  -3.331   0.946  0.00  0.00     0.017 A 
ATOM      5  C4  UNL d   1       2.859  -4.545   0.809  0.00  0.00     0.017 A 
ATOM      6  C5  UNL d   1       1.490  -4.605   1.085  0.00  0.00     0.034 A 
ATOM      7 Cl   UNL d   1       3.644  -6.000   0.306  0.00  0.00    -0.070 Cl
ATOM      8 Cl1  UNL d   1       5.234  -3.177   0.624  0.00  0.00    -0.070 Cl
ENDROOT
TORSDOF 0
ENDMDL
