MODEL 1
REMARK minimizedAffinity 4.11157227
REMARK minimizedRMSD -1
REMARK  0 active torsions:
REMARK  status: ('A' for Active; 'I' for Inactive)
ROOT
ATOM      1  C   UNL d   1       0.148  -1.534  -0.638  0.00  0.00     0.020 A 
ATOM      2  C1  UNL d   1       0.950  -2.277  -1.503  0.00  0.00     0.020 A 
ATOM      3  C2  UNL d   1       2.192  -2.748  -1.073  0.00  0.00     0.034 A 
ATOM      4  C3  UNL d   1       2.635  -2.477   0.227  0.00  0.00     0.017 A 
ATOM      5  C4  UNL d   1       1.830  -1.732   1.095  0.00  0.00     0.017 A 
ATOM      6  C5  UNL d   1       0.587  -1.262   0.658  0.00  0.00     0.034 A 
ATOM      7 Cl   UNL d   1       2.309  -1.357   2.713  0.00  0.00    -0.070 Cl
ATOM      8 Cl1  UNL d   1       4.182  -3.092   0.693  0.00  0.00    -0.070 Cl
ENDROOT
TORSDOF 0
ENDMDL
