MODEL 1
REMARK minimizedAffinity 0.458227187
REMARK minimizedRMSD -1
REMARK  0 active torsions:
REMARK  status: ('A' for Active; 'I' for Inactive)
ROOT
ATOM      1  C   UNL d   1       2.951  -1.403   4.282  0.00  0.00    -0.002 A 
ATOM      2  C1  UNL d   1       4.013  -1.103   3.441  0.00  0.00     0.010 A 
ATOM      3  C2  UNL d   1       3.789  -0.776   2.102  0.00  0.00     0.041 A 
ATOM      4  C3  UNL d   1       2.466  -0.754   1.619  0.00  0.00    -0.075 A 
ATOM      5  S   UNL d   1       1.950  -0.380   0.016  0.00  0.00     0.015 SA
ATOM      6  C4  UNL d   1       0.308  -0.609   0.411  0.00  0.00     0.022 A 
ATOM      7  C5  UNL d   1       0.139  -0.962   1.729  0.00  0.00     0.026 A 
ATOM      8  C6  UNL d   1       1.379  -1.051   2.447  0.00  0.00    -0.082 A 
ATOM      9  C7  UNL d   1       1.640  -1.380   3.799  0.00  0.00     0.045 A 
ENDROOT
TORSDOF 0
ENDMDL
