MODEL 1
REMARK minimizedAffinity -0.74542731
REMARK minimizedRMSD -1
REMARK  0 active torsions:
REMARK  status: ('A' for Active; 'I' for Inactive)
ROOT
ATOM      1  C   UNL d   1      -0.021   3.957  -4.480  0.00  0.00    -0.002 A 
ATOM      2  C1  UNL d   1       0.488   3.709  -3.213  0.00  0.00     0.010 A 
ATOM      3  C2  UNL d   1      -0.154   2.816  -2.352  0.00  0.00     0.041 A 
ATOM      4  C3  UNL d   1      -1.326   2.169  -2.791  0.00  0.00    -0.075 A 
ATOM      5  S   UNL d   1      -2.279   1.036  -1.909  0.00  0.00     0.015 SA
ATOM      6  C4  UNL d   1      -3.385   0.853  -3.194  0.00  0.00     0.022 A 
ATOM      7  C5  UNL d   1      -3.050   1.631  -4.277  0.00  0.00     0.026 A 
ATOM      8  C6  UNL d   1      -1.857   2.402  -4.063  0.00  0.00    -0.082 A 
ATOM      9  C7  UNL d   1      -1.184   3.314  -4.912  0.00  0.00     0.045 A 
ENDROOT
TORSDOF 0
ENDMDL
