MODEL 1
REMARK minimizedAffinity -0.498842567
REMARK minimizedRMSD -1
REMARK  0 active torsions:
REMARK  status: ('A' for Active; 'I' for Inactive)
ROOT
ATOM      1  C   UNL d   1       2.647  -2.331   2.785  0.00  0.00    -0.002 A 
ATOM      2  C1  UNL d   1       1.511  -2.029   3.524  0.00  0.00     0.010 A 
ATOM      3  C2  UNL d   1       0.509  -1.220   2.987  0.00  0.00     0.041 A 
ATOM      4  C3  UNL d   1       0.667  -0.715   1.682  0.00  0.00    -0.075 A 
ATOM      5  S   UNL d   1      -0.431   0.296   0.818  0.00  0.00     0.015 SA
ATOM      6  C4  UNL d   1       0.581   0.351  -0.552  0.00  0.00     0.022 A 
ATOM      7  C5  UNL d   1       1.732  -0.378  -0.373  0.00  0.00     0.026 A 
ATOM      8  C6  UNL d   1       1.800  -1.005   0.918  0.00  0.00    -0.082 A 
ATOM      9  C7  UNL d   1       2.800  -1.828   1.491  0.00  0.00     0.045 A 
ENDROOT
TORSDOF 0
ENDMDL
