MODEL 1
REMARK minimizedAffinity 7.12583113
REMARK minimizedRMSD -1
REMARK  0 active torsions:
REMARK  status: ('A' for Active; 'I' for Inactive)
ROOT
ATOM      1  C   UNL d   1       1.340  -5.545  -5.473  0.00  0.00    -0.002 A 
ATOM      2  C1  UNL d   1       1.371  -4.799  -4.303  0.00  0.00     0.010 A 
ATOM      3  C2  UNL d   1       0.188  -4.472  -3.638  0.00  0.00     0.041 A 
ATOM      4  C3  UNL d   1      -1.039  -4.913  -4.172  0.00  0.00    -0.075 A 
ATOM      5  S   UNL d   1      -2.614  -4.633  -3.528  0.00  0.00     0.015 SA
ATOM      6  C4  UNL d   1      -3.365  -5.498  -4.790  0.00  0.00     0.022 A 
ATOM      7  C5  UNL d   1      -2.451  -5.995  -5.690  0.00  0.00     0.026 A 
ATOM      8  C6  UNL d   1      -1.096  -5.667  -5.348  0.00  0.00    -0.082 A 
ATOM      9  C7  UNL d   1       0.121  -5.981  -6.000  0.00  0.00     0.045 A 
ENDROOT
TORSDOF 0
ENDMDL
