MODEL 1
REMARK minimizedAffinity 11.1211452
REMARK minimizedRMSD -1
REMARK  0 active torsions:
REMARK  status: ('A' for Active; 'I' for Inactive)
ROOT
ATOM      1  C   UNL d   1       3.998  -5.529   5.742  0.00  0.00    -0.002 A 
ATOM      2  C1  UNL d   1       3.936  -5.998   4.438  0.00  0.00     0.010 A 
ATOM      3  C2  UNL d   1       3.894  -5.107   3.364  0.00  0.00     0.041 A 
ATOM      4  C3  UNL d   1       3.919  -3.723   3.625  0.00  0.00    -0.075 A 
ATOM      5  S   UNL d   1       3.878  -2.445   2.468  0.00  0.00     0.015 SA
ATOM      6  C4  UNL d   1       3.943  -1.247   3.678  0.00  0.00     0.022 A 
ATOM      7  C5  UNL d   1       3.995  -1.790   4.940  0.00  0.00     0.026 A 
ATOM      8  C6  UNL d   1       3.982  -3.226   4.930  0.00  0.00    -0.082 A 
ATOM      9  C7  UNL d   1       4.022  -4.155   5.998  0.00  0.00     0.045 A 
ENDROOT
TORSDOF 0
ENDMDL
