MODEL 1
REMARK minimizedAffinity 5.9338336
REMARK minimizedRMSD -1
REMARK  0 active torsions:
REMARK  status: ('A' for Active; 'I' for Inactive)
ROOT
ATOM      1  C   UNL d   1      -3.620  -5.133  -2.951  0.00  0.00    -0.002 A 
ATOM      2  C1  UNL d   1      -2.632  -4.908  -2.003  0.00  0.00     0.010 A 
ATOM      3  C2  UNL d   1      -1.285  -4.902  -2.369  0.00  0.00     0.041 A 
ATOM      4  C3  UNL d   1      -0.944  -5.126  -3.718  0.00  0.00    -0.075 A 
ATOM      5  S   UNL d   1       0.640  -5.163  -4.397  0.00  0.00     0.015 SA
ATOM      6  C4  UNL d   1       0.042  -5.477  -5.962  0.00  0.00     0.022 A 
ATOM      7  C5  UNL d   1      -1.330  -5.556  -5.984  0.00  0.00     0.026 A 
ATOM      8  C6  UNL d   1      -1.921  -5.354  -4.691  0.00  0.00    -0.082 A 
ATOM      9  C7  UNL d   1      -3.278  -5.356  -4.288  0.00  0.00     0.045 A 
ENDROOT
TORSDOF 0
ENDMDL
