MODEL 1
REMARK minimizedAffinity 9.58111477
REMARK minimizedRMSD -1
REMARK  0 active torsions:
REMARK  status: ('A' for Active; 'I' for Inactive)
ROOT
ATOM      1  C   UNL d   1      -5.688  -0.819  -0.938  0.00  0.00    -0.002 A 
ATOM      2  C1  UNL d   1      -4.882  -0.404   0.112  0.00  0.00     0.010 A 
ATOM      3  C2  UNL d   1      -3.785   0.429  -0.122  0.00  0.00     0.041 A 
ATOM      4  C3  UNL d   1      -3.511   0.842  -1.440  0.00  0.00    -0.075 A 
ATOM      5  S   UNL d   1      -2.224   1.861  -1.964  0.00  0.00     0.015 SA
ATOM      6  C4  UNL d   1      -2.714   1.770  -3.593  0.00  0.00     0.022 A 
ATOM      7  C5  UNL d   1      -3.832   0.985  -3.752  0.00  0.00     0.026 A 
ATOM      8  C6  UNL d   1      -4.310   0.437  -2.514  0.00  0.00    -0.082 A 
ATOM      9  C7  UNL d   1      -5.414  -0.407  -2.245  0.00  0.00     0.045 A 
ENDROOT
TORSDOF 0
ENDMDL
