MODEL 1
REMARK minimizedAffinity 8.91239452
REMARK minimizedRMSD -1
REMARK  0 active torsions:
REMARK  status: ('A' for Active; 'I' for Inactive)
ROOT
ATOM      1  C   UNL d   1      -5.246   0.233  -2.455  0.00  0.00    -0.002 A 
ATOM      2  C1  UNL d   1      -4.507  -0.421  -1.481  0.00  0.00     0.010 A 
ATOM      3  C2  UNL d   1      -3.135  -0.192  -1.356  0.00  0.00     0.041 A 
ATOM      4  C3  UNL d   1      -2.513   0.716  -2.236  0.00  0.00    -0.075 A 
ATOM      5  S   UNL d   1      -0.846   1.155  -2.269  0.00  0.00     0.015 SA
ATOM      6  C4  UNL d   1      -1.077   2.223  -3.578  0.00  0.00     0.022 A 
ATOM      7  C5  UNL d   1      -2.388   2.256  -3.991  0.00  0.00     0.026 A 
ATOM      8  C6  UNL d   1      -3.237   1.389  -3.224  0.00  0.00    -0.082 A 
ATOM      9  C7  UNL d   1      -4.626   1.134  -3.326  0.00  0.00     0.045 A 
ENDROOT
TORSDOF 0
ENDMDL
