MODEL 1
REMARK minimizedAffinity 10.1472063
REMARK minimizedRMSD -1
REMARK  0 active torsions:
REMARK  status: ('A' for Active; 'I' for Inactive)
ROOT
ATOM      1  C   UNL d   1       1.287  -0.898   0.464  0.00  0.00    -0.002 A 
ATOM      2  C1  UNL d   1       0.531   0.263   0.528  0.00  0.00     0.010 A 
ATOM      3  C2  UNL d   1      -0.864   0.204   0.502  0.00  0.00     0.041 A 
ATOM      4  C3  UNL d   1      -1.492  -1.054   0.410  0.00  0.00    -0.075 A 
ATOM      5  S   UNL d   1      -3.186  -1.369   0.362  0.00  0.00     0.015 SA
ATOM      6  C4  UNL d   1      -2.945  -3.053   0.256  0.00  0.00     0.022 A 
ATOM      7  C5  UNL d   1      -1.611  -3.384   0.255  0.00  0.00     0.026 A 
ATOM      8  C6  UNL d   1      -0.751  -2.237   0.345  0.00  0.00    -0.082 A 
ATOM      9  C7  UNL d   1       0.661  -2.144   0.373  0.00  0.00     0.045 A 
ENDROOT
TORSDOF 0
ENDMDL
