MODEL 1
REMARK minimizedAffinity 7.3564415
REMARK minimizedRMSD -1
REMARK  0 active torsions:
REMARK  status: ('A' for Active; 'I' for Inactive)
ROOT
ATOM      1  C   UNL d   1       5.083  -0.500   2.193  0.00  0.00    -0.002 A 
ATOM      2  C1  UNL d   1       4.484  -1.062   3.311  0.00  0.00     0.010 A 
ATOM      3  C2  UNL d   1       3.120  -1.361   3.311  0.00  0.00     0.041 A 
ATOM      4  C3  UNL d   1       2.362  -1.085   2.156  0.00  0.00    -0.075 A 
ATOM      5  S   UNL d   1       0.677  -1.367   1.927  0.00  0.00     0.015 SA
ATOM      6  C4  UNL d   1       0.713  -0.748   0.339  0.00  0.00     0.022 A 
ATOM      7  C5  UNL d   1       1.972  -0.332  -0.023  0.00  0.00     0.026 A 
ATOM      8  C6  UNL d   1       2.943  -0.519   1.018  0.00  0.00    -0.082 A 
ATOM      9  C7  UNL d   1       4.328  -0.226   1.050  0.00  0.00     0.045 A 
ENDROOT
TORSDOF 0
ENDMDL
