MODEL 1
REMARK minimizedAffinity -4.59897661
REMARK minimizedRMSD -1
REMARK  1 active torsions:
REMARK  status: ('A' for Active; 'I' for Inactive)
REMARK    1  A    between atoms: C1_2  and  C2_3 
ROOT
ATOM      1  C2  UNL d   1       0.122  -0.104  -2.701  0.00  0.00    -0.073 A 
ATOM      2  C3  UNL d   1       1.106  -0.366  -1.742  0.00  0.00    -0.002 A 
ATOM      3  C4  UNL d   1       2.425  -0.601  -2.131  0.00  0.00     0.004 A 
ATOM      4  C5  UNL d   1       2.775  -0.571  -3.481  0.00  0.00    -0.004 A 
ATOM      5  C6  UNL d   1       1.808  -0.299  -4.454  0.00  0.00    -0.075 A 
ATOM      6  C7  UNL d   1       2.167  -0.265  -5.911  0.00  0.00     0.076 C 
ATOM      7  C8  UNL d   1       0.485  -0.066  -4.055  0.00  0.00     0.001 A 
ENDROOT
BRANCH   1   8
ATOM      8  C1  UNL d   1      -1.303   0.157  -2.285  0.00  0.00     0.053 C 
ATOM      9  C   UNL d   1      -1.398   0.626  -0.842  0.00  0.00     0.018 C 
ENDBRANCH   1   8
TORSDOF 1
ENDMDL
