MODEL 1
REMARK minimizedAffinity -3.78840303
REMARK minimizedRMSD -1
REMARK  1 active torsions:
REMARK  status: ('A' for Active; 'I' for Inactive)
REMARK    1  A    between atoms: C1_2  and  C2_3 
ROOT
ATOM      1  C2  UNL d   1      -5.329   4.481   3.202  0.00  0.00    -0.073 A 
ATOM      2  C3  UNL d   1      -5.879   5.543   3.930  0.00  0.00    -0.002 A 
ATOM      3  C4  UNL d   1      -5.978   5.468   5.320  0.00  0.00     0.004 A 
ATOM      4  C5  UNL d   1      -5.523   4.336   5.996  0.00  0.00    -0.004 A 
ATOM      5  C6  UNL d   1      -4.959   3.270   5.287  0.00  0.00    -0.075 A 
ATOM      6  C7  UNL d   1      -4.467   2.045   6.000  0.00  0.00     0.076 C 
ATOM      7  C8  UNL d   1      -4.866   3.352   3.892  0.00  0.00     0.001 A 
ENDROOT
BRANCH   1   8
ATOM      8  C1  UNL d   1      -5.214   4.560   1.702  0.00  0.00     0.053 C 
ATOM      9  C   UNL d   1      -5.135   5.997   1.211  0.00  0.00     0.018 C 
ENDBRANCH   1   8
TORSDOF 1
ENDMDL
