MODEL 1
REMARK minimizedAffinity -2.57756162
REMARK minimizedRMSD -1
REMARK  1 active torsions:
REMARK  status: ('A' for Active; 'I' for Inactive)
REMARK    1  A    between atoms: C1_2  and  C2_3 
ROOT
ATOM      1  C2  UNL d   1      -2.160  -2.360  -1.263  0.00  0.00    -0.073 A 
ATOM      2  C3  UNL d   1      -1.788  -1.256  -2.039  0.00  0.00    -0.002 A 
ATOM      3  C4  UNL d   1      -1.389  -0.067  -1.428  0.00  0.00     0.004 A 
ATOM      4  C5  UNL d   1      -1.349   0.029  -0.037  0.00  0.00    -0.004 A 
ATOM      5  C6  UNL d   1      -1.705  -1.067   0.756  0.00  0.00    -0.075 A 
ATOM      6  C7  UNL d   1      -1.670  -0.980   2.253  0.00  0.00     0.076 C 
ATOM      7  C8  UNL d   1      -2.108  -2.257   0.135  0.00  0.00     0.001 A 
ENDROOT
BRANCH   1   8
ATOM      8  C1  UNL d   1      -2.586  -3.648  -1.918  0.00  0.00     0.053 C 
ATOM      9  C   UNL d   1      -2.513  -3.567  -3.435  0.00  0.00     0.018 C 
ENDBRANCH   1   8
TORSDOF 1
ENDMDL
