MODEL 1
REMARK minimizedAffinity 2.29879141
REMARK minimizedRMSD -1
REMARK  1 active torsions:
REMARK  status: ('A' for Active; 'I' for Inactive)
REMARK    1  A    between atoms: C1_2  and  C2_3 
ROOT
ATOM      1  C2  UNL d   1      -4.016  -3.084  -1.522  0.00  0.00    -0.073 A 
ATOM      2  C3  UNL d   1      -3.792  -3.326  -2.882  0.00  0.00    -0.002 A 
ATOM      3  C4  UNL d   1      -2.631  -2.856  -3.499  0.00  0.00     0.004 A 
ATOM      4  C5  UNL d   1      -1.682  -2.148  -2.762  0.00  0.00    -0.004 A 
ATOM      5  C6  UNL d   1      -1.883  -1.906  -1.399  0.00  0.00    -0.075 A 
ATOM      6  C7  UNL d   1      -0.873  -1.144  -0.593  0.00  0.00     0.076 C 
ATOM      7  C8  UNL d   1      -3.052  -2.379  -0.788  0.00  0.00     0.001 A 
ENDROOT
BRANCH   1   8
ATOM      8  C1  UNL d   1      -5.265  -3.594  -0.850  0.00  0.00     0.053 C 
ATOM      9  C   UNL d   1      -5.021  -4.900  -0.110  0.00  0.00     0.018 C 
ENDBRANCH   1   8
TORSDOF 1
ENDMDL
