MODEL 1
REMARK minimizedAffinity 1.45162261
REMARK minimizedRMSD -1
REMARK  1 active torsions:
REMARK  status: ('A' for Active; 'I' for Inactive)
REMARK    1  A    between atoms: C1_2  and  C2_3 
ROOT
ATOM      1  C2  UNL d   1      -1.832  -1.232  -1.318  0.00  0.00    -0.073 A 
ATOM      2  C3  UNL d   1      -1.872  -2.469  -0.665  0.00  0.00    -0.002 A 
ATOM      3  C4  UNL d   1      -2.299  -3.611  -1.343  0.00  0.00     0.004 A 
ATOM      4  C5  UNL d   1      -2.684  -3.530  -2.681  0.00  0.00    -0.004 A 
ATOM      5  C6  UNL d   1      -2.639  -2.305  -3.355  0.00  0.00    -0.075 A 
ATOM      6  C7  UNL d   1      -3.052  -2.201  -4.794  0.00  0.00     0.076 C 
ATOM      7  C8  UNL d   1      -2.212  -1.162  -2.666  0.00  0.00     0.001 A 
ENDROOT
BRANCH   1   8
ATOM      8  C1  UNL d   1      -1.365   0.003  -0.592  0.00  0.00     0.053 C 
ATOM      9  C   UNL d   1      -2.222   0.306   0.627  0.00  0.00     0.018 C 
ENDBRANCH   1   8
TORSDOF 1
ENDMDL
