MODEL 1
REMARK minimizedAffinity 1.596488
REMARK minimizedRMSD -1
REMARK  1 active torsions:
REMARK  status: ('A' for Active; 'I' for Inactive)
REMARK    1  A    between atoms: C1_2  and  C2_3 
ROOT
ATOM      1  C2  UNL d   1       3.046   3.382   0.879  0.00  0.00    -0.073 A 
ATOM      2  C3  UNL d   1       3.925   4.183   1.617  0.00  0.00    -0.002 A 
ATOM      3  C4  UNL d   1       3.993   4.061   3.005  0.00  0.00     0.004 A 
ATOM      4  C5  UNL d   1       3.189   3.134   3.669  0.00  0.00    -0.004 A 
ATOM      5  C6  UNL d   1       2.313   2.316   2.948  0.00  0.00    -0.075 A 
ATOM      6  C7  UNL d   1       1.441   1.315   3.647  0.00  0.00     0.076 C 
ATOM      7  C8  UNL d   1       2.249   2.446   1.554  0.00  0.00     0.001 A 
ENDROOT
BRANCH   1   8
ATOM      8  C1  UNL d   1       2.974   3.505  -0.621  0.00  0.00     0.053 C 
ATOM      9  C   UNL d   1       4.173   4.247  -1.190  0.00  0.00     0.018 C 
ENDBRANCH   1   8
TORSDOF 1
ENDMDL
