MODEL 1
REMARK minimizedAffinity -0.351768374
REMARK minimizedRMSD -1
REMARK  1 active torsions:
REMARK  status: ('A' for Active; 'I' for Inactive)
REMARK    1  A    between atoms: C1_2  and  C2_3 
ROOT
ATOM      1  C2  UNL d   1      -3.350  -0.155   5.346  0.00  0.00    -0.073 A 
ATOM      2  C3  UNL d   1      -4.624  -0.005   5.907  0.00  0.00    -0.002 A 
ATOM      3  C4  UNL d   1      -5.488  -1.098   5.995  0.00  0.00     0.004 A 
ATOM      4  C5  UNL d   1      -5.085  -2.350   5.531  0.00  0.00    -0.004 A 
ATOM      5  C6  UNL d   1      -3.812  -2.522   4.979  0.00  0.00    -0.075 A 
ATOM      6  C7  UNL d   1      -3.365  -3.862   4.473  0.00  0.00     0.076 C 
ATOM      7  C8  UNL d   1      -2.951  -1.420   4.891  0.00  0.00     0.001 A 
ENDROOT
BRANCH   1   8
ATOM      8  C1  UNL d   1      -2.412   1.021   5.254  0.00  0.00     0.053 C 
ATOM      9  C   UNL d   1      -2.945   2.235   5.997  0.00  0.00     0.018 C 
ENDBRANCH   1   8
TORSDOF 1
ENDMDL
