MODEL 1
REMARK minimizedAffinity 3.95261502
REMARK minimizedRMSD -1
REMARK  1 active torsions:
REMARK  status: ('A' for Active; 'I' for Inactive)
REMARK    1  A    between atoms: C1_2  and  C2_3 
ROOT
ATOM      1  C2  UNL d   1      -5.472   5.452   1.723  0.00  0.00    -0.073 A 
ATOM      2  C3  UNL d   1      -4.519   4.427   1.730  0.00  0.00    -0.002 A 
ATOM      3  C4  UNL d   1      -4.038   3.920   2.938  0.00  0.00     0.004 A 
ATOM      4  C5  UNL d   1      -4.510   4.426   4.149  0.00  0.00    -0.004 A 
ATOM      5  C6  UNL d   1      -5.472   5.441   4.163  0.00  0.00    -0.075 A 
ATOM      6  C7  UNL d   1      -5.988   5.998   5.457  0.00  0.00     0.076 C 
ATOM      7  C8  UNL d   1      -5.948   5.947   2.945  0.00  0.00     0.001 A 
ENDROOT
BRANCH   1   8
ATOM      8  C1  UNL d   1      -5.999   5.998   0.421  0.00  0.00     0.053 C 
ATOM      9  C   UNL d   1      -4.938   6.000  -0.668  0.00  0.00     0.018 C 
ENDBRANCH   1   8
TORSDOF 1
ENDMDL
