MODEL 1
REMARK minimizedAffinity -5.0984025
REMARK minimizedRMSD -1
REMARK  1 active torsions:
REMARK  status: ('A' for Active; 'I' for Inactive)
REMARK    1  A    between atoms: C1_2  and  C2_3 
ROOT
ATOM      1  C2  UNL d   1      -4.736   4.527   3.541  0.00  0.00    -0.073 A 
ATOM      2  C3  UNL d   1      -5.055   4.215   4.868  0.00  0.00    -0.002 A 
ATOM      3  C4  UNL d   1      -4.923   2.907   5.336  0.00  0.00     0.004 A 
ATOM      4  C5  UNL d   1      -4.463   1.901   4.487  0.00  0.00    -0.004 A 
ATOM      5  C6  UNL d   1      -4.128   2.194   3.162  0.00  0.00    -0.075 A 
ATOM      6  C7  UNL d   1      -3.634   1.122   2.235  0.00  0.00     0.076 C 
ATOM      7  C8  UNL d   1      -4.266   3.510   2.698  0.00  0.00     0.001 A 
ENDROOT
BRANCH   1   8
ATOM      8  C1  UNL d   1      -4.872   5.938   3.033  0.00  0.00     0.053 C 
ATOM      9  C   UNL d   1      -4.871   5.999   1.513  0.00  0.00     0.018 C 
ENDBRANCH   1   8
TORSDOF 1
ENDMDL
