MODEL 1
REMARK minimizedAffinity 0.750206292
REMARK minimizedRMSD -1
REMARK  1 active torsions:
REMARK  status: ('A' for Active; 'I' for Inactive)
REMARK    1  A    between atoms: C1_2  and  C2_3 
ROOT
ATOM      1  C2  UNL d   1      -3.717   5.047   4.124  0.00  0.00    -0.073 A 
ATOM      2  C3  UNL d   1      -4.861   5.558   4.749  0.00  0.00    -0.002 A 
ATOM      3  C4  UNL d   1      -5.944   5.997   3.986  0.00  0.00     0.004 A 
ATOM      4  C5  UNL d   1      -5.898   5.925   2.594  0.00  0.00    -0.004 A 
ATOM      5  C6  UNL d   1      -4.769   5.406   1.952  0.00  0.00    -0.075 A 
ATOM      6  C7  UNL d   1      -4.702   5.323   0.455  0.00  0.00     0.076 C 
ATOM      7  C8  UNL d   1      -3.684   4.969   2.725  0.00  0.00     0.001 A 
ENDROOT
BRANCH   1   8
ATOM      8  C1  UNL d   1      -2.548   4.565   4.944  0.00  0.00     0.053 C 
ATOM      9  C   UNL d   1      -2.618   3.070   5.213  0.00  0.00     0.018 C 
ENDBRANCH   1   8
TORSDOF 1
ENDMDL
