MODEL 1
REMARK minimizedAffinity 8.29419231
REMARK minimizedRMSD -1
REMARK  1 active torsions:
REMARK  status: ('A' for Active; 'I' for Inactive)
REMARK    1  A    between atoms: C1_2  and  C2_3 
ROOT
ATOM      1  C2  UNL d   1      -1.813  -0.829  -1.586  0.00  0.00    -0.073 A 
ATOM      2  C3  UNL d   1      -1.603  -1.502  -0.376  0.00  0.00    -0.002 A 
ATOM      3  C4  UNL d   1      -0.760  -0.959   0.595  0.00  0.00     0.004 A 
ATOM      4  C5  UNL d   1      -0.125   0.262   0.370  0.00  0.00    -0.004 A 
ATOM      5  C6  UNL d   1      -0.332   0.955  -0.827  0.00  0.00    -0.075 A 
ATOM      6  C7  UNL d   1       0.346   2.269  -1.085  0.00  0.00     0.076 C 
ATOM      7  C8  UNL d   1      -1.177   0.403  -1.798  0.00  0.00     0.001 A 
ENDROOT
BRANCH   1   8
ATOM      8  C1  UNL d   1      -2.727  -1.408  -2.634  0.00  0.00     0.053 C 
ATOM      9  C   UNL d   1      -2.162  -1.243  -4.036  0.00  0.00     0.018 C 
ENDBRANCH   1   8
TORSDOF 1
ENDMDL
