MODEL 1
REMARK minimizedAffinity 1.9021337
REMARK minimizedRMSD -1
REMARK  1 active torsions:
REMARK  status: ('A' for Active; 'I' for Inactive)
REMARK    1  A    between atoms: C1_2  and  C2_3 
ROOT
ATOM      1  C2  UNL d   1      -2.016  -1.402  -1.173  0.00  0.00    -0.073 A 
ATOM      2  C3  UNL d   1      -1.043  -0.604  -1.785  0.00  0.00    -0.002 A 
ATOM      3  C4  UNL d   1      -0.556   0.533  -1.139  0.00  0.00     0.004 A 
ATOM      4  C5  UNL d   1      -1.031   0.880   0.125  0.00  0.00    -0.004 A 
ATOM      5  C6  UNL d   1      -1.995   0.089   0.758  0.00  0.00    -0.075 A 
ATOM      6  C7  UNL d   1      -2.519   0.449   2.117  0.00  0.00     0.076 C 
ATOM      7  C8  UNL d   1      -2.481  -1.050   0.102  0.00  0.00     0.001 A 
ENDROOT
BRANCH   1   8
ATOM      8  C1  UNL d   1      -2.540  -2.635  -1.864  0.00  0.00     0.053 C 
ATOM      9  C   UNL d   1      -2.541  -2.484  -3.377  0.00  0.00     0.018 C 
ENDBRANCH   1   8
TORSDOF 1
ENDMDL
