MODEL 1
REMARK minimizedAffinity 2.68032026
REMARK minimizedRMSD -1
REMARK  1 active torsions:
REMARK  status: ('A' for Active; 'I' for Inactive)
REMARK    1  A    between atoms: C1_2  and  C2_3 
ROOT
ATOM      1  C2  UNL d   1      -1.954  -1.712  -2.082  0.00  0.00    -0.073 A 
ATOM      2  C3  UNL d   1      -2.284  -2.926  -1.468  0.00  0.00    -0.002 A 
ATOM      3  C4  UNL d   1      -3.000  -3.898  -2.168  0.00  0.00     0.004 A 
ATOM      4  C5  UNL d   1      -3.387  -3.669  -3.489  0.00  0.00    -0.004 A 
ATOM      5  C6  UNL d   1      -3.057  -2.467  -4.123  0.00  0.00    -0.075 A 
ATOM      6  C7  UNL d   1      -3.468  -2.205  -5.542  0.00  0.00     0.076 C 
ATOM      7  C8  UNL d   1      -2.340  -1.495  -3.412  0.00  0.00     0.001 A 
ENDROOT
BRANCH   1   8
ATOM      8  C1  UNL d   1      -1.175  -0.662  -1.332  0.00  0.00     0.053 C 
ATOM      9  C   UNL d   1      -0.782  -1.130   0.060  0.00  0.00     0.018 C 
ENDBRANCH   1   8
TORSDOF 1
ENDMDL
