MODEL 1
REMARK minimizedAffinity 3.225981
REMARK minimizedRMSD -1
REMARK  1 active torsions:
REMARK  status: ('A' for Active; 'I' for Inactive)
REMARK    1  A    between atoms: C1_2  and  C2_3 
ROOT
ATOM      1  C2  UNL d   1       0.654   1.743   4.579  0.00  0.00    -0.073 A 
ATOM      2  C3  UNL d   1       1.407   0.646   5.015  0.00  0.00    -0.002 A 
ATOM      3  C4  UNL d   1       2.755   0.536   4.674  0.00  0.00     0.004 A 
ATOM      4  C5  UNL d   1       3.367   1.524   3.901  0.00  0.00    -0.004 A 
ATOM      5  C6  UNL d   1       2.635   2.633   3.467  0.00  0.00    -0.075 A 
ATOM      6  C7  UNL d   1       3.277   3.703   2.633  0.00  0.00     0.076 C 
ATOM      7  C8  UNL d   1       1.280   2.735   3.811  0.00  0.00     0.001 A 
ENDROOT
BRANCH   1   8
ATOM      8  C1  UNL d   1      -0.801   1.869   4.950  0.00  0.00     0.053 C 
ATOM      9  C   UNL d   1      -1.157   3.280   5.390  0.00  0.00     0.018 C 
ENDBRANCH   1   8
TORSDOF 1
ENDMDL
