MODEL 1
REMARK minimizedAffinity 9.28355885
REMARK minimizedRMSD -1
REMARK  1 active torsions:
REMARK  status: ('A' for Active; 'I' for Inactive)
REMARK    1  A    between atoms: C1_2  and  C2_3 
ROOT
ATOM      1  C2  UNL d   1      -5.294  -3.548   0.449  0.00  0.00    -0.073 A 
ATOM      2  C3  UNL d   1      -5.956  -4.190   1.502  0.00  0.00    -0.002 A 
ATOM      3  C4  UNL d   1      -5.487  -5.411   1.989  0.00  0.00     0.004 A 
ATOM      4  C5  UNL d   1      -4.351  -5.998   1.434  0.00  0.00    -0.004 A 
ATOM      5  C6  UNL d   1      -3.669  -5.367   0.389  0.00  0.00    -0.075 A 
ATOM      6  C7  UNL d   1      -2.446  -5.986  -0.220  0.00  0.00     0.076 C 
ATOM      7  C8  UNL d   1      -4.147  -4.142  -0.096  0.00  0.00     0.001 A 
ENDROOT
BRANCH   1   8
ATOM      8  C1  UNL d   1      -5.793  -2.227  -0.076  0.00  0.00     0.053 C 
ATOM      9  C   UNL d   1      -5.478  -2.044  -1.552  0.00  0.00     0.018 C 
ENDBRANCH   1   8
TORSDOF 1
ENDMDL
