MODEL 1
REMARK minimizedAffinity -1.46578383
REMARK minimizedRMSD -1
REMARK  1 active torsions:
REMARK  status: ('A' for Active; 'I' for Inactive)
REMARK    1  A    between atoms: C1_2  and  C2_3 
ROOT
ATOM      1  C2  UNL d   1      -5.208  -4.557   1.124  0.00  0.00    -0.073 A 
ATOM      2  C3  UNL d   1      -3.828  -4.576   0.893  0.00  0.00    -0.002 A 
ATOM      3  C4  UNL d   1      -3.157  -3.405   0.538  0.00  0.00     0.004 A 
ATOM      4  C5  UNL d   1      -3.855  -2.204   0.417  0.00  0.00    -0.004 A 
ATOM      5  C6  UNL d   1      -5.233  -2.162   0.654  0.00  0.00    -0.075 A 
ATOM      6  C7  UNL d   1      -6.000  -0.879   0.526  0.00  0.00     0.076 C 
ATOM      7  C8  UNL d   1      -5.901  -3.343   1.008  0.00  0.00     0.001 A 
ENDROOT
BRANCH   1   8
ATOM      8  C1  UNL d   1      -5.937  -5.817   1.514  0.00  0.00     0.053 C 
ATOM      9  C   UNL d   1      -5.995  -5.998   3.022  0.00  0.00     0.018 C 
ENDBRANCH   1   8
TORSDOF 1
ENDMDL
