MODEL 1
REMARK minimizedAffinity 10.966033
REMARK minimizedRMSD -1
REMARK  1 active torsions:
REMARK  status: ('A' for Active; 'I' for Inactive)
REMARK    1  A    between atoms: C1_2  and  C2_3 
ROOT
ATOM      1  C2  UNL d   1      -3.950  -1.899   0.560  0.00  0.00    -0.073 A 
ATOM      2  C3  UNL d   1      -5.204  -1.606   0.011  0.00  0.00    -0.002 A 
ATOM      3  C4  UNL d   1      -5.999  -2.625  -0.514  0.00  0.00     0.004 A 
ATOM      4  C5  UNL d   1      -5.554  -3.947  -0.489  0.00  0.00    -0.004 A 
ATOM      5  C6  UNL d   1      -4.309  -4.261   0.066  0.00  0.00    -0.075 A 
ATOM      6  C7  UNL d   1      -3.814  -5.678   0.099  0.00  0.00     0.076 C 
ATOM      7  C8  UNL d   1      -3.515  -3.232   0.589  0.00  0.00     0.001 A 
ENDROOT
BRANCH   1   8
ATOM      8  C1  UNL d   1      -3.091  -0.803   1.134  0.00  0.00     0.053 C 
ATOM      9  C   UNL d   1      -1.925  -1.354   1.939  0.00  0.00     0.018 C 
ENDBRANCH   1   8
TORSDOF 1
ENDMDL
