MODEL 1
REMARK minimizedAffinity 1.10979927
REMARK minimizedRMSD -1
REMARK  1 active torsions:
REMARK  status: ('A' for Active; 'I' for Inactive)
REMARK    1  A    between atoms: C1_2  and  C2_3 
ROOT
ATOM      1  C2  UNL d   1      -3.092  -2.498  -5.703  0.00  0.00    -0.073 A 
ATOM      2  C3  UNL d   1      -3.724  -3.711  -6.000  0.00  0.00    -0.002 A 
ATOM      3  C4  UNL d   1      -5.083  -3.882  -5.730  0.00  0.00     0.004 A 
ATOM      4  C5  UNL d   1      -5.823  -2.842  -5.168  0.00  0.00    -0.004 A 
ATOM      5  C6  UNL d   1      -5.211  -1.619  -4.875  0.00  0.00    -0.075 A 
ATOM      6  C7  UNL d   1      -5.993  -0.491  -4.267  0.00  0.00     0.076 C 
ATOM      7  C8  UNL d   1      -3.846  -1.456  -5.146  0.00  0.00     0.001 A 
ENDROOT
BRANCH   1   8
ATOM      8  C1  UNL d   1      -1.626  -2.307  -5.998  0.00  0.00     0.053 C 
ATOM      9  C   UNL d   1      -1.125  -0.947  -5.538  0.00  0.00     0.018 C 
ENDBRANCH   1   8
TORSDOF 1
ENDMDL
