MODEL 1
REMARK minimizedAffinity 9.5905695
REMARK minimizedRMSD -1
REMARK  1 active torsions:
REMARK  status: ('A' for Active; 'I' for Inactive)
REMARK    1  A    between atoms: C1_2  and  C2_3 
ROOT
ATOM      1  C2  UNL d   1      -0.282  -2.437  -5.372  0.00  0.00    -0.073 A 
ATOM      2  C3  UNL d   1       0.812  -2.364  -4.503  0.00  0.00    -0.002 A 
ATOM      3  C4  UNL d   1       1.332  -1.125  -4.127  0.00  0.00     0.004 A 
ATOM      4  C5  UNL d   1       0.760   0.052  -4.609  0.00  0.00    -0.004 A 
ATOM      5  C6  UNL d   1      -0.341  -0.000  -5.470  0.00  0.00    -0.075 A 
ATOM      6  C7  UNL d   1      -0.967   1.257  -6.000  0.00  0.00     0.076 C 
ATOM      7  C8  UNL d   1      -0.856  -1.248  -5.845  0.00  0.00     0.001 A 
ENDROOT
BRANCH   1   8
ATOM      8  C1  UNL d   1      -0.851  -3.773  -5.776  0.00  0.00     0.053 C 
ATOM      9  C   UNL d   1      -2.354  -3.708  -5.999  0.00  0.00     0.018 C 
ENDBRANCH   1   8
TORSDOF 1
ENDMDL
