MODEL 1
REMARK minimizedAffinity 7.2834177
REMARK minimizedRMSD -1
REMARK  1 active torsions:
REMARK  status: ('A' for Active; 'I' for Inactive)
REMARK    1  A    between atoms: C1_2  and  C2_3 
ROOT
ATOM      1  C2  UNL d   1      -1.710   1.163   2.239  0.00  0.00    -0.073 A 
ATOM      2  C3  UNL d   1      -1.464  -0.064   2.867  0.00  0.00    -0.002 A 
ATOM      3  C4  UNL d   1      -0.185  -0.376   3.329  0.00  0.00     0.004 A 
ATOM      4  C5  UNL d   1       0.859   0.537   3.174  0.00  0.00    -0.004 A 
ATOM      5  C6  UNL d   1       0.631   1.773   2.561  0.00  0.00    -0.075 A 
ATOM      6  C7  UNL d   1       1.743   2.764   2.385  0.00  0.00     0.076 C 
ATOM      7  C8  UNL d   1      -0.656   2.077   2.097  0.00  0.00     0.001 A 
ENDROOT
BRANCH   1   8
ATOM      8  C1  UNL d   1      -3.091   1.506   1.745  0.00  0.00     0.053 C 
ATOM      9  C   UNL d   1      -3.365   3.000   1.812  0.00  0.00     0.018 C 
ENDBRANCH   1   8
TORSDOF 1
ENDMDL
