MODEL 1
REMARK minimizedAffinity 14.0955772
REMARK minimizedRMSD -1
REMARK  1 active torsions:
REMARK  status: ('A' for Active; 'I' for Inactive)
REMARK    1  A    between atoms: C1_2  and  C2_3 
ROOT
ATOM      1  C2  UNL d   1       2.635   1.898  -5.221  0.00  0.00    -0.073 A 
ATOM      2  C3  UNL d   1       3.359   1.504  -4.090  0.00  0.00    -0.002 A 
ATOM      3  C4  UNL d   1       2.985   0.366  -3.374  0.00  0.00     0.004 A 
ATOM      4  C5  UNL d   1       1.889  -0.393  -3.785  0.00  0.00    -0.004 A 
ATOM      5  C6  UNL d   1       1.160  -0.022  -4.920  0.00  0.00    -0.075 A 
ATOM      6  C7  UNL d   1      -0.023  -0.826  -5.374  0.00  0.00     0.076 C 
ATOM      7  C8  UNL d   1       1.540   1.124  -5.631  0.00  0.00     0.001 A 
ENDROOT
BRANCH   1   8
ATOM      8  C1  UNL d   1       3.039   3.123  -6.000  0.00  0.00     0.053 C 
ATOM      9  C   UNL d   1       3.743   4.148  -5.125  0.00  0.00     0.018 C 
ENDBRANCH   1   8
TORSDOF 1
ENDMDL
