MODEL 1
REMARK minimizedAffinity -0.0169149265
REMARK minimizedRMSD -1
REMARK  1 active torsions:
REMARK  status: ('A' for Active; 'I' for Inactive)
REMARK    1  A    between atoms: C1_2  and  C2_3 
ROOT
ATOM      1  C2  UNL d   1      -2.471   1.208   4.652  0.00  0.00    -0.073 A 
ATOM      2  C3  UNL d   1      -1.658   2.322   4.888  0.00  0.00    -0.002 A 
ATOM      3  C4  UNL d   1      -0.848   2.831   3.872  0.00  0.00     0.004 A 
ATOM      4  C5  UNL d   1      -0.848   2.238   2.610  0.00  0.00    -0.004 A 
ATOM      5  C6  UNL d   1      -1.663   1.131   2.351  0.00  0.00    -0.075 A 
ATOM      6  C7  UNL d   1      -1.673   0.479   1.000  0.00  0.00     0.076 C 
ATOM      7  C8  UNL d   1      -2.472   0.624   3.377  0.00  0.00     0.001 A 
ENDROOT
BRANCH   1   8
ATOM      8  C1  UNL d   1      -3.352   0.659   5.744  0.00  0.00     0.053 C 
ATOM      9  C   UNL d   1      -4.570   1.535   5.989  0.00  0.00     0.018 C 
ENDBRANCH   1   8
TORSDOF 1
ENDMDL
