MODEL 1
REMARK minimizedAffinity 12.144331
REMARK minimizedRMSD -1
REMARK  3 active torsions:
REMARK  status: ('A' for Active; 'I' for Inactive)
REMARK    1  A    between atoms: C3'_2  and  C2'_3 
REMARK    2  A    between atoms: C2'_3  and  C1'_4 
REMARK    3  A    between atoms: C1'_4  and  C1_5 
ROOT
ATOM      1  C1  N4B d   1       3.877   2.996  -0.300  0.00  0.00    -0.075 A 
ATOM      2  C2  N4B d   1       5.043   2.741  -1.054  0.00  0.00     0.002 A 
ATOM      3  C3  N4B d   1       6.000   3.716  -1.190  0.00  0.00     0.002 A 
ATOM      4  C4  N4B d   1       5.805   4.955  -0.600  0.00  0.00    -0.004 A 
ATOM      5  C5  N4B d   1       4.688   5.186   0.148  0.00  0.00     0.002 A 
ATOM      6  C6  N4B d   1       3.719   4.214   0.297  0.00  0.00     0.002 A 
ENDROOT
BRANCH   1   7
ATOM      7  C1' N4B d   1       2.763   1.991  -0.194  0.00  0.00     0.057 C 
BRANCH   7   8
ATOM      8  C2' N4B d   1       2.328   1.576  -1.596  0.00  0.00     0.009 C 
BRANCH   8   9
ATOM      9  C3' N4B d   1       2.413   0.073  -1.796  0.00  0.00     0.004 C 
ATOM     10  C4' N4B d   1       2.913  -0.304  -3.159  0.00  0.00     0.003 C 
ENDBRANCH   8   9
ENDBRANCH   7   8
ENDBRANCH   1   7
TORSDOF 3
ENDMDL
