MODEL 1
REMARK minimizedAffinity 15.7755013
REMARK minimizedRMSD -1
REMARK  3 active torsions:
REMARK  status: ('A' for Active; 'I' for Inactive)
REMARK    1  A    between atoms: C3'_2  and  C2'_3 
REMARK    2  A    between atoms: C2'_3  and  C1'_4 
REMARK    3  A    between atoms: C1'_4  and  C1_5 
ROOT
ATOM      1  C1  N4B d   1       4.196   3.255   0.246  0.00  0.00    -0.075 A 
ATOM      2  C2  N4B d   1       5.185   2.938  -0.711  0.00  0.00     0.002 A 
ATOM      3  C3  N4B d   1       5.997   3.926  -1.211  0.00  0.00     0.002 A 
ATOM      4  C4  N4B d   1       5.828   5.234  -0.786  0.00  0.00    -0.004 A 
ATOM      5  C5  N4B d   1       4.887   5.528   0.158  0.00  0.00     0.002 A 
ATOM      6  C6  N4B d   1       4.066   4.545   0.673  0.00  0.00     0.002 A 
ENDROOT
BRANCH   1   7
ATOM      7  C1' N4B d   1       3.227   2.224   0.759  0.00  0.00     0.057 C 
BRANCH   7   8
ATOM      8  C2' N4B d   1       2.295   1.806  -0.374  0.00  0.00     0.009 C 
BRANCH   8   9
ATOM      9  C3' N4B d   1       2.627   0.420  -0.901  0.00  0.00     0.004 C 
ATOM     10  C4' N4B d   1       2.624   0.352  -2.399  0.00  0.00     0.003 C 
ENDBRANCH   8   9
ENDBRANCH   7   8
ENDBRANCH   1   7
TORSDOF 3
ENDMDL
