MODEL 1
REMARK minimizedAffinity 4.86666584
REMARK minimizedRMSD -1
REMARK  3 active torsions:
REMARK  status: ('A' for Active; 'I' for Inactive)
REMARK    1  A    between atoms: C3'_2  and  C2'_3 
REMARK    2  A    between atoms: C2'_3  and  C1'_4 
REMARK    3  A    between atoms: C1'_4  and  C1_5 
ROOT
ATOM      1  C1  N4B d   1      -1.877  -2.836   2.058  0.00  0.00    -0.075 A 
ATOM      2  C2  N4B d   1      -1.882  -1.731   1.178  0.00  0.00     0.002 A 
ATOM      3  C3  N4B d   1      -1.063  -1.728   0.076  0.00  0.00     0.002 A 
ATOM      4  C4  N4B d   1      -0.220  -2.804  -0.156  0.00  0.00    -0.004 A 
ATOM      5  C5  N4B d   1      -0.240  -3.879   0.685  0.00  0.00     0.002 A 
ATOM      6  C6  N4B d   1      -1.061  -3.897   1.794  0.00  0.00     0.002 A 
ENDROOT
BRANCH   1   7
ATOM      7  C1' N4B d   1      -2.691  -2.848   3.323  0.00  0.00     0.057 C 
BRANCH   7   8
ATOM      8  C2' N4B d   1      -1.753  -2.789   4.524  0.00  0.00     0.009 C 
BRANCH   8   9
ATOM      9  C3' N4B d   1      -1.465  -1.359   4.951  0.00  0.00     0.004 C 
ATOM     10  C4' N4B d   1      -2.694  -0.500   4.966  0.00  0.00     0.003 C 
ENDBRANCH   8   9
ENDBRANCH   7   8
ENDBRANCH   1   7
TORSDOF 3
ENDMDL
