MODEL 1
REMARK minimizedAffinity 8.94130611
REMARK minimizedRMSD -1
REMARK  3 active torsions:
REMARK  status: ('A' for Active; 'I' for Inactive)
REMARK    1  A    between atoms: C3'_2  and  C2'_3 
REMARK    2  A    between atoms: C2'_3  and  C1'_4 
REMARK    3  A    between atoms: C1'_4  and  C1_5 
ROOT
ATOM      1  C1  N4B d   1       1.750   1.675  -1.446  0.00  0.00    -0.075 A 
ATOM      2  C2  N4B d   1       1.360   0.319  -1.501  0.00  0.00     0.002 A 
ATOM      3  C3  N4B d   1       0.648  -0.148  -2.579  0.00  0.00     0.002 A 
ATOM      4  C4  N4B d   1       0.301   0.723  -3.600  0.00  0.00    -0.004 A 
ATOM      5  C5  N4B d   1       0.703   2.026  -3.552  0.00  0.00     0.002 A 
ATOM      6  C6  N4B d   1       1.422   2.508  -2.477  0.00  0.00     0.002 A 
ENDROOT
BRANCH   1   7
ATOM      7  C1' N4B d   1       2.454   2.251  -0.248  0.00  0.00     0.057 C 
BRANCH   7   8
ATOM      8  C2' N4B d   1       3.793   2.837  -0.688  0.00  0.00     0.009 C 
BRANCH   8   9
ATOM      9  C3' N4B d   1       4.373   3.776   0.356  0.00  0.00     0.004 C 
ATOM     10  C4' N4B d   1       4.885   5.055  -0.235  0.00  0.00     0.003 C 
ENDBRANCH   8   9
ENDBRANCH   7   8
ENDBRANCH   1   7
TORSDOF 3
ENDMDL
