MODEL 1
REMARK minimizedAffinity 16.5441265
REMARK minimizedRMSD -1
REMARK  3 active torsions:
REMARK  status: ('A' for Active; 'I' for Inactive)
REMARK    1  A    between atoms: C3'_2  and  C2'_3 
REMARK    2  A    between atoms: C2'_3  and  C1'_4 
REMARK    3  A    between atoms: C1'_4  and  C1_5 
ROOT
ATOM      1  C1  N4B d   1      -2.057  -2.587   2.123  0.00  0.00    -0.075 A 
ATOM      2  C2  N4B d   1      -2.708  -1.670   1.269  0.00  0.00     0.002 A 
ATOM      3  C3  N4B d   1      -2.405  -1.645  -0.070  0.00  0.00     0.002 A 
ATOM      4  C4  N4B d   1      -1.444  -2.509  -0.572  0.00  0.00    -0.004 A 
ATOM      5  C5  N4B d   1      -0.838  -3.409   0.254  0.00  0.00     0.002 A 
ATOM      6  C6  N4B d   1      -1.135  -3.449   1.602  0.00  0.00     0.002 A 
ENDROOT
BRANCH   1   7
ATOM      7  C1' N4B d   1      -2.292  -2.594   3.609  0.00  0.00     0.057 C 
BRANCH   7   8
ATOM      8  C2' N4B d   1      -1.517  -1.444   4.244  0.00  0.00     0.009 C 
BRANCH   8   9
ATOM      9  C3' N4B d   1      -2.185  -0.941   5.513  0.00  0.00     0.004 C 
ATOM     10  C4' N4B d   1      -2.646   0.482   5.401  0.00  0.00     0.003 C 
ENDBRANCH   8   9
ENDBRANCH   7   8
ENDBRANCH   1   7
TORSDOF 3
ENDMDL
