MODEL 1
REMARK minimizedAffinity 10.7177124
REMARK minimizedRMSD -1
REMARK  3 active torsions:
REMARK  status: ('A' for Active; 'I' for Inactive)
REMARK    1  A    between atoms: C3'_2  and  C2'_3 
REMARK    2  A    between atoms: C2'_3  and  C1'_4 
REMARK    3  A    between atoms: C1'_4  and  C1_5 
ROOT
ATOM      1  C1  N4B d   1      -1.650  -1.971  -0.208  0.00  0.00    -0.075 A 
ATOM      2  C2  N4B d   1      -0.817  -3.101  -0.046  0.00  0.00     0.002 A 
ATOM      3  C3  N4B d   1      -0.974  -3.918   1.046  0.00  0.00     0.002 A 
ATOM      4  C4  N4B d   1      -1.940  -3.617   1.995  0.00  0.00    -0.004 A 
ATOM      5  C5  N4B d   1      -2.757  -2.539   1.818  0.00  0.00     0.002 A 
ATOM      6  C6  N4B d   1      -2.613  -1.711   0.723  0.00  0.00     0.002 A 
ENDROOT
BRANCH   1   7
ATOM      7  C1' N4B d   1      -1.459  -1.001  -1.342  0.00  0.00     0.057 C 
BRANCH   7   8
ATOM      8  C2' N4B d   1      -0.188  -1.364  -2.104  0.00  0.00     0.009 C 
BRANCH   8   9
ATOM      9  C3' N4B d   1       0.490  -0.140  -2.695  0.00  0.00     0.004 C 
ATOM     10  C4' N4B d   1       1.918   0.001  -2.259  0.00  0.00     0.003 C 
ENDBRANCH   8   9
ENDBRANCH   7   8
ENDBRANCH   1   7
TORSDOF 3
ENDMDL
