MODEL 1
REMARK minimizedAffinity -4.67032337
REMARK minimizedRMSD -1
REMARK  1 active torsions:
REMARK  status: ('A' for Active; 'I' for Inactive)
REMARK    1  A    between atoms: C1_2  and  C2_3 
ROOT
ATOM      1  C2  UNL d   1      -0.489   0.165   0.324  0.00  0.00    -0.077 A 
ATOM      2  C3  UNL d   1      -0.663  -0.162   1.676  0.00  0.00     0.002 A 
ATOM      3  C4  UNL d   1      -1.547   0.569   2.471  0.00  0.00     0.002 A 
ATOM      4  C5  UNL d   1      -2.267   1.629   1.923  0.00  0.00    -0.004 A 
ATOM      5  C6  UNL d   1      -2.099   1.963   0.580  0.00  0.00     0.002 A 
ATOM      6  C7  UNL d   1      -1.215   1.234  -0.216  0.00  0.00     0.002 A 
ENDROOT
BRANCH   1   7
ATOM      7  C1  UNL d   1       0.427  -0.653  -0.548  0.00  0.00     0.055 C 
ATOM      8  C   UNL d   1      -0.353  -1.665  -1.374  0.00  0.00     0.019 C 
ENDBRANCH   1   7
TORSDOF 1
ENDMDL
