MODEL 1
REMARK minimizedAffinity -2.32582045
REMARK minimizedRMSD -1
REMARK  1 active torsions:
REMARK  status: ('A' for Active; 'I' for Inactive)
REMARK    1  A    between atoms: C1_2  and  C2_3 
ROOT
ATOM      1  C2  UNL d   1      -0.689   1.088   1.481  0.00  0.00    -0.077 A 
ATOM      2  C3  UNL d   1      -0.487   1.288   0.108  0.00  0.00     0.002 A 
ATOM      3  C4  UNL d   1       0.101   0.290  -0.671  0.00  0.00     0.002 A 
ATOM      4  C5  UNL d   1       0.486  -0.916  -0.089  0.00  0.00    -0.004 A 
ATOM      5  C6  UNL d   1       0.291  -1.123   1.276  0.00  0.00     0.002 A 
ATOM      6  C7  UNL d   1      -0.295  -0.126   2.058  0.00  0.00     0.002 A 
ENDROOT
BRANCH   1   7
ATOM      7  C1  UNL d   1      -1.368   2.144   2.314  0.00  0.00     0.055 C 
ATOM      8  C   UNL d   1      -0.512   2.541   3.509  0.00  0.00     0.019 C 
ENDBRANCH   1   7
TORSDOF 1
ENDMDL
