MODEL 1
REMARK minimizedAffinity -0.869297266
REMARK minimizedRMSD -1
REMARK  1 active torsions:
REMARK  status: ('A' for Active; 'I' for Inactive)
REMARK    1  A    between atoms: C1_2  and  C2_3 
ROOT
ATOM      1  C2  UNL d   1       0.003   0.097   0.323  0.00  0.00    -0.077 A 
ATOM      2  C3  UNL d   1      -0.740   1.149   0.877  0.00  0.00     0.002 A 
ATOM      3  C4  UNL d   1      -1.059   1.149   2.236  0.00  0.00     0.002 A 
ATOM      4  C5  UNL d   1      -0.635   0.103   3.053  0.00  0.00    -0.004 A 
ATOM      5  C6  UNL d   1       0.102  -0.949   2.511  0.00  0.00     0.002 A 
ATOM      6  C7  UNL d   1       0.421  -0.951   1.153  0.00  0.00     0.002 A 
ENDROOT
BRANCH   1   7
ATOM      7  C1  UNL d   1       0.390   0.120  -1.133  0.00  0.00     0.055 C 
ATOM      8  C   UNL d   1       0.730   1.530  -1.593  0.00  0.00     0.019 C 
ENDBRANCH   1   7
TORSDOF 1
ENDMDL
