MODEL 1
REMARK minimizedAffinity -0.561071098
REMARK minimizedRMSD -1
REMARK  1 active torsions:
REMARK  status: ('A' for Active; 'I' for Inactive)
REMARK    1  A    between atoms: C1_2  and  C2_3 
ROOT
ATOM      1  C2  UNL d   1       0.874  -1.570  -1.158  0.00  0.00    -0.077 A 
ATOM      2  C3  UNL d   1       1.076  -2.910  -0.798  0.00  0.00     0.002 A 
ATOM      3  C4  UNL d   1       0.687  -3.939  -1.659  0.00  0.00     0.002 A 
ATOM      4  C5  UNL d   1       0.098  -3.639  -2.885  0.00  0.00    -0.004 A 
ATOM      5  C6  UNL d   1      -0.109  -2.310  -3.251  0.00  0.00     0.002 A 
ATOM      6  C7  UNL d   1       0.277  -1.280  -2.392  0.00  0.00     0.002 A 
ENDROOT
BRANCH   1   7
ATOM      7  C1  UNL d   1       1.337  -0.458  -0.254  0.00  0.00     0.055 C 
ATOM      8  C   UNL d   1       1.201   0.898  -0.930  0.00  0.00     0.019 C 
ENDBRANCH   1   7
TORSDOF 1
ENDMDL
