MODEL 1
REMARK minimizedAffinity -2.32076931
REMARK minimizedRMSD -1
REMARK  1 active torsions:
REMARK  status: ('A' for Active; 'I' for Inactive)
REMARK    1  A    between atoms: C1_2  and  C2_3 
ROOT
ATOM      1  C2  UNL d   1       0.397  -2.226  -1.245  0.00  0.00    -0.077 A 
ATOM      2  C3  UNL d   1      -0.556  -1.201  -1.165  0.00  0.00     0.002 A 
ATOM      3  C4  UNL d   1      -0.210   0.046  -0.640  0.00  0.00     0.002 A 
ATOM      4  C5  UNL d   1       1.090   0.280  -0.195  0.00  0.00    -0.004 A 
ATOM      5  C6  UNL d   1       2.044  -0.734  -0.269  0.00  0.00     0.002 A 
ATOM      6  C7  UNL d   1       1.699  -1.981  -0.792  0.00  0.00     0.002 A 
ENDROOT
BRANCH   1   7
ATOM      7  C1  UNL d   1       0.038  -3.555  -1.856  0.00  0.00     0.055 C 
ATOM      8  C   UNL d   1       0.019  -3.478  -3.376  0.00  0.00     0.019 C 
ENDBRANCH   1   7
TORSDOF 1
ENDMDL
