MODEL 1
REMARK minimizedAffinity -2.46577883
REMARK minimizedRMSD -1
REMARK  1 active torsions:
REMARK  status: ('A' for Active; 'I' for Inactive)
REMARK    1  A    between atoms: C1_2  and  C2_3 
ROOT
ATOM      1  C2  UNL d   1      -3.860  -2.396   3.475  0.00  0.00    -0.077 A 
ATOM      2  C3  UNL d   1      -4.637  -2.464   4.640  0.00  0.00     0.002 A 
ATOM      3  C4  UNL d   1      -4.026  -2.483   5.896  0.00  0.00     0.002 A 
ATOM      4  C5  UNL d   1      -2.638  -2.430   5.998  0.00  0.00    -0.004 A 
ATOM      5  C6  UNL d   1      -1.857  -2.363   4.846  0.00  0.00     0.002 A 
ATOM      6  C7  UNL d   1      -2.465  -2.345   3.590  0.00  0.00     0.002 A 
ENDROOT
BRANCH   1   7
ATOM      7  C1  UNL d   1      -4.518  -2.325   2.122  0.00  0.00     0.055 C 
ATOM      8  C   UNL d   1      -5.979  -2.744   2.195  0.00  0.00     0.019 C 
ENDBRANCH   1   7
TORSDOF 1
ENDMDL
