MODEL 1
REMARK minimizedAffinity -2.57591963
REMARK minimizedRMSD -1
REMARK  1 active torsions:
REMARK  status: ('A' for Active; 'I' for Inactive)
REMARK    1  A    between atoms: C1_2  and  C2_3 
ROOT
ATOM      1  C2  UNL d   1       0.402  -1.913  -1.252  0.00  0.00    -0.077 A 
ATOM      2  C3  UNL d   1       1.103  -3.044  -0.812  0.00  0.00     0.002 A 
ATOM      3  C4  UNL d   1       1.045  -4.237  -1.536  0.00  0.00     0.002 A 
ATOM      4  C5  UNL d   1       0.292  -4.308  -2.705  0.00  0.00    -0.004 A 
ATOM      5  C6  UNL d   1      -0.411  -3.188  -3.150  0.00  0.00     0.002 A 
ATOM      6  C7  UNL d   1      -0.355  -1.996  -2.427  0.00  0.00     0.002 A 
ENDROOT
BRANCH   1   7
ATOM      7  C1  UNL d   1       0.502  -0.612  -0.499  0.00  0.00     0.055 C 
ATOM      8  C   UNL d   1      -0.596   0.355  -0.915  0.00  0.00     0.019 C 
ENDBRANCH   1   7
TORSDOF 1
ENDMDL
