MODEL 1
REMARK minimizedAffinity -3.97981501
REMARK minimizedRMSD -1
REMARK  1 active torsions:
REMARK  status: ('A' for Active; 'I' for Inactive)
REMARK    1  A    between atoms: C1_2  and  C2_3 
ROOT
ATOM      1  C2  UNL d   1       0.469  -0.502  -0.442  0.00  0.00    -0.077 A 
ATOM      2  C3  UNL d   1      -0.482   0.367  -0.996  0.00  0.00     0.002 A 
ATOM      3  C4  UNL d   1      -1.282   1.159  -0.170  0.00  0.00     0.002 A 
ATOM      4  C5  UNL d   1      -1.136   1.094   1.214  0.00  0.00    -0.004 A 
ATOM      5  C6  UNL d   1      -0.194   0.232   1.775  0.00  0.00     0.002 A 
ATOM      6  C7  UNL d   1       0.605  -0.562   0.950  0.00  0.00     0.002 A 
ENDROOT
BRANCH   1   7
ATOM      7  C1  UNL d   1       1.366  -1.320  -1.333  0.00  0.00     0.055 C 
ATOM      8  C   UNL d   1       0.572  -2.355  -2.118  0.00  0.00     0.019 C 
ENDBRANCH   1   7
TORSDOF 1
ENDMDL
