MODEL 1
REMARK minimizedAffinity -3.08903837
REMARK minimizedRMSD -1
REMARK  1 active torsions:
REMARK  status: ('A' for Active; 'I' for Inactive)
REMARK    1  A    between atoms: C1_2  and  C2_3 
ROOT
ATOM      1  C2  UNL d   1      -0.440   0.043   0.109  0.00  0.00    -0.077 A 
ATOM      2  C3  UNL d   1      -0.131  -0.761   1.215  0.00  0.00     0.002 A 
ATOM      3  C4  UNL d   1      -0.293  -0.270   2.512  0.00  0.00     0.002 A 
ATOM      4  C5  UNL d   1      -0.767   1.024   2.715  0.00  0.00    -0.004 A 
ATOM      5  C6  UNL d   1      -1.075   1.832   1.621  0.00  0.00     0.002 A 
ATOM      6  C7  UNL d   1      -0.913   1.344   0.324  0.00  0.00     0.002 A 
ENDROOT
BRANCH   1   7
ATOM      7  C1  UNL d   1      -0.313  -0.501  -1.290  0.00  0.00     0.055 C 
ATOM      8  C   UNL d   1       0.069  -1.974  -1.278  0.00  0.00     0.019 C 
ENDBRANCH   1   7
TORSDOF 1
ENDMDL
