MODEL 1
REMARK minimizedAffinity -4.66527891
REMARK minimizedRMSD -1
REMARK  1 active torsions:
REMARK  status: ('A' for Active; 'I' for Inactive)
REMARK    1  A    between atoms: C1_2  and  C2_3 
ROOT
ATOM      1  C2  UNL d   1       0.550  -2.050  -1.203  0.00  0.00    -0.077 A 
ATOM      2  C3  UNL d   1       1.408  -1.029  -0.772  0.00  0.00     0.002 A 
ATOM      3  C4  UNL d   1       1.009  -0.152   0.238  0.00  0.00     0.002 A 
ATOM      4  C5  UNL d   1      -0.245  -0.289   0.828  0.00  0.00    -0.004 A 
ATOM      5  C6  UNL d   1      -1.106  -1.301   0.405  0.00  0.00     0.002 A 
ATOM      6  C7  UNL d   1      -0.710  -2.178  -0.605  0.00  0.00     0.002 A 
ENDROOT
BRANCH   1   7
ATOM      7  C1  UNL d   1       0.997  -3.028  -2.259  0.00  0.00     0.055 C 
ATOM      8  C   UNL d   1      -0.146  -3.394  -3.194  0.00  0.00     0.019 C 
ENDBRANCH   1   7
TORSDOF 1
ENDMDL
