MODEL 1
REMARK minimizedAffinity 8.88346577
REMARK minimizedRMSD -1
REMARK  1 active torsions:
REMARK  status: ('A' for Active; 'I' for Inactive)
REMARK    1  A    between atoms: N_2  and  C1_3 
ROOT
ATOM      1  C1  UNL d   1       2.900  -3.191   2.631  0.00  0.00     0.143 A 
ATOM      2  C2  UNL d   1       2.108  -4.072   1.885  0.00  0.00    -0.057 A 
ATOM      3  C3  UNL d   1       0.825  -3.710   1.459  0.00  0.00     0.033 A 
ATOM      4  C4  UNL d   1       0.298  -2.467   1.796  0.00  0.00    -0.042 A 
ATOM      5  C5  UNL d   1       1.057  -1.586   2.557  0.00  0.00     0.033 A 
ATOM      6  C6  UNL d   1       2.341  -1.951   2.975  0.00  0.00    -0.057 A 
ENDROOT
BRANCH   1   7
ATOM      7  N   UNL d   1       4.145  -3.530   3.168  0.00  0.00    -0.732 N 
ATOM      8  C   UNL d   1       4.455  -3.238   4.551  0.00  0.00     0.284 C 
ATOM      9  H3  UNL d   1       4.469  -4.441   2.853  0.00  0.00     0.395 HD
ENDBRANCH   1   7
TORSDOF 1
ENDMDL
