MODEL 1
REMARK minimizedAffinity 7.89057064
REMARK minimizedRMSD -1
REMARK  1 active torsions:
REMARK  status: ('A' for Active; 'I' for Inactive)
REMARK    1  A    between atoms: N_2  and  C1_3 
ROOT
ATOM      1  C1  UNL d   1      -2.233   0.042   2.502  0.00  0.00     0.143 A 
ATOM      2  C2  UNL d   1      -1.035   0.488   3.072  0.00  0.00    -0.057 A 
ATOM      3  C3  UNL d   1      -0.109  -0.412   3.612  0.00  0.00     0.033 A 
ATOM      4  C4  UNL d   1      -0.378  -1.777   3.618  0.00  0.00    -0.042 A 
ATOM      5  C5  UNL d   1      -1.573  -2.241   3.080  0.00  0.00     0.033 A 
ATOM      6  C6  UNL d   1      -2.491  -1.337   2.536  0.00  0.00    -0.057 A 
ENDROOT
BRANCH   1   7
ATOM      7  N   UNL d   1      -3.238   0.894   2.038  0.00  0.00    -0.732 N 
ATOM      8  C   UNL d   1      -4.378   1.212   2.871  0.00  0.00     0.284 C 
ATOM      9  H3  UNL d   1      -2.866   1.688   1.522  0.00  0.00     0.395 HD
ENDBRANCH   1   7
TORSDOF 1
ENDMDL
