MODEL 1
REMARK minimizedAffinity 5.37848997
REMARK minimizedRMSD -1
REMARK  1 active torsions:
REMARK  status: ('A' for Active; 'I' for Inactive)
REMARK    1  A    between atoms: N_2  and  C1_3 
ROOT
ATOM      1  C1  UNL d   1      -2.166  -0.730   2.134  0.00  0.00     0.143 A 
ATOM      2  C2  UNL d   1      -3.086   0.318   2.253  0.00  0.00    -0.057 A 
ATOM      3  C3  UNL d   1      -3.829   0.759   1.152  0.00  0.00     0.033 A 
ATOM      4  C4  UNL d   1      -3.644   0.178  -0.098  0.00  0.00    -0.042 A 
ATOM      5  C5  UNL d   1      -2.717  -0.847  -0.245  0.00  0.00     0.033 A 
ATOM      6  C6  UNL d   1      -1.983  -1.289   0.860  0.00  0.00    -0.057 A 
ENDROOT
BRANCH   1   7
ATOM      7  N   UNL d   1      -1.326  -1.148   3.169  0.00  0.00    -0.732 N 
ATOM      8  C   UNL d   1       0.058  -1.481   2.906  0.00  0.00     0.284 C 
ATOM      9  H3  UNL d   1      -1.471  -0.618   4.025  0.00  0.00     0.395 HD
ENDBRANCH   1   7
TORSDOF 1
ENDMDL
