MODEL 1
REMARK minimizedAffinity 4.10912275
REMARK minimizedRMSD -1
REMARK  1 active torsions:
REMARK  status: ('A' for Active; 'I' for Inactive)
REMARK    1  A    between atoms: N_2  and  C1_3 
ROOT
ATOM      1  C1  UNL d   1       1.916  -3.897   1.837  0.00  0.00     0.143 A 
ATOM      2  C2  UNL d   1       2.399  -2.884   1.001  0.00  0.00    -0.057 A 
ATOM      3  C3  UNL d   1       1.757  -1.642   0.920  0.00  0.00     0.033 A 
ATOM      4  C4  UNL d   1       0.600  -1.401   1.653  0.00  0.00    -0.042 A 
ATOM      5  C5  UNL d   1       0.088  -2.402   2.470  0.00  0.00     0.033 A 
ATOM      6  C6  UNL d   1       0.737  -3.638   2.553  0.00  0.00    -0.057 A 
ENDROOT
BRANCH   1   7
ATOM      7  N   UNL d   1       2.453  -5.186   1.887  0.00  0.00    -0.732 N 
ATOM      8  C   UNL d   1       3.528  -5.571   0.998  0.00  0.00     0.284 C 
ATOM      9  H3  UNL d   1       2.560  -5.525   2.840  0.00  0.00     0.395 HD
ENDBRANCH   1   7
TORSDOF 1
ENDMDL
