MODEL 1
REMARK minimizedAffinity 9.79449558
REMARK minimizedRMSD -1
REMARK  1 active torsions:
REMARK  status: ('A' for Active; 'I' for Inactive)
REMARK    1  A    between atoms: N_2  and  C1_3 
ROOT
ATOM      1  C1  UNL d   1       0.862  -1.569   2.606  0.00  0.00     0.143 A 
ATOM      2  C2  UNL d   1       1.012  -0.959   1.355  0.00  0.00    -0.057 A 
ATOM      3  C3  UNL d   1       1.741  -1.576   0.330  0.00  0.00     0.033 A 
ATOM      4  C4  UNL d   1       2.357  -2.803   0.548  0.00  0.00    -0.042 A 
ATOM      5  C5  UNL d   1       2.242  -3.416   1.791  0.00  0.00     0.033 A 
ATOM      6  C6  UNL d   1       1.508  -2.798   2.808  0.00  0.00    -0.057 A 
ENDROOT
BRANCH   1   7
ATOM      7  N   UNL d   1       0.234  -0.962   3.696  0.00  0.00    -0.732 N 
ATOM      8  C   UNL d   1      -1.195  -0.729   3.688  0.00  0.00     0.284 C 
ATOM      9  H3  UNL d   1       0.596  -1.294   4.587  0.00  0.00     0.395 HD
ENDBRANCH   1   7
TORSDOF 1
ENDMDL
