MODEL 1
REMARK minimizedAffinity 2.35016131
REMARK minimizedRMSD -1
REMARK  1 active torsions:
REMARK  status: ('A' for Active; 'I' for Inactive)
REMARK    1  A    between atoms: N_2  and  C1_3 
ROOT
ATOM      1  C1  UNL d   1       1.495  -1.891   0.335  0.00  0.00     0.143 A 
ATOM      2  C2  UNL d   1       0.701  -1.350   1.352  0.00  0.00    -0.057 A 
ATOM      3  C3  UNL d   1       0.616  -1.960   2.610  0.00  0.00     0.033 A 
ATOM      4  C4  UNL d   1       1.303  -3.143   2.863  0.00  0.00    -0.042 A 
ATOM      5  C5  UNL d   1       2.078  -3.712   1.859  0.00  0.00     0.033 A 
ATOM      6  C6  UNL d   1       2.164  -3.095   0.608  0.00  0.00    -0.057 A 
ENDROOT
BRANCH   1   7
ATOM      7  N   UNL d   1       1.543  -1.386  -0.966  0.00  0.00    -0.732 N 
ATOM      8  C   UNL d   1       0.346  -0.883  -1.607  0.00  0.00     0.284 C 
ATOM      9  H3  UNL d   1       2.372  -0.821  -1.133  0.00  0.00     0.395 HD
ENDBRANCH   1   7
TORSDOF 1
ENDMDL
