MODEL 1
REMARK minimizedAffinity 5.65053129
REMARK minimizedRMSD -1
REMARK  1 active torsions:
REMARK  status: ('A' for Active; 'I' for Inactive)
REMARK    1  A    between atoms: N_2  and  C1_3 
ROOT
ATOM      1  C1  UNL d   1       2.803  -1.982   3.546  0.00  0.00     0.143 A 
ATOM      2  C2  UNL d   1       3.280  -2.858   2.565  0.00  0.00    -0.057 A 
ATOM      3  C3  UNL d   1       2.633  -2.986   1.330  0.00  0.00     0.033 A 
ATOM      4  C4  UNL d   1       1.476  -2.260   1.065  0.00  0.00    -0.042 A 
ATOM      5  C5  UNL d   1       0.970  -1.403   2.036  0.00  0.00     0.033 A 
ATOM      6  C6  UNL d   1       1.625  -1.274   3.264  0.00  0.00    -0.057 A 
ENDROOT
BRANCH   1   7
ATOM      7  N   UNL d   1       3.345  -1.883   4.830  0.00  0.00    -0.732 N 
ATOM      8  C   UNL d   1       4.405  -2.773   5.253  0.00  0.00     0.284 C 
ATOM      9  H3  UNL d   1       3.470  -0.918   5.126  0.00  0.00     0.395 HD
ENDBRANCH   1   7
TORSDOF 1
ENDMDL
