MODEL 1
REMARK minimizedAffinity -2.7098465
REMARK minimizedRMSD -1
REMARK  1 active torsions:
REMARK  status: ('A' for Active; 'I' for Inactive)
REMARK    1  A    between atoms: N_2  and  C1_3 
ROOT
ATOM      1  C1  UNL d   1       3.813  -4.899   4.091  0.00  0.00     0.143 A 
ATOM      2  C2  UNL d   1       4.203  -5.999   4.862  0.00  0.00    -0.057 A 
ATOM      3  C3  UNL d   1       5.224  -5.893   5.815  0.00  0.00     0.033 A 
ATOM      4  C4  UNL d   1       5.894  -4.687   5.993  0.00  0.00    -0.042 A 
ATOM      5  C5  UNL d   1       5.540  -3.587   5.220  0.00  0.00     0.033 A 
ATOM      6  C6  UNL d   1       4.515  -3.697   4.276  0.00  0.00    -0.057 A 
ENDROOT
BRANCH   1   7
ATOM      7  N   UNL d   1       2.873  -4.966   3.060  0.00  0.00    -0.732 N 
ATOM      8  C   UNL d   1       2.855  -3.968   2.012  0.00  0.00     0.284 C 
ATOM      9  H3  UNL d   1       2.726  -5.917   2.730  0.00  0.00     0.395 HD
ENDBRANCH   1   7
TORSDOF 1
ENDMDL
