MODEL 1
REMARK minimizedAffinity 3.35011029
REMARK minimizedRMSD -1
REMARK  1 active torsions:
REMARK  status: ('A' for Active; 'I' for Inactive)
REMARK    1  A    between atoms: N_2  and  C1_3 
ROOT
ATOM      1  C1  UNL d   1       5.979   0.749  -1.000  0.00  0.00     0.143 A 
ATOM      2  C2  UNL d   1       5.914  -0.636  -1.191  0.00  0.00    -0.057 A 
ATOM      3  C3  UNL d   1       5.917  -1.193  -2.475  0.00  0.00     0.033 A 
ATOM      4  C4  UNL d   1       5.956  -0.370  -3.597  0.00  0.00    -0.042 A 
ATOM      5  C5  UNL d   1       5.996   1.010  -3.431  0.00  0.00     0.033 A 
ATOM      6  C6  UNL d   1       5.999   1.560  -2.146  0.00  0.00    -0.057 A 
ENDROOT
BRANCH   1   7
ATOM      7  N   UNL d   1       5.880   1.368   0.248  0.00  0.00    -0.732 N 
ATOM      8  C   UNL d   1       6.000   2.805   0.370  0.00  0.00     0.284 C 
ATOM      9  H3  UNL d   1       5.148   0.961   0.826  0.00  0.00     0.395 HD
ENDBRANCH   1   7
TORSDOF 1
ENDMDL
