MODEL 1
REMARK minimizedAffinity 8.36992741
REMARK minimizedRMSD -1
REMARK  0 active torsions:
REMARK  status: ('A' for Active; 'I' for Inactive)
ROOT
ATOM      1  C   UNL d   1       2.044   5.998  -6.000  0.00  0.00     0.020 A 
ATOM      2  C1  UNL d   1       0.855   5.422  -5.555  0.00  0.00     0.020 A 
ATOM      3  C2  UNL d   1       0.891   4.297  -4.728  0.00  0.00     0.034 A 
ATOM      4  C3  UNL d   1       2.118   3.745  -4.344  0.00  0.00     0.017 A 
ATOM      5  C4  UNL d   1       3.311   4.324  -4.791  0.00  0.00     0.017 A 
ATOM      6  C5  UNL d   1       3.269   5.450  -5.619  0.00  0.00     0.034 A 
ATOM      7 Cl   UNL d   1       4.864   3.700  -4.359  0.00  0.00    -0.070 Cl
ATOM      8 Cl1  UNL d   1       2.088   2.354  -3.319  0.00  0.00    -0.070 Cl
ENDROOT
TORSDOF 0
ENDMDL
