MODEL 1
REMARK minimizedAffinity -2.46795154
REMARK minimizedRMSD -1
REMARK  0 active torsions:
REMARK  status: ('A' for Active; 'I' for Inactive)
ROOT
ATOM      1  C   UNL d   1      -0.495   5.998  -4.677  0.00  0.00     0.020 A 
ATOM      2  C1  UNL d   1       0.268   5.993  -3.510  0.00  0.00     0.020 A 
ATOM      3  C2  UNL d   1      -0.362   5.991  -2.264  0.00  0.00     0.034 A 
ATOM      4  C3  UNL d   1      -1.759   5.992  -2.181  0.00  0.00     0.017 A 
ATOM      5  C4  UNL d   1      -2.525   5.997  -3.353  0.00  0.00     0.017 A 
ATOM      6  C5  UNL d   1      -1.889   5.999  -4.598  0.00  0.00     0.034 A 
ATOM      7 Cl   UNL d   1      -4.253   5.999  -3.332  0.00  0.00    -0.070 Cl
ATOM      8 Cl1  UNL d   1      -2.471   5.988  -0.607  0.00  0.00    -0.070 Cl
ENDROOT
TORSDOF 0
ENDMDL
