MODEL 1
REMARK minimizedAffinity 5.7545805
REMARK minimizedRMSD -1
REMARK  0 active torsions:
REMARK  status: ('A' for Active; 'I' for Inactive)
ROOT
ATOM      1  C   UNL d   1       1.933   1.526   0.893  0.00  0.00     0.020 A 
ATOM      2  C1  UNL d   1       1.295   2.179  -0.161  0.00  0.00     0.020 A 
ATOM      3  C2  UNL d   1       0.168   1.607  -0.756  0.00  0.00     0.034 A 
ATOM      4  C3  UNL d   1      -0.324   0.380  -0.298  0.00  0.00     0.017 A 
ATOM      5  C4  UNL d   1       0.317  -0.275   0.760  0.00  0.00     0.017 A 
ATOM      6  C5  UNL d   1       1.445   0.302   1.352  0.00  0.00     0.034 A 
ATOM      7 Cl   UNL d   1      -0.231  -1.792   1.380  0.00  0.00    -0.070 Cl
ATOM      8 Cl1  UNL d   1      -1.722  -0.268  -1.080  0.00  0.00    -0.070 Cl
ENDROOT
TORSDOF 0
ENDMDL
