MODEL 1
REMARK minimizedAffinity 0.984418392
REMARK minimizedRMSD -1
REMARK  0 active torsions:
REMARK  status: ('A' for Active; 'I' for Inactive)
ROOT
ATOM      1  C   UNL d   1       2.827   5.963  -4.860  0.00  0.00     0.020 A 
ATOM      2  C1  UNL d   1       2.009   5.963  -5.989  0.00  0.00     0.020 A 
ATOM      3  C2  UNL d   1       0.620   5.975  -5.846  0.00  0.00     0.034 A 
ATOM      4  C3  UNL d   1       0.044   5.986  -4.570  0.00  0.00     0.017 A 
ATOM      5  C4  UNL d   1       0.866   5.986  -3.437  0.00  0.00     0.017 A 
ATOM      6  C5  UNL d   1       2.256   5.974  -3.587  0.00  0.00     0.034 A 
ATOM      7 Cl   UNL d   1       0.229   5.999  -1.830  0.00  0.00    -0.070 Cl
ATOM      8 Cl1  UNL d   1      -1.680   6.000  -4.467  0.00  0.00    -0.070 Cl
ENDROOT
TORSDOF 0
ENDMDL
