MODEL 1
REMARK minimizedAffinity 7.30613995
REMARK minimizedRMSD -1
REMARK  0 active torsions:
REMARK  status: ('A' for Active; 'I' for Inactive)
ROOT
ATOM      1  C   UNL d   1       0.728  -0.668   1.634  0.00  0.00     0.020 A 
ATOM      2  C1  UNL d   1       0.122  -1.186   0.490  0.00  0.00     0.020 A 
ATOM      3  C2  UNL d   1       0.225  -0.505  -0.725  0.00  0.00     0.034 A 
ATOM      4  C3  UNL d   1       0.936   0.698  -0.799  0.00  0.00     0.017 A 
ATOM      5  C4  UNL d   1       1.544   1.218   0.350  0.00  0.00     0.017 A 
ATOM      6  C5  UNL d   1       1.437   0.532   1.564  0.00  0.00     0.034 A 
ATOM      7 Cl   UNL d   1       2.438   2.697   0.337  0.00  0.00    -0.070 Cl
ATOM      8 Cl1  UNL d   1       1.024   1.487  -2.334  0.00  0.00    -0.070 Cl
ENDROOT
TORSDOF 0
ENDMDL
