MODEL 1
REMARK minimizedAffinity 5.41640711
REMARK minimizedRMSD -1
REMARK  0 active torsions:
REMARK  status: ('A' for Active; 'I' for Inactive)
ROOT
ATOM      1  C   UNL d   1       2.400   1.424   0.891  0.00  0.00     0.020 A 
ATOM      2  C1  UNL d   1       2.016   1.431  -0.449  0.00  0.00     0.020 A 
ATOM      3  C2  UNL d   1       0.760   0.944  -0.818  0.00  0.00     0.034 A 
ATOM      4  C3  UNL d   1      -0.117   0.449   0.154  0.00  0.00     0.017 A 
ATOM      5  C4  UNL d   1       0.269   0.443   1.499  0.00  0.00     0.017 A 
ATOM      6  C5  UNL d   1       1.528   0.931   1.863  0.00  0.00     0.034 A 
ATOM      7 Cl   UNL d   1      -0.758  -0.152   2.755  0.00  0.00    -0.070 Cl
ATOM      8 Cl1  UNL d   1      -1.654  -0.136  -0.374  0.00  0.00    -0.070 Cl
ENDROOT
TORSDOF 0
ENDMDL
