MODEL 1
REMARK minimizedAffinity 1.25215697
REMARK minimizedRMSD -1
REMARK  0 active torsions:
REMARK  status: ('A' for Active; 'I' for Inactive)
ROOT
ATOM      1  C   UNL d   1      -0.767   5.993  -5.590  0.00  0.00     0.020 A 
ATOM      2  C1  UNL d   1       0.078   5.994  -4.482  0.00  0.00     0.020 A 
ATOM      3  C2  UNL d   1      -0.460   5.994  -3.193  0.00  0.00     0.034 A 
ATOM      4  C3  UNL d   1      -1.848   5.994  -3.010  0.00  0.00     0.017 A 
ATOM      5  C4  UNL d   1      -2.696   5.994  -4.124  0.00  0.00     0.017 A 
ATOM      6  C5  UNL d   1      -2.151   5.993  -5.412  0.00  0.00     0.034 A 
ATOM      7 Cl   UNL d   1      -4.418   5.993  -3.978  0.00  0.00    -0.070 Cl
ATOM      8 Cl1  UNL d   1      -2.445   5.994  -1.389  0.00  0.00    -0.070 Cl
ENDROOT
TORSDOF 0
ENDMDL
