MODEL 1
REMARK minimizedAffinity -2.10772467
REMARK minimizedRMSD -1
REMARK  0 active torsions:
REMARK  status: ('A' for Active; 'I' for Inactive)
ROOT
ATOM      1  C   UNL d   1       3.762   1.832   1.568  0.00  0.00     0.020 A 
ATOM      2  C1  UNL d   1       3.318   1.119   2.680  0.00  0.00     0.020 A 
ATOM      3  C2  UNL d   1       1.949   0.936   2.892  0.00  0.00     0.034 A 
ATOM      4  C3  UNL d   1       1.020   1.468   1.990  0.00  0.00     0.017 A 
ATOM      5  C4  UNL d   1       1.467   2.185   0.874  0.00  0.00     0.017 A 
ATOM      6  C5  UNL d   1       2.839   2.364   0.667  0.00  0.00     0.034 A 
ATOM      7 Cl   UNL d   1       0.382   2.871  -0.283  0.00  0.00    -0.070 Cl
ATOM      8 Cl1  UNL d   1      -0.656   1.204   2.314  0.00  0.00    -0.070 Cl
ENDROOT
TORSDOF 0
ENDMDL
