MODEL 1
REMARK minimizedAffinity 3.09940696
REMARK minimizedRMSD -1
REMARK  0 active torsions:
REMARK  status: ('A' for Active; 'I' for Inactive)
ROOT
ATOM      1  C   UNL d   1       2.385   2.706   0.181  0.00  0.00     0.020 A 
ATOM      2  C1  UNL d   1       1.891   2.372   1.442  0.00  0.00     0.020 A 
ATOM      3  C2  UNL d   1       1.096   1.235   1.601  0.00  0.00     0.034 A 
ATOM      4  C3  UNL d   1       0.792   0.428   0.498  0.00  0.00     0.017 A 
ATOM      5  C4  UNL d   1       1.288   0.765  -0.767  0.00  0.00     0.017 A 
ATOM      6  C5  UNL d   1       2.083   1.904  -0.921  0.00  0.00     0.034 A 
ATOM      7 Cl   UNL d   1       0.955  -0.181  -2.174  0.00  0.00    -0.070 Cl
ATOM      8 Cl1  UNL d   1      -0.197  -0.963   0.769  0.00  0.00    -0.070 Cl
ENDROOT
TORSDOF 0
ENDMDL
