MODEL 1
REMARK minimizedAffinity 2.32457161
REMARK minimizedRMSD -1
REMARK  0 active torsions:
REMARK  status: ('A' for Active; 'I' for Inactive)
ROOT
ATOM      1  C   UNL d   1      -3.523  -2.419  -2.269  0.00  0.00     0.020 A 
ATOM      2  C1  UNL d   1      -3.844  -1.595  -1.191  0.00  0.00     0.020 A 
ATOM      3  C2  UNL d   1      -4.493  -2.127  -0.074  0.00  0.00     0.034 A 
ATOM      4  C3  UNL d   1      -4.823  -3.486  -0.034  0.00  0.00     0.017 A 
ATOM      5  C4  UNL d   1      -4.500  -4.313  -1.116  0.00  0.00     0.017 A 
ATOM      6  C5  UNL d   1      -3.850  -3.775  -2.231  0.00  0.00     0.034 A 
ATOM      7 Cl   UNL d   1      -4.875  -6.000  -1.138  0.00  0.00    -0.070 Cl
ATOM      8 Cl1  UNL d   1      -5.625  -4.076   1.379  0.00  0.00    -0.070 Cl
ENDROOT
TORSDOF 0
ENDMDL
