MODEL 1
REMARK minimizedAffinity 1.8619417
REMARK minimizedRMSD -1
REMARK  0 active torsions:
REMARK  status: ('A' for Active; 'I' for Inactive)
ROOT
ATOM      1  C   UNL d   1       1.431   5.972  -5.946  0.00  0.00     0.020 A 
ATOM      2  C1  UNL d   1       2.271   5.972  -4.833  0.00  0.00     0.020 A 
ATOM      3  C2  UNL d   1       1.726   5.980  -3.547  0.00  0.00     0.034 A 
ATOM      4  C3  UNL d   1       0.337   5.989  -3.372  0.00  0.00     0.017 A 
ATOM      5  C4  UNL d   1      -0.505   5.989  -4.490  0.00  0.00     0.017 A 
ATOM      6  C5  UNL d   1       0.047   5.981  -5.775  0.00  0.00     0.034 A 
ATOM      7 Cl   UNL d   1      -2.227   6.000  -4.353  0.00  0.00    -0.070 Cl
ATOM      8 Cl1  UNL d   1      -0.268   5.998  -1.753  0.00  0.00    -0.070 Cl
ENDROOT
TORSDOF 0
ENDMDL
