MODEL 1
REMARK minimizedAffinity -2.96510196
REMARK minimizedRMSD -1
REMARK  0 active torsions:
REMARK  status: ('A' for Active; 'I' for Inactive)
ROOT
ATOM      1  C   UNL d   1      -4.108   5.997  -3.925  0.00  0.00     0.020 A 
ATOM      2  C1  UNL d   1      -3.676   6.000  -2.599  0.00  0.00     0.020 A 
ATOM      3  C2  UNL d   1      -2.322   5.819  -2.306  0.00  0.00     0.034 A 
ATOM      4  C3  UNL d   1      -1.397   5.634  -3.339  0.00  0.00     0.017 A 
ATOM      5  C4  UNL d   1      -1.831   5.632  -4.669  0.00  0.00     0.017 A 
ATOM      6  C5  UNL d   1      -3.188   5.814  -4.958  0.00  0.00     0.034 A 
ATOM      7 Cl   UNL d   1      -0.748   5.410  -5.998  0.00  0.00    -0.070 Cl
ATOM      8 Cl1  UNL d   1       0.261   5.417  -2.903  0.00  0.00    -0.070 Cl
ENDROOT
TORSDOF 0
ENDMDL
