MODEL 1
REMARK minimizedAffinity 1.29962528
REMARK minimizedRMSD -1
REMARK  0 active torsions:
REMARK  status: ('A' for Active; 'I' for Inactive)
ROOT
ATOM      1  C   UNL d   1      -4.057   5.997  -1.823  0.00  0.00     0.020 A 
ATOM      2  C1  UNL d   1      -4.115   5.999  -3.217  0.00  0.00     0.020 A 
ATOM      3  C2  UNL d   1      -2.935   6.000  -3.964  0.00  0.00     0.034 A 
ATOM      4  C3  UNL d   1      -1.693   5.999  -3.319  0.00  0.00     0.017 A 
ATOM      5  C4  UNL d   1      -1.636   5.997  -1.920  0.00  0.00     0.017 A 
ATOM      6  C5  UNL d   1      -2.821   5.996  -1.177  0.00  0.00     0.034 A 
ATOM      7 Cl   UNL d   1      -0.141   5.995  -1.053  0.00  0.00    -0.070 Cl
ATOM      8 Cl1  UNL d   1      -0.275   5.999  -4.306  0.00  0.00    -0.070 Cl
ENDROOT
TORSDOF 0
ENDMDL
