MODEL 1
REMARK minimizedAffinity 2.15726662
REMARK minimizedRMSD -1
REMARK  0 active torsions:
REMARK  status: ('A' for Active; 'I' for Inactive)
ROOT
ATOM      1  C   UNL d   1      -1.485   5.987  -2.849  0.00  0.00     0.020 A 
ATOM      2  C1  UNL d   1      -1.876   5.993  -4.188  0.00  0.00     0.020 A 
ATOM      3  C2  UNL d   1      -3.233   5.997  -4.519  0.00  0.00     0.034 A 
ATOM      4  C3  UNL d   1      -4.203   5.994  -3.511  0.00  0.00     0.017 A 
ATOM      5  C4  UNL d   1      -3.810   5.987  -2.168  0.00  0.00     0.017 A 
ATOM      6  C5  UNL d   1      -2.451   5.984  -1.841  0.00  0.00     0.034 A 
ATOM      7 Cl   UNL d   1      -4.950   5.984  -0.868  0.00  0.00    -0.070 Cl
ATOM      8 Cl1  UNL d   1      -5.863   5.999  -3.993  0.00  0.00    -0.070 Cl
ENDROOT
TORSDOF 0
ENDMDL
