MODEL 1
REMARK minimizedAffinity 1.16156483
REMARK minimizedRMSD -1
REMARK  0 active torsions:
REMARK  status: ('A' for Active; 'I' for Inactive)
ROOT
ATOM      1  C   UNL d   1      -1.459   0.065   3.001  0.00  0.00     0.020 A 
ATOM      2  C1  UNL d   1      -1.920  -0.656   1.900  0.00  0.00     0.020 A 
ATOM      3  C2  UNL d   1      -1.250  -0.568   0.678  0.00  0.00     0.034 A 
ATOM      4  C3  UNL d   1      -0.115   0.242   0.554  0.00  0.00     0.017 A 
ATOM      5  C4  UNL d   1       0.347   0.965   1.660  0.00  0.00     0.017 A 
ATOM      6  C5  UNL d   1      -0.328   0.873   2.881  0.00  0.00     0.034 A 
ATOM      7 Cl   UNL d   1       1.740   1.985   1.584  0.00  0.00    -0.070 Cl
ATOM      8 Cl1  UNL d   1       0.664   0.302  -0.987  0.00  0.00    -0.070 Cl
ENDROOT
TORSDOF 0
ENDMDL
