MODEL 1
REMARK minimizedAffinity -2.24076295
REMARK minimizedRMSD -1
REMARK  0 active torsions:
REMARK  status: ('A' for Active; 'I' for Inactive)
ROOT
ATOM      1  C   UNL d   1       0.026   5.996  -4.358  0.00  0.00     0.020 A 
ATOM      2  C1  UNL d   1       0.337   5.994  -2.999  0.00  0.00     0.020 A 
ATOM      3  C2  UNL d   1      -0.687   5.994  -2.048  0.00  0.00     0.034 A 
ATOM      4  C3  UNL d   1      -2.026   5.995  -2.456  0.00  0.00     0.017 A 
ATOM      5  C4  UNL d   1      -2.337   5.997  -3.820  0.00  0.00     0.017 A 
ATOM      6  C5  UNL d   1      -1.308   5.997  -4.768  0.00  0.00     0.034 A 
ATOM      7 Cl   UNL d   1      -3.965   5.998  -4.400  0.00  0.00    -0.070 Cl
ATOM      8 Cl1  UNL d   1      -3.240   5.995  -1.226  0.00  0.00    -0.070 Cl
ENDROOT
TORSDOF 0
ENDMDL
