MODEL 1
REMARK minimizedAffinity -2.00248432
REMARK minimizedRMSD -1
REMARK  0 active torsions:
REMARK  status: ('A' for Active; 'I' for Inactive)
ROOT
ATOM      1  C   UNL d   1       1.859   5.997  -4.896  0.00  0.00     0.020 A 
ATOM      2  C1  UNL d   1       0.962   5.991  -5.963  0.00  0.00     0.020 A 
ATOM      3  C2  UNL d   1      -0.413   5.985  -5.720  0.00  0.00     0.034 A 
ATOM      4  C3  UNL d   1      -0.895   5.985  -4.406  0.00  0.00     0.017 A 
ATOM      5  C4  UNL d   1       0.007   5.991  -3.335  0.00  0.00     0.017 A 
ATOM      6  C5  UNL d   1       1.382   5.997  -3.585  0.00  0.00     0.034 A 
ATOM      7 Cl   UNL d   1      -0.512   5.991  -1.686  0.00  0.00    -0.070 Cl
ATOM      8 Cl1  UNL d   1      -2.608   5.978  -4.178  0.00  0.00    -0.070 Cl
ENDROOT
TORSDOF 0
ENDMDL
