MODEL 1
REMARK minimizedAffinity 2.89623809
REMARK minimizedRMSD -1
REMARK  0 active torsions:
REMARK  status: ('A' for Active; 'I' for Inactive)
ROOT
ATOM      1  C   UNL d   1       1.884   2.567   0.498  0.00  0.00     0.020 A 
ATOM      2  C1  UNL d   1       1.643   1.981   1.740  0.00  0.00     0.020 A 
ATOM      3  C2  UNL d   1       0.964   0.763   1.817  0.00  0.00     0.034 A 
ATOM      4  C3  UNL d   1       0.523   0.128   0.650  0.00  0.00     0.017 A 
ATOM      5  C4  UNL d   1       0.765   0.717  -0.596  0.00  0.00     0.017 A 
ATOM      6  C5  UNL d   1       1.446   1.937  -0.667  0.00  0.00     0.034 A 
ATOM      7 Cl   UNL d   1       0.252  -0.006  -2.079  0.00  0.00    -0.070 Cl
ATOM      8 Cl1  UNL d   1      -0.310  -1.376   0.820  0.00  0.00    -0.070 Cl
ENDROOT
TORSDOF 0
ENDMDL
