MODEL 1
REMARK minimizedAffinity -5.76271105
REMARK minimizedRMSD -1
REMARK  1 active torsions:
REMARK  status: ('A' for Active; 'I' for Inactive)
REMARK    1  A    between atoms: C1_2  and  C2_3 
ROOT
ATOM      1  C2  UNL d   1       0.180   0.211   0.088  0.00  0.00    -0.077 A 
ATOM      2  C3  UNL d   1       0.021  -1.031   0.719  0.00  0.00     0.002 A 
ATOM      3  C4  UNL d   1       1.124  -1.857   0.943  0.00  0.00     0.002 A 
ATOM      4  C5  UNL d   1       2.395  -1.447   0.545  0.00  0.00    -0.004 A 
ATOM      5  C6  UNL d   1       2.564  -0.215  -0.084  0.00  0.00     0.002 A 
ATOM      6  C7  UNL d   1       1.462   0.611  -0.311  0.00  0.00     0.002 A 
ENDROOT
BRANCH   1   7
ATOM      7  C1  UNL d   1      -1.001   1.124  -0.110  0.00  0.00     0.055 C 
ATOM      8  C   UNL d   1      -1.503   1.074  -1.546  0.00  0.00     0.019 C 
ENDBRANCH   1   7
TORSDOF 1
ENDMDL
