MODEL 1
REMARK minimizedAffinity -0.908849895
REMARK minimizedRMSD -1
REMARK  1 active torsions:
REMARK  status: ('A' for Active; 'I' for Inactive)
REMARK    1  A    between atoms: C1_2  and  C2_3 
ROOT
ATOM      1  C2  UNL d   1      -3.174  -4.885   1.563  0.00  0.00    -0.077 A 
ATOM      2  C3  UNL d   1      -2.480  -5.090   0.362  0.00  0.00     0.002 A 
ATOM      3  C4  UNL d   1      -3.128  -5.646  -0.742  0.00  0.00     0.002 A 
ATOM      4  C5  UNL d   1      -4.473  -5.999  -0.658  0.00  0.00    -0.004 A 
ATOM      5  C6  UNL d   1      -5.171  -5.802   0.532  0.00  0.00     0.002 A 
ATOM      6  C7  UNL d   1      -4.525  -5.247   1.638  0.00  0.00     0.002 A 
ENDROOT
BRANCH   1   7
ATOM      7  C1  UNL d   1      -2.490  -4.239   2.740  0.00  0.00     0.055 C 
ATOM      8  C   UNL d   1      -2.720  -5.033   4.018  0.00  0.00     0.019 C 
ENDBRANCH   1   7
TORSDOF 1
ENDMDL
