MODEL 1
REMARK minimizedAffinity -4.58614302
REMARK minimizedRMSD -1
REMARK  1 active torsions:
REMARK  status: ('A' for Active; 'I' for Inactive)
REMARK    1  A    between atoms: C1_2  and  C2_3 
ROOT
ATOM      1  C2  UNL d   1       0.049  -0.063   0.466  0.00  0.00    -0.077 A 
ATOM      2  C3  UNL d   1      -0.700  -0.710   1.459  0.00  0.00     0.002 A 
ATOM      3  C4  UNL d   1      -0.198  -1.848   2.093  0.00  0.00     0.002 A 
ATOM      4  C5  UNL d   1       1.055  -2.347   1.745  0.00  0.00    -0.004 A 
ATOM      5  C6  UNL d   1       1.807  -1.712   0.757  0.00  0.00     0.002 A 
ATOM      6  C7  UNL d   1       1.307  -0.575   0.121  0.00  0.00     0.002 A 
ENDROOT
BRANCH   1   7
ATOM      7  C1  UNL d   1      -0.469   1.193  -0.185  0.00  0.00     0.055 C 
ATOM      8  C   UNL d   1      -1.451   0.873  -1.302  0.00  0.00     0.019 C 
ENDBRANCH   1   7
TORSDOF 1
ENDMDL
