MODEL 1
REMARK minimizedAffinity -4.56780005
REMARK minimizedRMSD -1
REMARK  1 active torsions:
REMARK  status: ('A' for Active; 'I' for Inactive)
REMARK    1  A    between atoms: C1_2  and  C2_3 
ROOT
ATOM      1  C2  UNL d   1      -0.224   0.138   0.042  0.00  0.00    -0.077 A 
ATOM      2  C3  UNL d   1       1.079  -0.322  -0.193  0.00  0.00     0.002 A 
ATOM      3  C4  UNL d   1       1.529  -1.504   0.399  0.00  0.00     0.002 A 
ATOM      4  C5  UNL d   1       0.681  -2.237   1.226  0.00  0.00    -0.004 A 
ATOM      5  C6  UNL d   1      -0.617  -1.787   1.468  0.00  0.00     0.002 A 
ATOM      6  C7  UNL d   1      -1.067  -0.605   0.878  0.00  0.00     0.002 A 
ENDROOT
BRANCH   1   7
ATOM      7  C1  UNL d   1      -0.727   1.386  -0.635  0.00  0.00     0.055 C 
ATOM      8  C   UNL d   1      -1.809   1.064  -1.656  0.00  0.00     0.019 C 
ENDBRANCH   1   7
TORSDOF 1
ENDMDL
