MODEL 1
REMARK minimizedAffinity -3.31907606
REMARK minimizedRMSD -1
REMARK  1 active torsions:
REMARK  status: ('A' for Active; 'I' for Inactive)
REMARK    1  A    between atoms: C1_2  and  C2_3 
ROOT
ATOM      1  C2  UNL d   1       0.294  -0.037   0.059  0.00  0.00    -0.077 A 
ATOM      2  C3  UNL d   1      -0.502  -1.062   0.590  0.00  0.00     0.002 A 
ATOM      3  C4  UNL d   1       0.086  -2.224   1.095  0.00  0.00     0.002 A 
ATOM      4  C5  UNL d   1       1.472  -2.369   1.079  0.00  0.00    -0.004 A 
ATOM      5  C6  UNL d   1       2.272  -1.356   0.552  0.00  0.00     0.002 A 
ATOM      6  C7  UNL d   1       1.686  -0.195   0.045  0.00  0.00     0.002 A 
ENDROOT
BRANCH   1   7
ATOM      7  C1  UNL d   1      -0.335   1.236  -0.441  0.00  0.00     0.055 C 
ATOM      8  C   UNL d   1      -1.496   0.948  -1.382  0.00  0.00     0.019 C 
ENDBRANCH   1   7
TORSDOF 1
ENDMDL
