MODEL 1
REMARK minimizedAffinity -4.9784832
REMARK minimizedRMSD -1
REMARK  1 active torsions:
REMARK  status: ('A' for Active; 'I' for Inactive)
REMARK    1  A    between atoms: C1_2  and  C2_3 
ROOT
ATOM      1  C2  UNL d   1       0.761  -0.730   0.413  0.00  0.00    -0.077 A 
ATOM      2  C3  UNL d   1       1.122   0.366  -0.384  0.00  0.00     0.002 A 
ATOM      3  C4  UNL d   1       0.242   1.437  -0.551  0.00  0.00     0.002 A 
ATOM      4  C5  UNL d   1      -1.001   1.425   0.077  0.00  0.00    -0.004 A 
ATOM      5  C6  UNL d   1      -1.370   0.339   0.870  0.00  0.00     0.002 A 
ATOM      6  C7  UNL d   1      -0.493  -0.733   1.038  0.00  0.00     0.002 A 
ENDROOT
BRANCH   1   7
ATOM      7  C1  UNL d   1       1.727  -1.863   0.635  0.00  0.00     0.055 C 
ATOM      8  C   UNL d   1       1.011  -3.206   0.659  0.00  0.00     0.019 C 
ENDBRANCH   1   7
TORSDOF 1
ENDMDL
