MODEL 1
REMARK minimizedAffinity -1.08606184
REMARK minimizedRMSD -1
REMARK  1 active torsions:
REMARK  status: ('A' for Active; 'I' for Inactive)
REMARK    1  A    between atoms: C1_2  and  C2_3 
ROOT
ATOM      1  C2  UNL d   1      -0.505   1.165  -0.930  0.00  0.00    -0.077 A 
ATOM      2  C3  UNL d   1       0.686   0.690  -1.497  0.00  0.00     0.002 A 
ATOM      3  C4  UNL d   1       1.441  -0.283  -0.840  0.00  0.00     0.002 A 
ATOM      4  C5  UNL d   1       1.012  -0.792   0.384  0.00  0.00    -0.004 A 
ATOM      5  C6  UNL d   1      -0.170  -0.324   0.957  0.00  0.00     0.002 A 
ATOM      6  C7  UNL d   1      -0.926   0.649   0.302  0.00  0.00     0.002 A 
ENDROOT
BRANCH   1   7
ATOM      7  C1  UNL d   1      -1.347   2.179  -1.661  0.00  0.00     0.055 C 
ATOM      8  C   UNL d   1      -2.599   1.541  -2.245  0.00  0.00     0.019 C 
ENDBRANCH   1   7
TORSDOF 1
ENDMDL
