MODEL 1
REMARK minimizedAffinity -4.02337074
REMARK minimizedRMSD -1
REMARK  1 active torsions:
REMARK  status: ('A' for Active; 'I' for Inactive)
REMARK    1  A    between atoms: C1_2  and  C2_3 
ROOT
ATOM      1  C2  UNL d   1       0.526  -1.376   0.478  0.00  0.00    -0.077 A 
ATOM      2  C3  UNL d   1       1.339  -0.531  -0.290  0.00  0.00     0.002 A 
ATOM      3  C4  UNL d   1       0.836   0.673  -0.787  0.00  0.00     0.002 A 
ATOM      4  C5  UNL d   1      -0.480   1.044  -0.518  0.00  0.00    -0.004 A 
ATOM      5  C6  UNL d   1      -1.297   0.209   0.243  0.00  0.00     0.002 A 
ATOM      6  C7  UNL d   1      -0.796  -0.995   0.740  0.00  0.00     0.002 A 
ENDROOT
BRANCH   1   7
ATOM      7  C1  UNL d   1       1.082  -2.651   1.057  0.00  0.00     0.055 C 
ATOM      8  C   UNL d   1       2.231  -2.370   2.014  0.00  0.00     0.019 C 
ENDBRANCH   1   7
TORSDOF 1
ENDMDL
