MODEL 1
REMARK minimizedAffinity -4.65871334
REMARK minimizedRMSD -1
REMARK  1 active torsions:
REMARK  status: ('A' for Active; 'I' for Inactive)
REMARK    1  A    between atoms: C1_2  and  C2_3 
ROOT
ATOM      1  C2  UNL d   1       0.690  -0.813   0.612  0.00  0.00    -0.077 A 
ATOM      2  C3  UNL d   1      -0.391  -1.353   1.323  0.00  0.00     0.002 A 
ATOM      3  C4  UNL d   1      -0.208  -2.463   2.150  0.00  0.00     0.002 A 
ATOM      4  C5  UNL d   1       1.054  -3.039   2.278  0.00  0.00    -0.004 A 
ATOM      5  C6  UNL d   1       2.135  -2.510   1.574  0.00  0.00     0.002 A 
ATOM      6  C7  UNL d   1       1.954  -1.402   0.745  0.00  0.00     0.002 A 
ENDROOT
BRANCH   1   7
ATOM      7  C1  UNL d   1       0.506   0.414  -0.242  0.00  0.00     0.055 C 
ATOM      8  C   UNL d   1      -0.861   1.045  -0.016  0.00  0.00     0.019 C 
ENDBRANCH   1   7
TORSDOF 1
ENDMDL
