MODEL 1
REMARK minimizedAffinity -5.17420816
REMARK minimizedRMSD -1
REMARK  1 active torsions:
REMARK  status: ('A' for Active; 'I' for Inactive)
REMARK    1  A    between atoms: C1_2  and  C2_3 
ROOT
ATOM      1  C2  UNL d   1       0.090  -0.700   0.328  0.00  0.00    -0.077 A 
ATOM      2  C3  UNL d   1      -0.645  -0.809   1.517  0.00  0.00     0.002 A 
ATOM      3  C4  UNL d   1      -0.383  -1.843   2.418  0.00  0.00     0.002 A 
ATOM      4  C5  UNL d   1       0.617  -2.773   2.141  0.00  0.00    -0.004 A 
ATOM      5  C6  UNL d   1       1.352  -2.675   0.961  0.00  0.00     0.002 A 
ATOM      6  C7  UNL d   1       1.090  -1.643   0.058  0.00  0.00     0.002 A 
ENDROOT
BRANCH   1   7
ATOM      7  C1  UNL d   1      -0.159   0.442  -0.621  0.00  0.00     0.055 C 
ATOM      8  C   UNL d   1      -0.301   1.761   0.125  0.00  0.00     0.019 C 
ENDBRANCH   1   7
TORSDOF 1
ENDMDL
