MODEL 1
REMARK minimizedAffinity 1.71061349
REMARK minimizedRMSD -1
REMARK  1 active torsions:
REMARK  status: ('A' for Active; 'I' for Inactive)
REMARK    1  A    between atoms: C1_2  and  C2_3 
ROOT
ATOM      1  C2  UNL d   1      -3.273   3.692  -5.703  0.00  0.00    -0.076 A 
ATOM      2  C3  UNL d   1      -3.684   5.017  -5.929  0.00  0.00     0.004 A 
ATOM      3  C4  UNL d   1      -5.036   5.347  -6.000  0.00  0.00    -0.003 A 
ATOM      4  C5  UNL d   1      -6.000   4.357  -5.844  0.00  0.00     0.000 A 
ATOM      5  C6  UNL d   1      -5.611   3.040  -5.601  0.00  0.00     0.000 A 
ATOM      6  C7  UNL d   1      -4.252   2.693  -5.511  0.00  0.00    -0.073 A 
ATOM      7  C8  UNL d   1      -3.888   1.257  -5.254  0.00  0.00     0.078 C 
ENDROOT
BRANCH   1   8
ATOM      8  C1  UNL d   1      -1.792   3.390  -5.664  0.00  0.00     0.053 C 
ATOM      9  C   UNL d   1      -1.005   4.430  -4.882  0.00  0.00     0.018 C 
ENDBRANCH   1   8
TORSDOF 1
ENDMDL
