MODEL 1
REMARK minimizedAffinity 0.752274692
REMARK minimizedRMSD -1
REMARK  1 active torsions:
REMARK  status: ('A' for Active; 'I' for Inactive)
REMARK    1  A    between atoms: C1_2  and  C2_3 
ROOT
ATOM      1  C2  UNL d   1      -0.956  -0.326   0.904  0.00  0.00    -0.076 A 
ATOM      2  C3  UNL d   1      -1.204  -1.708   0.846  0.00  0.00     0.004 A 
ATOM      3  C4  UNL d   1      -0.586  -2.508  -0.113  0.00  0.00    -0.003 A 
ATOM      4  C5  UNL d   1       0.291  -1.939  -1.030  0.00  0.00     0.000 A 
ATOM      5  C6  UNL d   1       0.562  -0.573  -0.976  0.00  0.00     0.000 A 
ATOM      6  C7  UNL d   1      -0.040   0.246  -0.005  0.00  0.00    -0.073 A 
ATOM      7  C8  UNL d   1       0.284   1.715   0.003  0.00  0.00     0.078 C 
ENDROOT
BRANCH   1   8
ATOM      8  C1  UNL d   1      -1.677   0.496   1.949  0.00  0.00     0.053 C 
ATOM      9  C   UNL d   1      -3.188   0.338   1.875  0.00  0.00     0.018 C 
ENDBRANCH   1   8
TORSDOF 1
ENDMDL
