MODEL 1
REMARK minimizedAffinity -3.54292917
REMARK minimizedRMSD -1
REMARK  1 active torsions:
REMARK  status: ('A' for Active; 'I' for Inactive)
REMARK    1  A    between atoms: C1_2  and  C2_3 
ROOT
ATOM      1  C2  UNL d   1      -1.627   0.054   1.874  0.00  0.00    -0.076 A 
ATOM      2  C3  UNL d   1      -2.990   0.116   1.536  0.00  0.00     0.004 A 
ATOM      3  C4  UNL d   1      -3.887   0.854   2.306  0.00  0.00    -0.003 A 
ATOM      4  C5  UNL d   1      -3.436   1.544   3.426  0.00  0.00     0.000 A 
ATOM      5  C6  UNL d   1      -2.084   1.509   3.766  0.00  0.00     0.000 A 
ATOM      6  C7  UNL d   1      -1.163   0.782   2.991  0.00  0.00    -0.073 A 
ATOM      7  C8  UNL d   1       0.283   0.774   3.407  0.00  0.00     0.078 C 
ENDROOT
BRANCH   1   8
ATOM      8  C1  UNL d   1      -0.705  -0.785   1.018  0.00  0.00     0.053 C 
ATOM      9  C   UNL d   1      -0.422  -0.145  -0.333  0.00  0.00     0.018 C 
ENDBRANCH   1   8
TORSDOF 1
ENDMDL
