MODEL 1
REMARK minimizedAffinity -1.60399616
REMARK minimizedRMSD -1
REMARK  1 active torsions:
REMARK  status: ('A' for Active; 'I' for Inactive)
REMARK    1  A    between atoms: C1_2  and  C2_3 
ROOT
ATOM      1  C2  UNL d   1       0.782  -0.366  -1.193  0.00  0.00    -0.076 A 
ATOM      2  C3  UNL d   1       0.604  -1.753  -1.053  0.00  0.00     0.004 A 
ATOM      3  C4  UNL d   1      -0.010  -2.288   0.078  0.00  0.00    -0.003 A 
ATOM      4  C5  UNL d   1      -0.457  -1.443   1.088  0.00  0.00     0.000 A 
ATOM      5  C6  UNL d   1      -0.304  -0.063   0.959  0.00  0.00     0.000 A 
ATOM      6  C7  UNL d   1       0.298   0.493  -0.183  0.00  0.00    -0.073 A 
ATOM      7  C8  UNL d   1       0.442   1.988  -0.267  0.00  0.00     0.078 C 
ENDROOT
BRANCH   1   8
ATOM      8  C1  UNL d   1       1.479   0.155  -2.429  0.00  0.00     0.053 C 
ATOM      9  C   UNL d   1       2.915   0.575  -2.156  0.00  0.00     0.018 C 
ENDBRANCH   1   8
TORSDOF 1
ENDMDL
