MODEL 1
REMARK minimizedAffinity -3.56492853
REMARK minimizedRMSD -1
REMARK  1 active torsions:
REMARK  status: ('A' for Active; 'I' for Inactive)
REMARK    1  A    between atoms: C1_2  and  C2_3 
ROOT
ATOM      1  C2  UNL d   1      -2.154   1.099   3.059  0.00  0.00    -0.076 A 
ATOM      2  C3  UNL d   1      -0.798   1.141   3.429  0.00  0.00     0.004 A 
ATOM      3  C4  UNL d   1       0.154   0.383   2.750  0.00  0.00    -0.003 A 
ATOM      4  C5  UNL d   1      -0.233  -0.430   1.691  0.00  0.00     0.000 A 
ATOM      5  C6  UNL d   1      -1.571  -0.470   1.299  0.00  0.00     0.000 A 
ATOM      6  C7  UNL d   1      -2.541   0.300   1.962  0.00  0.00    -0.073 A 
ATOM      7  C8  UNL d   1      -3.971   0.213   1.502  0.00  0.00     0.078 C 
ENDROOT
BRANCH   1   8
ATOM      8  C1  UNL d   1      -3.146   1.922   3.850  0.00  0.00     0.053 C 
ATOM      9  C   UNL d   1      -3.150   3.385   3.435  0.00  0.00     0.018 C 
ENDBRANCH   1   8
TORSDOF 1
ENDMDL
