MODEL 1
REMARK minimizedAffinity -4.9306159
REMARK minimizedRMSD -1
REMARK  1 active torsions:
REMARK  status: ('A' for Active; 'I' for Inactive)
REMARK    1  A    between atoms: C1_2  and  C2_3 
ROOT
ATOM      1  C2  UNL d   1      -2.195   1.164   2.742  0.00  0.00    -0.076 A 
ATOM      2  C3  UNL d   1      -3.512   0.973   2.291  0.00  0.00     0.004 A 
ATOM      3  C4  UNL d   1      -3.801   0.045   1.292  0.00  0.00    -0.003 A 
ATOM      4  C5  UNL d   1      -2.777  -0.709   0.730  0.00  0.00     0.000 A 
ATOM      5  C6  UNL d   1      -1.467  -0.546   1.178  0.00  0.00     0.000 A 
ATOM      6  C7  UNL d   1      -1.161   0.375   2.195  0.00  0.00    -0.073 A 
ATOM      7  C8  UNL d   1       0.271   0.514   2.635  0.00  0.00     0.078 C 
ENDROOT
BRANCH   1   8
ATOM      8  C1  UNL d   1      -1.938   2.205   3.808  0.00  0.00     0.053 C 
ATOM      9  C   UNL d   1      -2.990   3.303   3.816  0.00  0.00     0.018 C 
ENDBRANCH   1   8
TORSDOF 1
ENDMDL
