MODEL 1
REMARK minimizedAffinity -0.400733858
REMARK minimizedRMSD -1
REMARK  1 active torsions:
REMARK  status: ('A' for Active; 'I' for Inactive)
REMARK    1  A    between atoms: C1_2  and  C2_3 
ROOT
ATOM      1  C2  UNL d   1      -2.893   0.971   1.988  0.00  0.00    -0.076 A 
ATOM      2  C3  UNL d   1      -2.149   1.497   3.058  0.00  0.00     0.004 A 
ATOM      3  C4  UNL d   1      -2.750   2.306   4.020  0.00  0.00    -0.003 A 
ATOM      4  C5  UNL d   1      -4.105   2.603   3.928  0.00  0.00     0.000 A 
ATOM      5  C6  UNL d   1      -4.862   2.076   2.882  0.00  0.00     0.000 A 
ATOM      6  C7  UNL d   1      -4.275   1.245   1.913  0.00  0.00    -0.073 A 
ATOM      7  C8  UNL d   1      -5.138   0.709   0.804  0.00  0.00     0.078 C 
ENDROOT
BRANCH   1   8
ATOM      8  C1  UNL d   1      -2.181   0.121   0.959  0.00  0.00     0.053 C 
ATOM      9  C   UNL d   1      -0.956   0.812   0.379  0.00  0.00     0.018 C 
ENDBRANCH   1   8
TORSDOF 1
ENDMDL
