MODEL 1
REMARK minimizedAffinity -0.988065779
REMARK minimizedRMSD -1
REMARK  1 active torsions:
REMARK  status: ('A' for Active; 'I' for Inactive)
REMARK    1  A    between atoms: C1_2  and  C2_3 
ROOT
ATOM      1  C2  UNL d   1       1.301   1.416   0.618  0.00  0.00    -0.076 A 
ATOM      2  C3  UNL d   1       2.159   2.350   1.226  0.00  0.00     0.004 A 
ATOM      3  C4  UNL d   1       2.256   2.439   2.613  0.00  0.00    -0.003 A 
ATOM      4  C5  UNL d   1       1.496   1.595   3.416  0.00  0.00     0.000 A 
ATOM      5  C6  UNL d   1       0.654   0.650   2.831  0.00  0.00     0.000 A 
ATOM      6  C7  UNL d   1       0.557   0.537   1.433  0.00  0.00    -0.073 A 
ATOM      7  C8  UNL d   1      -0.373  -0.495   0.856  0.00  0.00     0.078 C 
ENDROOT
BRANCH   1   8
ATOM      8  C1  UNL d   1       1.218   1.384  -0.891  0.00  0.00     0.053 C 
ATOM      9  C   UNL d   1       2.531   0.971  -1.539  0.00  0.00     0.018 C 
ENDBRANCH   1   8
TORSDOF 1
ENDMDL
