MODEL 1
REMARK minimizedAffinity -4.08104324
REMARK minimizedRMSD -1
REMARK  1 active torsions:
REMARK  status: ('A' for Active; 'I' for Inactive)
REMARK    1  A    between atoms: C1_2  and  C2_3 
ROOT
ATOM      1  C2  UNL d   1       0.192  -0.003  -0.054  0.00  0.00    -0.076 A 
ATOM      2  C3  UNL d   1      -0.010  -1.089  -0.924  0.00  0.00     0.004 A 
ATOM      3  C4  UNL d   1       0.576  -1.115  -2.188  0.00  0.00    -0.003 A 
ATOM      4  C5  UNL d   1       1.374  -0.055  -2.604  0.00  0.00     0.000 A 
ATOM      5  C6  UNL d   1       1.600   1.023  -1.748  0.00  0.00     0.000 A 
ATOM      6  C7  UNL d   1       1.030   1.056  -0.463  0.00  0.00    -0.073 A 
ATOM      7  C8  UNL d   1       1.301   2.246   0.416  0.00  0.00     0.078 C 
ENDROOT
BRANCH   1   8
ATOM      8  C1  UNL d   1      -0.491  -0.018   1.294  0.00  0.00     0.053 C 
ATOM      9  C   UNL d   1      -1.972   0.314   1.201  0.00  0.00     0.018 C 
ENDBRANCH   1   8
TORSDOF 1
ENDMDL
