MODEL 1
REMARK minimizedAffinity -4.64659214
REMARK minimizedRMSD -1
REMARK  1 active torsions:
REMARK  status: ('A' for Active; 'I' for Inactive)
REMARK    1  A    between atoms: C1_2  and  C2_3 
ROOT
ATOM      1  C2  UNL d   1       0.355  -0.225  -0.169  0.00  0.00    -0.076 A 
ATOM      2  C3  UNL d   1       0.754   1.107  -0.376  0.00  0.00     0.004 A 
ATOM      3  C4  UNL d   1       1.513   1.463  -1.490  0.00  0.00    -0.003 A 
ATOM      4  C5  UNL d   1       1.884   0.494  -2.415  0.00  0.00     0.000 A 
ATOM      5  C6  UNL d   1       1.482  -0.829  -2.235  0.00  0.00     0.000 A 
ATOM      6  C7  UNL d   1       0.703  -1.203  -1.126  0.00  0.00    -0.073 A 
ATOM      7  C8  UNL d   1       0.302  -2.645  -0.978  0.00  0.00     0.078 C 
ENDROOT
BRANCH   1   8
ATOM      8  C1  UNL d   1      -0.444  -0.557   1.071  0.00  0.00     0.053 C 
ATOM      9  C   UNL d   1      -1.820   0.090   1.069  0.00  0.00     0.018 C 
ENDBRANCH   1   8
TORSDOF 1
ENDMDL
