MODEL 1
REMARK minimizedAffinity -0.318278015
REMARK minimizedRMSD -1
REMARK  1 active torsions:
REMARK  status: ('A' for Active; 'I' for Inactive)
REMARK    1  A    between atoms: C1_2  and  C2_3 
ROOT
ATOM      1  C2  UNL d   1       0.698   0.442  -0.937  0.00  0.00    -0.076 A 
ATOM      2  C3  UNL d   1      -0.017   1.622  -1.206  0.00  0.00     0.004 A 
ATOM      3  C4  UNL d   1      -1.370   1.729  -0.890  0.00  0.00    -0.003 A 
ATOM      4  C5  UNL d   1      -2.031   0.658  -0.299  0.00  0.00     0.000 A 
ATOM      5  C6  UNL d   1      -1.334  -0.515  -0.009  0.00  0.00     0.000 A 
ATOM      6  C7  UNL d   1       0.035  -0.633  -0.306  0.00  0.00    -0.073 A 
ATOM      7  C8  UNL d   1       0.736  -1.923   0.023  0.00  0.00     0.078 C 
ENDROOT
BRANCH   1   8
ATOM      8  C1  UNL d   1       2.157   0.374  -1.327  0.00  0.00     0.053 C 
ATOM      9  C   UNL d   1       2.354   0.262  -2.830  0.00  0.00     0.018 C 
ENDBRANCH   1   8
TORSDOF 1
ENDMDL
