MODEL 1
REMARK minimizedAffinity -3.56574321
REMARK minimizedRMSD -1
REMARK  1 active torsions:
REMARK  status: ('A' for Active; 'I' for Inactive)
REMARK    1  A    between atoms: C1_2  and  C2_3 
ROOT
ATOM      1  C2  UNL d   1       0.340  -0.059  -0.397  0.00  0.00    -0.076 A 
ATOM      2  C3  UNL d   1       0.636   1.102  -1.132  0.00  0.00     0.004 A 
ATOM      3  C4  UNL d   1       1.331   1.031  -2.338  0.00  0.00    -0.003 A 
ATOM      4  C5  UNL d   1       1.742  -0.204  -2.828  0.00  0.00     0.000 A 
ATOM      5  C6  UNL d   1       1.442  -1.368  -2.121  0.00  0.00     0.000 A 
ATOM      6  C7  UNL d   1       0.727  -1.314  -0.913  0.00  0.00    -0.073 A 
ATOM      7  C8  UNL d   1       0.436  -2.600  -0.189  0.00  0.00     0.078 C 
ENDROOT
BRANCH   1   8
ATOM      8  C1  UNL d   1      -0.394   0.083   0.917  0.00  0.00     0.053 C 
ATOM      9  C   UNL d   1      -1.900   0.188   0.735  0.00  0.00     0.018 C 
ENDBRANCH   1   8
TORSDOF 1
ENDMDL
