MODEL 1
REMARK minimizedAffinity -5.22959423
REMARK minimizedRMSD -1
REMARK  1 active torsions:
REMARK  status: ('A' for Active; 'I' for Inactive)
REMARK    1  A    between atoms: C1_2  and  C2_3 
ROOT
ATOM      1  C2  UNL d   1      -1.294   0.306   1.715  0.00  0.00    -0.076 A 
ATOM      2  C3  UNL d   1      -1.322   0.756   3.046  0.00  0.00     0.004 A 
ATOM      3  C4  UNL d   1      -0.184   1.294   3.645  0.00  0.00    -0.003 A 
ATOM      4  C5  UNL d   1       0.999   1.393   2.922  0.00  0.00     0.000 A 
ATOM      5  C6  UNL d   1       1.040   0.968   1.594  0.00  0.00     0.000 A 
ATOM      6  C7  UNL d   1      -0.102   0.438   0.970  0.00  0.00    -0.073 A 
ATOM      7  C8  UNL d   1      -0.000  -0.011  -0.462  0.00  0.00     0.078 C 
ENDROOT
BRANCH   1   8
ATOM      8  C1  UNL d   1      -2.551  -0.294   1.127  0.00  0.00     0.053 C 
ATOM      9  C   UNL d   1      -3.793   0.522   1.450  0.00  0.00     0.018 C 
ENDBRANCH   1   8
TORSDOF 1
ENDMDL
