MODEL 1
REMARK minimizedAffinity 0.0103703374
REMARK minimizedRMSD -1
REMARK  1 active torsions:
REMARK  status: ('A' for Active; 'I' for Inactive)
REMARK    1  A    between atoms: C1_2  and  C2_3 
ROOT
ATOM      1  C2  UNL d   1      -3.755  -2.872  -3.593  0.00  0.00    -0.076 A 
ATOM      2  C3  UNL d   1      -2.755  -3.854  -3.489  0.00  0.00     0.004 A 
ATOM      3  C4  UNL d   1      -2.279  -4.515  -4.620  0.00  0.00    -0.003 A 
ATOM      4  C5  UNL d   1      -2.794  -4.203  -5.874  0.00  0.00     0.000 A 
ATOM      5  C6  UNL d   1      -3.774  -3.219  -5.997  0.00  0.00     0.000 A 
ATOM      6  C7  UNL d   1      -4.254  -2.532  -4.868  0.00  0.00    -0.073 A 
ATOM      7  C8  UNL d   1      -5.315  -1.483  -5.059  0.00  0.00     0.078 C 
ENDROOT
BRANCH   1   8
ATOM      8  C1  UNL d   1      -4.252  -2.208  -2.328  0.00  0.00     0.053 C 
ATOM      9  C   UNL d   1      -3.199  -2.183  -1.231  0.00  0.00     0.018 C 
ENDBRANCH   1   8
TORSDOF 1
ENDMDL
