MODEL 1
REMARK minimizedAffinity 1.75907588
REMARK minimizedRMSD -1
REMARK  1 active torsions:
REMARK  status: ('A' for Active; 'I' for Inactive)
REMARK    1  A    between atoms: C1_2  and  C2_3 
ROOT
ATOM      1  C2  UNL d   1       2.412  -0.085  -0.677  0.00  0.00    -0.076 A 
ATOM      2  C3  UNL d   1       3.399   0.815  -1.116  0.00  0.00     0.004 A 
ATOM      3  C4  UNL d   1       3.123   2.174  -1.249  0.00  0.00    -0.003 A 
ATOM      4  C5  UNL d   1       1.854   2.656  -0.945  0.00  0.00     0.000 A 
ATOM      5  C6  UNL d   1       0.868   1.781  -0.491  0.00  0.00     0.000 A 
ATOM      6  C7  UNL d   1       1.135   0.410  -0.336  0.00  0.00    -0.073 A 
ATOM      7  C8  UNL d   1       0.033  -0.490   0.151  0.00  0.00     0.078 C 
ENDROOT
BRANCH   1   8
ATOM      8  C1  UNL d   1       2.763  -1.552  -0.577  0.00  0.00     0.053 C 
ATOM      9  C   UNL d   1       4.187  -1.843  -1.026  0.00  0.00     0.018 C 
ENDBRANCH   1   8
TORSDOF 1
ENDMDL
