MODEL 1
REMARK minimizedAffinity 6.56953144
REMARK minimizedRMSD -1
REMARK  1 active torsions:
REMARK  status: ('A' for Active; 'I' for Inactive)
REMARK    1  A    between atoms: C1_2  and  C2_3 
ROOT
ATOM      1  C2  UNL d   1      -0.814  -1.820  -0.542  0.00  0.00    -0.076 A 
ATOM      2  C3  UNL d   1      -0.268  -1.107   0.540  0.00  0.00     0.004 A 
ATOM      3  C4  UNL d   1       0.614  -0.049   0.330  0.00  0.00    -0.003 A 
ATOM      4  C5  UNL d   1       0.965   0.314  -0.966  0.00  0.00     0.000 A 
ATOM      5  C6  UNL d   1       0.420  -0.371  -2.051  0.00  0.00     0.000 A 
ATOM      6  C7  UNL d   1      -0.484  -1.430  -1.858  0.00  0.00    -0.073 A 
ATOM      7  C8  UNL d   1      -1.036  -2.137  -3.064  0.00  0.00     0.078 C 
ENDROOT
BRANCH   1   8
ATOM      8  C1  UNL d   1      -1.744  -2.976  -0.252  0.00  0.00     0.053 C 
ATOM      9  C   UNL d   1      -2.994  -2.544   0.498  0.00  0.00     0.018 C 
ENDBRANCH   1   8
TORSDOF 1
ENDMDL
