MODEL 1
REMARK minimizedAffinity 0.696994245
REMARK minimizedRMSD -1
REMARK  0 active torsions:
REMARK  status: ('A' for Active; 'I' for Inactive)
ROOT
ATOM      1  N1  IND d   1       5.999  -3.959  -4.852  0.00  0.00    -0.196 N 
ATOM      2  C2  IND d   1       5.147  -3.388  -5.756  0.00  0.00     0.054 A 
ATOM      3  C3  IND d   1       4.105  -2.808  -5.120  0.00  0.00    -0.031 A 
ATOM      4  C4  IND d   1       3.649  -2.586  -2.596  0.00  0.00     0.051 A 
ATOM      5  C5  IND d   1       4.124  -2.979  -1.376  0.00  0.00    -0.031 A 
ATOM      6  C6  IND d   1       5.274  -3.732  -1.250  0.00  0.00     0.015 A 
ATOM      7  C7  IND d   1       6.000  -4.112  -2.344  0.00  0.00    -0.016 A 
ATOM      8  C8  IND d   1       5.516  -3.720  -3.584  0.00  0.00    -0.047 A 
ATOM      9  C9  IND d   1       4.327  -2.992  -3.721  0.00  0.00    -0.096 A 
ATOM     10  HN1 IND d   1       6.715  -4.395  -5.043  0.00  0.00     0.298 HD
ENDROOT
TORSDOF 0
ENDMDL
