MODEL 1
REMARK minimizedAffinity 6.03046036
REMARK minimizedRMSD -1
REMARK  0 active torsions:
REMARK  status: ('A' for Active; 'I' for Inactive)
ROOT
ATOM      1  N1  IND d   1      -0.839  -2.491  -3.025  0.00  0.00    -0.196 N 
ATOM      2  C2  IND d   1      -1.772  -3.321  -2.469  0.00  0.00     0.054 A 
ATOM      3  C3  IND d   1      -2.051  -2.935  -1.204  0.00  0.00    -0.031 A 
ATOM      4  C4  IND d   1      -1.169  -0.911   0.121  0.00  0.00     0.051 A 
ATOM      5  C5  IND d   1      -0.271   0.116   0.046  0.00  0.00    -0.031 A 
ATOM      6  C6  IND d   1       0.497   0.333  -1.079  0.00  0.00     0.015 A 
ATOM      7  C7  IND d   1       0.387  -0.466  -2.182  0.00  0.00    -0.016 A 
ATOM      8  C8  IND d   1      -0.519  -1.515  -2.107  0.00  0.00    -0.047 A 
ATOM      9  C9  IND d   1      -1.270  -1.765  -0.952  0.00  0.00    -0.096 A 
ATOM     10  HN1 IND d   1      -0.508  -2.565  -3.815  0.00  0.00     0.298 HD
ENDROOT
TORSDOF 0
ENDMDL
