MODEL 1
REMARK minimizedAffinity 10.6523085
REMARK minimizedRMSD -1
REMARK  0 active torsions:
REMARK  status: ('A' for Active; 'I' for Inactive)
ROOT
ATOM      1  N1  IND d   1       5.962  -2.621  -4.128  0.00  0.00    -0.196 N 
ATOM      2  C2  IND d   1       4.965  -2.282  -4.999  0.00  0.00     0.054 A 
ATOM      3  C3  IND d   1       3.774  -2.250  -4.361  0.00  0.00    -0.031 A 
ATOM      4  C4  IND d   1       3.242  -2.621  -1.870  0.00  0.00     0.051 A 
ATOM      5  C5  IND d   1       3.821  -2.991  -0.688  0.00  0.00    -0.031 A 
ATOM      6  C6  IND d   1       5.171  -3.260  -0.591  0.00  0.00     0.015 A 
ATOM      7  C7  IND d   1       5.998  -3.157  -1.673  0.00  0.00    -0.016 A 
ATOM      8  C8  IND d   1       5.413  -2.788  -2.876  0.00  0.00    -0.047 A 
ATOM      9  C9  IND d   1       4.036  -2.555  -2.991  0.00  0.00    -0.096 A 
ATOM     10  HN1 IND d   1       6.793  -2.715  -4.329  0.00  0.00     0.298 HD
ENDROOT
TORSDOF 0
ENDMDL
