MODEL 1
REMARK minimizedAffinity 5.87372017
REMARK minimizedRMSD -1
REMARK  0 active torsions:
REMARK  status: ('A' for Active; 'I' for Inactive)
ROOT
ATOM      1  N1  IND d   1      -2.597  -3.260  -1.104  0.00  0.00    -0.196 N 
ATOM      2  C2  IND d   1      -2.311  -3.511  -2.417  0.00  0.00     0.054 A 
ATOM      3  C3  IND d   1      -1.473  -2.569  -2.904  0.00  0.00    -0.031 A 
ATOM      4  C4  IND d   1      -0.363  -0.585  -1.696  0.00  0.00     0.051 A 
ATOM      5  C5  IND d   1      -0.346   0.075  -0.500  0.00  0.00    -0.031 A 
ATOM      6  C6  IND d   1      -1.091  -0.354   0.580  0.00  0.00     0.015 A 
ATOM      7  C7  IND d   1      -1.876  -1.469   0.505  0.00  0.00    -0.016 A 
ATOM      8  C8  IND d   1      -1.901  -2.138  -0.711  0.00  0.00    -0.047 A 
ATOM      9  C9  IND d   1      -1.180  -1.683  -1.822  0.00  0.00    -0.096 A 
ATOM     10  HN1 IND d   1      -3.122  -3.725  -0.607  0.00  0.00     0.298 HD
ENDROOT
TORSDOF 0
ENDMDL
