MODEL 1
REMARK minimizedAffinity 7.84032345
REMARK minimizedRMSD -1
REMARK  0 active torsions:
REMARK  status: ('A' for Active; 'I' for Inactive)
ROOT
ATOM      1  N1  IND d   1      -1.596  -1.811  -3.031  0.00  0.00    -0.196 N 
ATOM      2  C2  IND d   1      -2.160  -2.196  -1.846  0.00  0.00     0.054 A 
ATOM      3  C3  IND d   1      -2.726  -3.417  -1.969  0.00  0.00    -0.031 A 
ATOM      4  C4  IND d   1      -2.759  -5.009  -3.992  0.00  0.00     0.051 A 
ATOM      5  C5  IND d   1      -2.406  -5.082  -5.311  0.00  0.00    -0.031 A 
ATOM      6  C6  IND d   1      -1.749  -4.050  -5.948  0.00  0.00     0.015 A 
ATOM      7  C7  IND d   1      -1.410  -2.905  -5.286  0.00  0.00    -0.016 A 
ATOM      8  C8  IND d   1      -1.773  -2.823  -3.949  0.00  0.00    -0.047 A 
ATOM      9  C9  IND d   1      -2.477  -3.850  -3.307  0.00  0.00    -0.096 A 
ATOM     10  HN1 IND d   1      -1.198  -1.063  -3.178  0.00  0.00     0.298 HD
ENDROOT
TORSDOF 0
ENDMDL
