MODEL 1
REMARK minimizedAffinity 13.8995628
REMARK minimizedRMSD -1
REMARK  0 active torsions:
REMARK  status: ('A' for Active; 'I' for Inactive)
ROOT
ATOM      1  N1  IND d   1      -2.543  -1.991   4.471  0.00  0.00    -0.196 N 
ATOM      2  C2  IND d   1      -3.148  -1.960   5.697  0.00  0.00     0.054 A 
ATOM      3  C3  IND d   1      -3.992  -0.907   5.779  0.00  0.00    -0.031 A 
ATOM      4  C4  IND d   1      -4.612   0.835   3.988  0.00  0.00     0.051 A 
ATOM      5  C5  IND d   1      -4.292   1.240   2.722  0.00  0.00    -0.031 A 
ATOM      6  C6  IND d   1      -3.356   0.573   1.958  0.00  0.00     0.015 A 
ATOM      7  C7  IND d   1      -2.710  -0.535   2.430  0.00  0.00    -0.016 A 
ATOM      8  C8  IND d   1      -3.028  -0.944   3.717  0.00  0.00    -0.047 A 
ATOM      9  C9  IND d   1      -3.946  -0.247   4.513  0.00  0.00    -0.096 A 
ATOM     10  HN1 IND d   1      -1.959  -2.567   4.214  0.00  0.00     0.298 HD
ENDROOT
TORSDOF 0
ENDMDL
