MODEL 1
REMARK minimizedAffinity 1.72261655
REMARK minimizedRMSD -1
REMARK  0 active torsions:
REMARK  status: ('A' for Active; 'I' for Inactive)
ROOT
ATOM      1  N1  IND d   1      -4.518  -0.866   5.840  0.00  0.00    -0.196 N 
ATOM      2  C2  IND d   1      -3.731  -1.975   5.974  0.00  0.00     0.054 A 
ATOM      3  C3  IND d   1      -2.931  -2.118   4.894  0.00  0.00    -0.031 A 
ATOM      4  C4  IND d   1      -2.673  -0.592   2.836  0.00  0.00     0.051 A 
ATOM      5  C5  IND d   1      -3.204   0.521   2.247  0.00  0.00    -0.031 A 
ATOM      6  C6  IND d   1      -4.219   1.244   2.839  0.00  0.00     0.015 A 
ATOM      7  C7  IND d   1      -4.735   0.887   4.052  0.00  0.00    -0.016 A 
ATOM      8  C8  IND d   1      -4.203  -0.247   4.650  0.00  0.00    -0.047 A 
ATOM      9  C9  IND d   1      -3.202  -1.009   4.035  0.00  0.00    -0.096 A 
ATOM     10  HN1 IND d   1      -5.111  -0.600   6.403  0.00  0.00     0.298 HD
ENDROOT
TORSDOF 0
ENDMDL
