MODEL 1
REMARK minimizedAffinity 18.2866325
REMARK minimizedRMSD -1
REMARK  0 active torsions:
REMARK  status: ('A' for Active; 'I' for Inactive)
ROOT
ATOM      1  N1  IND d   1       0.291  -1.350  -2.938  0.00  0.00    -0.196 N 
ATOM      2  C2  IND d   1       1.368  -0.509  -2.874  0.00  0.00     0.054 A 
ATOM      3  C3  IND d   1       1.455   0.051  -1.647  0.00  0.00    -0.031 A 
ATOM      4  C4  IND d   1       0.001  -0.347   0.440  0.00  0.00     0.051 A 
ATOM      5  C5  IND d   1      -1.123  -1.000   0.861  0.00  0.00    -0.031 A 
ATOM      6  C6  IND d   1      -1.847  -1.822   0.021  0.00  0.00     0.015 A 
ATOM      7  C7  IND d   1      -1.464  -2.031  -1.274  0.00  0.00    -0.016 A 
ATOM      8  C8  IND d   1      -0.327  -1.364  -1.707  0.00  0.00    -0.047 A 
ATOM      9  C9  IND d   1       0.387  -0.495  -0.871  0.00  0.00    -0.096 A 
ATOM     10  HN1 IND d   1       0.042  -1.795  -3.630  0.00  0.00     0.298 HD
ENDROOT
TORSDOF 0
ENDMDL
