MODEL 1
REMARK minimizedAffinity 8.14443588
REMARK minimizedRMSD -1
REMARK  0 active torsions:
REMARK  status: ('A' for Active; 'I' for Inactive)
ROOT
ATOM      1  N1  IND d   1      -4.529  -2.670  -0.160  0.00  0.00    -0.196 N 
ATOM      2  C2  IND d   1      -4.704  -3.465  -1.258  0.00  0.00     0.054 A 
ATOM      3  C3  IND d   1      -3.586  -3.466  -2.020  0.00  0.00    -0.031 A 
ATOM      4  C4  IND d   1      -1.320  -2.319  -1.601  0.00  0.00     0.051 A 
ATOM      5  C5  IND d   1      -0.691  -1.455  -0.748  0.00  0.00    -0.031 A 
ATOM      6  C6  IND d   1      -1.322  -0.944   0.368  0.00  0.00     0.015 A 
ATOM      7  C7  IND d   1      -2.606  -1.288   0.681  0.00  0.00    -0.016 A 
ATOM      8  C8  IND d   1      -3.250  -2.160  -0.186  0.00  0.00    -0.047 A 
ATOM      9  C9  IND d   1      -2.630  -2.648  -1.344  0.00  0.00    -0.096 A 
ATOM     10  HN1 IND d   1      -5.120  -2.515   0.446  0.00  0.00     0.298 HD
ENDROOT
TORSDOF 0
ENDMDL
