MODEL 1
REMARK minimizedAffinity 6.32004547
REMARK minimizedRMSD -1
REMARK  0 active torsions:
REMARK  status: ('A' for Active; 'I' for Inactive)
ROOT
ATOM      1  N1  IND d   1      -1.079  -3.040  -4.348  0.00  0.00    -0.196 N 
ATOM      2  C2  IND d   1      -1.941  -4.025  -4.744  0.00  0.00     0.054 A 
ATOM      3  C3  IND d   1      -2.826  -4.298  -3.760  0.00  0.00    -0.031 A 
ATOM      4  C4  IND d   1      -3.108  -3.182  -1.457  0.00  0.00     0.051 A 
ATOM      5  C5  IND d   1      -2.533  -2.259  -0.630  0.00  0.00    -0.031 A 
ATOM      6  C6  IND d   1      -1.423  -1.532  -1.008  0.00  0.00     0.015 A 
ATOM      7  C7  IND d   1      -0.851  -1.694  -2.238  0.00  0.00    -0.016 A 
ATOM      8  C8  IND d   1      -1.428  -2.636  -3.078  0.00  0.00    -0.047 A 
ATOM      9  C9  IND d   1      -2.529  -3.407  -2.683  0.00  0.00    -0.096 A 
ATOM     10  HN1 IND d   1      -0.427  -2.727  -4.814  0.00  0.00     0.298 HD
ENDROOT
TORSDOF 0
ENDMDL
