MODEL 1
REMARK minimizedAffinity 12.7390089
REMARK minimizedRMSD -1
REMARK  0 active torsions:
REMARK  status: ('A' for Active; 'I' for Inactive)
ROOT
ATOM      1  N1  IND d   1       3.684   4.568   0.394  0.00  0.00    -0.196 N 
ATOM      2  C2  IND d   1       4.077   3.652  -0.542  0.00  0.00     0.054 A 
ATOM      3  C3  IND d   1       3.197   2.628  -0.597  0.00  0.00    -0.031 A 
ATOM      4  C4  IND d   1       0.989   2.298   0.685  0.00  0.00     0.051 A 
ATOM      5  C5  IND d   1       0.226   2.849   1.676  0.00  0.00    -0.031 A 
ATOM      6  C6  IND d   1       0.582   4.027   2.301  0.00  0.00     0.015 A 
ATOM      7  C7  IND d   1       1.714   4.706   1.949  0.00  0.00    -0.016 A 
ATOM      8  C8  IND d   1       2.495   4.145   0.948  0.00  0.00    -0.047 A 
ATOM      9  C9  IND d   1       2.161   2.929   0.339  0.00  0.00    -0.096 A 
ATOM     10  HN1 IND d   1       4.108   5.286   0.602  0.00  0.00     0.298 HD
ENDROOT
TORSDOF 0
ENDMDL
