MODEL 1
REMARK minimizedAffinity 3.48659563
REMARK minimizedRMSD -1
REMARK  0 active torsions:
REMARK  status: ('A' for Active; 'I' for Inactive)
ROOT
ATOM      1  N1  IND d   1       0.161  -0.351  -1.715  0.00  0.00    -0.196 N 
ATOM      2  C2  IND d   1      -0.719  -0.446  -0.673  0.00  0.00     0.054 A 
ATOM      3  C3  IND d   1      -0.221  -1.254   0.290  0.00  0.00    -0.031 A 
ATOM      4  C4  IND d   1       2.058  -2.445   0.409  0.00  0.00     0.051 A 
ATOM      5  C5  IND d   1       3.186  -2.688  -0.323  0.00  0.00    -0.031 A 
ATOM      6  C6  IND d   1       3.368  -2.151  -1.581  0.00  0.00     0.015 A 
ATOM      7  C7  IND d   1       2.430  -1.339  -2.152  0.00  0.00    -0.016 A 
ATOM      8  C8  IND d   1       1.280  -1.096  -1.414  0.00  0.00    -0.047 A 
ATOM      9  C9  IND d   1       1.070  -1.672  -0.154  0.00  0.00    -0.096 A 
ATOM     10  HN1 IND d   1       0.035   0.098  -2.438  0.00  0.00     0.298 HD
ENDROOT
TORSDOF 0
ENDMDL
