MODEL 1
REMARK minimizedAffinity 8.59935951
REMARK minimizedRMSD -1
REMARK  0 active torsions:
REMARK  status: ('A' for Active; 'I' for Inactive)
ROOT
ATOM      1  N1  IND d   1      -2.658  -2.182  -0.747  0.00  0.00    -0.196 N 
ATOM      2  C2  IND d   1      -2.184  -2.960  -1.767  0.00  0.00     0.054 A 
ATOM      3  C3  IND d   1      -0.924  -2.592  -2.092  0.00  0.00    -0.031 A 
ATOM      4  C4  IND d   1       0.590  -0.811  -1.013  0.00  0.00     0.051 A 
ATOM      5  C5  IND d   1       0.585   0.180  -0.072  0.00  0.00    -0.031 A 
ATOM      6  C6  IND d   1      -0.523   0.438   0.709  0.00  0.00     0.015 A 
ATOM      7  C7  IND d   1      -1.668  -0.297   0.587  0.00  0.00    -0.016 A 
ATOM      8  C8  IND d   1      -1.669  -1.299  -0.373  0.00  0.00    -0.047 A 
ATOM      9  C9  IND d   1      -0.563  -1.537  -1.199  0.00  0.00    -0.096 A 
ATOM     10  HN1 IND d   1      -3.442  -2.236  -0.399  0.00  0.00     0.298 HD
ENDROOT
TORSDOF 0
ENDMDL
