MODEL 1
REMARK minimizedAffinity 1.11732686
REMARK minimizedRMSD -1
REMARK  0 active torsions:
REMARK  status: ('A' for Active; 'I' for Inactive)
ROOT
ATOM      1  N1  IND d   1       3.171   2.646   0.030  0.00  0.00    -0.196 N 
ATOM      2  C2  IND d   1       2.913   3.657   0.913  0.00  0.00     0.054 A 
ATOM      3  C3  IND d   1       1.611   3.640   1.280  0.00  0.00    -0.031 A 
ATOM      4  C4  IND d   1      -0.249   1.982   0.632  0.00  0.00     0.051 A 
ATOM      5  C5  IND d   1      -0.503   0.911  -0.179  0.00  0.00    -0.031 A 
ATOM      6  C6  IND d   1       0.475   0.351  -0.975  0.00  0.00     0.015 A 
ATOM      7  C7  IND d   1       1.752   0.836  -0.982  0.00  0.00    -0.016 A 
ATOM      8  C8  IND d   1       2.012   1.927  -0.166  0.00  0.00    -0.047 A 
ATOM      9  C9  IND d   1       1.014   2.527   0.613  0.00  0.00    -0.096 A 
ATOM     10  HN1 IND d   1       3.930   2.486  -0.341  0.00  0.00     0.298 HD
ENDROOT
TORSDOF 0
ENDMDL
