MODEL 1
REMARK minimizedAffinity -1.97282863
REMARK minimizedRMSD -1
REMARK  0 active torsions:
REMARK  status: ('A' for Active; 'I' for Inactive)
ROOT
ATOM      1  N1  IND d   1      -0.537  -1.321   1.478  0.00  0.00    -0.196 N 
ATOM      2  C2  IND d   1      -0.377  -2.658   1.244  0.00  0.00     0.054 A 
ATOM      3  C3  IND d   1      -0.145  -2.882  -0.069  0.00  0.00    -0.031 A 
ATOM      4  C4  IND d   1       0.113  -1.193  -1.995  0.00  0.00     0.051 A 
ATOM      5  C5  IND d   1       0.014   0.140  -2.279  0.00  0.00    -0.031 A 
ATOM      6  C6  IND d   1      -0.277   1.074  -1.306  0.00  0.00     0.015 A 
ATOM      7  C7  IND d   1      -0.470   0.708  -0.003  0.00  0.00    -0.016 A 
ATOM      8  C8  IND d   1      -0.377  -0.645   0.288  0.00  0.00    -0.047 A 
ATOM      9  C9  IND d   1      -0.124  -1.602  -0.704  0.00  0.00    -0.096 A 
ATOM     10  HN1 IND d   1      -0.709  -0.962   2.240  0.00  0.00     0.298 HD
ENDROOT
TORSDOF 0
ENDMDL
