MODEL 1
REMARK minimizedAffinity 2.07957006
REMARK minimizedRMSD -1
REMARK  0 active torsions:
REMARK  status: ('A' for Active; 'I' for Inactive)
ROOT
ATOM      1  C   UNL d   1      -3.169  -0.924   1.814  0.00  0.00     0.023 A 
ATOM      2  C1  UNL d   1      -3.152  -1.559   0.572  0.00  0.00     0.003 A 
ATOM      3  C2  UNL d   1      -2.192  -1.208  -0.380  0.00  0.00     0.048 A 
ATOM      4  C3  UNL d   1      -1.252  -0.221  -0.083  0.00  0.00     0.023 A 
ATOM      5  C4  UNL d   1      -1.265   0.416   1.159  0.00  0.00     0.048 A 
ATOM      6  C5  UNL d   1      -2.227   0.062   2.107  0.00  0.00     0.003 A 
ATOM      7  I   UNL d   1       0.177   0.303  -1.498  0.00  0.00    -0.146 I 
ENDROOT
TORSDOF 0
ENDMDL
