MODEL 1
REMARK minimizedAffinity 7.49519491
REMARK minimizedRMSD -1
REMARK  0 active torsions:
REMARK  status: ('A' for Active; 'I' for Inactive)
ROOT
ATOM      1  C   UNL d   1      -2.126   6.000   5.998  0.00  0.00     0.023 A 
ATOM      2  C1  UNL d   1      -1.409   5.482   4.919  0.00  0.00     0.003 A 
ATOM      3  C2  UNL d   1      -2.085   4.910   3.840  0.00  0.00     0.048 A 
ATOM      4  C3  UNL d   1      -3.479   4.859   3.845  0.00  0.00     0.023 A 
ATOM      5  C4  UNL d   1      -4.200   5.377   4.922  0.00  0.00     0.048 A 
ATOM      6  C5  UNL d   1      -3.520   5.947   5.999  0.00  0.00     0.003 A 
ATOM      7  I   UNL d   1      -4.487   4.009   2.240  0.00  0.00    -0.146 I 
ENDROOT
TORSDOF 0
ENDMDL
