MODEL 1
REMARK minimizedAffinity 8.10083389
REMARK minimizedRMSD -1
REMARK  0 active torsions:
REMARK  status: ('A' for Active; 'I' for Inactive)
ROOT
ATOM      1  C   UNL d   1      -5.058  -2.533  -0.747  0.00  0.00     0.023 A 
ATOM      2  C1  UNL d   1      -3.784  -2.015  -0.977  0.00  0.00     0.003 A 
ATOM      3  C2  UNL d   1      -3.139  -1.277   0.017  0.00  0.00     0.048 A 
ATOM      4  C3  UNL d   1      -3.774  -1.061   1.240  0.00  0.00     0.023 A 
ATOM      5  C4  UNL d   1      -5.048  -1.579   1.475  0.00  0.00     0.048 A 
ATOM      6  C5  UNL d   1      -5.690  -2.315   0.478  0.00  0.00     0.003 A 
ATOM      7  I   UNL d   1      -2.815   0.037   2.722  0.00  0.00    -0.146 I 
ENDROOT
TORSDOF 0
ENDMDL
