MODEL 1
REMARK minimizedAffinity 5.60781384
REMARK minimizedRMSD -1
REMARK  0 active torsions:
REMARK  status: ('A' for Active; 'I' for Inactive)
ROOT
ATOM      1  C   UNL d   1       3.637   4.547   0.111  0.00  0.00     0.023 A 
ATOM      2  C1  UNL d   1       4.749   3.904   0.657  0.00  0.00     0.003 A 
ATOM      3  C2  UNL d   1       5.250   4.306   1.897  0.00  0.00     0.048 A 
ATOM      4  C3  UNL d   1       4.634   5.350   2.586  0.00  0.00     0.023 A 
ATOM      5  C4  UNL d   1       3.521   5.995   2.044  0.00  0.00     0.048 A 
ATOM      6  C5  UNL d   1       3.024   5.591   0.803  0.00  0.00     0.003 A 
ATOM      7  I   UNL d   1       5.377   5.950   4.432  0.00  0.00    -0.146 I 
ENDROOT
TORSDOF 0
ENDMDL
