MODEL 1
REMARK minimizedAffinity 4.23354578
REMARK minimizedRMSD -1
REMARK  0 active torsions:
REMARK  status: ('A' for Active; 'I' for Inactive)
ROOT
ATOM      1  C   UNL d   1       4.891  -5.416   5.785  0.00  0.00     0.023 A 
ATOM      2  C1  UNL d   1       4.049  -5.451   4.673  0.00  0.00     0.003 A 
ATOM      3  C2  UNL d   1       4.031  -4.382   3.775  0.00  0.00     0.048 A 
ATOM      4  C3  UNL d   1       4.859  -3.282   3.993  0.00  0.00     0.023 A 
ATOM      5  C4  UNL d   1       5.704  -3.242   5.103  0.00  0.00     0.048 A 
ATOM      6  C5  UNL d   1       5.717  -4.313   6.000  0.00  0.00     0.003 A 
ATOM      7  I   UNL d   1       4.835  -1.690   2.657  0.00  0.00    -0.146 I 
ENDROOT
TORSDOF 0
ENDMDL
