MODEL 1
REMARK minimizedAffinity 7.2102232
REMARK minimizedRMSD -1
REMARK  0 active torsions:
REMARK  status: ('A' for Active; 'I' for Inactive)
ROOT
ATOM      1  C   UNL d   1       4.529   5.285   4.385  0.00  0.00     0.023 A 
ATOM      2  C1  UNL d   1       5.646   4.567   3.958  0.00  0.00     0.003 A 
ATOM      3  C2  UNL d   1       6.000   4.560   2.608  0.00  0.00     0.048 A 
ATOM      4  C3  UNL d   1       5.232   5.275   1.689  0.00  0.00     0.023 A 
ATOM      5  C4  UNL d   1       4.114   5.996   2.111  0.00  0.00     0.048 A 
ATOM      6  C5  UNL d   1       3.764   5.999   3.462  0.00  0.00     0.003 A 
ATOM      7  I   UNL d   1       5.757   5.267  -0.323  0.00  0.00    -0.146 I 
ENDROOT
TORSDOF 0
ENDMDL
