MODEL 1
REMARK minimizedAffinity 10.9966011
REMARK minimizedRMSD -1
REMARK  0 active torsions:
REMARK  status: ('A' for Active; 'I' for Inactive)
ROOT
ATOM      1  C   UNL d   1      -0.346   5.255  -1.245  0.00  0.00     0.023 A 
ATOM      2  C1  UNL d   1      -1.507   4.495  -1.390  0.00  0.00     0.003 A 
ATOM      3  C2  UNL d   1      -2.463   4.477  -0.372  0.00  0.00     0.048 A 
ATOM      4  C3  UNL d   1      -2.253   5.223   0.787  0.00  0.00     0.023 A 
ATOM      5  C4  UNL d   1      -1.093   5.986   0.936  0.00  0.00     0.048 A 
ATOM      6  C5  UNL d   1      -0.140   6.000  -0.083  0.00  0.00     0.003 A 
ATOM      7  I   UNL d   1      -3.675   5.198   2.303  0.00  0.00    -0.146 I 
ENDROOT
TORSDOF 0
ENDMDL
