MODEL 1
REMARK minimizedAffinity 15.2711887
REMARK minimizedRMSD -1
REMARK  0 active torsions:
REMARK  status: ('A' for Active; 'I' for Inactive)
ROOT
ATOM      1  C   UNL d   1      -5.136   5.716   4.070  0.00  0.00     0.023 A 
ATOM      2  C1  UNL d   1      -4.963   5.996   5.426  0.00  0.00     0.003 A 
ATOM      3  C2  UNL d   1      -3.681   6.000   5.981  0.00  0.00     0.048 A 
ATOM      4  C3  UNL d   1      -2.578   5.723   5.174  0.00  0.00     0.023 A 
ATOM      5  C4  UNL d   1      -2.747   5.443   3.817  0.00  0.00     0.048 A 
ATOM      6  C5  UNL d   1      -4.030   5.440   3.267  0.00  0.00     0.003 A 
ATOM      7  I   UNL d   1      -0.669   5.728   5.998  0.00  0.00    -0.146 I 
ENDROOT
TORSDOF 0
ENDMDL
