MODEL 1
REMARK minimizedAffinity 2.92135882
REMARK minimizedRMSD -1
REMARK  0 active torsions:
REMARK  status: ('A' for Active; 'I' for Inactive)
ROOT
ATOM      1  C   UNL d   1      -2.573   2.728   3.587  0.00  0.00     0.023 A 
ATOM      2  C1  UNL d   1      -1.893   1.517   3.713  0.00  0.00     0.003 A 
ATOM      3  C2  UNL d   1      -1.732   0.685   2.603  0.00  0.00     0.048 A 
ATOM      4  C3  UNL d   1      -2.252   1.072   1.369  0.00  0.00     0.023 A 
ATOM      5  C4  UNL d   1      -2.933   2.283   1.237  0.00  0.00     0.048 A 
ATOM      6  C5  UNL d   1      -3.092   3.111   2.350  0.00  0.00     0.003 A 
ATOM      7  I   UNL d   1      -2.014  -0.164  -0.285  0.00  0.00    -0.146 I 
ENDROOT
TORSDOF 0
ENDMDL
