MODEL 1
REMARK minimizedAffinity 16.6088409
REMARK minimizedRMSD -1
REMARK  0 active torsions:
REMARK  status: ('A' for Active; 'I' for Inactive)
ROOT
ATOM      1  C   UNL d   1      -4.169  -1.803  -1.165  0.00  0.00     0.023 A 
ATOM      2  C1  UNL d   1      -3.335  -1.826  -0.047  0.00  0.00     0.003 A 
ATOM      3  C2  UNL d   1      -3.829  -1.447   1.202  0.00  0.00     0.048 A 
ATOM      4  C3  UNL d   1      -5.159  -1.047   1.327  0.00  0.00     0.023 A 
ATOM      5  C4  UNL d   1      -5.998  -1.024   0.212  0.00  0.00     0.048 A 
ATOM      6  C5  UNL d   1      -5.499  -1.403  -1.036  0.00  0.00     0.003 A 
ATOM      7  I   UNL d   1      -5.898  -0.483   3.186  0.00  0.00    -0.146 I 
ENDROOT
TORSDOF 0
ENDMDL
