MODEL 1
REMARK minimizedAffinity 9.76721859
REMARK minimizedRMSD -1
REMARK  0 active torsions:
REMARK  status: ('A' for Active; 'I' for Inactive)
ROOT
ATOM      1  C   UNL d   1       1.448  -1.439  -2.823  0.00  0.00     0.023 A 
ATOM      2  C1  UNL d   1       1.332  -0.205  -2.182  0.00  0.00     0.003 A 
ATOM      3  C2  UNL d   1       0.277   0.027  -1.298  0.00  0.00     0.048 A 
ATOM      4  C3  UNL d   1      -0.659  -0.979  -1.059  0.00  0.00     0.023 A 
ATOM      5  C4  UNL d   1      -0.547  -2.215  -1.697  0.00  0.00     0.048 A 
ATOM      6  C5  UNL d   1       0.510  -2.442  -2.581  0.00  0.00     0.003 A 
ATOM      7  I   UNL d   1      -2.231  -0.635   0.257  0.00  0.00    -0.146 I 
ENDROOT
TORSDOF 0
ENDMDL
