MODEL 1
REMARK minimizedAffinity 7.46310949
REMARK minimizedRMSD -1
REMARK  0 active torsions:
REMARK  status: ('A' for Active; 'I' for Inactive)
ROOT
ATOM      1  C   UNL d   1      -2.950   0.657   2.383  0.00  0.00     0.023 A 
ATOM      2  C1  UNL d   1      -3.519   0.299   1.161  0.00  0.00     0.003 A 
ATOM      3  C2  UNL d   1      -2.746   0.315  -0.002  0.00  0.00     0.048 A 
ATOM      4  C3  UNL d   1      -1.404   0.688   0.065  0.00  0.00     0.023 A 
ATOM      5  C4  UNL d   1      -0.830   1.046   1.285  0.00  0.00     0.048 A 
ATOM      6  C5  UNL d   1      -1.607   1.029   2.445  0.00  0.00     0.003 A 
ATOM      7  I   UNL d   1      -0.252   0.712  -1.665  0.00  0.00    -0.146 I 
ENDROOT
TORSDOF 0
ENDMDL
