MODEL 1
REMARK minimizedAffinity 7.01709938
REMARK minimizedRMSD -1
REMARK  0 active torsions:
REMARK  status: ('A' for Active; 'I' for Inactive)
ROOT
ATOM      1  C   UNL d   1      -2.564  -1.500  -0.255  0.00  0.00     0.023 A 
ATOM      2  C1  UNL d   1      -2.234  -1.914   1.035  0.00  0.00     0.003 A 
ATOM      3  C2  UNL d   1      -2.224  -0.993   2.085  0.00  0.00     0.048 A 
ATOM      4  C3  UNL d   1      -2.545   0.341   1.837  0.00  0.00     0.023 A 
ATOM      5  C4  UNL d   1      -2.877   0.760   0.547  0.00  0.00     0.048 A 
ATOM      6  C5  UNL d   1      -2.885  -0.164  -0.499  0.00  0.00     0.003 A 
ATOM      7  I   UNL d   1      -2.531   1.714   3.397  0.00  0.00    -0.146 I 
ENDROOT
TORSDOF 0
ENDMDL
