MODEL 1
REMARK minimizedAffinity 13.7400894
REMARK minimizedRMSD -1
REMARK  0 active torsions:
REMARK  status: ('A' for Active; 'I' for Inactive)
ROOT
ATOM      1  C   UNL d   1      -3.220   1.700   3.362  0.00  0.00     0.023 A 
ATOM      2  C1  UNL d   1      -4.000   1.934   2.229  0.00  0.00     0.003 A 
ATOM      3  C2  UNL d   1      -3.748   1.232   1.049  0.00  0.00     0.048 A 
ATOM      4  C3  UNL d   1      -2.714   0.297   1.008  0.00  0.00     0.023 A 
ATOM      5  C4  UNL d   1      -1.931   0.059   2.139  0.00  0.00     0.048 A 
ATOM      6  C5  UNL d   1      -2.187   0.764   3.317  0.00  0.00     0.003 A 
ATOM      7  I   UNL d   1      -2.336  -0.750  -0.747  0.00  0.00    -0.146 I 
ENDROOT
TORSDOF 0
ENDMDL
