MODEL 1
REMARK minimizedAffinity 8.10995102
REMARK minimizedRMSD -1
REMARK  0 active torsions:
REMARK  status: ('A' for Active; 'I' for Inactive)
ROOT
ATOM      1  C   UNL d   1       5.064   5.984   2.379  0.00  0.00     0.023 A 
ATOM      2  C1  UNL d   1       5.997   5.435   1.499  0.00  0.00     0.003 A 
ATOM      3  C2  UNL d   1       5.577   4.900   0.279  0.00  0.00     0.048 A 
ATOM      4  C3  UNL d   1       4.223   4.918  -0.054  0.00  0.00     0.023 A 
ATOM      5  C4  UNL d   1       3.286   5.467   0.824  0.00  0.00     0.048 A 
ATOM      6  C5  UNL d   1       3.711   6.000   2.042  0.00  0.00     0.003 A 
ATOM      7  I   UNL d   1       3.595   4.123  -1.869  0.00  0.00    -0.146 I 
ENDROOT
TORSDOF 0
ENDMDL
