MODEL 1
REMARK minimizedAffinity -2.78910923
REMARK minimizedRMSD -1
REMARK  0 active torsions:
REMARK  status: ('A' for Active; 'I' for Inactive)
ROOT
ATOM      1  C   UNL d   1       0.217  -0.593  -0.903  0.00  0.00    -0.002 A 
ATOM      2  C1  UNL d   1       0.951  -0.980   0.210  0.00  0.00     0.010 A 
ATOM      3  C2  UNL d   1       0.832  -0.287   1.415  0.00  0.00     0.041 A 
ATOM      4  C3  UNL d   1      -0.046   0.813   1.486  0.00  0.00    -0.075 A 
ATOM      5  S   UNL d   1      -0.354   1.811   2.857  0.00  0.00     0.015 SA
ATOM      6  C4  UNL d   1      -1.467   2.775   1.999  0.00  0.00     0.022 A 
ATOM      7  C5  UNL d   1      -1.612   2.360   0.696  0.00  0.00     0.026 A 
ATOM      8  C6  UNL d   1      -0.796   1.222   0.379  0.00  0.00    -0.082 A 
ATOM      9  C7  UNL d   1      -0.652   0.499  -0.829  0.00  0.00     0.045 A 
ENDROOT
TORSDOF 0
ENDMDL
