MODEL 1
REMARK minimizedAffinity 2.75301504
REMARK minimizedRMSD -1
REMARK  0 active torsions:
REMARK  status: ('A' for Active; 'I' for Inactive)
ROOT
ATOM      1  C   UNL d   1      -1.868   2.356   0.796  0.00  0.00    -0.002 A 
ATOM      2  C1  UNL d   1      -1.043   2.666   1.868  0.00  0.00     0.010 A 
ATOM      3  C2  UNL d   1       0.092   1.898   2.136  0.00  0.00     0.041 A 
ATOM      4  C3  UNL d   1       0.388   0.805   1.298  0.00  0.00    -0.075 A 
ATOM      5  S   UNL d   1       1.726  -0.275   1.433  0.00  0.00     0.015 SA
ATOM      6  C4  UNL d   1       1.234  -1.172   0.069  0.00  0.00     0.022 A 
ATOM      7  C5  UNL d   1       0.080  -0.674  -0.487  0.00  0.00     0.026 A 
ATOM      8  C6  UNL d   1      -0.426   0.474   0.211  0.00  0.00    -0.082 A 
ATOM      9  C7  UNL d   1      -1.570   1.271  -0.033  0.00  0.00     0.045 A 
ENDROOT
TORSDOF 0
ENDMDL
