MODEL 1
REMARK minimizedAffinity 6.77284288
REMARK minimizedRMSD -1
REMARK  0 active torsions:
REMARK  status: ('A' for Active; 'I' for Inactive)
ROOT
ATOM      1  C   UNL d   1      -2.050   0.640  -2.190  0.00  0.00    -0.002 A 
ATOM      2  C1  UNL d   1      -0.983   1.501  -2.405  0.00  0.00     0.010 A 
ATOM      3  C2  UNL d   1       0.090   1.540  -1.512  0.00  0.00     0.041 A 
ATOM      4  C3  UNL d   1       0.073   0.689  -0.390  0.00  0.00    -0.075 A 
ATOM      5  S   UNL d   1       1.278   0.564   0.837  0.00  0.00     0.015 SA
ATOM      6  C4  UNL d   1       0.406  -0.637   1.676  0.00  0.00     0.022 A 
ATOM      7  C5  UNL d   1      -0.778  -0.946   1.049  0.00  0.00     0.026 A 
ATOM      8  C6  UNL d   1      -0.989  -0.187  -0.152  0.00  0.00    -0.082 A 
ATOM      9  C7  UNL d   1      -2.062  -0.203  -1.075  0.00  0.00     0.045 A 
ENDROOT
TORSDOF 0
ENDMDL
