MODEL 1
REMARK minimizedAffinity -1.11873055
REMARK minimizedRMSD -1
REMARK  0 active torsions:
REMARK  status: ('A' for Active; 'I' for Inactive)
ROOT
ATOM      1  C   UNL d   1       0.133   0.434  -0.857  0.00  0.00    -0.002 A 
ATOM      2  C1  UNL d   1       0.399  -0.109   0.392  0.00  0.00     0.010 A 
ATOM      3  C2  UNL d   1       0.229  -1.475   0.624  0.00  0.00     0.041 A 
ATOM      4  C3  UNL d   1      -0.215  -2.295  -0.432  0.00  0.00    -0.075 A 
ATOM      5  S   UNL d   1      -0.493  -3.996  -0.380  0.00  0.00     0.015 SA
ATOM      6  C4  UNL d   1      -0.971  -4.042  -2.016  0.00  0.00     0.022 A 
ATOM      7  C5  UNL d   1      -0.925  -2.800  -2.602  0.00  0.00     0.026 A 
ATOM      8  C6  UNL d   1      -0.488  -1.772  -1.699  0.00  0.00    -0.082 A 
ATOM      9  C7  UNL d   1      -0.307  -0.383  -1.902  0.00  0.00     0.045 A 
ENDROOT
TORSDOF 0
ENDMDL
