MODEL 1
REMARK minimizedAffinity 1.29923677
REMARK minimizedRMSD -1
REMARK  0 active torsions:
REMARK  status: ('A' for Active; 'I' for Inactive)
ROOT
ATOM      1  C   UNL d   1       1.610  -0.536   2.716  0.00  0.00    -0.002 A 
ATOM      2  C1  UNL d   1       2.129  -0.835   3.968  0.00  0.00     0.010 A 
ATOM      3  C2  UNL d   1       2.507  -2.140   4.287  0.00  0.00     0.041 A 
ATOM      4  C3  UNL d   1       2.354  -3.151   3.317  0.00  0.00    -0.075 A 
ATOM      5  S   UNL d   1       2.750  -4.820   3.484  0.00  0.00     0.015 SA
ATOM      6  C4  UNL d   1       2.240  -5.176   1.897  0.00  0.00     0.022 A 
ATOM      7  C5  UNL d   1       1.776  -4.061   1.242  0.00  0.00     0.026 A 
ATOM      8  C6  UNL d   1       1.835  -2.874   2.049  0.00  0.00    -0.082 A 
ATOM      9  C7  UNL d   1       1.460  -1.541   1.756  0.00  0.00     0.045 A 
ENDROOT
TORSDOF 0
ENDMDL
