MODEL 1
REMARK minimizedAffinity 7.77851772
REMARK minimizedRMSD -1
REMARK  0 active torsions:
REMARK  status: ('A' for Active; 'I' for Inactive)
ROOT
ATOM      1  C   UNL d   1       3.700  -5.984  -1.094  0.00  0.00    -0.002 A 
ATOM      2  C1  UNL d   1       2.372  -5.989  -1.496  0.00  0.00     0.010 A 
ATOM      3  C2  UNL d   1       2.041  -5.993  -2.853  0.00  0.00     0.041 A 
ATOM      4  C3  UNL d   1       3.077  -5.994  -3.807  0.00  0.00    -0.075 A 
ATOM      5  S   UNL d   1       2.910  -5.999  -5.523  0.00  0.00     0.015 SA
ATOM      6  C4  UNL d   1       4.598  -5.997  -5.762  0.00  0.00     0.022 A 
ATOM      7  C5  UNL d   1       5.287  -5.991  -4.573  0.00  0.00     0.026 A 
ATOM      8  C6  UNL d   1       4.422  -5.990  -3.426  0.00  0.00    -0.082 A 
ATOM      9  C7  UNL d   1       4.725  -5.985  -2.043  0.00  0.00     0.045 A 
ENDROOT
TORSDOF 0
ENDMDL
