MODEL 1
REMARK minimizedAffinity 6.18495512
REMARK minimizedRMSD -1
REMARK  0 active torsions:
REMARK  status: ('A' for Active; 'I' for Inactive)
ROOT
ATOM      1  C   UNL d   1       1.582  -2.236   3.156  0.00  0.00    -0.002 A 
ATOM      2  C1  UNL d   1       1.231  -1.694   4.384  0.00  0.00     0.010 A 
ATOM      3  C2  UNL d   1       1.399  -0.330   4.633  0.00  0.00     0.041 A 
ATOM      4  C3  UNL d   1       1.930   0.488   3.617  0.00  0.00    -0.075 A 
ATOM      5  S   UNL d   1       2.223   2.185   3.695  0.00  0.00     0.015 SA
ATOM      6  C4  UNL d   1       2.821   2.231   2.100  0.00  0.00     0.022 A 
ATOM      7  C5  UNL d   1       2.804   0.991   1.507  0.00  0.00     0.026 A 
ATOM      8  C6  UNL d   1       2.290  -0.034   2.371  0.00  0.00    -0.082 A 
ATOM      9  C7  UNL d   1       2.108  -1.421   2.149  0.00  0.00     0.045 A 
ENDROOT
TORSDOF 0
ENDMDL
