MODEL 1
REMARK minimizedAffinity 10.1270914
REMARK minimizedRMSD -1
REMARK  0 active torsions:
REMARK  status: ('A' for Active; 'I' for Inactive)
ROOT
ATOM      1  C   UNL d   1       4.797  -5.999  -5.778  0.00  0.00    -0.002 A 
ATOM      2  C1  UNL d   1       5.888  -5.998  -4.920  0.00  0.00     0.010 A 
ATOM      3  C2  UNL d   1       5.702  -5.996  -3.536  0.00  0.00     0.041 A 
ATOM      4  C3  UNL d   1       4.389  -5.996  -3.024  0.00  0.00    -0.075 A 
ATOM      5  S   UNL d   1       3.921  -5.994  -1.365  0.00  0.00     0.015 SA
ATOM      6  C4  UNL d   1       2.262  -5.996  -1.757  0.00  0.00     0.022 A 
ATOM      7  C5  UNL d   1       2.053  -5.998  -3.116  0.00  0.00     0.026 A 
ATOM      8  C6  UNL d   1       3.276  -5.998  -3.869  0.00  0.00    -0.082 A 
ATOM      9  C7  UNL d   1       3.497  -6.000  -5.267  0.00  0.00     0.045 A 
ENDROOT
TORSDOF 0
ENDMDL
