MODEL 1
REMARK minimizedAffinity 3.66639161
REMARK minimizedRMSD -1
REMARK  0 active torsions:
REMARK  status: ('A' for Active; 'I' for Inactive)
ROOT
ATOM      1  C   UNL d   1       2.273  -3.078   3.405  0.00  0.00    -0.002 A 
ATOM      2  C1  UNL d   1       1.380  -2.315   4.144  0.00  0.00     0.010 A 
ATOM      3  C2  UNL d   1       1.153  -0.976   3.820  0.00  0.00     0.041 A 
ATOM      4  C3  UNL d   1       1.843  -0.412   2.729  0.00  0.00    -0.075 A 
ATOM      5  S   UNL d   1       1.724   1.207   2.148  0.00  0.00     0.015 SA
ATOM      6  C4  UNL d   1       2.854   0.923   0.904  0.00  0.00     0.022 A 
ATOM      7  C5  UNL d   1       3.321  -0.370   0.918  0.00  0.00     0.026 A 
ATOM      8  C6  UNL d   1       2.746  -1.161   1.969  0.00  0.00    -0.082 A 
ATOM      9  C7  UNL d   1       2.956  -2.515   2.323  0.00  0.00     0.045 A 
ENDROOT
TORSDOF 0
ENDMDL
