MODEL 1
REMARK minimizedAffinity 7.9528389
REMARK minimizedRMSD -1
REMARK  0 active torsions:
REMARK  status: ('A' for Active; 'I' for Inactive)
ROOT
ATOM      1  C   UNL d   1       3.338   2.405   2.790  0.00  0.00    -0.002 A 
ATOM      2  C1  UNL d   1       3.532   2.296   1.420  0.00  0.00     0.010 A 
ATOM      3  C2  UNL d   1       3.140   1.144   0.736  0.00  0.00     0.041 A 
ATOM      4  C3  UNL d   1       2.541   0.093   1.459  0.00  0.00    -0.075 A 
ATOM      5  S   UNL d   1       1.980  -1.412   0.832  0.00  0.00     0.015 SA
ATOM      6  C4  UNL d   1       1.468  -1.946   2.367  0.00  0.00     0.022 A 
ATOM      7  C5  UNL d   1       1.712  -1.011   3.346  0.00  0.00     0.026 A 
ATOM      8  C6  UNL d   1       2.334   0.179   2.838  0.00  0.00    -0.082 A 
ATOM      9  C7  UNL d   1       2.743   1.360   3.503  0.00  0.00     0.045 A 
ENDROOT
TORSDOF 0
ENDMDL
