MODEL 1
REMARK minimizedAffinity 6.37305593
REMARK minimizedRMSD -1
REMARK  1 active torsions:
REMARK  status: ('A' for Active; 'I' for Inactive)
REMARK    1  A    between atoms: C1_2  and  C2_3 
ROOT
ATOM      1  C2  UNL d   1      -3.927   2.624  -3.695  0.00  0.00    -0.081 A 
ATOM      2  C3  UNL d   1      -3.275   3.807  -4.062  0.00  0.00     0.006 A 
ATOM      3  C4  UNL d   1      -3.938   4.776  -4.818  0.00  0.00     0.002 A 
ATOM      4  C5  UNL d   1      -5.266   4.582  -5.213  0.00  0.00    -0.080 A 
ATOM      5  C6  UNL d   1      -5.999   5.628  -5.999  0.00  0.00     0.076 C 
ATOM      6  C7  UNL d   1      -5.912   3.392  -4.861  0.00  0.00     0.002 A 
ATOM      7  C8  UNL d   1      -5.250   2.422  -4.105  0.00  0.00     0.006 A 
ENDROOT
BRANCH   1   8
ATOM      8  C1  UNL d   1      -3.236   1.605  -2.824  0.00  0.00     0.054 C 
ATOM      9  C   UNL d   1      -4.101   0.369  -2.625  0.00  0.00     0.018 C 
ENDBRANCH   1   8
TORSDOF 1
ENDMDL
