MODEL 1
REMARK minimizedAffinity 1.67421257
REMARK minimizedRMSD -1
REMARK  0 active torsions:
REMARK  status: ('A' for Active; 'I' for Inactive)
ROOT
ATOM      1  C4' PXY d   1       0.868  -0.088  -0.304  0.00  0.00     0.077 C 
ATOM      2  C1' PXY d   1      -2.019   4.731  -1.665  0.00  0.00     0.077 C 
ATOM      3  C1  PXY d   1      -1.273   3.461  -1.307  0.00  0.00    -0.082 A 
ATOM      4  C2  PXY d   1      -0.058   3.540  -0.789  0.00  0.00     0.003 A 
ATOM      5  C3  PXY d   1       0.643   2.400  -0.489  0.00  0.00     0.003 A 
ATOM      6  C4  PXY d   1       0.074   1.168  -0.672  0.00  0.00    -0.082 A 
ATOM      7  C5  PXY d   1      -1.170   1.080  -1.189  0.00  0.00     0.003 A 
ATOM      8  C6  PXY d   1      -1.849   2.247  -1.526  0.00  0.00     0.003 A 
ENDROOT
TORSDOF 0
ENDMDL
