MODEL 1
REMARK minimizedAffinity 13.0681677
REMARK minimizedRMSD -1
REMARK  0 active torsions:
REMARK  status: ('A' for Active; 'I' for Inactive)
ROOT
ATOM      1  C4' PXY d   1      -1.495   2.619   2.647  0.00  0.00     0.077 C 
ATOM      2  C1' PXY d   1       0.580   5.778  -1.727  0.00  0.00     0.077 C 
ATOM      3  C1  PXY d   1       0.034   4.961  -0.573  0.00  0.00    -0.082 A 
ATOM      4  C2  PXY d   1       0.420   3.704  -0.420  0.00  0.00     0.003 A 
ATOM      5  C3  PXY d   1      -0.088   2.941   0.598  0.00  0.00     0.003 A 
ATOM      6  C4  PXY d   1      -0.962   3.485   1.502  0.00  0.00    -0.082 A 
ATOM      7  C5  PXY d   1      -1.353   4.769   1.360  0.00  0.00     0.003 A 
ATOM      8  C6  PXY d   1      -0.856   5.515   0.294  0.00  0.00     0.003 A 
ENDROOT
TORSDOF 0
ENDMDL
