MODEL 1
REMARK minimizedAffinity 4.73222446
REMARK minimizedRMSD -1
REMARK  0 active torsions:
REMARK  status: ('A' for Active; 'I' for Inactive)
ROOT
ATOM      1  C4' PXY d   1      -0.500   5.549  -0.681  0.00  0.00     0.077 C 
ATOM      2  C1' PXY d   1       0.707   1.612   3.377  0.00  0.00     0.077 C 
ATOM      3  C1  PXY d   1       0.402   2.651   2.315  0.00  0.00    -0.082 A 
ATOM      4  C2  PXY d   1      -0.854   2.877   1.963  0.00  0.00     0.003 A 
ATOM      5  C3  PXY d   1      -1.145   3.790   0.982  0.00  0.00     0.003 A 
ATOM      6  C4  PXY d   1      -0.146   4.517   0.393  0.00  0.00    -0.082 A 
ATOM      7  C5  PXY d   1       1.137   4.299   0.754  0.00  0.00     0.003 A 
ATOM      8  C6  PXY d   1       1.415   3.339   1.723  0.00  0.00     0.003 A 
ENDROOT
TORSDOF 0
ENDMDL
