MODEL 1
REMARK minimizedAffinity 11.8085794
REMARK minimizedRMSD -1
REMARK  0 active torsions:
REMARK  status: ('A' for Active; 'I' for Inactive)
ROOT
ATOM      1  C4' PXY d   1       5.761  -5.398   0.003  0.00  0.00     0.077 C 
ATOM      2  C1' PXY d   1       3.275  -0.180   0.065  0.00  0.00     0.077 C 
ATOM      3  C1  PXY d   1       3.932  -1.546   0.037  0.00  0.00    -0.082 A 
ATOM      4  C2  PXY d   1       3.407  -2.539   0.735  0.00  0.00     0.003 A 
ATOM      5  C3  PXY d   1       4.006  -3.772   0.747  0.00  0.00     0.003 A 
ATOM      6  C4  PXY d   1       5.126  -4.005  -0.006  0.00  0.00    -0.082 A 
ATOM      7  C5  PXY d   1       5.662  -3.000  -0.730  0.00  0.00     0.003 A 
ATOM      8  C6  PXY d   1       5.061  -1.745  -0.696  0.00  0.00     0.003 A 
ENDROOT
TORSDOF 0
ENDMDL
