MODEL 1
REMARK minimizedAffinity 9.52940559
REMARK minimizedRMSD -1
REMARK  0 active torsions:
REMARK  status: ('A' for Active; 'I' for Inactive)
ROOT
ATOM      1  C4' PXY d   1       5.084  -1.562  -0.375  0.00  0.00     0.077 C 
ATOM      2  C1' PXY d   1       4.535  -5.709  -4.365  0.00  0.00     0.077 C 
ATOM      3  C1  PXY d   1       4.675  -4.630  -3.309  0.00  0.00    -0.082 A 
ATOM      4  C2  PXY d   1       4.605  -3.356  -3.662  0.00  0.00     0.003 A 
ATOM      5  C3  PXY d   1       4.762  -2.367  -2.725  0.00  0.00     0.003 A 
ATOM      6  C4  PXY d   1       4.938  -2.685  -1.405  0.00  0.00    -0.082 A 
ATOM      7  C5  PXY d   1       5.000  -3.982  -1.036  0.00  0.00     0.003 A 
ATOM      8  C6  PXY d   1       4.880  -4.971  -2.008  0.00  0.00     0.003 A 
ENDROOT
TORSDOF 0
ENDMDL
