MODEL 1
REMARK minimizedAffinity 8.48633099
REMARK minimizedRMSD -1
REMARK  0 active torsions:
REMARK  status: ('A' for Active; 'I' for Inactive)
ROOT
ATOM      1  C4' PXY d   1       2.652  -3.623   2.692  0.00  0.00     0.077 C 
ATOM      2  C1' PXY d   1       5.996  -1.993  -1.733  0.00  0.00     0.077 C 
ATOM      3  C1  PXY d   1       5.118  -2.433  -0.577  0.00  0.00    -0.082 A 
ATOM      4  C2  PXY d   1       4.388  -1.537   0.067  0.00  0.00     0.003 A 
ATOM      5  C3  PXY d   1       3.614  -1.912   1.135  0.00  0.00     0.003 A 
ATOM      6  C4  PXY d   1       3.545  -3.226   1.513  0.00  0.00    -0.082 A 
ATOM      7  C5  PXY d   1       4.279  -4.147   0.854  0.00  0.00     0.003 A 
ATOM      8  C6  PXY d   1       5.090  -3.740  -0.201  0.00  0.00     0.003 A 
ENDROOT
TORSDOF 0
ENDMDL
