MODEL 1
REMARK minimizedAffinity 12.2529259
REMARK minimizedRMSD -1
REMARK  0 active torsions:
REMARK  status: ('A' for Active; 'I' for Inactive)
ROOT
ATOM      1  C4' PXY d   1       6.000  -4.338  -3.796  0.00  0.00     0.077 C 
ATOM      2  C1' PXY d   1       4.535  -1.254   0.868  0.00  0.00     0.077 C 
ATOM      3  C1  PXY d   1       4.926  -2.071  -0.347  0.00  0.00    -0.082 A 
ATOM      4  C2  PXY d   1       4.903  -1.511  -1.546  0.00  0.00     0.003 A 
ATOM      5  C3  PXY d   1       5.223  -2.244  -2.660  0.00  0.00     0.003 A 
ATOM      6  C4  PXY d   1       5.622  -3.549  -2.540  0.00  0.00    -0.082 A 
ATOM      7  C5  PXY d   1       5.658  -4.124  -1.319  0.00  0.00     0.003 A 
ATOM      8  C6  PXY d   1       5.290  -3.374  -0.205  0.00  0.00     0.003 A 
ENDROOT
TORSDOF 0
ENDMDL
