MODEL 1
REMARK minimizedAffinity -4.90833044
REMARK minimizedRMSD -1
REMARK  2 active torsions:
REMARK  status: ('A' for Active; 'I' for Inactive)
REMARK    1  A    between atoms: C2'_3  and  C1'_4 
REMARK    2  A    between atoms: C1'_4  and  C1_5 
ROOT
ATOM      1  C1  I4B d   1      -0.176   0.022  -0.405  0.00  0.00    -0.075 A 
ATOM      2  C2  I4B d   1       0.328  -1.145   0.113  0.00  0.00     0.003 A 
ATOM      3  C3  I4B d   1       1.622  -1.170   0.687  0.00  0.00     0.002 A 
ATOM      4  C4  I4B d   1       2.393  -0.025   0.676  0.00  0.00    -0.004 A 
ATOM      5  C5  I4B d   1       1.872   1.163   0.171  0.00  0.00     0.002 A 
ATOM      6  C6  I4B d   1       0.575   1.190  -0.362  0.00  0.00     0.003 A 
ENDROOT
BRANCH   1   7
ATOM      7  C1' I4B d   1      -1.533   0.005  -1.033  0.00  0.00     0.060 C 
BRANCH   7   8
ATOM      8  C2' I4B d   1      -1.370  -0.392  -2.486  0.00  0.00    -0.013 C 
ATOM      9  C4' I4B d   1      -2.315  -1.506  -2.856  0.00  0.00     0.013 C 
ATOM     10  C3' I4B d   1      -1.611   0.824  -3.329  0.00  0.00     0.013 C 
ENDBRANCH   7   8
ENDBRANCH   1   7
TORSDOF 2
ENDMDL
