MODEL 1
REMARK minimizedAffinity -2.79349971
REMARK minimizedRMSD -1
REMARK  2 active torsions:
REMARK  status: ('A' for Active; 'I' for Inactive)
REMARK    1  A    between atoms: C2'_3  and  C1'_4 
REMARK    2  A    between atoms: C1'_4  and  C1_5 
ROOT
ATOM      1  C1  I4B d   1      -0.842  -0.032  -0.254  0.00  0.00    -0.075 A 
ATOM      2  C2  I4B d   1      -0.075  -1.073   0.207  0.00  0.00     0.003 A 
ATOM      3  C3  I4B d   1       1.234  -0.835   0.691  0.00  0.00     0.002 A 
ATOM      4  C4  I4B d   1       1.752   0.444   0.649  0.00  0.00    -0.004 A 
ATOM      5  C5  I4B d   1       0.965   1.501   0.202  0.00  0.00     0.002 A 
ATOM      6  C6  I4B d   1      -0.345   1.264  -0.240  0.00  0.00     0.003 A 
ENDROOT
BRANCH   1   7
ATOM      7  C1' I4B d   1      -2.208  -0.325  -0.788  0.00  0.00     0.060 C 
BRANCH   7   8
ATOM      8  C2' I4B d   1      -2.048  -1.027  -2.121  0.00  0.00    -0.013 C 
ATOM      9  C4' I4B d   1      -3.039  -2.151  -2.267  0.00  0.00     0.013 C 
ATOM     10  C3' I4B d   1      -2.223  -0.006  -3.206  0.00  0.00     0.013 C 
ENDBRANCH   7   8
ENDBRANCH   1   7
TORSDOF 2
ENDMDL
