MODEL 1
REMARK minimizedAffinity 8.16010857
REMARK minimizedRMSD -1
REMARK  2 active torsions:
REMARK  status: ('A' for Active; 'I' for Inactive)
REMARK    1  A    between atoms: C2'_3  and  C1'_4 
REMARK    2  A    between atoms: C1'_4  and  C1_5 
ROOT
ATOM      1  C1  I4B d   1      -3.472   2.067   0.902  0.00  0.00    -0.075 A 
ATOM      2  C2  I4B d   1      -4.601   2.408   1.604  0.00  0.00     0.003 A 
ATOM      3  C3  I4B d   1      -5.710   2.980   0.935  0.00  0.00     0.002 A 
ATOM      4  C4  I4B d   1      -5.628   3.238  -0.418  0.00  0.00    -0.004 A 
ATOM      5  C5  I4B d   1      -4.491   2.871  -1.132  0.00  0.00     0.002 A 
ATOM      6  C6  I4B d   1      -3.410   2.270  -0.470  0.00  0.00     0.003 A 
ENDROOT
BRANCH   1   7
ATOM      7  C1' I4B d   1      -2.307   1.495   1.646  0.00  0.00     0.060 C 
BRANCH   7   8
ATOM      8  C2' I4B d   1      -1.482   0.683   0.668  0.00  0.00    -0.013 C 
ATOM      9  C4' I4B d   1      -0.016   1.006   0.790  0.00  0.00     0.013 C 
ATOM     10  C3' I4B d   1      -1.740  -0.770   0.939  0.00  0.00     0.013 C 
ENDBRANCH   7   8
ENDBRANCH   1   7
TORSDOF 2
ENDMDL
