MODEL 1
REMARK minimizedAffinity -0.478242308
REMARK minimizedRMSD -1
REMARK  2 active torsions:
REMARK  status: ('A' for Active; 'I' for Inactive)
REMARK    1  A    between atoms: C2'_3  and  C1'_4 
REMARK    2  A    between atoms: C1'_4  and  C1_5 
ROOT
ATOM      1  C1  I4B d   1      -0.437   0.154  -0.946  0.00  0.00    -0.075 A 
ATOM      2  C2  I4B d   1      -0.357  -0.384   0.314  0.00  0.00     0.003 A 
ATOM      3  C3  I4B d   1       0.667   0.028   1.201  0.00  0.00     0.002 A 
ATOM      4  C4  I4B d   1       1.612   0.937   0.773  0.00  0.00    -0.004 A 
ATOM      5  C5  I4B d   1       1.516   1.499  -0.497  0.00  0.00     0.002 A 
ATOM      6  C6  I4B d   1       0.478   1.115  -1.358  0.00  0.00     0.003 A 
ENDROOT
BRANCH   1   7
ATOM      7  C1' I4B d   1      -1.511  -0.328  -1.869  0.00  0.00     0.060 C 
BRANCH   7   8
ATOM      8  C2' I4B d   1      -2.066   0.873  -2.607  0.00  0.00    -0.013 C 
ATOM      9  C4' I4B d   1      -2.673   0.470  -3.925  0.00  0.00     0.013 C 
ATOM     10  C3' I4B d   1      -3.082   1.532  -1.722  0.00  0.00     0.013 C 
ENDBRANCH   7   8
ENDBRANCH   1   7
TORSDOF 2
ENDMDL
