MODEL 1
REMARK minimizedAffinity -2.3635056
REMARK minimizedRMSD -1
REMARK  2 active torsions:
REMARK  status: ('A' for Active; 'I' for Inactive)
REMARK    1  A    between atoms: C2'_3  and  C1'_4 
REMARK    2  A    between atoms: C1'_4  and  C1_5 
ROOT
ATOM      1  C1  I4B d   1      -0.126   0.466  -0.335  0.00  0.00    -0.075 A 
ATOM      2  C2  I4B d   1       0.571  -0.031   0.738  0.00  0.00     0.003 A 
ATOM      3  C3  I4B d   1       1.774   0.588   1.155  0.00  0.00     0.002 A 
ATOM      4  C4  I4B d   1       2.267   1.664   0.444  0.00  0.00    -0.004 A 
ATOM      5  C5  I4B d   1       1.547   2.181  -0.629  0.00  0.00     0.002 A 
ATOM      6  C6  I4B d   1       0.336   1.586  -1.014  0.00  0.00     0.003 A 
ENDROOT
BRANCH   1   7
ATOM      7  C1' I4B d   1      -1.376  -0.232  -0.769  0.00  0.00     0.060 C 
BRANCH   7   8
ATOM      8  C2' I4B d   1      -1.891   0.462  -2.012  0.00  0.00    -0.013 C 
ATOM      9  C4' I4B d   1      -2.049  -0.508  -3.153  0.00  0.00     0.013 C 
ATOM     10  C3' I4B d   1      -3.198   1.114  -1.671  0.00  0.00     0.013 C 
ENDBRANCH   7   8
ENDBRANCH   1   7
TORSDOF 2
ENDMDL
