MODEL 1
REMARK minimizedAffinity -5.14861822
REMARK minimizedRMSD -1
REMARK  2 active torsions:
REMARK  status: ('A' for Active; 'I' for Inactive)
REMARK    1  A    between atoms: C2'_3  and  C1'_4 
REMARK    2  A    between atoms: C1'_4  and  C1_5 
ROOT
ATOM      1  C1  I4B d   1       0.619  -0.130   0.461  0.00  0.00    -0.075 A 
ATOM      2  C2  I4B d   1       1.730   0.594   0.815  0.00  0.00     0.003 A 
ATOM      3  C3  I4B d   1       2.725   0.015   1.639  0.00  0.00     0.002 A 
ATOM      4  C4  I4B d   1       2.546  -1.264   2.125  0.00  0.00    -0.004 A 
ATOM      5  C5  I4B d   1       1.430  -2.005   1.746  0.00  0.00     0.002 A 
ATOM      6  C6  I4B d   1       0.466  -1.440   0.898  0.00  0.00     0.003 A 
ENDROOT
BRANCH   1   7
ATOM      7  C1' I4B d   1      -0.428   0.523  -0.384  0.00  0.00     0.060 C 
BRANCH   7   8
ATOM      8  C2' I4B d   1      -1.546  -0.477  -0.600  0.00  0.00    -0.013 C 
ATOM      9  C4' I4B d   1      -2.493  -0.498   0.571  0.00  0.00     0.013 C 
ATOM     10  C3' I4B d   1      -2.259  -0.109  -1.866  0.00  0.00     0.013 C 
ENDBRANCH   7   8
ENDBRANCH   1   7
TORSDOF 2
ENDMDL
