MODEL 1
REMARK minimizedAffinity -4.98610353
REMARK minimizedRMSD -1
REMARK  2 active torsions:
REMARK  status: ('A' for Active; 'I' for Inactive)
REMARK    1  A    between atoms: C2'_3  and  C1'_4 
REMARK    2  A    between atoms: C1'_4  and  C1_5 
ROOT
ATOM      1  C1  I4B d   1       1.228  -0.384  -0.039  0.00  0.00    -0.075 A 
ATOM      2  C2  I4B d   1       1.311  -1.686   0.388  0.00  0.00     0.003 A 
ATOM      3  C3  I4B d   1       2.200  -2.038   1.433  0.00  0.00     0.002 A 
ATOM      4  C4  I4B d   1       3.018  -1.073   1.984  0.00  0.00    -0.004 A 
ATOM      5  C5  I4B d   1       2.916   0.251   1.565  0.00  0.00     0.002 A 
ATOM      6  C6  I4B d   1       2.007   0.600   0.556  0.00  0.00     0.003 A 
ENDROOT
BRANCH   1   7
ATOM      7  C1' I4B d   1       0.303  -0.054  -1.167  0.00  0.00     0.060 C 
BRANCH   7   8
ATOM      8  C2' I4B d   1      -1.081  -0.547  -0.795  0.00  0.00    -0.013 C 
ATOM      9  C4' I4B d   1      -1.674   0.278   0.316  0.00  0.00     0.013 C 
ATOM     10  C3' I4B d   1      -1.937  -0.494  -2.026  0.00  0.00     0.013 C 
ENDBRANCH   7   8
ENDBRANCH   1   7
TORSDOF 2
ENDMDL
