MODEL 1
REMARK minimizedAffinity -5.45395231
REMARK minimizedRMSD -1
REMARK  2 active torsions:
REMARK  status: ('A' for Active; 'I' for Inactive)
REMARK    1  A    between atoms: C2'_3  and  C1'_4 
REMARK    2  A    between atoms: C1'_4  and  C1_5 
ROOT
ATOM      1  C1  I4B d   1      -0.437   0.151   0.148  0.00  0.00    -0.075 A 
ATOM      2  C2  I4B d   1       0.331  -0.861   0.669  0.00  0.00     0.003 A 
ATOM      3  C3  I4B d   1       1.693  -0.633   0.982  0.00  0.00     0.002 A 
ATOM      4  C4  I4B d   1       2.256   0.598   0.713  0.00  0.00    -0.004 A 
ATOM      5  C5  I4B d   1       1.470   1.629   0.205  0.00  0.00     0.002 A 
ATOM      6  C6  I4B d   1       0.112   1.408  -0.067  0.00  0.00     0.003 A 
ENDROOT
BRANCH   1   7
ATOM      7  C1' I4B d   1      -1.863  -0.134  -0.202  0.00  0.00     0.060 C 
BRANCH   7   8
ATOM      8  C2' I4B d   1      -2.000  -0.051  -1.709  0.00  0.00    -0.013 C 
ATOM      9  C4' I4B d   1      -1.789  -1.398  -2.350  0.00  0.00     0.013 C 
ATOM     10  C3' I4B d   1      -3.363   0.490  -2.021  0.00  0.00     0.013 C 
ENDBRANCH   7   8
ENDBRANCH   1   7
TORSDOF 2
ENDMDL
