MODEL 1
REMARK minimizedAffinity -4.81661224
REMARK minimizedRMSD -1
REMARK  0 active torsions:
REMARK  status: ('A' for Active; 'I' for Inactive)
ROOT
ATOM      1  C   UNL d   1      -0.140   0.513  -1.695  0.00  0.00     0.078 C 
ATOM      2  C1  UNL d   1       0.104   0.153  -0.260  0.00  0.00    -0.077 A 
ATOM      3  C2  UNL d   1       1.246   0.603   0.414  0.00  0.00    -0.001 A 
ATOM      4  C3  UNL d   1       1.464   0.252   1.747  0.00  0.00     0.003 A 
ATOM      5  C4  UNL d   1       0.545  -0.552   2.418  0.00  0.00    -0.005 A 
ATOM      6  C5  UNL d   1      -0.593  -1.007   1.756  0.00  0.00     0.003 A 
ATOM      7  C6  UNL d   1      -0.813  -0.657   0.423  0.00  0.00    -0.001 A 
ENDROOT
TORSDOF 0
ENDMDL
