MODEL 1
REMARK minimizedAffinity 1.98321462
REMARK minimizedRMSD -1
REMARK  0 active torsions:
REMARK  status: ('A' for Active; 'I' for Inactive)
ROOT
ATOM      1  C   UNL d   1       1.944  -3.612  -0.004  0.00  0.00     0.078 C 
ATOM      2  C1  UNL d   1       3.306  -4.050   0.443  0.00  0.00    -0.077 A 
ATOM      3  C2  UNL d   1       3.470  -4.857   1.575  0.00  0.00    -0.001 A 
ATOM      4  C3  UNL d   1       4.745  -5.249   1.985  0.00  0.00     0.003 A 
ATOM      5  C4  UNL d   1       5.867  -4.838   1.268  0.00  0.00    -0.005 A 
ATOM      6  C5  UNL d   1       5.715  -4.033   0.141  0.00  0.00     0.003 A 
ATOM      7  C6  UNL d   1       4.440  -3.640  -0.270  0.00  0.00    -0.001 A 
ENDROOT
TORSDOF 0
ENDMDL
