MODEL 1
REMARK minimizedAffinity 3.86079144
REMARK minimizedRMSD -1
REMARK  0 active torsions:
REMARK  status: ('A' for Active; 'I' for Inactive)
ROOT
ATOM      1  C   UNL d   1      -0.304  -0.932   1.631  0.00  0.00     0.078 C 
ATOM      2  C1  UNL d   1       0.724  -1.902   1.132  0.00  0.00    -0.077 A 
ATOM      3  C2  UNL d   1       1.371  -1.700  -0.093  0.00  0.00    -0.001 A 
ATOM      4  C3  UNL d   1       2.319  -2.617  -0.551  0.00  0.00     0.003 A 
ATOM      5  C4  UNL d   1       2.627  -3.743   0.210  0.00  0.00    -0.005 A 
ATOM      6  C5  UNL d   1       1.986  -3.954   1.429  0.00  0.00     0.003 A 
ATOM      7  C6  UNL d   1       1.038  -3.038   1.888  0.00  0.00    -0.001 A 
ENDROOT
TORSDOF 0
ENDMDL
