MODEL 1
REMARK minimizedAffinity -5.77833986
REMARK minimizedRMSD -1
REMARK  0 active torsions:
REMARK  status: ('A' for Active; 'I' for Inactive)
ROOT
ATOM      1  C   UNL d   1      -3.169   1.821  -2.561  0.00  0.00     0.078 C 
ATOM      2  C1  UNL d   1      -3.417   0.541  -3.302  0.00  0.00    -0.077 A 
ATOM      3  C2  UNL d   1      -2.775  -0.646  -2.926  0.00  0.00    -0.001 A 
ATOM      4  C3  UNL d   1      -3.007  -1.828  -3.631  0.00  0.00     0.003 A 
ATOM      5  C4  UNL d   1      -3.880  -1.835  -4.717  0.00  0.00    -0.005 A 
ATOM      6  C5  UNL d   1      -4.522  -0.659  -5.100  0.00  0.00     0.003 A 
ATOM      7  C6  UNL d   1      -4.291   0.524  -4.396  0.00  0.00    -0.001 A 
ENDROOT
TORSDOF 0
ENDMDL
