MODEL 1
REMARK minimizedAffinity 4.44088745
REMARK minimizedRMSD -1
REMARK  0 active torsions:
REMARK  status: ('A' for Active; 'I' for Inactive)
ROOT
ATOM      1  C   UNL d   1       1.230  -1.712   0.914  0.00  0.00     0.078 C 
ATOM      2  C1  UNL d   1       2.261  -2.794   1.034  0.00  0.00    -0.077 A 
ATOM      3  C2  UNL d   1       3.546  -2.515   1.514  0.00  0.00    -0.001 A 
ATOM      4  C3  UNL d   1       4.500  -3.530   1.611  0.00  0.00     0.003 A 
ATOM      5  C4  UNL d   1       4.178  -4.831   1.229  0.00  0.00    -0.005 A 
ATOM      6  C5  UNL d   1       2.902  -5.118   0.748  0.00  0.00     0.003 A 
ATOM      7  C6  UNL d   1       1.948  -4.104   0.650  0.00  0.00    -0.001 A 
ENDROOT
TORSDOF 0
ENDMDL
