MODEL 1
REMARK minimizedAffinity -1.60344064
REMARK minimizedRMSD -1
REMARK  0 active torsions:
REMARK  status: ('A' for Active; 'I' for Inactive)
ROOT
ATOM      1  C   UNL d   1      -3.338  -0.772  -2.443  0.00  0.00     0.078 C 
ATOM      2  C1  UNL d   1      -3.996  -0.260  -3.689  0.00  0.00    -0.077 A 
ATOM      3  C2  UNL d   1      -3.251  -0.013  -4.849  0.00  0.00    -0.001 A 
ATOM      4  C3  UNL d   1      -3.874   0.473  -5.998  0.00  0.00     0.003 A 
ATOM      5  C4  UNL d   1      -5.246   0.719  -6.000  0.00  0.00    -0.005 A 
ATOM      6  C5  UNL d   1      -5.996   0.479  -4.850  0.00  0.00     0.003 A 
ATOM      7  C6  UNL d   1      -5.373  -0.008  -3.699  0.00  0.00    -0.001 A 
ENDROOT
TORSDOF 0
ENDMDL
