MODEL 1
REMARK minimizedAffinity -5.29539537
REMARK minimizedRMSD -1
REMARK  0 active torsions:
REMARK  status: ('A' for Active; 'I' for Inactive)
ROOT
ATOM      1  C   UNL d   1      -1.556   2.339  -3.672  0.00  0.00     0.078 C 
ATOM      2  C1  UNL d   1      -2.411   1.122  -3.868  0.00  0.00    -0.077 A 
ATOM      3  C2  UNL d   1      -3.182   0.961  -5.026  0.00  0.00    -0.001 A 
ATOM      4  C3  UNL d   1      -3.980  -0.172  -5.190  0.00  0.00     0.003 A 
ATOM      5  C4  UNL d   1      -4.016  -1.152  -4.200  0.00  0.00    -0.005 A 
ATOM      6  C5  UNL d   1      -3.254  -1.000  -3.044  0.00  0.00     0.003 A 
ATOM      7  C6  UNL d   1      -2.455   0.132  -2.878  0.00  0.00    -0.001 A 
ENDROOT
TORSDOF 0
ENDMDL
