MODEL 1
REMARK minimizedAffinity 0.687512875
REMARK minimizedRMSD -1
REMARK  0 active torsions:
REMARK  status: ('A' for Active; 'I' for Inactive)
ROOT
ATOM      1  C   UNL d   1      -3.412  -1.495  -2.388  0.00  0.00     0.078 C 
ATOM      2  C1  UNL d   1      -3.688  -0.736  -3.652  0.00  0.00    -0.077 A 
ATOM      3  C2  UNL d   1      -2.761  -0.723  -4.702  0.00  0.00    -0.001 A 
ATOM      4  C3  UNL d   1      -3.026  -0.005  -5.869  0.00  0.00     0.003 A 
ATOM      5  C4  UNL d   1      -4.217   0.707  -5.997  0.00  0.00    -0.005 A 
ATOM      6  C5  UNL d   1      -5.145   0.701  -4.957  0.00  0.00     0.003 A 
ATOM      7  C6  UNL d   1      -4.881  -0.016  -3.789  0.00  0.00    -0.001 A 
ENDROOT
TORSDOF 0
ENDMDL
