MODEL 1
REMARK minimizedAffinity 0.861506045
REMARK minimizedRMSD -1
REMARK  0 active torsions:
REMARK  status: ('A' for Active; 'I' for Inactive)
ROOT
ATOM      1  C   UNL d   1      -4.513   2.337  -4.499  0.00  0.00     0.078 C 
ATOM      2  C1  UNL d   1      -4.101   0.902  -4.354  0.00  0.00    -0.077 A 
ATOM      3  C2  UNL d   1      -4.518   0.139  -3.256  0.00  0.00    -0.001 A 
ATOM      4  C3  UNL d   1      -4.119  -1.192  -3.130  0.00  0.00     0.003 A 
ATOM      5  C4  UNL d   1      -3.300  -1.772  -4.097  0.00  0.00    -0.005 A 
ATOM      6  C5  UNL d   1      -2.879  -1.021  -5.192  0.00  0.00     0.003 A 
ATOM      7  C6  UNL d   1      -3.277   0.311  -5.320  0.00  0.00    -0.001 A 
ENDROOT
TORSDOF 0
ENDMDL
