MODEL 1
REMARK minimizedAffinity -2.58135509
REMARK minimizedRMSD -1
REMARK  0 active torsions:
REMARK  status: ('A' for Active; 'I' for Inactive)
ROOT
ATOM      1  C   UNL d   1       0.412   5.834   5.801  0.00  0.00     0.078 C 
ATOM      2  C1  UNL d   1       1.775   5.884   5.176  0.00  0.00    -0.077 A 
ATOM      3  C2  UNL d   1       2.930   5.930   5.967  0.00  0.00    -0.001 A 
ATOM      4  C3  UNL d   1       4.191   5.987   5.372  0.00  0.00     0.003 A 
ATOM      5  C4  UNL d   1       4.309   6.000   3.983  0.00  0.00    -0.005 A 
ATOM      6  C5  UNL d   1       3.166   5.957   3.188  0.00  0.00     0.003 A 
ATOM      7  C6  UNL d   1       1.904   5.900   3.782  0.00  0.00    -0.001 A 
ENDROOT
TORSDOF 0
ENDMDL
