MODEL 1
REMARK minimizedAffinity -2.14692211
REMARK minimizedRMSD -1
REMARK  0 active torsions:
REMARK  status: ('A' for Active; 'I' for Inactive)
ROOT
ATOM      1  C   UNL d   1      -1.976   0.174   1.539  0.00  0.00     0.078 C 
ATOM      2  C1  UNL d   1      -1.272  -0.397   0.344  0.00  0.00    -0.077 A 
ATOM      3  C2  UNL d   1       0.058  -0.826   0.428  0.00  0.00    -0.001 A 
ATOM      4  C3  UNL d   1       0.704  -1.346  -0.694  0.00  0.00     0.003 A 
ATOM      5  C4  UNL d   1       0.029  -1.440  -1.910  0.00  0.00    -0.005 A 
ATOM      6  C5  UNL d   1      -1.294  -1.013  -2.004  0.00  0.00     0.003 A 
ATOM      7  C6  UNL d   1      -1.942  -0.493  -0.882  0.00  0.00    -0.001 A 
ENDROOT
TORSDOF 0
ENDMDL
