MODEL 1
REMARK minimizedAffinity 7.16236115
REMARK minimizedRMSD -1
REMARK  0 active torsions:
REMARK  status: ('A' for Active; 'I' for Inactive)
ROOT
ATOM      1  C4' PXY d   1      -3.005  -3.691  -6.000  0.00  0.00     0.077 C 
ATOM      2  C1' PXY d   1      -1.998  -1.566  -0.719  0.00  0.00     0.077 C 
ATOM      3  C1  PXY d   1      -2.262  -2.136  -2.099  0.00  0.00    -0.082 A 
ATOM      4  C2  PXY d   1      -1.982  -1.411  -3.170  0.00  0.00     0.003 A 
ATOM      5  C3  PXY d   1      -2.243  -1.898  -4.425  0.00  0.00     0.003 A 
ATOM      6  C4  PXY d   1      -2.747  -3.161  -4.587  0.00  0.00    -0.082 A 
ATOM      7  C5  PXY d   1      -3.026  -3.910  -3.500  0.00  0.00     0.003 A 
ATOM      8  C6  PXY d   1      -2.791  -3.382  -2.233  0.00  0.00     0.003 A 
ENDROOT
TORSDOF 0
ENDMDL
