MODEL 1
REMARK minimizedAffinity 10.8985977
REMARK minimizedRMSD -1
REMARK  0 active torsions:
REMARK  status: ('A' for Active; 'I' for Inactive)
ROOT
ATOM      1  C4' PXY d   1       0.761   1.853   2.736  0.00  0.00     0.077 C 
ATOM      2  C1' PXY d   1       2.499   1.543  -2.768  0.00  0.00     0.077 C 
ATOM      3  C1  PXY d   1       2.049   1.636  -1.323  0.00  0.00    -0.082 A 
ATOM      4  C2  PXY d   1       1.802   0.529  -0.642  0.00  0.00     0.003 A 
ATOM      5  C3  PXY d   1       1.363   0.596   0.655  0.00  0.00     0.003 A 
ATOM      6  C4  PXY d   1       1.227   1.807   1.279  0.00  0.00    -0.082 A 
ATOM      7  C5  PXY d   1       1.487   2.941   0.594  0.00  0.00     0.003 A 
ATOM      8  C6  PXY d   1       1.892   2.853  -0.735  0.00  0.00     0.003 A 
ENDROOT
TORSDOF 0
ENDMDL
