MODEL 1
REMARK minimizedAffinity 19.3061199
REMARK minimizedRMSD -1
REMARK  0 active torsions:
REMARK  status: ('A' for Active; 'I' for Inactive)
ROOT
ATOM      1  C4' PXY d   1      -3.951   1.884   3.415  0.00  0.00     0.077 C 
ATOM      2  C1' PXY d   1       1.374  -0.348   3.130  0.00  0.00     0.077 C 
ATOM      3  C1  PXY d   1      -0.027   0.226   3.198  0.00  0.00    -0.082 A 
ATOM      4  C2  PXY d   1      -0.193   1.535   3.306  0.00  0.00     0.003 A 
ATOM      5  C3  PXY d   1      -1.452   2.069   3.402  0.00  0.00     0.003 A 
ATOM      6  C4  PXY d   1      -2.555   1.260   3.333  0.00  0.00    -0.082 A 
ATOM      7  C5  PXY d   1      -2.394  -0.075   3.212  0.00  0.00     0.003 A 
ATOM      8  C6  PXY d   1      -1.107  -0.601   3.158  0.00  0.00     0.003 A 
ENDROOT
TORSDOF 0
ENDMDL
