MODEL 1
REMARK minimizedAffinity 14.7992163
REMARK minimizedRMSD -1
REMARK  0 active torsions:
REMARK  status: ('A' for Active; 'I' for Inactive)
ROOT
ATOM      1  C4' PXY d   1      -0.771  -2.547   2.197  0.00  0.00     0.077 C 
ATOM      2  C1' PXY d   1       0.069   1.998   5.669  0.00  0.00     0.077 C 
ATOM      3  C1  PXY d   1      -0.159   0.801   4.767  0.00  0.00    -0.082 A 
ATOM      4  C2  PXY d   1       0.743   0.491   3.851  0.00  0.00     0.003 A 
ATOM      5  C3  PXY d   1       0.538  -0.570   3.006  0.00  0.00     0.003 A 
ATOM      6  C4  PXY d   1      -0.578  -1.353   3.136  0.00  0.00    -0.082 A 
ATOM      7  C5  PXY d   1      -1.498  -1.049   4.076  0.00  0.00     0.003 A 
ATOM      8  C6  PXY d   1      -1.291   0.056   4.896  0.00  0.00     0.003 A 
ENDROOT
TORSDOF 0
ENDMDL
