MODEL 1
REMARK minimizedAffinity 18.3558655
REMARK minimizedRMSD -1
REMARK  0 active torsions:
REMARK  status: ('A' for Active; 'I' for Inactive)
ROOT
ATOM      1  C4' PXY d   1      -3.602  -5.251   5.352  0.00  0.00     0.077 C 
ATOM      2  C1' PXY d   1      -0.240  -1.392   2.665  0.00  0.00     0.077 C 
ATOM      3  C1  PXY d   1      -1.116  -2.414   3.363  0.00  0.00    -0.082 A 
ATOM      4  C2  PXY d   1      -2.291  -2.046   3.847  0.00  0.00     0.003 A 
ATOM      5  C3  PXY d   1      -3.082  -2.949   4.509  0.00  0.00     0.003 A 
ATOM      6  C4  PXY d   1      -2.689  -4.255   4.631  0.00  0.00    -0.082 A 
ATOM      7  C5  PXY d   1      -1.496  -4.641   4.131  0.00  0.00     0.003 A 
ATOM      8  C6  PXY d   1      -0.690  -3.699   3.499  0.00  0.00     0.003 A 
ENDROOT
TORSDOF 0
ENDMDL
