MODEL 1
REMARK minimizedAffinity 2.88998961
REMARK minimizedRMSD -1
REMARK  0 active torsions:
REMARK  status: ('A' for Active; 'I' for Inactive)
ROOT
ATOM      1  C4' PXY d   1       1.608   2.553  -3.377  0.00  0.00     0.077 C 
ATOM      2  C1' PXY d   1       4.042  -0.039   1.181  0.00  0.00     0.077 C 
ATOM      3  C1  PXY d   1       3.415   0.640  -0.021  0.00  0.00    -0.082 A 
ATOM      4  C2  PXY d   1       2.342   1.396   0.141  0.00  0.00     0.003 A 
ATOM      5  C3  PXY d   1       1.743   1.992  -0.939  0.00  0.00     0.003 A 
ATOM      6  C4  PXY d   1       2.280   1.856  -2.191  0.00  0.00    -0.082 A 
ATOM      7  C5  PXY d   1       3.382   1.095  -2.363  0.00  0.00     0.003 A 
ATOM      8  C6  PXY d   1       3.950   0.465  -1.260  0.00  0.00     0.003 A 
ENDROOT
TORSDOF 0
ENDMDL
