MODEL 1
REMARK minimizedAffinity 24.9033813
REMARK minimizedRMSD -1
REMARK  0 active torsions:
REMARK  status: ('A' for Active; 'I' for Inactive)
ROOT
ATOM      1  C4' PXY d   1       6.000   4.499  -5.566  0.00  0.00     0.077 C 
ATOM      2  C1' PXY d   1       3.297   0.650  -2.206  0.00  0.00     0.077 C 
ATOM      3  C1  PXY d   1       4.015   1.661  -3.077  0.00  0.00    -0.082 A 
ATOM      4  C2  PXY d   1       3.347   2.298  -4.025  0.00  0.00     0.003 A 
ATOM      5  C3  PXY d   1       3.988   3.192  -4.844  0.00  0.00     0.003 A 
ATOM      6  C4  PXY d   1       5.314   3.476  -4.656  0.00  0.00    -0.082 A 
ATOM      7  C5  PXY d   1       6.000   2.838  -3.684  0.00  0.00     0.003 A 
ATOM      8  C6  PXY d   1       5.340   1.904  -2.890  0.00  0.00     0.003 A 
ENDROOT
TORSDOF 0
ENDMDL
