MODEL 1
REMARK minimizedAffinity 7.28026581
REMARK minimizedRMSD -1
REMARK  0 active torsions:
REMARK  status: ('A' for Active; 'I' for Inactive)
ROOT
ATOM      1  C4' PXY d   1      -2.152  -5.015  -5.991  0.00  0.00     0.077 C 
ATOM      2  C1' PXY d   1      -4.782   0.132  -5.984  0.00  0.00     0.077 C 
ATOM      3  C1  PXY d   1      -4.082  -1.212  -5.991  0.00  0.00    -0.082 A 
ATOM      4  C2  PXY d   1      -4.799  -2.324  -5.999  0.00  0.00     0.003 A 
ATOM      5  C3  PXY d   1      -4.182  -3.548  -5.973  0.00  0.00     0.003 A 
ATOM      6  C4  PXY d   1      -2.816  -3.636  -5.993  0.00  0.00    -0.082 A 
ATOM      7  C5  PXY d   1      -2.077  -2.506  -5.996  0.00  0.00     0.003 A 
ATOM      8  C6  PXY d   1      -2.722  -1.273  -5.981  0.00  0.00     0.003 A 
ENDROOT
TORSDOF 0
ENDMDL
