MODEL 1
REMARK minimizedAffinity 16.3061714
REMARK minimizedRMSD -1
REMARK  0 active torsions:
REMARK  status: ('A' for Active; 'I' for Inactive)
ROOT
ATOM      1  C4' PXY d   1      -0.481  -4.178  -5.998  0.00  0.00     0.077 C 
ATOM      2  C1' PXY d   1      -5.456  -3.716  -3.091  0.00  0.00     0.077 C 
ATOM      3  C1  PXY d   1      -4.158  -3.839  -3.865  0.00  0.00    -0.082 A 
ATOM      4  C2  PXY d   1      -3.057  -4.218  -3.238  0.00  0.00     0.003 A 
ATOM      5  C3  PXY d   1      -1.867  -4.304  -3.915  0.00  0.00     0.003 A 
ATOM      6  C4  PXY d   1      -1.816  -4.049  -5.259  0.00  0.00    -0.082 A 
ATOM      7  C5  PXY d   1      -2.938  -3.672  -5.908  0.00  0.00     0.003 A 
ATOM      8  C6  PXY d   1      -4.127  -3.551  -5.194  0.00  0.00     0.003 A 
ENDROOT
TORSDOF 0
ENDMDL
