MODEL 1
REMARK minimizedAffinity 13.469305
REMARK minimizedRMSD -1
REMARK  0 active torsions:
REMARK  status: ('A' for Active; 'I' for Inactive)
ROOT
ATOM      1  C4' PXY d   1       5.999   0.517  -5.115  0.00  0.00     0.077 C 
ATOM      2  C1' PXY d   1       1.453  -2.941  -6.000  0.00  0.00     0.077 C 
ATOM      3  C1  PXY d   1       2.639  -2.025  -5.775  0.00  0.00    -0.082 A 
ATOM      4  C2  PXY d   1       3.827  -2.545  -5.509  0.00  0.00     0.003 A 
ATOM      5  C3  PXY d   1       4.904  -1.730  -5.272  0.00  0.00     0.003 A 
ATOM      6  C4  PXY d   1       4.775  -0.370  -5.359  0.00  0.00    -0.082 A 
ATOM      7  C5  PXY d   1       3.570   0.168  -5.640  0.00  0.00     0.003 A 
ATOM      8  C6  PXY d   1       2.480  -0.675  -5.837  0.00  0.00     0.003 A 
ENDROOT
TORSDOF 0
ENDMDL
