MODEL 1
REMARK minimizedAffinity 10.4671011
REMARK minimizedRMSD -1
REMARK  0 active torsions:
REMARK  status: ('A' for Active; 'I' for Inactive)
ROOT
ATOM      1  C4' PXY d   1       4.176  -0.246   3.116  0.00  0.00     0.077 C 
ATOM      2  C1' PXY d   1      -0.588   2.899   2.204  0.00  0.00     0.077 C 
ATOM      3  C1  PXY d   1       0.661   2.077   2.456  0.00  0.00    -0.082 A 
ATOM      4  C2  PXY d   1       1.491   1.825   1.456  0.00  0.00     0.003 A 
ATOM      5  C3  PXY d   1       2.609   1.057   1.659  0.00  0.00     0.003 A 
ATOM      6  C4  PXY d   1       2.908   0.587   2.910  0.00  0.00    -0.082 A 
ATOM      7  C5  PXY d   1       2.072   0.849   3.937  0.00  0.00     0.003 A 
ATOM      8  C6  PXY d   1       0.921   1.596   3.701  0.00  0.00     0.003 A 
ENDROOT
TORSDOF 0
ENDMDL
