MODEL 1
REMARK minimizedAffinity 4.8298111
REMARK minimizedRMSD -1
REMARK  0 active torsions:
REMARK  status: ('A' for Active; 'I' for Inactive)
ROOT
ATOM      1  C4' PXY d   1       0.631  -5.235  -0.446  0.00  0.00     0.077 C 
ATOM      2  C1' PXY d   1      -1.315  -1.695   3.688  0.00  0.00     0.077 C 
ATOM      3  C1  PXY d   1      -0.801  -2.632   2.613  0.00  0.00    -0.082 A 
ATOM      4  C2  PXY d   1      -0.452  -2.145   1.433  0.00  0.00     0.003 A 
ATOM      5  C3  PXY d   1      -0.015  -2.982   0.439  0.00  0.00     0.003 A 
ATOM      6  C4  PXY d   1       0.116  -4.325   0.672  0.00  0.00    -0.082 A 
ATOM      7  C5  PXY d   1      -0.228  -4.828   1.877  0.00  0.00     0.003 A 
ATOM      8  C6  PXY d   1      -0.708  -3.967   2.859  0.00  0.00     0.003 A 
ENDROOT
TORSDOF 0
ENDMDL
