MODEL 1
REMARK minimizedAffinity 21.682272
REMARK minimizedRMSD -1
REMARK  0 active torsions:
REMARK  status: ('A' for Active; 'I' for Inactive)
ROOT
ATOM      1  C4' PXY d   1       3.878  -0.450   3.160  0.00  0.00     0.077 C 
ATOM      2  C1' PXY d   1      -0.917   2.498   1.846  0.00  0.00     0.077 C 
ATOM      3  C1  PXY d   1       0.340   1.730   2.202  0.00  0.00    -0.082 A 
ATOM      4  C2  PXY d   1       1.177   1.363   1.245  0.00  0.00     0.003 A 
ATOM      5  C3  PXY d   1       2.302   0.640   1.547  0.00  0.00     0.003 A 
ATOM      6  C4  PXY d   1       2.602   0.335   2.847  0.00  0.00    -0.082 A 
ATOM      7  C5  PXY d   1       1.759   0.715   3.831  0.00  0.00     0.003 A 
ATOM      8  C6  PXY d   1       0.601   1.413   3.500  0.00  0.00     0.003 A 
ENDROOT
TORSDOF 0
ENDMDL
