MODEL 1
REMARK minimizedAffinity -1.44694364
REMARK minimizedRMSD -1
REMARK  0 active torsions:
REMARK  status: ('A' for Active; 'I' for Inactive)
ROOT
ATOM      1  C4' PXY d   1       4.650   4.652  -6.000  0.00  0.00     0.077 C 
ATOM      2  C1' PXY d   1       4.888  -1.013  -4.876  0.00  0.00     0.077 C 
ATOM      3  C1  PXY d   1       4.838   0.474  -5.166  0.00  0.00    -0.082 A 
ATOM      4  C2  PXY d   1       3.667   1.072  -5.311  0.00  0.00     0.003 A 
ATOM      5  C3  PXY d   1       3.603   2.410  -5.605  0.00  0.00     0.003 A 
ATOM      6  C4  PXY d   1       4.749   3.154  -5.698  0.00  0.00    -0.082 A 
ATOM      7  C5  PXY d   1       5.947   2.553  -5.540  0.00  0.00     0.003 A 
ATOM      8  C6  PXY d   1       5.991   1.186  -5.283  0.00  0.00     0.003 A 
ENDROOT
TORSDOF 0
ENDMDL
