MODEL 1
REMARK minimizedAffinity 3.14069891
REMARK minimizedRMSD -1
REMARK  0 active torsions:
REMARK  status: ('A' for Active; 'I' for Inactive)
ROOT
ATOM      1  C4' PXY d   1      -3.162  -5.575   5.164  0.00  0.00     0.077 C 
ATOM      2  C1' PXY d   1      -0.245  -1.365   2.484  0.00  0.00     0.077 C 
ATOM      3  C1  PXY d   1      -1.004  -2.478   3.179  0.00  0.00    -0.082 A 
ATOM      4  C2  PXY d   1      -2.175  -2.221   3.739  0.00  0.00     0.003 A 
ATOM      5  C3  PXY d   1      -2.860  -3.208   4.400  0.00  0.00     0.003 A 
ATOM      6  C4  PXY d   1      -2.366  -4.484   4.443  0.00  0.00    -0.082 A 
ATOM      7  C5  PXY d   1      -1.177  -4.757   3.865  0.00  0.00     0.003 A 
ATOM      8  C6  PXY d   1      -0.478  -3.732   3.234  0.00  0.00     0.003 A 
ENDROOT
TORSDOF 0
ENDMDL
