MODEL 1
REMARK minimizedAffinity 11.4307442
REMARK minimizedRMSD -1
REMARK  0 active torsions:
REMARK  status: ('A' for Active; 'I' for Inactive)
ROOT
ATOM      1  C4' PXY d   1      -5.036  -6.000   5.998  0.00  0.00     0.077 C 
ATOM      2  C1' PXY d   1      -0.720  -3.669   2.941  0.00  0.00     0.077 C 
ATOM      3  C1  PXY d   1      -1.846  -4.292   3.743  0.00  0.00    -0.082 A 
ATOM      4  C2  PXY d   1      -3.055  -3.757   3.697  0.00  0.00     0.003 A 
ATOM      5  C3  PXY d   1      -4.077  -4.288   4.441  0.00  0.00     0.003 A 
ATOM      6  C4  PXY d   1      -3.872  -5.410   5.198  0.00  0.00    -0.082 A 
ATOM      7  C5  PXY d   1      -2.643  -5.968   5.242  0.00  0.00     0.003 A 
ATOM      8  C6  PXY d   1      -1.609  -5.389   4.511  0.00  0.00     0.003 A 
ENDROOT
TORSDOF 0
ENDMDL
