MODEL 1
REMARK minimizedAffinity 11.3072615
REMARK minimizedRMSD -1
REMARK  0 active torsions:
REMARK  status: ('A' for Active; 'I' for Inactive)
ROOT
ATOM      1  C4' PXY d   1       5.258  -0.930   0.418  0.00  0.00     0.077 C 
ATOM      2  C1' PXY d   1       0.879   1.411   3.376  0.00  0.00     0.077 C 
ATOM      3  C1  PXY d   1       2.019   0.795   2.590  0.00  0.00    -0.082 A 
ATOM      4  C2  PXY d   1       3.055   0.281   3.234  0.00  0.00     0.003 A 
ATOM      5  C3  PXY d   1       4.109  -0.252   2.538  0.00  0.00     0.003 A 
ATOM      6  C4  PXY d   1       4.080  -0.306   1.171  0.00  0.00    -0.082 A 
ATOM      7  C5  PXY d   1       3.022   0.206   0.507  0.00  0.00     0.003 A 
ATOM      8  C6  PXY d   1       1.981   0.780   1.230  0.00  0.00     0.003 A 
ENDROOT
TORSDOF 0
ENDMDL
