MODEL 1
REMARK minimizedAffinity 9.18218231
REMARK minimizedRMSD -1
REMARK  0 active torsions:
REMARK  status: ('A' for Active; 'I' for Inactive)
ROOT
ATOM      1  C4' PXY d   1       3.253  -0.056   3.775  0.00  0.00     0.077 C 
ATOM      2  C1' PXY d   1      -0.381   3.557   1.100  0.00  0.00     0.077 C 
ATOM      3  C1  PXY d   1       0.575   2.619   1.810  0.00  0.00    -0.082 A 
ATOM      4  C2  PXY d   1       1.142   1.631   1.138  0.00  0.00     0.003 A 
ATOM      5  C3  PXY d   1       1.984   0.754   1.772  0.00  0.00     0.003 A 
ATOM      6  C4  PXY d   1       2.289   0.921   3.096  0.00  0.00    -0.082 A 
ATOM      7  C5  PXY d   1       1.722   1.934   3.787  0.00  0.00     0.003 A 
ATOM      8  C6  PXY d   1       0.839   2.788   3.134  0.00  0.00     0.003 A 
ENDROOT
TORSDOF 0
ENDMDL
