MODEL 1
REMARK minimizedAffinity 11.2104912
REMARK minimizedRMSD -1
REMARK  0 active torsions:
REMARK  status: ('A' for Active; 'I' for Inactive)
ROOT
ATOM      1  C4' PXY d   1       1.887   2.019  -2.612  0.00  0.00     0.077 C 
ATOM      2  C1' PXY d   1       6.000  -0.789  -5.547  0.00  0.00     0.077 C 
ATOM      3  C1  PXY d   1       4.929  -0.052  -4.767  0.00  0.00    -0.082 A 
ATOM      4  C2  PXY d   1       3.664  -0.148  -5.143  0.00  0.00     0.003 A 
ATOM      5  C3  PXY d   1       2.687   0.537  -4.468  0.00  0.00     0.003 A 
ATOM      6  C4  PXY d   1       3.001   1.285  -3.365  0.00  0.00    -0.082 A 
ATOM      7  C5  PXY d   1       4.288   1.379  -2.969  0.00  0.00     0.003 A 
ATOM      8  C6  PXY d   1       5.270   0.709  -3.692  0.00  0.00     0.003 A 
ENDROOT
TORSDOF 0
ENDMDL
