MODEL 1
REMARK minimizedAffinity 10.9803257
REMARK minimizedRMSD -1
REMARK  0 active torsions:
REMARK  status: ('A' for Active; 'I' for Inactive)
ROOT
ATOM      1  C4' PXY d   1       3.373   0.290   3.065  0.00  0.00     0.077 C 
ATOM      2  C1' PXY d   1      -1.163   3.592   1.674  0.00  0.00     0.077 C 
ATOM      3  C1  PXY d   1       0.023   2.727   2.051  0.00  0.00    -0.082 A 
ATOM      4  C2  PXY d   1       1.039   2.608   1.211  0.00  0.00     0.003 A 
ATOM      5  C3  PXY d   1       2.106   1.805   1.523  0.00  0.00     0.003 A 
ATOM      6  C4  PXY d   1       2.158   1.159   2.729  0.00  0.00    -0.082 A 
ATOM      7  C5  PXY d   1       1.131   1.285   3.596  0.00  0.00     0.003 A 
ATOM      8  C6  PXY d   1       0.038   2.072   3.244  0.00  0.00     0.003 A 
ENDROOT
TORSDOF 0
ENDMDL
