MODEL 1
REMARK minimizedAffinity -1.64751601
REMARK minimizedRMSD -1
REMARK  1 active torsions:
REMARK  status: ('A' for Active; 'I' for Inactive)
REMARK    1  A    between atoms: N_2  and  C1_3 
ROOT
ATOM      1  C1  UNL d   1       0.292  -0.880  -1.130  0.00  0.00     0.143 A 
ATOM      2  C2  UNL d   1       1.200  -0.819  -0.067  0.00  0.00    -0.057 A 
ATOM      3  C3  UNL d   1       0.776  -0.521   1.233  0.00  0.00     0.033 A 
ATOM      4  C4  UNL d   1      -0.564  -0.250   1.490  0.00  0.00    -0.042 A 
ATOM      5  C5  UNL d   1      -1.480  -0.281   0.444  0.00  0.00     0.033 A 
ATOM      6  C6  UNL d   1      -1.051  -0.585  -0.851  0.00  0.00    -0.057 A 
ENDROOT
BRANCH   1   7
ATOM      7  N   UNL d   1       0.666  -1.074  -2.462  0.00  0.00    -0.732 N 
ATOM      8  C   UNL d   1       1.113   0.039  -3.272  0.00  0.00     0.284 C 
ATOM      9  H3  UNL d   1       1.205  -1.927  -2.594  0.00  0.00     0.395 HD
ENDBRANCH   1   7
TORSDOF 1
ENDMDL
