MODEL 1
REMARK minimizedAffinity -1.26862812
REMARK minimizedRMSD -1
REMARK  1 active torsions:
REMARK  status: ('A' for Active; 'I' for Inactive)
REMARK    1  A    between atoms: N_2  and  C1_3 
ROOT
ATOM      1  C1  UNL d   1       0.374  -1.041   4.286  0.00  0.00     0.143 A 
ATOM      2  C2  UNL d   1       1.212  -2.104   4.639  0.00  0.00    -0.057 A 
ATOM      3  C3  UNL d   1       2.301  -1.916   5.499  0.00  0.00     0.033 A 
ATOM      4  C4  UNL d   1       2.589  -0.651   6.000  0.00  0.00    -0.042 A 
ATOM      5  C5  UNL d   1       1.784   0.425   5.643  0.00  0.00     0.033 A 
ATOM      6  C6  UNL d   1       0.694   0.229   4.789  0.00  0.00    -0.057 A 
ENDROOT
BRANCH   1   7
ATOM      7  N   UNL d   1      -0.665  -1.145   3.358  0.00  0.00    -0.732 N 
ATOM      8  C   UNL d   1      -0.976  -0.043   2.474  0.00  0.00     0.284 C 
ATOM      9  H3  UNL d   1      -0.697  -2.058   2.911  0.00  0.00     0.395 HD
ENDBRANCH   1   7
TORSDOF 1
ENDMDL
