MODEL 1
REMARK minimizedAffinity 6.02380276
REMARK minimizedRMSD -1
REMARK  1 active torsions:
REMARK  status: ('A' for Active; 'I' for Inactive)
REMARK    1  A    between atoms: N_2  and  C1_3 
ROOT
ATOM      1  C1  UNL d   1      -0.161  -1.052  -5.452  0.00  0.00     0.143 A 
ATOM      2  C2  UNL d   1       1.081  -0.709  -5.998  0.00  0.00    -0.057 A 
ATOM      3  C3  UNL d   1       1.842   0.340  -5.468  0.00  0.00     0.033 A 
ATOM      4  C4  UNL d   1       1.361   1.085  -4.397  0.00  0.00    -0.042 A 
ATOM      5  C5  UNL d   1       0.118   0.778  -3.854  0.00  0.00     0.033 A 
ATOM      6  C6  UNL d   1      -0.635  -0.275  -4.383  0.00  0.00    -0.057 A 
ENDROOT
BRANCH   1   7
ATOM      7  N   UNL d   1      -1.009  -2.019  -5.996  0.00  0.00    -0.732 N 
ATOM      8  C   UNL d   1      -2.443  -1.824  -5.999  0.00  0.00     0.284 C 
ATOM      9  H3  UNL d   1      -0.642  -2.418  -6.857  0.00  0.00     0.395 HD
ENDBRANCH   1   7
TORSDOF 1
ENDMDL
