MODEL 1
REMARK minimizedAffinity 7.25508356
REMARK minimizedRMSD -1
REMARK  1 active torsions:
REMARK  status: ('A' for Active; 'I' for Inactive)
REMARK    1  A    between atoms: N_2  and  C1_3 
ROOT
ATOM      1  C1  UNL d   1       2.214  -0.308   0.008  0.00  0.00     0.143 A 
ATOM      2  C2  UNL d   1       3.215   0.244  -0.799  0.00  0.00    -0.057 A 
ATOM      3  C3  UNL d   1       4.036   1.278  -0.333  0.00  0.00     0.033 A 
ATOM      4  C4  UNL d   1       3.851   1.799   0.944  0.00  0.00    -0.042 A 
ATOM      5  C5  UNL d   1       2.847   1.282   1.754  0.00  0.00     0.033 A 
ATOM      6  C6  UNL d   1       2.034   0.246   1.285  0.00  0.00    -0.057 A 
ENDROOT
BRANCH   1   7
ATOM      7  N   UNL d   1       1.301  -1.269  -0.434  0.00  0.00    -0.732 N 
ATOM      8  C   UNL d   1      -0.029  -0.883  -0.855  0.00  0.00     0.284 C 
ATOM      9  H3  UNL d   1       1.735  -1.976  -1.022  0.00  0.00     0.395 HD
ENDBRANCH   1   7
TORSDOF 1
ENDMDL
