MODEL 1
REMARK minimizedAffinity 4.85134363
REMARK minimizedRMSD -1
REMARK  1 active torsions:
REMARK  status: ('A' for Active; 'I' for Inactive)
REMARK    1  A    between atoms: N_2  and  C1_3 
ROOT
ATOM      1  C1  UNL d   1       0.559  -0.487   0.539  0.00  0.00     0.143 A 
ATOM      2  C2  UNL d   1      -0.403   0.318   1.159  0.00  0.00    -0.057 A 
ATOM      3  C3  UNL d   1      -1.744   0.285   0.759  0.00  0.00     0.033 A 
ATOM      4  C4  UNL d   1      -2.143  -0.536  -0.291  0.00  0.00    -0.042 A 
ATOM      5  C5  UNL d   1      -1.200  -1.326  -0.938  0.00  0.00     0.033 A 
ATOM      6  C6  UNL d   1       0.137  -1.294  -0.530  0.00  0.00    -0.057 A 
ENDROOT
BRANCH   1   7
ATOM      7  N   UNL d   1       1.925  -0.427   0.825  0.00  0.00    -0.732 N 
ATOM      8  C   UNL d   1       2.792   0.473   0.095  0.00  0.00     0.284 C 
ATOM      9  H3  UNL d   1       2.115  -0.469   1.824  0.00  0.00     0.395 HD
ENDBRANCH   1   7
TORSDOF 1
ENDMDL
