MODEL 1
REMARK minimizedAffinity 8.4366827
REMARK minimizedRMSD -1
REMARK  1 active torsions:
REMARK  status: ('A' for Active; 'I' for Inactive)
REMARK    1  A    between atoms: N_2  and  C1_3 
ROOT
ATOM      1  C1  UNL d   1       0.460  -0.028   0.681  0.00  0.00     0.143 A 
ATOM      2  C2  UNL d   1      -0.605   0.542   1.387  0.00  0.00    -0.057 A 
ATOM      3  C3  UNL d   1      -1.915   0.485   0.897  0.00  0.00     0.033 A 
ATOM      4  C4  UNL d   1      -2.180  -0.120  -0.327  0.00  0.00    -0.042 A 
ATOM      5  C5  UNL d   1      -1.133  -0.671  -1.059  0.00  0.00     0.033 A 
ATOM      6  C6  UNL d   1       0.172  -0.617  -0.560  0.00  0.00    -0.057 A 
ENDROOT
BRANCH   1   7
ATOM      7  N   UNL d   1       1.798   0.082   1.068  0.00  0.00    -0.732 N 
ATOM      8  C   UNL d   1       2.661   1.074   0.463  0.00  0.00     0.284 C 
ATOM      9  H3  UNL d   1       1.921  -0.019   2.073  0.00  0.00     0.395 HD
ENDBRANCH   1   7
TORSDOF 1
ENDMDL
