MODEL 1
REMARK minimizedAffinity 6.79612303
REMARK minimizedRMSD -1
REMARK  1 active torsions:
REMARK  status: ('A' for Active; 'I' for Inactive)
REMARK    1  A    between atoms: N_2  and  C1_3 
ROOT
ATOM      1  C1  UNL d   1       1.737  -0.006   0.163  0.00  0.00     0.143 A 
ATOM      2  C2  UNL d   1       2.436   0.630  -0.868  0.00  0.00    -0.057 A 
ATOM      3  C3  UNL d   1       3.507   1.490  -0.595  0.00  0.00     0.033 A 
ATOM      4  C4  UNL d   1       3.880   1.752   0.719  0.00  0.00    -0.042 A 
ATOM      5  C5  UNL d   1       3.182   1.150   1.761  0.00  0.00     0.033 A 
ATOM      6  C6  UNL d   1       2.118   0.287   1.482  0.00  0.00    -0.057 A 
ENDROOT
BRANCH   1   7
ATOM      7  N   UNL d   1       0.601  -0.794  -0.039  0.00  0.00    -0.732 N 
ATOM      8  C   UNL d   1      -0.719  -0.200  -0.035  0.00  0.00     0.284 C 
ATOM      9  H3  UNL d   1       0.739  -1.497  -0.762  0.00  0.00     0.395 HD
ENDBRANCH   1   7
TORSDOF 1
ENDMDL
