MODEL 1
REMARK minimizedAffinity 6.86068869
REMARK minimizedRMSD -1
REMARK  1 active torsions:
REMARK  status: ('A' for Active; 'I' for Inactive)
REMARK    1  A    between atoms: N_2  and  C1_3 
ROOT
ATOM      1  C1  UNL d   1       1.437  -0.036   0.767  0.00  0.00     0.143 A 
ATOM      2  C2  UNL d   1       1.981   0.652   1.857  0.00  0.00    -0.057 A 
ATOM      3  C3  UNL d   1       1.160   1.215   2.843  0.00  0.00     0.033 A 
ATOM      4  C4  UNL d   1      -0.224   1.123   2.739  0.00  0.00    -0.042 A 
ATOM      5  C5  UNL d   1      -0.786   0.466   1.651  0.00  0.00     0.033 A 
ATOM      6  C6  UNL d   1       0.038  -0.099   0.674  0.00  0.00    -0.057 A 
ENDROOT
BRANCH   1   7
ATOM      7  N   UNL d   1       2.196  -0.531  -0.297  0.00  0.00    -0.732 N 
ATOM      8  C   UNL d   1       3.205   0.291  -0.929  0.00  0.00     0.284 C 
ATOM      9  H3  UNL d   1       2.477  -1.499  -0.156  0.00  0.00     0.395 HD
ENDBRANCH   1   7
TORSDOF 1
ENDMDL
