MODEL 1
REMARK minimizedAffinity 8.31320286
REMARK minimizedRMSD -1
REMARK  1 active torsions:
REMARK  status: ('A' for Active; 'I' for Inactive)
REMARK    1  A    between atoms: N_2  and  C1_3 
ROOT
ATOM      1  C1  UNL d   1      -1.075   0.490   0.729  0.00  0.00     0.143 A 
ATOM      2  C2  UNL d   1      -2.221   0.325   1.515  0.00  0.00    -0.057 A 
ATOM      3  C3  UNL d   1      -3.444  -0.049   0.946  0.00  0.00     0.033 A 
ATOM      4  C4  UNL d   1      -3.551  -0.236  -0.428  0.00  0.00    -0.042 A 
ATOM      5  C5  UNL d   1      -2.432  -0.052  -1.232  0.00  0.00     0.033 A 
ATOM      6  C6  UNL d   1      -1.211   0.314  -0.657  0.00  0.00    -0.057 A 
ENDROOT
BRANCH   1   7
ATOM      7  N   UNL d   1       0.146   0.956   1.222  0.00  0.00    -0.732 N 
ATOM      8  C   UNL d   1       1.294   0.078   1.297  0.00  0.00     0.284 C 
ATOM      9  H3  UNL d   1       0.362   1.896   0.898  0.00  0.00     0.395 HD
ENDBRANCH   1   7
TORSDOF 1
ENDMDL
