MODEL 1
REMARK minimizedAffinity -1.98551989
REMARK minimizedRMSD -1
REMARK  1 active torsions:
REMARK  status: ('A' for Active; 'I' for Inactive)
REMARK    1  A    between atoms: C1_2  and  C2_3 
ROOT
ATOM      1  C2  UNL d   1      -0.192  -4.214  -2.993  0.00  0.00    -0.073 A 
ATOM      2  C3  UNL d   1       0.207  -3.090  -3.724  0.00  0.00    -0.002 A 
ATOM      3  C4  UNL d   1       0.028  -1.809  -3.200  0.00  0.00     0.004 A 
ATOM      4  C5  UNL d   1      -0.543  -1.640  -1.939  0.00  0.00    -0.004 A 
ATOM      5  C6  UNL d   1      -0.937  -2.752  -1.188  0.00  0.00    -0.075 A 
ATOM      6  C7  UNL d   1      -1.555  -2.587   0.169  0.00  0.00     0.076 C 
ATOM      7  C8  UNL d   1      -0.757  -4.035  -1.722  0.00  0.00     0.001 A 
ENDROOT
BRANCH   1   8
ATOM      8  C1  UNL d   1       0.005  -5.600  -3.552  0.00  0.00     0.053 C 
ATOM      9  C   UNL d   1      -1.121  -6.000  -4.493  0.00  0.00     0.018 C 
ENDBRANCH   1   8
TORSDOF 1
ENDMDL
