MODEL 1
REMARK minimizedAffinity -0.762360096
REMARK minimizedRMSD -1
REMARK  1 active torsions:
REMARK  status: ('A' for Active; 'I' for Inactive)
REMARK    1  A    between atoms: C1_2  and  C2_3 
ROOT
ATOM      1  C2  UNL d   1      -0.365  -3.121  -0.354  0.00  0.00    -0.073 A 
ATOM      2  C3  UNL d   1      -1.705  -2.835  -0.066  0.00  0.00    -0.002 A 
ATOM      3  C4  UNL d   1      -2.489  -2.136  -0.984  0.00  0.00     0.004 A 
ATOM      4  C5  UNL d   1      -1.946  -1.722  -2.200  0.00  0.00    -0.004 A 
ATOM      5  C6  UNL d   1      -0.613  -2.008  -2.511  0.00  0.00    -0.075 A 
ATOM      6  C7  UNL d   1      -0.013  -1.567  -3.813  0.00  0.00     0.076 C 
ATOM      7  C8  UNL d   1       0.170  -2.708  -1.583  0.00  0.00     0.001 A 
ENDROOT
BRANCH   1   8
ATOM      8  C1  UNL d   1       0.484  -3.882   0.631  0.00  0.00     0.053 C 
ATOM      9  C   UNL d   1       0.887  -5.249   0.101  0.00  0.00     0.018 C 
ENDBRANCH   1   8
TORSDOF 1
ENDMDL
