MODEL 1
REMARK minimizedAffinity 3.6272049
REMARK minimizedRMSD -1
REMARK  1 active torsions:
REMARK  status: ('A' for Active; 'I' for Inactive)
REMARK    1  A    between atoms: C1_2  and  C2_3 
ROOT
ATOM      1  C2  UNL d   1       4.586  -2.700   5.414  0.00  0.00    -0.073 A 
ATOM      2  C3  UNL d   1       4.078  -1.534   6.000  0.00  0.00    -0.002 A 
ATOM      3  C4  UNL d   1       2.953  -0.908   5.461  0.00  0.00     0.004 A 
ATOM      4  C5  UNL d   1       2.321  -1.443   4.339  0.00  0.00    -0.004 A 
ATOM      5  C6  UNL d   1       2.807  -2.614   3.747  0.00  0.00    -0.075 A 
ATOM      6  C7  UNL d   1       2.140  -3.201   2.538  0.00  0.00     0.076 C 
ATOM      7  C8  UNL d   1       3.939  -3.235   4.292  0.00  0.00     0.001 A 
ENDROOT
BRANCH   1   8
ATOM      8  C1  UNL d   1       5.797  -3.383   5.996  0.00  0.00     0.053 C 
ATOM      9  C   UNL d   1       5.651  -4.896   5.999  0.00  0.00     0.018 C 
ENDBRANCH   1   8
TORSDOF 1
ENDMDL
