MODEL 1
REMARK minimizedAffinity 0.223692745
REMARK minimizedRMSD -1
REMARK  1 active torsions:
REMARK  status: ('A' for Active; 'I' for Inactive)
REMARK    1  A    between atoms: C1_2  and  C2_3 
ROOT
ATOM      1  C2  UNL d   1       4.370  -2.949   3.203  0.00  0.00    -0.073 A 
ATOM      2  C3  UNL d   1       4.526  -1.768   3.938  0.00  0.00    -0.002 A 
ATOM      3  C4  UNL d   1       4.416  -1.784   5.329  0.00  0.00     0.004 A 
ATOM      4  C5  UNL d   1       4.156  -2.979   5.999  0.00  0.00    -0.004 A 
ATOM      5  C6  UNL d   1       4.009  -4.172   5.284  0.00  0.00    -0.075 A 
ATOM      6  C7  UNL d   1       3.727  -5.466   5.989  0.00  0.00     0.076 C 
ATOM      7  C8  UNL d   1       4.118  -4.148   3.887  0.00  0.00     0.001 A 
ENDROOT
BRANCH   1   8
ATOM      8  C1  UNL d   1       4.495  -2.939   1.702  0.00  0.00     0.053 C 
ATOM      9  C   UNL d   1       4.150  -1.581   1.111  0.00  0.00     0.018 C 
ENDBRANCH   1   8
TORSDOF 1
ENDMDL
