MODEL 1
REMARK minimizedAffinity 9.31997681
REMARK minimizedRMSD -1
REMARK  1 active torsions:
REMARK  status: ('A' for Active; 'I' for Inactive)
REMARK    1  A    between atoms: C1_2  and  C2_3 
ROOT
ATOM      1  C2  UNL d   1       1.535  -2.432  -3.740  0.00  0.00    -0.073 A 
ATOM      2  C3  UNL d   1       2.155  -2.658  -4.974  0.00  0.00    -0.002 A 
ATOM      3  C4  UNL d   1       3.547  -2.627  -5.080  0.00  0.00     0.004 A 
ATOM      4  C5  UNL d   1       4.331  -2.376  -3.954  0.00  0.00    -0.004 A 
ATOM      5  C6  UNL d   1       3.730  -2.159  -2.710  0.00  0.00    -0.075 A 
ATOM      6  C7  UNL d   1       4.559  -1.885  -1.489  0.00  0.00     0.076 C 
ATOM      7  C8  UNL d   1       2.332  -2.189  -2.612  0.00  0.00     0.001 A 
ENDROOT
BRANCH   1   8
ATOM      8  C1  UNL d   1       0.033  -2.471  -3.620  0.00  0.00     0.053 C 
ATOM      9  C   UNL d   1      -0.427  -2.307  -2.180  0.00  0.00     0.018 C 
ENDBRANCH   1   8
TORSDOF 1
ENDMDL
