MODEL 1
REMARK minimizedAffinity 12.908021
REMARK minimizedRMSD -1
REMARK  1 active torsions:
REMARK  status: ('A' for Active; 'I' for Inactive)
REMARK    1  A    between atoms: C1_2  and  C2_3 
ROOT
ATOM      1  C2  UNL d   1       0.798  -1.384  -1.270  0.00  0.00    -0.073 A 
ATOM      2  C3  UNL d   1       1.657  -1.381  -2.374  0.00  0.00    -0.002 A 
ATOM      3  C4  UNL d   1       3.040  -1.343  -2.191  0.00  0.00     0.004 A 
ATOM      4  C5  UNL d   1       3.577  -1.313  -0.904  0.00  0.00    -0.004 A 
ATOM      5  C6  UNL d   1       2.735  -1.326   0.212  0.00  0.00    -0.075 A 
ATOM      6  C7  UNL d   1       3.297  -1.293   1.603  0.00  0.00     0.076 C 
ATOM      7  C8  UNL d   1       1.347  -1.363   0.020  0.00  0.00     0.001 A 
ENDROOT
BRANCH   1   8
ATOM      8  C1  UNL d   1      -0.696  -1.432  -1.463  0.00  0.00     0.053 C 
ATOM      9  C   UNL d   1      -1.081  -2.123  -2.761  0.00  0.00     0.018 C 
ENDBRANCH   1   8
TORSDOF 1
ENDMDL
