MODEL 1
REMARK minimizedAffinity 11.4931383
REMARK minimizedRMSD -1
REMARK  1 active torsions:
REMARK  status: ('A' for Active; 'I' for Inactive)
REMARK    1  A    between atoms: C1_2  and  C2_3 
ROOT
ATOM      1  C2  UNL d   1       3.472   5.464  -3.509  0.00  0.00    -0.073 A 
ATOM      2  C3  UNL d   1       4.210   4.587  -4.312  0.00  0.00    -0.002 A 
ATOM      3  C4  UNL d   1       5.465   4.138  -3.897  0.00  0.00     0.004 A 
ATOM      4  C5  UNL d   1       5.992   4.556  -2.675  0.00  0.00    -0.004 A 
ATOM      5  C6  UNL d   1       5.264   5.423  -1.853  0.00  0.00    -0.075 A 
ATOM      6  C7  UNL d   1       5.818   5.884  -0.537  0.00  0.00     0.076 C 
ATOM      7  C8  UNL d   1       4.006   5.871  -2.278  0.00  0.00     0.001 A 
ENDROOT
BRANCH   1   8
ATOM      8  C1  UNL d   1       2.114   5.946  -3.949  0.00  0.00     0.053 C 
ATOM      9  C   UNL d   1       1.126   5.997  -2.794  0.00  0.00     0.018 C 
ENDBRANCH   1   8
TORSDOF 1
ENDMDL
