MODEL 1
REMARK minimizedAffinity 1.08731091
REMARK minimizedRMSD -1
REMARK  1 active torsions:
REMARK  status: ('A' for Active; 'I' for Inactive)
REMARK    1  A    between atoms: C1_2  and  C2_3 
ROOT
ATOM      1  C2  UNL d   1       3.962  -2.275   3.050  0.00  0.00    -0.073 A 
ATOM      2  C3  UNL d   1       3.509  -1.260   3.902  0.00  0.00    -0.002 A 
ATOM      3  C4  UNL d   1       3.850  -1.272   5.255  0.00  0.00     0.004 A 
ATOM      4  C5  UNL d   1       4.651  -2.291   5.769  0.00  0.00    -0.004 A 
ATOM      5  C6  UNL d   1       5.123  -3.307   4.932  0.00  0.00    -0.075 A 
ATOM      6  C7  UNL d   1       5.984  -4.413   5.469  0.00  0.00     0.076 C 
ATOM      7  C8  UNL d   1       4.774  -3.291   3.574  0.00  0.00     0.001 A 
ENDROOT
BRANCH   1   8
ATOM      8  C1  UNL d   1       3.602  -2.263   1.587  0.00  0.00     0.053 C 
ATOM      9  C   UNL d   1       4.782  -2.646   0.707  0.00  0.00     0.018 C 
ENDBRANCH   1   8
TORSDOF 1
ENDMDL
