MODEL 1
REMARK minimizedAffinity 5.15575838
REMARK minimizedRMSD -1
REMARK  1 active torsions:
REMARK  status: ('A' for Active; 'I' for Inactive)
REMARK    1  A    between atoms: C1_2  and  C2_3 
ROOT
ATOM      1  C2  UNL d   1       4.886  -3.190   5.372  0.00  0.00    -0.073 A 
ATOM      2  C3  UNL d   1       4.496  -1.987   5.972  0.00  0.00    -0.002 A 
ATOM      3  C4  UNL d   1       3.486  -1.210   5.403  0.00  0.00     0.004 A 
ATOM      4  C5  UNL d   1       2.851  -1.630   4.235  0.00  0.00    -0.004 A 
ATOM      5  C6  UNL d   1       3.218  -2.835   3.627  0.00  0.00    -0.075 A 
ATOM      6  C7  UNL d   1       2.546  -3.301   2.368  0.00  0.00     0.076 C 
ATOM      7  C8  UNL d   1       4.235  -3.608   4.202  0.00  0.00     0.001 A 
ENDROOT
BRANCH   1   8
ATOM      8  C1  UNL d   1       5.971  -4.035   5.986  0.00  0.00     0.053 C 
ATOM      9  C   UNL d   1       5.606  -5.511   5.999  0.00  0.00     0.018 C 
ENDBRANCH   1   8
TORSDOF 1
ENDMDL
