MODEL 1
REMARK minimizedAffinity 5.39661169
REMARK minimizedRMSD -1
REMARK  1 active torsions:
REMARK  status: ('A' for Active; 'I' for Inactive)
REMARK    1  A    between atoms: C1_2  and  C2_3 
ROOT
ATOM      1  C2  UNL d   1      -0.540  -1.989  -1.506  0.00  0.00    -0.073 A 
ATOM      2  C3  UNL d   1      -0.113  -2.221  -2.819  0.00  0.00    -0.002 A 
ATOM      3  C4  UNL d   1       1.239  -2.117  -3.149  0.00  0.00     0.004 A 
ATOM      4  C5  UNL d   1       2.177  -1.789  -2.171  0.00  0.00    -0.004 A 
ATOM      5  C6  UNL d   1       1.772  -1.565  -0.851  0.00  0.00    -0.075 A 
ATOM      6  C7  UNL d   1       2.769  -1.209   0.212  0.00  0.00     0.076 C 
ATOM      7  C8  UNL d   1       0.412  -1.668  -0.528  0.00  0.00     0.001 A 
ENDROOT
BRANCH   1   8
ATOM      8  C1  UNL d   1      -1.998  -2.106  -1.143  0.00  0.00     0.053 C 
ATOM      9  C   UNL d   1      -2.193  -2.621   0.274  0.00  0.00     0.018 C 
ENDBRANCH   1   8
TORSDOF 1
ENDMDL
