MODEL 1
REMARK minimizedAffinity 3.25389242
REMARK minimizedRMSD -1
REMARK  1 active torsions:
REMARK  status: ('A' for Active; 'I' for Inactive)
REMARK    1  A    between atoms: C1_2  and  C2_3 
ROOT
ATOM      1  C2  UNL d   1      -0.236  -2.622  -1.315  0.00  0.00    -0.073 A 
ATOM      2  C3  UNL d   1       0.330  -1.689  -2.192  0.00  0.00    -0.002 A 
ATOM      3  C4  UNL d   1       0.746  -2.080  -3.465  0.00  0.00     0.004 A 
ATOM      4  C5  UNL d   1       0.595  -3.404  -3.876  0.00  0.00    -0.004 A 
ATOM      5  C6  UNL d   1       0.022  -4.349  -3.019  0.00  0.00    -0.075 A 
ATOM      6  C7  UNL d   1      -0.145  -5.778  -3.446  0.00  0.00     0.076 C 
ATOM      7  C8  UNL d   1      -0.391  -3.948  -1.741  0.00  0.00     0.001 A 
ENDROOT
BRANCH   1   8
ATOM      8  C1  UNL d   1      -0.692  -2.202   0.058  0.00  0.00     0.053 C 
ATOM      9  C   UNL d   1      -0.391  -3.261   1.107  0.00  0.00     0.018 C 
ENDBRANCH   1   8
TORSDOF 1
ENDMDL
