MODEL 1
REMARK minimizedAffinity 5.54974031
REMARK minimizedRMSD -1
REMARK  1 active torsions:
REMARK  status: ('A' for Active; 'I' for Inactive)
REMARK    1  A    between atoms: C1_2  and  C2_3 
ROOT
ATOM      1  C2  UNL d   1      -0.355  -1.761  -1.100  0.00  0.00    -0.073 A 
ATOM      2  C3  UNL d   1      -1.290  -2.653  -1.637  0.00  0.00    -0.002 A 
ATOM      3  C4  UNL d   1      -2.277  -3.212  -0.824  0.00  0.00     0.004 A 
ATOM      4  C5  UNL d   1      -2.345  -2.881   0.529  0.00  0.00    -0.004 A 
ATOM      5  C6  UNL d   1      -1.426  -1.982   1.081  0.00  0.00    -0.075 A 
ATOM      6  C7  UNL d   1      -1.484  -1.617   2.535  0.00  0.00     0.076 C 
ATOM      7  C8  UNL d   1      -0.436  -1.427   0.260  0.00  0.00     0.001 A 
ENDROOT
BRANCH   1   8
ATOM      8  C1  UNL d   1       0.709  -1.150  -1.974  0.00  0.00     0.053 C 
ATOM      9  C   UNL d   1       1.560  -2.207  -2.660  0.00  0.00     0.018 C 
ENDBRANCH   1   8
TORSDOF 1
ENDMDL
