MODEL 1
REMARK minimizedAffinity -2.23174691
REMARK minimizedRMSD -1
REMARK  1 active torsions:
REMARK  status: ('A' for Active; 'I' for Inactive)
REMARK    1  A    between atoms: C1_2  and  C2_3 
ROOT
ATOM      1  C2  UNL d   1      -0.750  -2.909  -0.561  0.00  0.00    -0.073 A 
ATOM      2  C3  UNL d   1      -0.473  -1.653  -1.113  0.00  0.00    -0.002 A 
ATOM      3  C4  UNL d   1       0.079  -1.552  -2.391  0.00  0.00     0.004 A 
ATOM      4  C5  UNL d   1       0.354  -2.702  -3.130  0.00  0.00    -0.004 A 
ATOM      5  C6  UNL d   1       0.073  -3.966  -2.600  0.00  0.00    -0.075 A 
ATOM      6  C7  UNL d   1       0.364  -5.213  -3.382  0.00  0.00     0.076 C 
ATOM      7  C8  UNL d   1      -0.479  -4.059  -1.316  0.00  0.00     0.001 A 
ENDROOT
BRANCH   1   8
ATOM      8  C1  UNL d   1      -1.352  -3.023   0.816  0.00  0.00     0.053 C 
ATOM      9  C   UNL d   1      -2.828  -2.659   0.824  0.00  0.00     0.018 C 
ENDBRANCH   1   8
TORSDOF 1
ENDMDL
