MODEL 1
REMARK minimizedAffinity 1.38778102
REMARK minimizedRMSD -1
REMARK  0 active torsions:
REMARK  status: ('A' for Active; 'I' for Inactive)
ROOT
ATOM      1  C   UNL d   1       4.707   2.277   3.690  0.00  0.00     0.077 C 
ATOM      2  C1  UNL d   1       4.107   3.578   4.134  0.00  0.00    -0.074 A 
ATOM      3  C2  UNL d   1       4.733   4.794   3.845  0.00  0.00    -0.005 A 
ATOM      4  C3  UNL d   1       4.157   5.997   4.256  0.00  0.00     0.006 A 
ATOM      5  C4  UNL d   1       2.951   5.994   4.958  0.00  0.00    -0.005 A 
ATOM      6  C5  UNL d   1       2.310   4.788   5.255  0.00  0.00    -0.074 A 
ATOM      7  C6  UNL d   1       1.008   4.768   6.000  0.00  0.00     0.077 C 
ATOM      8  C7  UNL d   1       2.891   3.584   4.833  0.00  0.00    -0.001 A 
ENDROOT
TORSDOF 0
ENDMDL
