MODEL 1
REMARK minimizedAffinity 1.21374285
REMARK minimizedRMSD -1
REMARK  0 active torsions:
REMARK  status: ('A' for Active; 'I' for Inactive)
ROOT
ATOM      1  C   UNL d   1       4.440   3.003   2.286  0.00  0.00     0.077 C 
ATOM      2  C1  UNL d   1       4.231   2.259   1.000  0.00  0.00    -0.074 A 
ATOM      3  C2  UNL d   1       4.792   2.719  -0.195  0.00  0.00    -0.005 A 
ATOM      4  C3  UNL d   1       4.596   2.011  -1.382  0.00  0.00     0.006 A 
ATOM      5  C4  UNL d   1       3.839   0.839  -1.384  0.00  0.00    -0.005 A 
ATOM      6  C5  UNL d   1       3.271   0.364  -0.198  0.00  0.00    -0.074 A 
ATOM      7  C6  UNL d   1       2.463  -0.899  -0.181  0.00  0.00     0.077 C 
ATOM      8  C7  UNL d   1       3.478   1.077   0.991  0.00  0.00    -0.001 A 
ENDROOT
TORSDOF 0
ENDMDL
