MODEL 1
REMARK minimizedAffinity 7.22939873
REMARK minimizedRMSD -1
REMARK  0 active torsions:
REMARK  status: ('A' for Active; 'I' for Inactive)
ROOT
ATOM      1  C   UNL d   1      -4.506   0.803   0.685  0.00  0.00     0.077 C 
ATOM      2  C1  UNL d   1      -4.177   2.112   1.340  0.00  0.00    -0.074 A 
ATOM      3  C2  UNL d   1      -3.225   2.973   0.786  0.00  0.00    -0.005 A 
ATOM      4  C3  UNL d   1      -2.936   4.191   1.402  0.00  0.00     0.006 A 
ATOM      5  C4  UNL d   1      -3.595   4.559   2.575  0.00  0.00    -0.005 A 
ATOM      6  C5  UNL d   1      -4.551   3.711   3.143  0.00  0.00    -0.074 A 
ATOM      7  C6  UNL d   1      -5.276   4.095   4.399  0.00  0.00     0.077 C 
ATOM      8  C7  UNL d   1      -4.841   2.492   2.515  0.00  0.00    -0.001 A 
ENDROOT
TORSDOF 0
ENDMDL
