MODEL 1
REMARK minimizedAffinity 6.27865648
REMARK minimizedRMSD -1
REMARK  0 active torsions:
REMARK  status: ('A' for Active; 'I' for Inactive)
ROOT
ATOM      1  C   UNL d   1       2.039  -2.636  -1.904  0.00  0.00     0.077 C 
ATOM      2  C1  UNL d   1       2.321  -1.428  -1.062  0.00  0.00    -0.074 A 
ATOM      3  C2  UNL d   1       3.227  -1.489   0.002  0.00  0.00    -0.005 A 
ATOM      4  C3  UNL d   1       3.486  -0.354   0.771  0.00  0.00     0.006 A 
ATOM      5  C4  UNL d   1       2.844   0.851   0.484  0.00  0.00    -0.005 A 
ATOM      6  C5  UNL d   1       1.936   0.931  -0.577  0.00  0.00    -0.074 A 
ATOM      7  C6  UNL d   1       1.244   2.221  -0.905  0.00  0.00     0.077 C 
ATOM      8  C7  UNL d   1       1.686  -0.212  -1.349  0.00  0.00    -0.001 A 
ENDROOT
TORSDOF 0
ENDMDL
