MODEL 1
REMARK minimizedAffinity 10.9114542
REMARK minimizedRMSD -1
REMARK  0 active torsions:
REMARK  status: ('A' for Active; 'I' for Inactive)
ROOT
ATOM      1  C   UNL d   1       3.545   0.653  -0.974  0.00  0.00     0.077 C 
ATOM      2  C1  UNL d   1       2.216   0.860  -0.310  0.00  0.00    -0.074 A 
ATOM      3  C2  UNL d   1       1.242   1.678  -0.891  0.00  0.00    -0.005 A 
ATOM      4  C3  UNL d   1       0.007   1.854  -0.267  0.00  0.00     0.006 A 
ATOM      5  C4  UNL d   1      -0.265   1.214   0.943  0.00  0.00    -0.005 A 
ATOM      6  C5  UNL d   1       0.696   0.392   1.539  0.00  0.00    -0.074 A 
ATOM      7  C6  UNL d   1       0.416  -0.310   2.834  0.00  0.00     0.077 C 
ATOM      8  C7  UNL d   1       1.932   0.215   0.902  0.00  0.00    -0.001 A 
ENDROOT
TORSDOF 0
ENDMDL
