MODEL 1
REMARK minimizedAffinity 1.333305
REMARK minimizedRMSD -1
REMARK  0 active torsions:
REMARK  status: ('A' for Active; 'I' for Inactive)
ROOT
ATOM      1  C   UNL d   1       3.953   3.723   3.863  0.00  0.00     0.077 C 
ATOM      2  C1  UNL d   1       2.656   4.190   3.272  0.00  0.00    -0.074 A 
ATOM      3  C2  UNL d   1       2.328   5.549   3.240  0.00  0.00    -0.005 A 
ATOM      4  C3  UNL d   1       1.122   5.968   2.679  0.00  0.00     0.006 A 
ATOM      5  C4  UNL d   1       0.234   5.034   2.144  0.00  0.00    -0.005 A 
ATOM      6  C5  UNL d   1       0.545   3.671   2.166  0.00  0.00    -0.074 A 
ATOM      7  C6  UNL d   1      -0.394   2.655   1.586  0.00  0.00     0.077 C 
ATOM      8  C7  UNL d   1       1.762   3.258   2.726  0.00  0.00    -0.001 A 
ENDROOT
TORSDOF 0
ENDMDL
