MODEL 1
REMARK minimizedAffinity 3.61158323
REMARK minimizedRMSD -1
REMARK  0 active torsions:
REMARK  status: ('A' for Active; 'I' for Inactive)
ROOT
ATOM      1  C   UNL d   1      -0.555   1.264  -0.667  0.00  0.00     0.077 C 
ATOM      2  C1  UNL d   1      -1.959   1.273  -0.139  0.00  0.00    -0.074 A 
ATOM      3  C2  UNL d   1      -2.937   0.435  -0.684  0.00  0.00    -0.005 A 
ATOM      4  C3  UNL d   1      -4.236   0.447  -0.177  0.00  0.00     0.006 A 
ATOM      5  C4  UNL d   1      -4.570   1.296   0.879  0.00  0.00    -0.005 A 
ATOM      6  C5  UNL d   1      -3.605   2.141   1.437  0.00  0.00    -0.074 A 
ATOM      7  C6  UNL d   1      -3.945   3.052   2.579  0.00  0.00     0.077 C 
ATOM      8  C7  UNL d   1      -2.300   2.117   0.927  0.00  0.00    -0.001 A 
ENDROOT
TORSDOF 0
ENDMDL
