MODEL 1
REMARK minimizedAffinity -4.15723753
REMARK minimizedRMSD -1
REMARK  0 active torsions:
REMARK  status: ('A' for Active; 'I' for Inactive)
ROOT
ATOM      1  C   UNL d   1       0.718   5.618   3.447  0.00  0.00     0.077 C 
ATOM      2  C1  UNL d   1       1.827   5.131   4.331  0.00  0.00    -0.074 A 
ATOM      3  C2  UNL d   1       2.831   6.000   4.770  0.00  0.00    -0.005 A 
ATOM      4  C3  UNL d   1       3.851   5.535   5.600  0.00  0.00     0.006 A 
ATOM      5  C4  UNL d   1       3.878   4.198   5.998  0.00  0.00    -0.005 A 
ATOM      6  C5  UNL d   1       2.882   3.314   5.570  0.00  0.00    -0.074 A 
ATOM      7  C6  UNL d   1       2.891   1.876   5.997  0.00  0.00     0.077 C 
ATOM      8  C7  UNL d   1       1.857   3.791   4.742  0.00  0.00    -0.001 A 
ENDROOT
TORSDOF 0
ENDMDL
