MODEL 1
REMARK minimizedAffinity -4.63520956
REMARK minimizedRMSD -1
REMARK  0 active torsions:
REMARK  status: ('A' for Active; 'I' for Inactive)
ROOT
ATOM      1  C   UNL d   1       1.031   5.994   3.374  0.00  0.00     0.077 C 
ATOM      2  C1  UNL d   1       1.652   4.950   4.254  0.00  0.00    -0.074 A 
ATOM      3  C2  UNL d   1       0.886   4.254   5.194  0.00  0.00    -0.005 A 
ATOM      4  C3  UNL d   1       1.475   3.280   5.999  0.00  0.00     0.006 A 
ATOM      5  C4  UNL d   1       2.835   2.992   5.872  0.00  0.00    -0.005 A 
ATOM      6  C5  UNL d   1       3.617   3.677   4.937  0.00  0.00    -0.074 A 
ATOM      7  C6  UNL d   1       5.077   3.372   4.780  0.00  0.00     0.077 C 
ATOM      8  C7  UNL d   1       3.015   4.650   4.127  0.00  0.00    -0.001 A 
ENDROOT
TORSDOF 0
ENDMDL
