MODEL 1
REMARK minimizedAffinity 7.32065392
REMARK minimizedRMSD -1
REMARK  0 active torsions:
REMARK  status: ('A' for Active; 'I' for Inactive)
ROOT
ATOM      1  C   UNL d   1       1.780   0.736  -0.305  0.00  0.00     0.077 C 
ATOM      2  C1  UNL d   1       3.224   1.129  -0.408  0.00  0.00    -0.074 A 
ATOM      3  C2  UNL d   1       3.885   1.122  -1.640  0.00  0.00    -0.005 A 
ATOM      4  C3  UNL d   1       5.225   1.499  -1.722  0.00  0.00     0.006 A 
ATOM      5  C4  UNL d   1       5.918   1.885  -0.573  0.00  0.00    -0.005 A 
ATOM      6  C5  UNL d   1       5.273   1.898   0.668  0.00  0.00    -0.074 A 
ATOM      7  C6  UNL d   1       6.000   2.320   1.910  0.00  0.00     0.077 C 
ATOM      8  C7  UNL d   1       3.924   1.525   0.740  0.00  0.00    -0.001 A 
ENDROOT
TORSDOF 0
ENDMDL
