MODEL 1
REMARK minimizedAffinity 1.08068109
REMARK minimizedRMSD -1
REMARK  0 active torsions:
REMARK  status: ('A' for Active; 'I' for Inactive)
ROOT
ATOM      1  C   UNL d   1       5.465   1.590  -1.591  0.00  0.00     0.077 C 
ATOM      2  C1  UNL d   1       4.194   1.095  -0.967  0.00  0.00    -0.074 A 
ATOM      3  C2  UNL d   1       3.270   1.988  -0.415  0.00  0.00    -0.005 A 
ATOM      4  C3  UNL d   1       2.087   1.514   0.153  0.00  0.00     0.006 A 
ATOM      5  C4  UNL d   1       1.819   0.144   0.176  0.00  0.00    -0.005 A 
ATOM      6  C5  UNL d   1       2.731  -0.763  -0.371  0.00  0.00    -0.074 A 
ATOM      7  C6  UNL d   1       2.453  -2.237  -0.363  0.00  0.00     0.077 C 
ATOM      8  C7  UNL d   1       3.914  -0.278  -0.947  0.00  0.00    -0.001 A 
ENDROOT
TORSDOF 0
ENDMDL
