MODEL 1
REMARK minimizedAffinity -5.02322817
REMARK minimizedRMSD -1
REMARK  0 active torsions:
REMARK  status: ('A' for Active; 'I' for Inactive)
ROOT
ATOM      1  C   UNL d   1      -0.395   5.627   4.488  0.00  0.00     0.077 C 
ATOM      2  C1  UNL d   1       1.033   5.172   4.538  0.00  0.00    -0.074 A 
ATOM      3  C2  UNL d   1       2.067   5.999   4.088  0.00  0.00    -0.005 A 
ATOM      4  C3  UNL d   1       3.391   5.565   4.150  0.00  0.00     0.006 A 
ATOM      5  C4  UNL d   1       3.695   4.303   4.661  0.00  0.00    -0.005 A 
ATOM      6  C5  UNL d   1       2.674   3.463   5.117  0.00  0.00    -0.074 A 
ATOM      7  C6  UNL d   1       2.984   2.107   5.679  0.00  0.00     0.077 C 
ATOM      8  C7  UNL d   1       1.346   3.908   5.058  0.00  0.00    -0.001 A 
ENDROOT
TORSDOF 0
ENDMDL
