MODEL 1
REMARK minimizedAffinity 2.35407209
REMARK minimizedRMSD -1
REMARK  1 active torsions:
REMARK  status: ('A' for Active; 'I' for Inactive)
REMARK    1  A    between atoms: C1_2  and  C2_3 
ROOT
ATOM      1  C2  UNL d   1       0.444   0.302   2.555  0.00  0.00    -0.073 A 
ATOM      2  C3  UNL d   1      -0.037   1.616   2.519  0.00  0.00    -0.002 A 
ATOM      3  C4  UNL d   1      -1.294   1.921   3.042  0.00  0.00     0.004 A 
ATOM      4  C5  UNL d   1      -2.079   0.919   3.612  0.00  0.00    -0.004 A 
ATOM      5  C6  UNL d   1      -1.612  -0.398   3.668  0.00  0.00    -0.075 A 
ATOM      6  C7  UNL d   1      -2.445  -1.487   4.276  0.00  0.00     0.076 C 
ATOM      7  C8  UNL d   1      -0.349  -0.697   3.138  0.00  0.00     0.001 A 
ENDROOT
BRANCH   1   8
ATOM      8  C1  UNL d   1       1.803  -0.031   1.997  0.00  0.00     0.053 C 
ATOM      9  C   UNL d   1       1.770  -0.217   0.488  0.00  0.00     0.018 C 
ENDBRANCH   1   8
TORSDOF 1
ENDMDL
