MODEL 1
REMARK minimizedAffinity 8.06498241
REMARK minimizedRMSD -1
REMARK  1 active torsions:
REMARK  status: ('A' for Active; 'I' for Inactive)
REMARK    1  A    between atoms: C1_2  and  C2_3 
ROOT
ATOM      1  C2  UNL d   1       1.282  -1.605   4.255  0.00  0.00    -0.073 A 
ATOM      2  C3  UNL d   1       2.205  -0.581   4.015  0.00  0.00    -0.002 A 
ATOM      3  C4  UNL d   1       1.834   0.545   3.278  0.00  0.00     0.004 A 
ATOM      4  C5  UNL d   1       0.536   0.661   2.780  0.00  0.00    -0.004 A 
ATOM      5  C6  UNL d   1      -0.404  -0.346   3.019  0.00  0.00    -0.075 A 
ATOM      6  C7  UNL d   1      -1.803  -0.237   2.488  0.00  0.00     0.076 C 
ATOM      7  C8  UNL d   1      -0.023  -1.474   3.758  0.00  0.00     0.001 A 
ENDROOT
BRANCH   1   8
ATOM      8  C1  UNL d   1       1.676  -2.819   5.056  0.00  0.00     0.053 C 
ATOM      9  C   UNL d   1       3.115  -2.740   5.539  0.00  0.00     0.018 C 
ENDBRANCH   1   8
TORSDOF 1
ENDMDL
