MODEL 1
REMARK minimizedAffinity 11.1058979
REMARK minimizedRMSD -1
REMARK  1 active torsions:
REMARK  status: ('A' for Active; 'I' for Inactive)
REMARK    1  A    between atoms: C1_2  and  C2_3 
ROOT
ATOM      1  C2  UNL d   1       1.860  -1.258   4.755  0.00  0.00    -0.073 A 
ATOM      2  C3  UNL d   1       2.096   0.111   4.926  0.00  0.00    -0.002 A 
ATOM      3  C4  UNL d   1       1.447   1.044   4.117  0.00  0.00     0.004 A 
ATOM      4  C5  UNL d   1       0.553   0.620   3.134  0.00  0.00    -0.004 A 
ATOM      5  C6  UNL d   1       0.296  -0.742   2.955  0.00  0.00    -0.075 A 
ATOM      6  C7  UNL d   1      -0.661  -1.215   1.900  0.00  0.00     0.076 C 
ATOM      7  C8  UNL d   1       0.953  -1.674   3.770  0.00  0.00     0.001 A 
ENDROOT
BRANCH   1   8
ATOM      8  C1  UNL d   1       2.553  -2.270   5.631  0.00  0.00     0.053 C 
ATOM      9  C   UNL d   1       3.963  -1.834   5.999  0.00  0.00     0.018 C 
ENDBRANCH   1   8
TORSDOF 1
ENDMDL
