MODEL 1
REMARK minimizedAffinity 8.18465519
REMARK minimizedRMSD -1
REMARK  1 active torsions:
REMARK  status: ('A' for Active; 'I' for Inactive)
REMARK    1  A    between atoms: C1_2  and  C2_3 
ROOT
ATOM      1  C2  UNL d   1       1.230   0.095   1.937  0.00  0.00    -0.073 A 
ATOM      2  C3  UNL d   1       1.454   1.367   2.475  0.00  0.00    -0.002 A 
ATOM      3  C4  UNL d   1       0.499   1.961   3.302  0.00  0.00     0.004 A 
ATOM      4  C5  UNL d   1      -0.684   1.287   3.605  0.00  0.00    -0.004 A 
ATOM      5  C6  UNL d   1      -0.921   0.010   3.086  0.00  0.00    -0.075 A 
ATOM      6  C7  UNL d   1      -2.189  -0.727   3.400  0.00  0.00     0.076 C 
ATOM      7  C8  UNL d   1       0.042  -0.578   2.254  0.00  0.00     0.001 A 
ENDROOT
BRANCH   1   8
ATOM      8  C1  UNL d   1       2.261  -0.552   1.049  0.00  0.00     0.053 C 
ATOM      9  C   UNL d   1       2.085  -0.159  -0.409  0.00  0.00     0.018 C 
ENDBRANCH   1   8
TORSDOF 1
ENDMDL
