MODEL 1
REMARK minimizedAffinity 4.30179262
REMARK minimizedRMSD -1
REMARK  1 active torsions:
REMARK  status: ('A' for Active; 'I' for Inactive)
REMARK    1  A    between atoms: C1_2  and  C2_3 
ROOT
ATOM      1  C2  UNL d   1      -0.268  -2.610  -4.190  0.00  0.00    -0.073 A 
ATOM      2  C3  UNL d   1       0.028  -3.969  -4.346  0.00  0.00    -0.002 A 
ATOM      3  C4  UNL d   1      -0.220  -4.868  -3.308  0.00  0.00     0.004 A 
ATOM      4  C5  UNL d   1      -0.771  -4.420  -2.108  0.00  0.00    -0.004 A 
ATOM      5  C6  UNL d   1      -1.084  -3.068  -1.937  0.00  0.00    -0.075 A 
ATOM      6  C7  UNL d   1      -1.675  -2.570  -0.651  0.00  0.00     0.076 C 
ATOM      7  C8  UNL d   1      -0.830  -2.171  -2.983  0.00  0.00     0.001 A 
ENDROOT
BRANCH   1   8
ATOM      8  C1  UNL d   1      -0.009  -1.637  -5.311  0.00  0.00     0.053 C 
ATOM      9  C   UNL d   1       1.322  -1.900  -5.998  0.00  0.00     0.018 C 
ENDBRANCH   1   8
TORSDOF 1
ENDMDL
