MODEL 1
REMARK minimizedAffinity 12.7164011
REMARK minimizedRMSD -1
REMARK  1 active torsions:
REMARK  status: ('A' for Active; 'I' for Inactive)
REMARK    1  A    between atoms: C1_2  and  C2_3 
ROOT
ATOM      1  C2  UNL d   1       3.615   0.514   3.673  0.00  0.00    -0.073 A 
ATOM      2  C3  UNL d   1       4.892   0.790   4.173  0.00  0.00    -0.002 A 
ATOM      3  C4  UNL d   1       5.055   1.676   5.238  0.00  0.00     0.004 A 
ATOM      4  C5  UNL d   1       3.945   2.289   5.819  0.00  0.00    -0.004 A 
ATOM      5  C6  UNL d   1       2.659   2.016   5.341  0.00  0.00    -0.075 A 
ATOM      6  C7  UNL d   1       1.454   2.668   5.952  0.00  0.00     0.076 C 
ATOM      7  C8  UNL d   1       2.503   1.127   4.268  0.00  0.00     0.001 A 
ENDROOT
BRANCH   1   8
ATOM      8  C1  UNL d   1       3.433  -0.447   2.526  0.00  0.00     0.053 C 
ATOM      9  C   UNL d   1       2.210  -0.110   1.688  0.00  0.00     0.018 C 
ENDBRANCH   1   8
TORSDOF 1
ENDMDL
