MODEL 1
REMARK minimizedAffinity 16.2006721
REMARK minimizedRMSD -1
REMARK  1 active torsions:
REMARK  status: ('A' for Active; 'I' for Inactive)
REMARK    1  A    between atoms: C1_2  and  C2_3 
ROOT
ATOM      1  C2  UNL d   1       0.478  -0.626   1.358  0.00  0.00    -0.073 A 
ATOM      2  C3  UNL d   1       0.596  -0.683  -0.035  0.00  0.00    -0.002 A 
ATOM      3  C4  UNL d   1       1.854  -0.784  -0.633  0.00  0.00     0.004 A 
ATOM      4  C5  UNL d   1       3.003  -0.836   0.155  0.00  0.00    -0.004 A 
ATOM      5  C6  UNL d   1       2.905  -0.792   1.550  0.00  0.00    -0.075 A 
ATOM      6  C7  UNL d   1       4.132  -0.844   2.412  0.00  0.00     0.076 C 
ATOM      7  C8  UNL d   1       1.639  -0.688   2.142  0.00  0.00     0.001 A 
ENDROOT
BRANCH   1   8
ATOM      8  C1  UNL d   1      -0.877  -0.523   2.008  0.00  0.00     0.053 C 
ATOM      9  C   UNL d   1      -1.894  -1.446   1.355  0.00  0.00     0.018 C 
ENDBRANCH   1   8
TORSDOF 1
ENDMDL
