MODEL 1
REMARK minimizedAffinity -5.66139174
REMARK minimizedRMSD -1
REMARK  2 active torsions:
REMARK  status: ('A' for Active; 'I' for Inactive)
REMARK    1  A    between atoms: C1_2  and  C2_3 
REMARK    2  A    between atoms: C2_3  and  C3_4 
ROOT
ATOM      1  C3  UNL d   1      -0.083   0.161   0.297  0.00  0.00    -0.075 A 
ATOM      2  C4  UNL d   1       0.967   0.217   1.225  0.00  0.00     0.002 A 
ATOM      3  C5  UNL d   1       0.771  -0.205   2.541  0.00  0.00     0.002 A 
ATOM      4  C6  UNL d   1      -0.475  -0.676   2.947  0.00  0.00    -0.004 A 
ATOM      5  C7  UNL d   1      -1.529  -0.720   2.037  0.00  0.00     0.002 A 
ATOM      6  C8  UNL d   1      -1.335  -0.304   0.719  0.00  0.00     0.002 A 
ENDROOT
BRANCH   1   7
ATOM      7  C2  UNL d   1       0.130   0.588  -1.136  0.00  0.00     0.056 C 
BRANCH   7   8
ATOM      8  C1  UNL d   1       0.445  -0.568  -2.091  0.00  0.00     0.007 C 
ATOM      9  C   UNL d   1       1.592  -0.264  -3.046  0.00  0.00     0.009 C 
ENDBRANCH   7   8
ENDBRANCH   1   7
TORSDOF 2
ENDMDL
