MODEL 1
REMARK minimizedAffinity -5.83767271
REMARK minimizedRMSD -1
REMARK  2 active torsions:
REMARK  status: ('A' for Active; 'I' for Inactive)
REMARK    1  A    between atoms: C1_2  and  C2_3 
REMARK    2  A    between atoms: C2_3  and  C3_4 
ROOT
ATOM      1  C3  UNL d   1       0.215   0.177  -0.324  0.00  0.00    -0.075 A 
ATOM      2  C4  UNL d   1       0.901   0.536   0.845  0.00  0.00     0.002 A 
ATOM      3  C5  UNL d   1       0.364   0.246   2.100  0.00  0.00     0.002 A 
ATOM      4  C6  UNL d   1      -0.868  -0.396   2.202  0.00  0.00    -0.004 A 
ATOM      5  C7  UNL d   1      -1.566  -0.743   1.048  0.00  0.00     0.002 A 
ATOM      6  C8  UNL d   1      -1.030  -0.457  -0.209  0.00  0.00     0.002 A 
ENDROOT
BRANCH   1   7
ATOM      7  C2  UNL d   1       0.804   0.462  -1.684  0.00  0.00     0.056 C 
BRANCH   7   8
ATOM      8  C1  UNL d   1       0.746  -0.726  -2.650  0.00  0.00     0.007 C 
ATOM      9  C   UNL d   1       1.851  -0.702  -3.698  0.00  0.00     0.009 C 
ENDBRANCH   7   8
ENDBRANCH   1   7
TORSDOF 2
ENDMDL
