MODEL 1
REMARK minimizedAffinity -6.07178259
REMARK minimizedRMSD -1
REMARK  2 active torsions:
REMARK  status: ('A' for Active; 'I' for Inactive)
REMARK    1  A    between atoms: C1_2  and  C2_3 
REMARK    2  A    between atoms: C2_3  and  C3_4 
ROOT
ATOM      1  C3  UNL d   1      -0.150   0.125   0.284  0.00  0.00    -0.075 A 
ATOM      2  C4  UNL d   1       1.058   0.172   0.996  0.00  0.00     0.002 A 
ATOM      3  C5  UNL d   1       1.097  -0.170   2.348  0.00  0.00     0.002 A 
ATOM      4  C6  UNL d   1      -0.070  -0.553   3.007  0.00  0.00    -0.004 A 
ATOM      5  C7  UNL d   1      -1.278  -0.587   2.314  0.00  0.00     0.002 A 
ATOM      6  C8  UNL d   1      -1.319  -0.250   0.960  0.00  0.00     0.002 A 
ENDROOT
BRANCH   1   7
ATOM      7  C2  UNL d   1      -0.194   0.465  -1.187  0.00  0.00     0.056 C 
BRANCH   7   8
ATOM      8  C1  UNL d   1       0.972  -0.114  -1.996  0.00  0.00     0.007 C 
ATOM      9  C   UNL d   1       0.538  -1.176  -2.997  0.00  0.00     0.009 C 
ENDBRANCH   7   8
ENDBRANCH   1   7
TORSDOF 2
ENDMDL
