MODEL 1
REMARK minimizedAffinity -6.03939104
REMARK minimizedRMSD -1
REMARK  2 active torsions:
REMARK  status: ('A' for Active; 'I' for Inactive)
REMARK    1  A    between atoms: C1_2  and  C2_3 
REMARK    2  A    between atoms: C2_3  and  C3_4 
ROOT
ATOM      1  C3  UNL d   1      -0.227  -0.092   0.892  0.00  0.00    -0.075 A 
ATOM      2  C4  UNL d   1      -1.586  -0.244   0.584  0.00  0.00     0.002 A 
ATOM      3  C5  UNL d   1      -2.562  -0.021   1.555  0.00  0.00     0.002 A 
ATOM      4  C6  UNL d   1      -2.193   0.347   2.847  0.00  0.00    -0.004 A 
ATOM      5  C7  UNL d   1      -0.844   0.486   3.169  0.00  0.00     0.002 A 
ATOM      6  C8  UNL d   1       0.134   0.267   2.198  0.00  0.00     0.002 A 
ENDROOT
BRANCH   1   7
ATOM      7  C2  UNL d   1       0.833  -0.303  -0.162  0.00  0.00     0.056 C 
BRANCH   7   8
ATOM      8  C1  UNL d   1       0.387   0.072  -1.579  0.00  0.00     0.007 C 
ATOM      9  C   UNL d   1       1.485  -0.100  -2.620  0.00  0.00     0.009 C 
ENDBRANCH   7   8
ENDBRANCH   1   7
TORSDOF 2
ENDMDL
