MODEL 1
REMARK minimizedAffinity -5.24946022
REMARK minimizedRMSD -1
REMARK  2 active torsions:
REMARK  status: ('A' for Active; 'I' for Inactive)
REMARK    1  A    between atoms: C1_2  and  C2_3 
REMARK    2  A    between atoms: C2_3  and  C3_4 
ROOT
ATOM      1  C3  UNL d   1      -0.829  -0.328   1.656  0.00  0.00    -0.075 A 
ATOM      2  C4  UNL d   1      -1.237   0.074   0.376  0.00  0.00     0.002 A 
ATOM      3  C5  UNL d   1      -2.468   0.704   0.190  0.00  0.00     0.002 A 
ATOM      4  C6  UNL d   1      -3.309   0.931   1.277  0.00  0.00    -0.004 A 
ATOM      5  C7  UNL d   1      -2.921   0.521   2.550  0.00  0.00     0.002 A 
ATOM      6  C8  UNL d   1      -1.689  -0.106   2.740  0.00  0.00     0.002 A 
ENDROOT
BRANCH   1   7
ATOM      7  C2  UNL d   1       0.514  -0.984   1.868  0.00  0.00     0.056 C 
BRANCH   7   8
ATOM      8  C1  UNL d   1       1.529  -0.700   0.756  0.00  0.00     0.007 C 
ATOM      9  C   UNL d   1       2.415   0.505   1.044  0.00  0.00     0.009 C 
ENDBRANCH   7   8
ENDBRANCH   1   7
TORSDOF 2
ENDMDL
