MODEL 1
REMARK minimizedAffinity -5.52033997
REMARK minimizedRMSD -1
REMARK  2 active torsions:
REMARK  status: ('A' for Active; 'I' for Inactive)
REMARK    1  A    between atoms: C1_2  and  C2_3 
REMARK    2  A    between atoms: C2_3  and  C3_4 
ROOT
ATOM      1  C3  UNL d   1       0.029  -0.041   0.255  0.00  0.00    -0.075 A 
ATOM      2  C4  UNL d   1       0.880  -0.661   1.181  0.00  0.00     0.002 A 
ATOM      3  C5  UNL d   1       0.479  -0.834   2.506  0.00  0.00     0.002 A 
ATOM      4  C6  UNL d   1      -0.770  -0.380   2.924  0.00  0.00    -0.004 A 
ATOM      5  C7  UNL d   1      -1.617   0.252   2.016  0.00  0.00     0.002 A 
ATOM      6  C8  UNL d   1      -1.220   0.422   0.688  0.00  0.00     0.002 A 
ENDROOT
BRANCH   1   7
ATOM      7  C2  UNL d   1       0.445   0.121  -1.188  0.00  0.00     0.056 C 
BRANCH   7   8
ATOM      8  C1  UNL d   1       0.720  -1.201  -1.911  0.00  0.00     0.007 C 
ATOM      9  C   UNL d   1       1.204  -1.014  -3.342  0.00  0.00     0.009 C 
ENDBRANCH   7   8
ENDBRANCH   1   7
TORSDOF 2
ENDMDL
