MODEL 1
REMARK minimizedAffinity -2.53222466
REMARK minimizedRMSD -1
REMARK  2 active torsions:
REMARK  status: ('A' for Active; 'I' for Inactive)
REMARK    1  A    between atoms: C1_2  and  C2_3 
REMARK    2  A    between atoms: C2_3  and  C3_4 
ROOT
ATOM      1  C3  UNL d   1      -0.766  -0.665   1.163  0.00  0.00    -0.075 A 
ATOM      2  C4  UNL d   1      -2.014  -0.388   0.586  0.00  0.00     0.002 A 
ATOM      3  C5  UNL d   1      -2.100   0.356  -0.591  0.00  0.00     0.002 A 
ATOM      4  C6  UNL d   1      -0.944   0.838  -1.200  0.00  0.00    -0.004 A 
ATOM      5  C7  UNL d   1       0.300   0.583  -0.627  0.00  0.00     0.002 A 
ATOM      6  C8  UNL d   1       0.390  -0.164   0.549  0.00  0.00     0.002 A 
ENDROOT
BRANCH   1   7
ATOM      7  C2  UNL d   1      -0.663  -1.494   2.421  0.00  0.00     0.056 C 
BRANCH   7   8
ATOM      8  C1  UNL d   1      -0.767  -0.679   3.715  0.00  0.00     0.007 C 
ATOM      9  C   UNL d   1      -0.160   0.712   3.598  0.00  0.00     0.009 C 
ENDBRANCH   7   8
ENDBRANCH   1   7
TORSDOF 2
ENDMDL
