MODEL 1
REMARK minimizedAffinity -2.29012275
REMARK minimizedRMSD -1
REMARK  2 active torsions:
REMARK  status: ('A' for Active; 'I' for Inactive)
REMARK    1  A    between atoms: C1_2  and  C2_3 
REMARK    2  A    between atoms: C2_3  and  C3_4 
ROOT
ATOM      1  C3  UNL d   1      -0.260   0.068   0.257  0.00  0.00    -0.075 A 
ATOM      2  C4  UNL d   1      -0.994  -1.077   0.599  0.00  0.00     0.002 A 
ATOM      3  C5  UNL d   1      -1.335  -1.328   1.928  0.00  0.00     0.002 A 
ATOM      4  C6  UNL d   1      -0.939  -0.446   2.931  0.00  0.00    -0.004 A 
ATOM      5  C7  UNL d   1      -0.196   0.686   2.605  0.00  0.00     0.002 A 
ATOM      6  C8  UNL d   1       0.143   0.943   1.275  0.00  0.00     0.002 A 
ENDROOT
BRANCH   1   7
ATOM      7  C2  UNL d   1       0.087   0.362  -1.183  0.00  0.00     0.056 C 
BRANCH   7   8
ATOM      8  C1  UNL d   1       0.992  -0.690  -1.833  0.00  0.00     0.007 C 
ATOM      9  C   UNL d   1       0.576  -1.044  -3.255  0.00  0.00     0.009 C 
ENDBRANCH   7   8
ENDBRANCH   1   7
TORSDOF 2
ENDMDL
