MODEL 1
REMARK minimizedAffinity 0.973380506
REMARK minimizedRMSD -1
REMARK  0 active torsions:
REMARK  status: ('A' for Active; 'I' for Inactive)
ROOT
ATOM      1  C1  BNZ d   1       1.748   1.773   0.919  0.00  0.00     0.000 A 
ATOM      2  C2  BNZ d   1       3.026   1.893   1.396  0.00  0.00     0.000 A 
ATOM      3  C3  BNZ d   1       3.651   3.108   1.427  0.00  0.00     0.000 A 
ATOM      4  C4  BNZ d   1       3.013   4.194   0.943  0.00  0.00     0.000 A 
ATOM      5  C5  BNZ d   1       1.728   4.088   0.450  0.00  0.00     0.000 A 
ATOM      6  C6  BNZ d   1       1.088   2.870   0.457  0.00  0.00     0.000 A 
ENDROOT
TORSDOF 0
ENDMDL
