MODEL 1
REMARK minimizedAffinity -0.842986345
REMARK minimizedRMSD -1
REMARK  0 active torsions:
REMARK  status: ('A' for Active; 'I' for Inactive)
ROOT
ATOM      1  C1  BNZ d   1      -1.477   3.753  -5.232  0.00  0.00     0.000 A 
ATOM      2  C2  BNZ d   1      -2.552   4.113  -6.000  0.00  0.00     0.000 A 
ATOM      3  C3  BNZ d   1      -3.697   3.367  -5.994  0.00  0.00     0.000 A 
ATOM      4  C4  BNZ d   1      -3.753   2.242  -5.252  0.00  0.00     0.000 A 
ATOM      5  C5  BNZ d   1      -2.674   1.861  -4.479  0.00  0.00     0.000 A 
ATOM      6  C6  BNZ d   1      -1.536   2.635  -4.458  0.00  0.00     0.000 A 
ENDROOT
TORSDOF 0
ENDMDL
