MODEL 1
REMARK minimizedAffinity 1.41244662
REMARK minimizedRMSD -1
REMARK  0 active torsions:
REMARK  status: ('A' for Active; 'I' for Inactive)
ROOT
ATOM      1  C1  BNZ d   1       4.163  -5.194  -5.998  0.00  0.00     0.000 A 
ATOM      2  C2  BNZ d   1       4.760  -4.823  -4.823  0.00  0.00     0.000 A 
ATOM      3  C3  BNZ d   1       4.148  -5.059  -3.623  0.00  0.00     0.000 A 
ATOM      4  C4  BNZ d   1       2.926  -5.628  -3.602  0.00  0.00     0.000 A 
ATOM      5  C5  BNZ d   1       2.308  -5.999  -4.780  0.00  0.00     0.000 A 
ATOM      6  C6  BNZ d   1       2.943  -5.796  -5.983  0.00  0.00     0.000 A 
ENDROOT
TORSDOF 0
ENDMDL
