MODEL 1
REMARK minimizedAffinity -2.81084967
REMARK minimizedRMSD -1
REMARK  0 active torsions:
REMARK  status: ('A' for Active; 'I' for Inactive)
ROOT
ATOM      1  C1  BNZ d   1       2.861  -5.418  -3.724  0.00  0.00     0.000 A 
ATOM      2  C2  BNZ d   1       4.118  -4.876  -3.738  0.00  0.00     0.000 A 
ATOM      3  C3  BNZ d   1       4.866  -4.870  -4.883  0.00  0.00     0.000 A 
ATOM      4  C4  BNZ d   1       4.372  -5.441  -6.000  0.00  0.00     0.000 A 
ATOM      5  C5  BNZ d   1       3.109  -6.000  -6.000  0.00  0.00     0.000 A 
ATOM      6  C6  BNZ d   1       2.345  -5.969  -4.856  0.00  0.00     0.000 A 
ENDROOT
TORSDOF 0
ENDMDL
