MODEL 1
REMARK minimizedAffinity -3.6389854
REMARK minimizedRMSD -1
REMARK  0 active torsions:
REMARK  status: ('A' for Active; 'I' for Inactive)
ROOT
ATOM      1  C1  BNZ d   1       3.750  -5.637  -5.770  0.00  0.00     0.000 A 
ATOM      2  C2  BNZ d   1       3.310  -5.252  -4.532  0.00  0.00     0.000 A 
ATOM      3  C3  BNZ d   1       4.165  -5.215  -3.466  0.00  0.00     0.000 A 
ATOM      4  C4  BNZ d   1       5.447  -5.600  -3.630  0.00  0.00     0.000 A 
ATOM      5  C5  BNZ d   1       5.903  -6.000  -4.870  0.00  0.00     0.000 A 
ATOM      6  C6  BNZ d   1       5.050  -5.999  -5.950  0.00  0.00     0.000 A 
ENDROOT
TORSDOF 0
ENDMDL
