MODEL 1
REMARK minimizedAffinity -2.02474523
REMARK minimizedRMSD -1
REMARK  0 active torsions:
REMARK  status: ('A' for Active; 'I' for Inactive)
ROOT
ATOM      1  C1  BNZ d   1       3.525  -5.924  -3.519  0.00  0.00     0.000 A 
ATOM      2  C2  BNZ d   1       2.758  -5.977  -4.653  0.00  0.00     0.000 A 
ATOM      3  C3  BNZ d   1       3.338  -6.000  -5.890  0.00  0.00     0.000 A 
ATOM      4  C4  BNZ d   1       4.681  -5.929  -5.994  0.00  0.00     0.000 A 
ATOM      5  C5  BNZ d   1       5.468  -5.866  -4.861  0.00  0.00     0.000 A 
ATOM      6  C6  BNZ d   1       4.881  -5.883  -3.616  0.00  0.00     0.000 A 
ENDROOT
TORSDOF 0
ENDMDL
