MODEL 1
REMARK minimizedAffinity -3.05127358
REMARK minimizedRMSD -1
REMARK  0 active torsions:
REMARK  status: ('A' for Active; 'I' for Inactive)
ROOT
ATOM      1  C1  BNZ d   1       3.363  -5.980  -4.827  0.00  0.00     0.000 A 
ATOM      2  C2  BNZ d   1       3.987  -5.637  -3.657  0.00  0.00     0.000 A 
ATOM      3  C3  BNZ d   1       5.300  -5.258  -3.649  0.00  0.00     0.000 A 
ATOM      4  C4  BNZ d   1       5.998  -5.261  -4.803  0.00  0.00     0.000 A 
ATOM      5  C5  BNZ d   1       5.386  -5.613  -5.990  0.00  0.00     0.000 A 
ATOM      6  C6  BNZ d   1       4.054  -5.957  -6.000  0.00  0.00     0.000 A 
ENDROOT
TORSDOF 0
ENDMDL
