MODEL 1
REMARK minimizedAffinity 0.0947673768
REMARK minimizedRMSD -1
REMARK  0 active torsions:
REMARK  status: ('A' for Active; 'I' for Inactive)
ROOT
ATOM      1  C1  BNZ d   1       6.000   4.862   3.695  0.00  0.00     0.000 A 
ATOM      2  C2  BNZ d   1       6.000   4.234   2.478  0.00  0.00     0.000 A 
ATOM      3  C3  BNZ d   1       4.890   4.254   1.680  0.00  0.00     0.000 A 
ATOM      4  C4  BNZ d   1       3.771   4.868   2.116  0.00  0.00     0.000 A 
ATOM      5  C5  BNZ d   1       3.753   5.498   3.345  0.00  0.00     0.000 A 
ATOM      6  C6  BNZ d   1       4.883   5.509   4.128  0.00  0.00     0.000 A 
ENDROOT
TORSDOF 0
ENDMDL
