MODEL 1
REMARK minimizedAffinity -3.34995031
REMARK minimizedRMSD -1
REMARK  0 active torsions:
REMARK  status: ('A' for Active; 'I' for Inactive)
ROOT
ATOM      1  C1  BNZ d   1       5.946  -5.644  -3.895  0.00  0.00     0.000 A 
ATOM      2  C2  BNZ d   1       5.991  -5.830  -5.251  0.00  0.00     0.000 A 
ATOM      3  C3  BNZ d   1       4.847  -5.813  -5.998  0.00  0.00     0.000 A 
ATOM      4  C4  BNZ d   1       3.657  -5.651  -5.385  0.00  0.00     0.000 A 
ATOM      5  C5  BNZ d   1       3.594  -5.472  -4.018  0.00  0.00     0.000 A 
ATOM      6  C6  BNZ d   1       4.751  -5.451  -3.273  0.00  0.00     0.000 A 
ENDROOT
TORSDOF 0
ENDMDL
