MODEL 1
REMARK minimizedAffinity -3.29850864
REMARK minimizedRMSD -1
REMARK  0 active torsions:
REMARK  status: ('A' for Active; 'I' for Inactive)
ROOT
ATOM      1  C1  BNZ d   1       3.229  -5.870  -4.875  0.00  0.00     0.000 A 
ATOM      2  C2  BNZ d   1       3.744  -5.248  -3.769  0.00  0.00     0.000 A 
ATOM      3  C3  BNZ d   1       5.013  -4.741  -3.778  0.00  0.00     0.000 A 
ATOM      4  C4  BNZ d   1       5.779  -4.891  -4.878  0.00  0.00     0.000 A 
ATOM      5  C5  BNZ d   1       5.278  -5.524  -5.998  0.00  0.00     0.000 A 
ATOM      6  C6  BNZ d   1       3.986  -5.999  -5.998  0.00  0.00     0.000 A 
ENDROOT
TORSDOF 0
ENDMDL
