MODEL 1
REMARK minimizedAffinity -1.76272941
REMARK minimizedRMSD -1
REMARK  0 active torsions:
REMARK  status: ('A' for Active; 'I' for Inactive)
ROOT
ATOM      1  C1  BNZ d   1       4.914  -4.327  -4.835  0.00  0.00     0.000 A 
ATOM      2  C2  BNZ d   1       4.252  -4.614  -5.999  0.00  0.00     0.000 A 
ATOM      3  C3  BNZ d   1       3.157  -5.432  -5.998  0.00  0.00     0.000 A 
ATOM      4  C4  BNZ d   1       2.749  -5.993  -4.841  0.00  0.00     0.000 A 
ATOM      5  C5  BNZ d   1       3.411  -5.720  -3.661  0.00  0.00     0.000 A 
ATOM      6  C6  BNZ d   1       4.489  -4.865  -3.659  0.00  0.00     0.000 A 
ENDROOT
TORSDOF 0
ENDMDL
