MODEL 1
REMARK minimizedAffinity -0.958519697
REMARK minimizedRMSD -1
REMARK  0 active torsions:
REMARK  status: ('A' for Active; 'I' for Inactive)
ROOT
ATOM      1  C1  BNZ d   1       4.552  -5.293  -5.970  0.00  0.00     0.000 A 
ATOM      2  C2  BNZ d   1       5.142  -4.980  -4.775  0.00  0.00     0.000 A 
ATOM      3  C3  BNZ d   1       4.489  -5.196  -3.594  0.00  0.00     0.000 A 
ATOM      4  C4  BNZ d   1       3.233  -5.687  -3.611  0.00  0.00     0.000 A 
ATOM      5  C5  BNZ d   1       2.620  -5.999  -4.809  0.00  0.00     0.000 A 
ATOM      6  C6  BNZ d   1       3.296  -5.816  -5.994  0.00  0.00     0.000 A 
ENDROOT
TORSDOF 0
ENDMDL
