MODEL 1
REMARK minimizedAffinity -3.77289248
REMARK minimizedRMSD -1
REMARK  0 active torsions:
REMARK  status: ('A' for Active; 'I' for Inactive)
ROOT
ATOM      1  C1  BNZ d   1       2.994  -5.991  -4.682  0.00  0.00     0.000 A 
ATOM      2  C2  BNZ d   1       3.752  -5.780  -3.561  0.00  0.00     0.000 A 
ATOM      3  C3  BNZ d   1       4.973  -5.171  -3.647  0.00  0.00     0.000 A 
ATOM      4  C4  BNZ d   1       5.451  -4.812  -4.856  0.00  0.00     0.000 A 
ATOM      5  C5  BNZ d   1       4.703  -5.027  -5.996  0.00  0.00     0.000 A 
ATOM      6  C6  BNZ d   1       3.457  -5.604  -5.901  0.00  0.00     0.000 A 
ENDROOT
TORSDOF 0
ENDMDL
