MODEL 1
REMARK minimizedAffinity -3.31249428
REMARK minimizedRMSD -1
REMARK  0 active torsions:
REMARK  status: ('A' for Active; 'I' for Inactive)
ROOT
ATOM      1  C1  BNZ d   1       3.393  -5.625  -5.012  0.00  0.00     0.000 A 
ATOM      2  C2  BNZ d   1       3.722  -5.252  -3.736  0.00  0.00     0.000 A 
ATOM      3  C3  BNZ d   1       5.025  -5.042  -3.382  0.00  0.00     0.000 A 
ATOM      4  C4  BNZ d   1       6.000  -5.243  -4.292  0.00  0.00     0.000 A 
ATOM      5  C5  BNZ d   1       5.685  -5.628  -5.580  0.00  0.00     0.000 A 
ATOM      6  C6  BNZ d   1       4.370  -5.801  -5.943  0.00  0.00     0.000 A 
ENDROOT
TORSDOF 0
ENDMDL
