MODEL 1
REMARK minimizedAffinity -1.89069188
REMARK minimizedRMSD -1
REMARK  0 active torsions:
REMARK  status: ('A' for Active; 'I' for Inactive)
ROOT
ATOM      1  C   UNL d   1       2.777  -1.395  -0.048  0.00  0.00     0.172 C 
ATOM      2  N   UNL d   1       1.575  -0.595  -0.047  0.00  0.00    -0.070 N 
ATOM      3  C1  UNL d   1       0.295  -1.078  -0.113  0.00  0.00    -0.004 A 
ATOM      4  C2  UNL d   1      -0.564  -0.000  -0.086  0.00  0.00    -0.047 A 
ATOM      5  C3  UNL d   1       0.226   1.170  -0.000  0.00  0.00    -0.047 A 
ATOM      6  C4  UNL d   1       1.547   0.773   0.022  0.00  0.00    -0.004 A 
ENDROOT
TORSDOF 0
ENDMDL
