MODEL 1
REMARK minimizedAffinity -3.10050464
REMARK minimizedRMSD -1
REMARK  0 active torsions:
REMARK  status: ('A' for Active; 'I' for Inactive)
ROOT
ATOM      1  C   UNL d   1       0.171  -0.745  -0.029  0.00  0.00     0.172 C 
ATOM      2  N   UNL d   1      -0.973   0.134   0.022  0.00  0.00    -0.070 N 
ATOM      3  C1  UNL d   1      -1.866   0.223   1.057  0.00  0.00    -0.004 A 
ATOM      4  C2  UNL d   1      -2.807   1.174   0.722  0.00  0.00    -0.047 A 
ATOM      5  C3  UNL d   1      -2.468   1.673  -0.558  0.00  0.00    -0.047 A 
ATOM      6  C4  UNL d   1      -1.329   1.012  -0.968  0.00  0.00    -0.004 A 
ENDROOT
TORSDOF 0
ENDMDL
