MODEL 1
REMARK minimizedAffinity -1.4994638
REMARK minimizedRMSD -1
REMARK  0 active torsions:
REMARK  status: ('A' for Active; 'I' for Inactive)
ROOT
ATOM      1  C   UNL d   1       2.562  -0.859   0.055  0.00  0.00     0.172 C 
ATOM      2  N   UNL d   1       1.177  -0.649  -0.296  0.00  0.00    -0.070 N 
ATOM      3  C1  UNL d   1       0.263   0.049   0.446  0.00  0.00    -0.004 A 
ATOM      4  C2  UNL d   1      -0.939   0.019  -0.227  0.00  0.00    -0.047 A 
ATOM      5  C3  UNL d   1      -0.740  -0.724  -1.415  0.00  0.00    -0.047 A 
ATOM      6  C4  UNL d   1       0.579  -1.126  -1.432  0.00  0.00    -0.004 A 
ENDROOT
TORSDOF 0
ENDMDL
