MODEL 1
REMARK minimizedAffinity -1.64397824
REMARK minimizedRMSD -1
REMARK  0 active torsions:
REMARK  status: ('A' for Active; 'I' for Inactive)
ROOT
ATOM      1  C   UNL d   1      -0.627   0.359  -0.386  0.00  0.00     0.172 C 
ATOM      2  N   UNL d   1      -1.872   0.634   0.291  0.00  0.00    -0.070 N 
ATOM      3  C1  UNL d   1      -3.088   0.811  -0.314  0.00  0.00    -0.004 A 
ATOM      4  C2  UNL d   1      -4.020   1.051   0.673  0.00  0.00    -0.047 A 
ATOM      5  C3  UNL d   1      -3.340   1.018   1.914  0.00  0.00    -0.047 A 
ATOM      6  C4  UNL d   1      -2.012   0.758   1.648  0.00  0.00    -0.004 A 
ENDROOT
TORSDOF 0
ENDMDL
