MODEL 1
REMARK minimizedAffinity -1.93264282
REMARK minimizedRMSD -1
REMARK  0 active torsions:
REMARK  status: ('A' for Active; 'I' for Inactive)
ROOT
ATOM      1  C   UNL d   1      -1.167   1.003  -0.643  0.00  0.00     0.172 C 
ATOM      2  N   UNL d   1      -2.420   0.786   0.042  0.00  0.00    -0.070 N 
ATOM      3  C1  UNL d   1      -2.800   1.375   1.218  0.00  0.00    -0.004 A 
ATOM      4  C2  UNL d   1      -4.057   0.909   1.537  0.00  0.00    -0.047 A 
ATOM      5  C3  UNL d   1      -4.446   0.007   0.518  0.00  0.00    -0.047 A 
ATOM      6  C4  UNL d   1      -3.414  -0.050  -0.395  0.00  0.00    -0.004 A 
ENDROOT
TORSDOF 0
ENDMDL
