MODEL 1
REMARK minimizedAffinity -2.45199251
REMARK minimizedRMSD -1
REMARK  0 active torsions:
REMARK  status: ('A' for Active; 'I' for Inactive)
ROOT
ATOM      1  C   UNL d   1      -0.747   0.471  -0.125  0.00  0.00     0.172 C 
ATOM      2  N   UNL d   1       0.482  -0.287  -0.174  0.00  0.00    -0.070 N 
ATOM      3  C1  UNL d   1       1.736   0.236  -0.343  0.00  0.00    -0.004 A 
ATOM      4  C2  UNL d   1       2.634  -0.810  -0.333  0.00  0.00    -0.047 A 
ATOM      5  C3  UNL d   1       1.894  -2.002  -0.153  0.00  0.00    -0.047 A 
ATOM      6  C4  UNL d   1       0.564  -1.650  -0.058  0.00  0.00    -0.004 A 
ENDROOT
TORSDOF 0
ENDMDL
