MODEL 1
REMARK minimizedAffinity -0.983648062
REMARK minimizedRMSD -1
REMARK  0 active torsions:
REMARK  status: ('A' for Active; 'I' for Inactive)
ROOT
ATOM      1  C   UNL d   1      -0.760   0.683  -0.380  0.00  0.00     0.172 C 
ATOM      2  N   UNL d   1       0.086  -0.487  -0.426  0.00  0.00    -0.070 N 
ATOM      3  C1  UNL d   1       1.429  -0.511  -0.164  0.00  0.00    -0.004 A 
ATOM      4  C2  UNL d   1       1.865  -1.810  -0.314  0.00  0.00    -0.047 A 
ATOM      5  C3  UNL d   1       0.744  -2.593  -0.679  0.00  0.00    -0.047 A 
ATOM      6  C4  UNL d   1      -0.344  -1.749  -0.741  0.00  0.00    -0.004 A 
ENDROOT
TORSDOF 0
ENDMDL
