MODEL 1
REMARK minimizedAffinity -2.04939556
REMARK minimizedRMSD -1
REMARK  0 active torsions:
REMARK  status: ('A' for Active; 'I' for Inactive)
ROOT
ATOM      1  C   UNL d   1      -1.169   0.798  -0.370  0.00  0.00     0.172 C 
ATOM      2  N   UNL d   1      -0.203  -0.135   0.162  0.00  0.00    -0.070 N 
ATOM      3  C1  UNL d   1       0.520  -1.039  -0.569  0.00  0.00    -0.004 A 
ATOM      4  C2  UNL d   1       1.326  -1.739   0.303  0.00  0.00    -0.047 A 
ATOM      5  C3  UNL d   1       1.077  -1.238   1.603  0.00  0.00    -0.047 A 
ATOM      6  C4  UNL d   1       0.127  -0.246   1.487  0.00  0.00    -0.004 A 
ENDROOT
TORSDOF 0
ENDMDL
