MODEL 1
REMARK minimizedAffinity 13.7853975
REMARK minimizedRMSD -1
REMARK  0 active torsions:
REMARK  status: ('A' for Active; 'I' for Inactive)
ROOT
ATOM      1  C   UNL d   1      -6.000  -4.872  -2.405  0.00  0.00    -0.002 A 
ATOM      2  C1  UNL d   1      -5.270  -5.626  -1.496  0.00  0.00     0.010 A 
ATOM      3  C2  UNL d   1      -3.953  -5.283  -1.186  0.00  0.00     0.041 A 
ATOM      4  C3  UNL d   1      -3.376  -4.158  -1.808  0.00  0.00    -0.075 A 
ATOM      5  S   UNL d   1      -1.780  -3.548  -1.580  0.00  0.00     0.015 SA
ATOM      6  C4  UNL d   1      -2.029  -2.273  -2.683  0.00  0.00     0.022 A 
ATOM      7  C5  UNL d   1      -3.294  -2.296  -3.220  0.00  0.00     0.026 A 
ATOM      8  C6  UNL d   1      -4.092  -3.382  -2.725  0.00  0.00    -0.082 A 
ATOM      9  C7  UNL d   1      -5.425  -3.756  -3.019  0.00  0.00     0.045 A 
ENDROOT
TORSDOF 0
ENDMDL
