MODEL 1
REMARK minimizedAffinity -0.206704423
REMARK minimizedRMSD -1
REMARK  0 active torsions:
REMARK  status: ('A' for Active; 'I' for Inactive)
ROOT
ATOM      1  C   UNL d   1       5.332   0.510   0.684  0.00  0.00    -0.002 A 
ATOM      2  C1  UNL d   1       4.072   0.573   1.261  0.00  0.00     0.010 A 
ATOM      3  C2  UNL d   1       2.967   0.982   0.512  0.00  0.00     0.041 A 
ATOM      4  C3  UNL d   1       3.152   1.327  -0.842  0.00  0.00    -0.075 A 
ATOM      5  S   UNL d   1       1.944   1.855  -1.954  0.00  0.00     0.015 SA
ATOM      6  C4  UNL d   1       3.073   2.008  -3.221  0.00  0.00     0.022 A 
ATOM      7  C5  UNL d   1       4.345   1.669  -2.824  0.00  0.00     0.026 A 
ATOM      8  C6  UNL d   1       4.411   1.271  -1.446  0.00  0.00    -0.082 A 
ATOM      9  C7  UNL d   1       5.511   0.853  -0.659  0.00  0.00     0.045 A 
ENDROOT
TORSDOF 0
ENDMDL
