MODEL 1
REMARK minimizedAffinity 6.75817347
REMARK minimizedRMSD -1
REMARK  0 active torsions:
REMARK  status: ('A' for Active; 'I' for Inactive)
ROOT
ATOM      1  C   UNL d   1       3.458   1.374   1.050  0.00  0.00    -0.002 A 
ATOM      2  C1  UNL d   1       3.575  -0.003   0.919  0.00  0.00     0.010 A 
ATOM      3  C2  UNL d   1       3.771  -0.582  -0.336  0.00  0.00     0.041 A 
ATOM      4  C3  UNL d   1       3.848   0.253  -1.468  0.00  0.00    -0.075 A 
ATOM      5  S   UNL d   1       4.085  -0.234  -3.105  0.00  0.00     0.015 SA
ATOM      6  C4  UNL d   1       4.036   1.373  -3.669  0.00  0.00     0.022 A 
ATOM      7  C5  UNL d   1       3.844   2.273  -2.647  0.00  0.00     0.026 A 
ATOM      8  C6  UNL d   1       3.734   1.642  -1.362  0.00  0.00    -0.082 A 
ATOM      9  C7  UNL d   1       3.535   2.199  -0.075  0.00  0.00     0.045 A 
ENDROOT
TORSDOF 0
ENDMDL
