MODEL 1
REMARK minimizedAffinity 6.50734854
REMARK minimizedRMSD -1
REMARK  0 active torsions:
REMARK  status: ('A' for Active; 'I' for Inactive)
ROOT
ATOM      1  C   UNL d   1       2.080   2.064  -1.735  0.00  0.00    -0.002 A 
ATOM      2  C1  UNL d   1       3.241   1.702  -2.404  0.00  0.00     0.010 A 
ATOM      3  C2  UNL d   1       4.213   0.925  -1.770  0.00  0.00     0.041 A 
ATOM      4  C3  UNL d   1       3.995   0.511  -0.441  0.00  0.00    -0.075 A 
ATOM      5  S   UNL d   1       5.045  -0.446   0.535  0.00  0.00     0.015 SA
ATOM      6  C4  UNL d   1       3.976  -0.399   1.862  0.00  0.00     0.022 A 
ATOM      7  C5  UNL d   1       2.842   0.326   1.585  0.00  0.00     0.026 A 
ATOM      8  C6  UNL d   1       2.833   0.862   0.252  0.00  0.00    -0.082 A 
ATOM      9  C7  UNL d   1       1.868   1.652  -0.417  0.00  0.00     0.045 A 
ENDROOT
TORSDOF 0
ENDMDL
