MODEL 1
REMARK minimizedAffinity 10.8609943
REMARK minimizedRMSD -1
REMARK  0 active torsions:
REMARK  status: ('A' for Active; 'I' for Inactive)
ROOT
ATOM      1  C   UNL d   1       0.893   0.232   2.482  0.00  0.00    -0.002 A 
ATOM      2  C1  UNL d   1       1.727  -0.514   3.303  0.00  0.00     0.010 A 
ATOM      3  C2  UNL d   1       3.032  -0.811   2.907  0.00  0.00     0.041 A 
ATOM      4  C3  UNL d   1       3.491  -0.339   1.662  0.00  0.00    -0.075 A 
ATOM      5  S   UNL d   1       5.052  -0.579   0.970  0.00  0.00     0.015 SA
ATOM      6  C4  UNL d   1       4.649   0.304  -0.431  0.00  0.00     0.022 A 
ATOM      7  C5  UNL d   1       3.359   0.777  -0.389  0.00  0.00     0.026 A 
ATOM      8  C6  UNL d   1       2.670   0.415   0.818  0.00  0.00    -0.082 A 
ATOM      9  C7  UNL d   1       1.351   0.698   1.247  0.00  0.00     0.045 A 
ENDROOT
TORSDOF 0
ENDMDL
