MODEL 1
REMARK minimizedAffinity 14.3364172
REMARK minimizedRMSD -1
REMARK  0 active torsions:
REMARK  status: ('A' for Active; 'I' for Inactive)
ROOT
ATOM      1  C   UNL d   1      -1.245  -3.056  -6.000  0.00  0.00    -0.002 A 
ATOM      2  C1  UNL d   1      -0.741  -4.288  -5.604  0.00  0.00     0.010 A 
ATOM      3  C2  UNL d   1      -0.860  -4.711  -4.279  0.00  0.00     0.041 A 
ATOM      4  C3  UNL d   1      -1.502  -3.870  -3.349  0.00  0.00    -0.075 A 
ATOM      5  S   UNL d   1      -1.763  -4.180  -1.674  0.00  0.00     0.015 SA
ATOM      6  C4  UNL d   1      -2.551  -2.686  -1.444  0.00  0.00     0.022 A 
ATOM      7  C5  UNL d   1      -2.621  -1.956  -2.606  0.00  0.00     0.026 A 
ATOM      8  C6  UNL d   1      -2.018  -2.626  -3.724  0.00  0.00    -0.082 A 
ATOM      9  C7  UNL d   1      -1.881  -2.224  -5.074  0.00  0.00     0.045 A 
ENDROOT
TORSDOF 0
ENDMDL
