MODEL 1
REMARK minimizedAffinity 4.8707118
REMARK minimizedRMSD -1
REMARK  0 active torsions:
REMARK  status: ('A' for Active; 'I' for Inactive)
ROOT
ATOM      1  C   UNL d   1       3.099   0.060  -0.259  0.00  0.00    -0.002 A 
ATOM      2  C1  UNL d   1       1.918   0.785  -0.184  0.00  0.00     0.010 A 
ATOM      3  C2  UNL d   1       1.449   1.495  -1.291  0.00  0.00     0.041 A 
ATOM      4  C3  UNL d   1       2.193   1.463  -2.486  0.00  0.00    -0.075 A 
ATOM      5  S   UNL d   1       1.813   2.256  -3.969  0.00  0.00     0.015 SA
ATOM      6  C4  UNL d   1       3.208   1.651  -4.738  0.00  0.00     0.022 A 
ATOM      7  C5  UNL d   1       3.958   0.862  -3.898  0.00  0.00     0.026 A 
ATOM      8  C6  UNL d   1       3.385   0.740  -2.587  0.00  0.00    -0.082 A 
ATOM      9  C7  UNL d   1       3.835   0.031  -1.447  0.00  0.00     0.045 A 
ENDROOT
TORSDOF 0
ENDMDL
