MODEL 1
REMARK minimizedAffinity 19.5459232
REMARK minimizedRMSD -1
REMARK  0 active torsions:
REMARK  status: ('A' for Active; 'I' for Inactive)
ROOT
ATOM      1  C   UNL d   1      -1.506  -2.028  -0.492  0.00  0.00    -0.002 A 
ATOM      2  C1  UNL d   1      -2.397  -2.599  -1.389  0.00  0.00     0.010 A 
ATOM      3  C2  UNL d   1      -3.007  -3.822  -1.104  0.00  0.00     0.041 A 
ATOM      4  C3  UNL d   1      -2.703  -4.467   0.111  0.00  0.00    -0.075 A 
ATOM      5  S   UNL d   1      -3.330  -5.972   0.674  0.00  0.00     0.015 SA
ATOM      6  C4  UNL d   1      -2.429  -5.892   2.119  0.00  0.00     0.022 A 
ATOM      7  C5  UNL d   1      -1.663  -4.752   2.187  0.00  0.00     0.026 A 
ATOM      8  C6  UNL d   1      -1.809  -3.912   1.031  0.00  0.00    -0.082 A 
ATOM      9  C7  UNL d   1      -1.207  -2.671   0.712  0.00  0.00     0.045 A 
ENDROOT
TORSDOF 0
ENDMDL
