MODEL 1
REMARK minimizedAffinity 16.9489574
REMARK minimizedRMSD -1
REMARK  0 active torsions:
REMARK  status: ('A' for Active; 'I' for Inactive)
ROOT
ATOM      1  C   UNL d   1      -3.812  -2.982  -2.685  0.00  0.00    -0.002 A 
ATOM      2  C1  UNL d   1      -2.763  -2.492  -3.450  0.00  0.00     0.010 A 
ATOM      3  C2  UNL d   1      -1.492  -2.334  -2.894  0.00  0.00     0.041 A 
ATOM      4  C3  UNL d   1      -1.290  -2.683  -1.544  0.00  0.00    -0.075 A 
ATOM      5  S   UNL d   1       0.181  -2.576  -0.651  0.00  0.00     0.015 SA
ATOM      6  C4  UNL d   1      -0.548  -3.179   0.766  0.00  0.00     0.022 A 
ATOM      7  C5  UNL d   1      -1.881  -3.461   0.581  0.00  0.00     0.026 A 
ATOM      8  C6  UNL d   1      -2.331  -3.180  -0.754  0.00  0.00    -0.082 A 
ATOM      9  C7  UNL d   1      -3.608  -3.327  -1.346  0.00  0.00     0.045 A 
ENDROOT
TORSDOF 0
ENDMDL
