MODEL 1
REMARK minimizedAffinity 21.8315353
REMARK minimizedRMSD -1
REMARK  0 active torsions:
REMARK  status: ('A' for Active; 'I' for Inactive)
ROOT
ATOM      1  C   UNL d   1       4.064   1.006  -0.239  0.00  0.00    -0.002 A 
ATOM      2  C1  UNL d   1       3.810  -0.114   0.539  0.00  0.00     0.010 A 
ATOM      3  C2  UNL d   1       2.771  -0.111   1.472  0.00  0.00     0.041 A 
ATOM      4  C3  UNL d   1       1.983   1.049   1.609  0.00  0.00    -0.075 A 
ATOM      5  S   UNL d   1       0.656   1.283   2.686  0.00  0.00     0.015 SA
ATOM      6  C4  UNL d   1       0.396   2.876   2.138  0.00  0.00     0.022 A 
ATOM      7  C5  UNL d   1       1.290   3.237   1.158  0.00  0.00     0.026 A 
ATOM      8  C6  UNL d   1       2.219   2.190   0.837  0.00  0.00    -0.082 A 
ATOM      9  C7  UNL d   1       3.281   2.155  -0.099  0.00  0.00     0.045 A 
ENDROOT
TORSDOF 0
ENDMDL
