MODEL 1
REMARK minimizedAffinity 13.1130466
REMARK minimizedRMSD -1
REMARK  0 active torsions:
REMARK  status: ('A' for Active; 'I' for Inactive)
ROOT
ATOM      1  C   UNL d   1      -2.427  -2.329  -3.337  0.00  0.00    -0.002 A 
ATOM      2  C1  UNL d   1      -3.346  -3.341  -3.096  0.00  0.00     0.010 A 
ATOM      3  C2  UNL d   1      -3.393  -3.976  -1.854  0.00  0.00     0.041 A 
ATOM      4  C3  UNL d   1      -2.494  -3.573  -0.847  0.00  0.00    -0.075 A 
ATOM      5  S   UNL d   1      -2.370  -4.208   0.751  0.00  0.00     0.015 SA
ATOM      6  C4  UNL d   1      -1.095  -3.150   1.152  0.00  0.00     0.022 A 
ATOM      7  C5  UNL d   1      -0.759  -2.326   0.104  0.00  0.00     0.026 A 
ATOM      8  C6  UNL d   1      -1.560  -2.556  -1.065  0.00  0.00    -0.082 A 
ATOM      9  C7  UNL d   1      -1.537  -1.931  -2.336  0.00  0.00     0.045 A 
ENDROOT
TORSDOF 0
ENDMDL
