MODEL 1
REMARK minimizedAffinity 4.43430662
REMARK minimizedRMSD -1
REMARK  0 active torsions:
REMARK  status: ('A' for Active; 'I' for Inactive)
ROOT
ATOM      1  C   UNL d   1      -0.539  -3.203   0.971  0.00  0.00    -0.002 A 
ATOM      2  C1  UNL d   1      -0.926  -4.509   1.234  0.00  0.00     0.010 A 
ATOM      3  C2  UNL d   1      -1.860  -5.150   0.419  0.00  0.00     0.041 A 
ATOM      4  C3  UNL d   1      -2.403  -4.451  -0.677  0.00  0.00    -0.075 A 
ATOM      5  S   UNL d   1      -3.562  -5.035  -1.813  0.00  0.00     0.015 SA
ATOM      6  C4  UNL d   1      -3.569  -3.565  -2.674  0.00  0.00     0.022 A 
ATOM      7  C5  UNL d   1      -2.714  -2.640  -2.123  0.00  0.00     0.026 A 
ATOM      8  C6  UNL d   1      -2.028  -3.135  -0.963  0.00  0.00    -0.082 A 
ATOM      9  C7  UNL d   1      -1.079  -2.512  -0.117  0.00  0.00     0.045 A 
ENDROOT
TORSDOF 0
ENDMDL
