MODEL 1
REMARK minimizedAffinity 3.90204597
REMARK minimizedRMSD -1
REMARK  1 active torsions:
REMARK  status: ('A' for Active; 'I' for Inactive)
REMARK    1  A    between atoms: C1_2  and  C2_3 
ROOT
ATOM      1  C2  UNL d   1      -1.621  -0.731   3.149  0.00  0.00    -0.077 A 
ATOM      2  C3  UNL d   1      -1.102   0.569   3.068  0.00  0.00     0.002 A 
ATOM      3  C4  UNL d   1      -0.267   0.931   2.009  0.00  0.00     0.002 A 
ATOM      4  C5  UNL d   1       0.052   0.001   1.022  0.00  0.00    -0.004 A 
ATOM      5  C6  UNL d   1      -0.458  -1.295   1.094  0.00  0.00     0.002 A 
ATOM      6  C7  UNL d   1      -1.291  -1.659   2.153  0.00  0.00     0.002 A 
ENDROOT
BRANCH   1   7
ATOM      7  C1  UNL d   1      -2.562  -1.109   4.263  0.00  0.00     0.055 C 
ATOM      8  C   UNL d   1      -4.000  -0.752   3.919  0.00  0.00     0.019 C 
ENDBRANCH   1   7
TORSDOF 1
ENDMDL
