MODEL 1
REMARK minimizedAffinity 11.3338947
REMARK minimizedRMSD -1
REMARK  1 active torsions:
REMARK  status: ('A' for Active; 'I' for Inactive)
REMARK    1  A    between atoms: C1_2  and  C2_3 
ROOT
ATOM      1  C2  UNL d   1       0.440  -5.528   3.509  0.00  0.00    -0.077 A 
ATOM      2  C3  UNL d   1       0.557  -5.999   4.824  0.00  0.00     0.002 A 
ATOM      3  C4  UNL d   1       1.576  -5.528   5.654  0.00  0.00     0.002 A 
ATOM      4  C5  UNL d   1       2.483  -4.582   5.181  0.00  0.00    -0.004 A 
ATOM      5  C6  UNL d   1       2.376  -4.109   3.873  0.00  0.00     0.002 A 
ATOM      6  C7  UNL d   1       1.359  -4.579   3.041  0.00  0.00     0.002 A 
ENDROOT
BRANCH   1   7
ATOM      7  C1  UNL d   1      -0.688  -5.997   2.627  0.00  0.00     0.055 C 
ATOM      8  C   UNL d   1      -2.013  -5.996   3.376  0.00  0.00     0.019 C 
ENDBRANCH   1   7
TORSDOF 1
ENDMDL
