MODEL 1
REMARK minimizedAffinity 9.15829849
REMARK minimizedRMSD -1
REMARK  1 active torsions:
REMARK  status: ('A' for Active; 'I' for Inactive)
REMARK    1  A    between atoms: C1_2  and  C2_3 
ROOT
ATOM      1  C2  UNL d   1       0.506  -1.821  -2.880  0.00  0.00    -0.077 A 
ATOM      2  C3  UNL d   1      -0.756  -1.505  -2.358  0.00  0.00     0.002 A 
ATOM      3  C4  UNL d   1      -1.907  -2.093  -2.887  0.00  0.00     0.002 A 
ATOM      4  C5  UNL d   1      -1.806  -3.003  -3.937  0.00  0.00    -0.004 A 
ATOM      5  C6  UNL d   1      -0.556  -3.323  -4.464  0.00  0.00     0.002 A 
ATOM      6  C7  UNL d   1       0.595  -2.735  -3.938  0.00  0.00     0.002 A 
ENDROOT
BRANCH   1   7
ATOM      7  C1  UNL d   1       1.752  -1.226  -2.278  0.00  0.00     0.055 C 
ATOM      8  C   UNL d   1       2.747  -0.819  -3.355  0.00  0.00     0.019 C 
ENDBRANCH   1   7
TORSDOF 1
ENDMDL
