MODEL 1
REMARK minimizedAffinity 10.3929768
REMARK minimizedRMSD -1
REMARK  1 active torsions:
REMARK  status: ('A' for Active; 'I' for Inactive)
REMARK    1  A    between atoms: C1_2  and  C2_3 
ROOT
ATOM      1  C2  UNL d   1      -1.300  -5.919   2.112  0.00  0.00    -0.077 A 
ATOM      2  C3  UNL d   1       0.064  -5.860   1.794  0.00  0.00     0.002 A 
ATOM      3  C4  UNL d   1       1.025  -5.833   2.806  0.00  0.00     0.002 A 
ATOM      4  C5  UNL d   1       0.633  -5.868   4.142  0.00  0.00    -0.004 A 
ATOM      5  C6  UNL d   1      -0.721  -5.924   4.470  0.00  0.00     0.002 A 
ATOM      6  C7  UNL d   1      -1.683  -5.950   3.459  0.00  0.00     0.002 A 
ENDROOT
BRANCH   1   7
ATOM      7  C1  UNL d   1      -2.336  -5.998   1.022  0.00  0.00     0.055 C 
ATOM      8  C   UNL d   1      -3.746  -5.967   1.594  0.00  0.00     0.019 C 
ENDBRANCH   1   7
TORSDOF 1
ENDMDL
