MODEL 1
REMARK minimizedAffinity 3.27301526
REMARK minimizedRMSD -1
REMARK  1 active torsions:
REMARK  status: ('A' for Active; 'I' for Inactive)
REMARK    1  A    between atoms: C1_2  and  C2_3 
ROOT
ATOM      1  C2  UNL d   1       0.329  -2.104  -4.262  0.00  0.00    -0.077 A 
ATOM      2  C3  UNL d   1      -0.501  -1.113  -3.718  0.00  0.00     0.002 A 
ATOM      3  C4  UNL d   1      -1.843  -1.385  -3.449  0.00  0.00     0.002 A 
ATOM      4  C5  UNL d   1      -2.367  -2.648  -3.716  0.00  0.00    -0.004 A 
ATOM      5  C6  UNL d   1      -1.551  -3.640  -4.259  0.00  0.00     0.002 A 
ATOM      6  C7  UNL d   1      -0.209  -3.369  -4.530  0.00  0.00     0.002 A 
ENDROOT
BRANCH   1   7
ATOM      7  C1  UNL d   1       1.789  -1.827  -4.507  0.00  0.00     0.055 C 
ATOM      8  C   UNL d   1       2.389  -0.987  -3.388  0.00  0.00     0.019 C 
ENDBRANCH   1   7
TORSDOF 1
ENDMDL
