MODEL 1
REMARK minimizedAffinity 11.3529062
REMARK minimizedRMSD -1
REMARK  1 active torsions:
REMARK  status: ('A' for Active; 'I' for Inactive)
REMARK    1  A    between atoms: C1_2  and  C2_3 
ROOT
ATOM      1  C2  UNL d   1      -0.369   1.156   1.560  0.00  0.00    -0.077 A 
ATOM      2  C3  UNL d   1       0.862   1.821   1.651  0.00  0.00     0.002 A 
ATOM      3  C4  UNL d   1       1.616   2.071   0.502  0.00  0.00     0.002 A 
ATOM      4  C5  UNL d   1       1.145   1.663  -0.744  0.00  0.00    -0.004 A 
ATOM      5  C6  UNL d   1      -0.077   0.999  -0.844  0.00  0.00     0.002 A 
ATOM      6  C7  UNL d   1      -0.831   0.748   0.302  0.00  0.00     0.002 A 
ENDROOT
BRANCH   1   7
ATOM      7  C1  UNL d   1      -1.207   0.930   2.792  0.00  0.00     0.055 C 
ATOM      8  C   UNL d   1      -1.551  -0.542   2.964  0.00  0.00     0.019 C 
ENDBRANCH   1   7
TORSDOF 1
ENDMDL
