MODEL 1
REMARK minimizedAffinity -1.91026342
REMARK minimizedRMSD -1
REMARK  0 active torsions:
REMARK  status: ('A' for Active; 'I' for Inactive)
ROOT
ATOM      1  C1  BNZ d   1       0.576   0.646   0.476  0.00  0.00     0.000 A 
ATOM      2  C2  BNZ d   1       0.277   1.975   0.616  0.00  0.00     0.000 A 
ATOM      3  C3  BNZ d   1      -0.923   2.471   0.189  0.00  0.00     0.000 A 
ATOM      4  C4  BNZ d   1      -1.805   1.647  -0.413  0.00  0.00     0.000 A 
ATOM      5  C5  BNZ d   1      -1.514   0.307  -0.571  0.00  0.00     0.000 A 
ATOM      6  C6  BNZ d   1      -0.321  -0.197  -0.105  0.00  0.00     0.000 A 
ENDROOT
TORSDOF 0
ENDMDL
