MODEL 1
REMARK minimizedAffinity -4.09675455
REMARK minimizedRMSD -1
REMARK  0 active torsions:
REMARK  status: ('A' for Active; 'I' for Inactive)
ROOT
ATOM      1  C1  BNZ d   1      -1.171   0.527   0.762  0.00  0.00     0.000 A 
ATOM      2  C2  BNZ d   1      -1.148   1.897   0.785  0.00  0.00     0.000 A 
ATOM      3  C3  BNZ d   1      -0.042   2.585   0.370  0.00  0.00     0.000 A 
ATOM      4  C4  BNZ d   1       1.052   1.904  -0.028  0.00  0.00     0.000 A 
ATOM      5  C5  BNZ d   1       1.047   0.523  -0.048  0.00  0.00     0.000 A 
ATOM      6  C6  BNZ d   1      -0.081  -0.165   0.333  0.00  0.00     0.000 A 
ENDROOT
TORSDOF 0
ENDMDL
