MODEL 1
REMARK minimizedAffinity -4.76933336
REMARK minimizedRMSD -1
REMARK  0 active torsions:
REMARK  status: ('A' for Active; 'I' for Inactive)
ROOT
ATOM      1  C1  BNZ d   1       0.113   2.880   0.277  0.00  0.00     0.000 A 
ATOM      2  C2  BNZ d   1      -0.383   1.686  -0.175  0.00  0.00     0.000 A 
ATOM      3  C3  BNZ d   1       0.375   0.550  -0.127  0.00  0.00     0.000 A 
ATOM      4  C4  BNZ d   1       1.641   0.616   0.335  0.00  0.00     0.000 A 
ATOM      5  C5  BNZ d   1       2.159   1.814   0.785  0.00  0.00     0.000 A 
ATOM      6  C6  BNZ d   1       1.379   2.948   0.772  0.00  0.00     0.000 A 
ENDROOT
TORSDOF 0
ENDMDL
