MODEL 1
REMARK minimizedAffinity -3.33350348
REMARK minimizedRMSD -1
REMARK  0 active torsions:
REMARK  status: ('A' for Active; 'I' for Inactive)
ROOT
ATOM      1  C1  BNZ d   1      -0.435   0.988  -0.265  0.00  0.00     0.000 A 
ATOM      2  C2  BNZ d   1       0.610   0.156  -0.566  0.00  0.00     0.000 A 
ATOM      3  C3  BNZ d   1       0.575  -1.166  -0.222  0.00  0.00     0.000 A 
ATOM      4  C4  BNZ d   1      -0.487  -1.646   0.458  0.00  0.00     0.000 A 
ATOM      5  C5  BNZ d   1      -1.545  -0.818   0.777  0.00  0.00     0.000 A 
ATOM      6  C6  BNZ d   1      -1.523   0.504   0.394  0.00  0.00     0.000 A 
ENDROOT
TORSDOF 0
ENDMDL
