MODEL 1
REMARK minimizedAffinity -3.44626021
REMARK minimizedRMSD -1
REMARK  0 active torsions:
REMARK  status: ('A' for Active; 'I' for Inactive)
ROOT
ATOM      1  C1  BNZ d   1       0.025   2.037   0.199  0.00  0.00     0.000 A 
ATOM      2  C2  BNZ d   1       0.980   1.083  -0.034  0.00  0.00     0.000 A 
ATOM      3  C3  BNZ d   1       0.661  -0.246  -0.022  0.00  0.00     0.000 A 
ATOM      4  C4  BNZ d   1      -0.603  -0.621   0.264  0.00  0.00     0.000 A 
ATOM      5  C5  BNZ d   1      -1.575   0.328   0.511  0.00  0.00     0.000 A 
ATOM      6  C6  BNZ d   1      -1.258   1.666   0.459  0.00  0.00     0.000 A 
ENDROOT
TORSDOF 0
ENDMDL
