MODEL 1
REMARK minimizedAffinity -3.33983874
REMARK minimizedRMSD -1
REMARK  0 active torsions:
REMARK  status: ('A' for Active; 'I' for Inactive)
ROOT
ATOM      1  C1  BNZ d   1      -0.538  -2.707  -3.352  0.00  0.00     0.000 A 
ATOM      2  C2  BNZ d   1      -0.403  -1.440  -2.850  0.00  0.00     0.000 A 
ATOM      3  C3  BNZ d   1      -0.638  -1.181  -1.529  0.00  0.00     0.000 A 
ATOM      4  C4  BNZ d   1      -1.045  -2.181  -0.720  0.00  0.00     0.000 A 
ATOM      5  C5  BNZ d   1      -1.195  -3.462  -1.213  0.00  0.00     0.000 A 
ATOM      6  C6  BNZ d   1      -0.920  -3.726  -2.535  0.00  0.00     0.000 A 
ENDROOT
TORSDOF 0
ENDMDL
