MODEL 1
REMARK minimizedAffinity -3.67163348
REMARK minimizedRMSD -1
REMARK  0 active torsions:
REMARK  status: ('A' for Active; 'I' for Inactive)
ROOT
ATOM      1  C1  BNZ d   1       0.019   1.636   0.453  0.00  0.00     0.000 A 
ATOM      2  C2  BNZ d   1       0.770   0.525   0.176  0.00  0.00     0.000 A 
ATOM      3  C3  BNZ d   1       0.188  -0.709   0.086  0.00  0.00     0.000 A 
ATOM      4  C4  BNZ d   1      -1.135  -0.836   0.313  0.00  0.00     0.000 A 
ATOM      5  C5  BNZ d   1      -1.904   0.273   0.603  0.00  0.00     0.000 A 
ATOM      6  C6  BNZ d   1      -1.322   1.519   0.654  0.00  0.00     0.000 A 
ENDROOT
TORSDOF 0
ENDMDL
