MODEL 1
REMARK minimizedAffinity -4.88373804
REMARK minimizedRMSD -1
REMARK  0 active torsions:
REMARK  status: ('A' for Active; 'I' for Inactive)
ROOT
ATOM      1  C1  BNZ d   1      -1.129   1.262   0.883  0.00  0.00     0.000 A 
ATOM      2  C2  BNZ d   1      -1.019   2.627   0.902  0.00  0.00     0.000 A 
ATOM      3  C3  BNZ d   1      -0.066   3.263   0.157  0.00  0.00     0.000 A 
ATOM      4  C4  BNZ d   1       0.802   2.533  -0.573  0.00  0.00     0.000 A 
ATOM      5  C5  BNZ d   1       0.710   1.155  -0.594  0.00  0.00     0.000 A 
ATOM      6  C6  BNZ d   1      -0.275   0.521   0.126  0.00  0.00     0.000 A 
ENDROOT
TORSDOF 0
ENDMDL
