MODEL 1
REMARK minimizedAffinity -4.5406723
REMARK minimizedRMSD -1
REMARK  0 active torsions:
REMARK  status: ('A' for Active; 'I' for Inactive)
ROOT
ATOM      1  C1  BNZ d   1      -1.318   2.090   0.728  0.00  0.00     0.000 A 
ATOM      2  C2  BNZ d   1      -1.320   0.817   1.233  0.00  0.00     0.000 A 
ATOM      3  C3  BNZ d   1      -0.793  -0.221   0.517  0.00  0.00     0.000 A 
ATOM      4  C4  BNZ d   1      -0.303   0.008  -0.719  0.00  0.00     0.000 A 
ATOM      5  C5  BNZ d   1      -0.303   1.284  -1.245  0.00  0.00     0.000 A 
ATOM      6  C6  BNZ d   1      -0.798   2.333  -0.505  0.00  0.00     0.000 A 
ENDROOT
TORSDOF 0
ENDMDL
