MODEL 1
REMARK minimizedAffinity -4.69131851
REMARK minimizedRMSD -1
REMARK  0 active torsions:
REMARK  status: ('A' for Active; 'I' for Inactive)
ROOT
ATOM      1  C1  BNZ d   1       0.537   2.937   0.086  0.00  0.00     0.000 A 
ATOM      2  C2  BNZ d   1      -0.665   2.675   0.689  0.00  0.00     0.000 A 
ATOM      3  C3  BNZ d   1      -1.298   1.479   0.497  0.00  0.00     0.000 A 
ATOM      4  C4  BNZ d   1      -0.750   0.563  -0.327  0.00  0.00     0.000 A 
ATOM      5  C5  BNZ d   1       0.457   0.816  -0.949  0.00  0.00     0.000 A 
ATOM      6  C6  BNZ d   1       1.110   2.005  -0.723  0.00  0.00     0.000 A 
ENDROOT
TORSDOF 0
ENDMDL
