MODEL 1
REMARK minimizedAffinity -4.87332582
REMARK minimizedRMSD -1
REMARK  0 active torsions:
REMARK  status: ('A' for Active; 'I' for Inactive)
ROOT
ATOM      1  C1  BNZ d   1      -0.185   1.335   0.456  0.00  0.00     0.000 A 
ATOM      2  C2  BNZ d   1       0.138   2.595   0.884  0.00  0.00     0.000 A 
ATOM      3  C3  BNZ d   1       1.444   2.979   1.008  0.00  0.00     0.000 A 
ATOM      4  C4  BNZ d   1       2.424   2.090   0.743  0.00  0.00     0.000 A 
ATOM      5  C5  BNZ d   1       2.114   0.813   0.320  0.00  0.00     0.000 A 
ATOM      6  C6  BNZ d   1       0.799   0.443   0.158  0.00  0.00     0.000 A 
ENDROOT
TORSDOF 0
ENDMDL
