MODEL 1
REMARK minimizedAffinity -4.77306604
REMARK minimizedRMSD -1
REMARK  0 active torsions:
REMARK  status: ('A' for Active; 'I' for Inactive)
ROOT
ATOM      1  C1  BNZ d   1       0.037   2.956   0.648  0.00  0.00     0.000 A 
ATOM      2  C2  BNZ d   1      -1.072   2.218   0.968  0.00  0.00     0.000 A 
ATOM      3  C3  BNZ d   1      -1.402   1.104   0.247  0.00  0.00     0.000 A 
ATOM      4  C4  BNZ d   1      -0.648   0.753  -0.815  0.00  0.00     0.000 A 
ATOM      5  C5  BNZ d   1       0.467   1.493  -1.155  0.00  0.00     0.000 A 
ATOM      6  C6  BNZ d   1       0.819   2.591  -0.404  0.00  0.00     0.000 A 
ENDROOT
TORSDOF 0
ENDMDL
