MODEL 1
REMARK minimizedAffinity -2.30977654
REMARK minimizedRMSD -1
REMARK  0 active torsions:
REMARK  status: ('A' for Active; 'I' for Inactive)
ROOT
ATOM      1  C1  BNZ d   1       1.426   0.047   0.456  0.00  0.00     0.000 A 
ATOM      2  C2  BNZ d   1       0.064  -0.080   0.384  0.00  0.00     0.000 A 
ATOM      3  C3  BNZ d   1      -0.753   0.984   0.646  0.00  0.00     0.000 A 
ATOM      4  C4  BNZ d   1      -0.209   2.161   1.018  0.00  0.00     0.000 A 
ATOM      5  C5  BNZ d   1       1.161   2.302   1.105  0.00  0.00     0.000 A 
ATOM      6  C6  BNZ d   1       1.982   1.240   0.803  0.00  0.00     0.000 A 
ENDROOT
TORSDOF 0
ENDMDL
