MODEL 1
REMARK minimizedAffinity -5.0706749
REMARK minimizedRMSD -1
REMARK  0 active torsions:
REMARK  status: ('A' for Active; 'I' for Inactive)
ROOT
ATOM      1  C1  BNZ d   1       2.293   1.034   0.678  0.00  0.00     0.000 A 
ATOM      2  C2  BNZ d   1       1.031   0.781   0.210  0.00  0.00     0.000 A 
ATOM      3  C3  BNZ d   1       0.139   1.798   0.016  0.00  0.00     0.000 A 
ATOM      4  C4  BNZ d   1       0.496   3.061   0.328  0.00  0.00     0.000 A 
ATOM      5  C5  BNZ d   1       1.761   3.331   0.810  0.00  0.00     0.000 A 
ATOM      6  C6  BNZ d   1       2.669   2.309   0.967  0.00  0.00     0.000 A 
ENDROOT
TORSDOF 0
ENDMDL
