MODEL 1
REMARK minimizedAffinity -1.16616869
REMARK minimizedRMSD -1
REMARK  0 active torsions:
REMARK  status: ('A' for Active; 'I' for Inactive)
ROOT
ATOM      1  C1  BNZ d   1      -0.562   0.460   0.031  0.00  0.00     0.000 A 
ATOM      2  C2  BNZ d   1      -0.642  -0.907   0.033  0.00  0.00     0.000 A 
ATOM      3  C3  BNZ d   1       0.464  -1.673   0.275  0.00  0.00     0.000 A 
ATOM      4  C4  BNZ d   1       1.655  -1.073   0.474  0.00  0.00     0.000 A 
ATOM      5  C5  BNZ d   1       1.754   0.304   0.466  0.00  0.00     0.000 A 
ATOM      6  C6  BNZ d   1       0.632   1.072   0.261  0.00  0.00     0.000 A 
ENDROOT
TORSDOF 0
ENDMDL
