MODEL 1
REMARK minimizedAffinity 3.5072968
REMARK minimizedRMSD -1
REMARK  0 active torsions:
REMARK  status: ('A' for Active; 'I' for Inactive)
ROOT
ATOM      1  C1  BNZ d   1      -0.713  -3.094  -1.155  0.00  0.00     0.000 A 
ATOM      2  C2  BNZ d   1       0.407  -2.315  -1.277  0.00  0.00     0.000 A 
ATOM      3  C3  BNZ d   1       1.276  -2.498  -2.316  0.00  0.00     0.000 A 
ATOM      4  C4  BNZ d   1       1.046  -3.484  -3.207  0.00  0.00     0.000 A 
ATOM      5  C5  BNZ d   1      -0.073  -4.283  -3.092  0.00  0.00     0.000 A 
ATOM      6  C6  BNZ d   1      -0.967  -4.071  -2.067  0.00  0.00     0.000 A 
ENDROOT
TORSDOF 0
ENDMDL
