MODEL 1
REMARK minimizedAffinity 1.91695714
REMARK minimizedRMSD -1
REMARK  0 active torsions:
REMARK  status: ('A' for Active; 'I' for Inactive)
ROOT
ATOM      1  C1  BNZ d   1       0.368   2.430   1.385  0.00  0.00     0.000 A 
ATOM      2  C2  BNZ d   1       1.289   2.867   0.471  0.00  0.00     0.000 A 
ATOM      3  C3  BNZ d   1       0.908   3.631  -0.597  0.00  0.00     0.000 A 
ATOM      4  C4  BNZ d   1      -0.397   3.923  -0.771  0.00  0.00     0.000 A 
ATOM      5  C5  BNZ d   1      -1.339   3.482   0.137  0.00  0.00     0.000 A 
ATOM      6  C6  BNZ d   1      -0.947   2.746   1.231  0.00  0.00     0.000 A 
ENDROOT
TORSDOF 0
ENDMDL
