MODEL 1
REMARK minimizedAffinity -2.08698869
REMARK minimizedRMSD -1
REMARK  0 active torsions:
REMARK  status: ('A' for Active; 'I' for Inactive)
ROOT
ATOM      1  C1  BNZ d   1       0.024   0.352   0.049  0.00  0.00     0.000 A 
ATOM      2  C2  BNZ d   1       0.345   1.396   0.875  0.00  0.00     0.000 A 
ATOM      3  C3  BNZ d   1      -0.402   2.541   0.877  0.00  0.00     0.000 A 
ATOM      4  C4  BNZ d   1      -1.443   2.655   0.027  0.00  0.00     0.000 A 
ATOM      5  C5  BNZ d   1      -1.773   1.615  -0.819  0.00  0.00     0.000 A 
ATOM      6  C6  BNZ d   1      -1.042   0.449  -0.790  0.00  0.00     0.000 A 
ENDROOT
TORSDOF 0
ENDMDL
