MODEL 1
REMARK minimizedAffinity 6.2751503
REMARK minimizedRMSD -1
REMARK  1 active torsions:
REMARK  status: ('A' for Active; 'I' for Inactive)
REMARK    1  A    between atoms: N_2  and  C1_3 
ROOT
ATOM      1  C1  UNL d   1       3.347   4.060  -5.994  0.00  0.00     0.143 A 
ATOM      2  C2  UNL d   1       3.319   2.663  -5.931  0.00  0.00    -0.057 A 
ATOM      3  C3  UNL d   1       2.108   1.962  -5.887  0.00  0.00     0.033 A 
ATOM      4  C4  UNL d   1       0.899   2.650  -5.876  0.00  0.00    -0.042 A 
ATOM      5  C5  UNL d   1       0.903   4.040  -5.913  0.00  0.00     0.033 A 
ATOM      6  C6  UNL d   1       2.116   4.734  -5.964  0.00  0.00    -0.057 A 
ENDROOT
BRANCH   1   7
ATOM      7  N   UNL d   1       4.519   4.818  -5.941  0.00  0.00    -0.732 N 
ATOM      8  C   UNL d   1       5.814   4.172  -5.926  0.00  0.00     0.284 C 
ATOM      9  H3  UNL d   1       4.474   5.645  -6.531  0.00  0.00     0.395 HD
ENDBRANCH   1   7
TORSDOF 1
ENDMDL
