MODEL 1
REMARK minimizedAffinity -1.24365473
REMARK minimizedRMSD -1
REMARK  1 active torsions:
REMARK  status: ('A' for Active; 'I' for Inactive)
REMARK    1  A    between atoms: N_2  and  C1_3 
ROOT
ATOM      1  C1  UNL d   1      -1.698   3.912  -5.870  0.00  0.00     0.143 A 
ATOM      2  C2  UNL d   1      -1.539   2.523  -5.898  0.00  0.00    -0.057 A 
ATOM      3  C3  UNL d   1      -0.267   1.939  -5.948  0.00  0.00     0.033 A 
ATOM      4  C4  UNL d   1       0.870   2.738  -5.999  0.00  0.00    -0.042 A 
ATOM      5  C5  UNL d   1       0.735   4.121  -5.998  0.00  0.00     0.033 A 
ATOM      6  C6  UNL d   1      -0.538   4.698  -5.941  0.00  0.00    -0.057 A 
ENDROOT
BRANCH   1   7
ATOM      7  N   UNL d   1      -2.938   4.554  -5.920  0.00  0.00    -0.732 N 
ATOM      8  C   UNL d   1      -3.035   5.986  -5.737  0.00  0.00     0.284 C 
ATOM      9  H3  UNL d   1      -3.535   4.188  -6.658  0.00  0.00     0.395 HD
ENDBRANCH   1   7
TORSDOF 1
ENDMDL
