MODEL 1
REMARK minimizedAffinity 3.96371055
REMARK minimizedRMSD -1
REMARK  1 active torsions:
REMARK  status: ('A' for Active; 'I' for Inactive)
REMARK    1  A    between atoms: N_2  and  C1_3 
ROOT
ATOM      1  C1  UNL d   1      -2.435  -4.081  -1.167  0.00  0.00     0.143 A 
ATOM      2  C2  UNL d   1      -1.524  -4.839  -1.912  0.00  0.00    -0.057 A 
ATOM      3  C3  UNL d   1      -0.388  -4.252  -2.483  0.00  0.00     0.033 A 
ATOM      4  C4  UNL d   1      -0.157  -2.888  -2.343  0.00  0.00    -0.042 A 
ATOM      5  C5  UNL d   1      -1.062  -2.111  -1.628  0.00  0.00     0.033 A 
ATOM      6  C6  UNL d   1      -2.191  -2.703  -1.055  0.00  0.00    -0.057 A 
ENDROOT
BRANCH   1   7
ATOM      7  N   UNL d   1      -3.634  -4.586  -0.658  0.00  0.00    -0.732 N 
ATOM      8  C   UNL d   1      -3.780  -6.000  -0.383  0.00  0.00     0.284 C 
ATOM      9  H3  UNL d   1      -4.041  -3.980   0.050  0.00  0.00     0.395 HD
ENDBRANCH   1   7
TORSDOF 1
ENDMDL
