MODEL 1
REMARK minimizedAffinity -0.0132650146
REMARK minimizedRMSD -1
REMARK  1 active torsions:
REMARK  status: ('A' for Active; 'I' for Inactive)
REMARK    1  A    between atoms: N_2  and  C1_3 
ROOT
ATOM      1  C1  UNL d   1      -0.774   3.545  -5.925  0.00  0.00     0.143 A 
ATOM      2  C2  UNL d   1      -0.655   4.938  -5.975  0.00  0.00    -0.057 A 
ATOM      3  C3  UNL d   1      -1.786   5.763  -5.998  0.00  0.00     0.033 A 
ATOM      4  C4  UNL d   1      -3.061   5.207  -6.000  0.00  0.00    -0.042 A 
ATOM      5  C5  UNL d   1      -3.203   3.824  -5.975  0.00  0.00     0.033 A 
ATOM      6  C6  UNL d   1      -2.070   3.005  -5.946  0.00  0.00    -0.057 A 
ENDROOT
BRANCH   1   7
ATOM      7  N   UNL d   1       0.311   2.669  -6.000  0.00  0.00    -0.732 N 
ATOM      8  C   UNL d   1       1.668   3.171  -5.972  0.00  0.00     0.284 C 
ATOM      9  H3  UNL d   1       0.169   1.826  -5.448  0.00  0.00     0.395 HD
ENDBRANCH   1   7
TORSDOF 1
ENDMDL
