MODEL 1
REMARK minimizedAffinity -1.31933558
REMARK minimizedRMSD -1
REMARK  1 active torsions:
REMARK  status: ('A' for Active; 'I' for Inactive)
REMARK    1  A    between atoms: N_2  and  C1_3 
ROOT
ATOM      1  C1  UNL d   1      -0.639   3.363  -5.923  0.00  0.00     0.143 A 
ATOM      2  C2  UNL d   1      -0.306   4.721  -5.953  0.00  0.00    -0.057 A 
ATOM      3  C3  UNL d   1      -1.296   5.711  -5.977  0.00  0.00     0.033 A 
ATOM      4  C4  UNL d   1      -2.641   5.358  -6.000  0.00  0.00    -0.042 A 
ATOM      5  C5  UNL d   1      -2.995   4.014  -5.996  0.00  0.00     0.033 A 
ATOM      6  C6  UNL d   1      -2.002   3.030  -5.965  0.00  0.00    -0.057 A 
ENDROOT
BRANCH   1   7
ATOM      7  N   UNL d   1       0.299   2.330  -5.998  0.00  0.00    -0.732 N 
ATOM      8  C   UNL d   1       1.716   2.621  -6.000  0.00  0.00     0.284 C 
ATOM      9  H3  UNL d   1       0.040   1.528  -5.428  0.00  0.00     0.395 HD
ENDBRANCH   1   7
TORSDOF 1
ENDMDL
