MODEL 1
REMARK minimizedAffinity -2.00313878
REMARK minimizedRMSD -1
REMARK  1 active torsions:
REMARK  status: ('A' for Active; 'I' for Inactive)
REMARK    1  A    between atoms: N_2  and  C1_3 
ROOT
ATOM      1  C1  UNL d   1      -0.971   3.978  -5.919  0.00  0.00     0.143 A 
ATOM      2  C2  UNL d   1      -1.374   5.318  -5.936  0.00  0.00    -0.057 A 
ATOM      3  C3  UNL d   1      -2.729   5.669  -5.956  0.00  0.00     0.033 A 
ATOM      4  C4  UNL d   1      -3.709   4.682  -5.990  0.00  0.00    -0.042 A 
ATOM      5  C5  UNL d   1      -3.331   3.343  -5.999  0.00  0.00     0.033 A 
ATOM      6  C6  UNL d   1      -1.976   3.000  -5.971  0.00  0.00    -0.057 A 
ENDROOT
BRANCH   1   7
ATOM      7  N   UNL d   1       0.361   3.565  -5.997  0.00  0.00    -0.732 N 
ATOM      8  C   UNL d   1       1.435   4.535  -5.998  0.00  0.00     0.284 C 
ATOM      9  H3  UNL d   1       0.546   2.740  -5.431  0.00  0.00     0.395 HD
ENDBRANCH   1   7
TORSDOF 1
ENDMDL
