MODEL 1
REMARK minimizedAffinity -2.77820969
REMARK minimizedRMSD -1
REMARK  1 active torsions:
REMARK  status: ('A' for Active; 'I' for Inactive)
REMARK    1  A    between atoms: N_2  and  C1_3 
ROOT
ATOM      1  C1  UNL d   1       2.225   5.104  -6.000  0.00  0.00     0.143 A 
ATOM      2  C2  UNL d   1       3.336   5.953  -5.973  0.00  0.00    -0.057 A 
ATOM      3  C3  UNL d   1       4.640   5.444  -5.981  0.00  0.00     0.033 A 
ATOM      4  C4  UNL d   1       4.856   4.069  -5.988  0.00  0.00    -0.042 A 
ATOM      5  C5  UNL d   1       3.766   3.206  -5.989  0.00  0.00     0.033 A 
ATOM      6  C6  UNL d   1       2.467   3.721  -5.987  0.00  0.00    -0.057 A 
ENDROOT
BRANCH   1   7
ATOM      7  N   UNL d   1       0.904   5.547  -5.893  0.00  0.00    -0.732 N 
ATOM      8  C   UNL d   1      -0.197   4.614  -5.997  0.00  0.00     0.284 C 
ATOM      9  H3  UNL d   1       0.788   6.249  -5.166  0.00  0.00     0.395 HD
ENDBRANCH   1   7
TORSDOF 1
ENDMDL
