MODEL 1
REMARK minimizedAffinity 0.730996668
REMARK minimizedRMSD -1
REMARK  1 active torsions:
REMARK  status: ('A' for Active; 'I' for Inactive)
REMARK    1  A    between atoms: N_2  and  C1_3 
ROOT
ATOM      1  C1  UNL d   1      -1.969   3.694  -5.919  0.00  0.00     0.143 A 
ATOM      2  C2  UNL d   1      -0.647   3.240  -5.956  0.00  0.00    -0.057 A 
ATOM      3  C3  UNL d   1       0.429   4.136  -5.978  0.00  0.00     0.033 A 
ATOM      4  C4  UNL d   1       0.199   5.507  -5.992  0.00  0.00    -0.042 A 
ATOM      5  C5  UNL d   1      -1.108   5.982  -5.982  0.00  0.00     0.033 A 
ATOM      6  C6  UNL d   1      -2.177   5.082  -5.953  0.00  0.00    -0.057 A 
ENDROOT
BRANCH   1   7
ATOM      7  N   UNL d   1      -3.083   2.855  -5.996  0.00  0.00    -0.732 N 
ATOM      8  C   UNL d   1      -4.422   3.403  -5.987  0.00  0.00     0.284 C 
ATOM      9  H3  UNL d   1      -2.950   2.093  -6.657  0.00  0.00     0.395 HD
ENDBRANCH   1   7
TORSDOF 1
ENDMDL
