MODEL 1
REMARK minimizedAffinity -2.38037324
REMARK minimizedRMSD -1
REMARK  1 active torsions:
REMARK  status: ('A' for Active; 'I' for Inactive)
REMARK    1  A    between atoms: N_2  and  C1_3 
ROOT
ATOM      1  C1  UNL d   1      -2.640   4.041  -5.924  0.00  0.00     0.143 A 
ATOM      2  C2  UNL d   1      -2.085   2.758  -5.975  0.00  0.00    -0.057 A 
ATOM      3  C3  UNL d   1      -0.698   2.566  -5.997  0.00  0.00     0.033 A 
ATOM      4  C4  UNL d   1       0.161   3.660  -5.997  0.00  0.00    -0.042 A 
ATOM      5  C5  UNL d   1      -0.368   4.946  -5.972  0.00  0.00     0.033 A 
ATOM      6  C6  UNL d   1      -1.754   5.130  -5.943  0.00  0.00    -0.057 A 
ENDROOT
BRANCH   1   7
ATOM      7  N   UNL d   1      -4.010   4.300  -6.000  0.00  0.00    -0.732 N 
ATOM      8  C   UNL d   1      -4.505   5.660  -5.999  0.00  0.00     0.284 C 
ATOM      9  H3  UNL d   1      -4.486   3.684  -6.656  0.00  0.00     0.395 HD
ENDBRANCH   1   7
TORSDOF 1
ENDMDL
