MODEL 1
REMARK minimizedAffinity -2.89667869
REMARK minimizedRMSD -1
REMARK  1 active torsions:
REMARK  status: ('A' for Active; 'I' for Inactive)
REMARK    1  A    between atoms: N_2  and  C1_3 
ROOT
ATOM      1  C1  UNL d   1      -1.395   3.744  -5.423  0.00  0.00     0.143 A 
ATOM      2  C2  UNL d   1      -2.641   3.464  -5.994  0.00  0.00    -0.057 A 
ATOM      3  C3  UNL d   1      -3.832   3.762  -5.321  0.00  0.00     0.033 A 
ATOM      4  C4  UNL d   1      -3.797   4.321  -4.047  0.00  0.00    -0.042 A 
ATOM      5  C5  UNL d   1      -2.569   4.585  -3.450  0.00  0.00     0.033 A 
ATOM      6  C6  UNL d   1      -1.383   4.291  -4.130  0.00  0.00    -0.057 A 
ENDROOT
BRANCH   1   7
ATOM      7  N   UNL d   1      -0.175   3.381  -6.000  0.00  0.00    -0.732 N 
ATOM      8  C   UNL d   1       0.943   4.300  -6.000  0.00  0.00     0.284 C 
ATOM      9  H3  UNL d   1       0.079   2.417  -5.797  0.00  0.00     0.395 HD
ENDBRANCH   1   7
TORSDOF 1
ENDMDL
