MODEL 1
REMARK minimizedAffinity -0.5916031
REMARK minimizedRMSD -1
REMARK  1 active torsions:
REMARK  status: ('A' for Active; 'I' for Inactive)
REMARK    1  A    between atoms: N_2  and  C1_3 
ROOT
ATOM      1  C1  UNL d   1      -0.445   3.065  -5.999  0.00  0.00     0.143 A 
ATOM      2  C2  UNL d   1      -1.843   3.117  -5.982  0.00  0.00    -0.057 A 
ATOM      3  C3  UNL d   1      -2.524   4.340  -5.997  0.00  0.00     0.033 A 
ATOM      4  C4  UNL d   1      -1.816   5.538  -5.999  0.00  0.00    -0.042 A 
ATOM      5  C5  UNL d   1      -0.426   5.510  -5.991  0.00  0.00     0.033 A 
ATOM      6  C6  UNL d   1       0.248   4.286  -5.983  0.00  0.00    -0.057 A 
ENDROOT
BRANCH   1   7
ATOM      7  N   UNL d   1       0.291   1.883  -5.886  0.00  0.00    -0.732 N 
ATOM      8  C   UNL d   1       1.734   1.901  -5.984  0.00  0.00     0.284 C 
ATOM      9  H3  UNL d   1      -0.069   1.270  -5.158  0.00  0.00     0.395 HD
ENDBRANCH   1   7
TORSDOF 1
ENDMDL
