MODEL 1
REMARK minimizedAffinity -1.64730835
REMARK minimizedRMSD -1
REMARK  1 active torsions:
REMARK  status: ('A' for Active; 'I' for Inactive)
REMARK    1  A    between atoms: N_2  and  C1_3 
ROOT
ATOM      1  C1  UNL d   1       0.134   4.087  -5.341  0.00  0.00     0.143 A 
ATOM      2  C2  UNL d   1       0.824   3.063  -5.999  0.00  0.00    -0.057 A 
ATOM      3  C3  UNL d   1       1.612   2.147  -5.292  0.00  0.00     0.033 A 
ATOM      4  C4  UNL d   1       1.747   2.257  -3.912  0.00  0.00    -0.042 A 
ATOM      5  C5  UNL d   1       1.090   3.281  -3.240  0.00  0.00     0.033 A 
ATOM      6  C6  UNL d   1       0.300   4.189  -3.951  0.00  0.00    -0.057 A 
ENDROOT
BRANCH   1   7
ATOM      7  N   UNL d   1      -0.585   5.088  -5.999  0.00  0.00    -0.732 N 
ATOM      8  C   UNL d   1      -2.032   5.076  -6.000  0.00  0.00     0.284 C 
ATOM      9  H3  UNL d   1      -0.177   6.010  -5.867  0.00  0.00     0.395 HD
ENDBRANCH   1   7
TORSDOF 1
ENDMDL
