MODEL 1
REMARK minimizedAffinity 5.76656151
REMARK minimizedRMSD -1
REMARK  1 active torsions:
REMARK  status: ('A' for Active; 'I' for Inactive)
REMARK    1  A    between atoms: N_2  and  C1_3 
ROOT
ATOM      1  C1  UNL d   1       2.142   1.802  -2.123  0.00  0.00     0.143 A 
ATOM      2  C2  UNL d   1       1.976   0.496  -1.650  0.00  0.00    -0.057 A 
ATOM      3  C3  UNL d   1       2.051  -0.605  -2.513  0.00  0.00     0.033 A 
ATOM      4  C4  UNL d   1       2.266  -0.415  -3.874  0.00  0.00    -0.042 A 
ATOM      5  C5  UNL d   1       2.409   0.876  -4.370  0.00  0.00     0.033 A 
ATOM      6  C6  UNL d   1       2.339   1.970  -3.503  0.00  0.00    -0.057 A 
ENDROOT
BRANCH   1   7
ATOM      7  N   UNL d   1       1.980   2.942  -1.332  0.00  0.00    -0.732 N 
ATOM      8  C   UNL d   1       3.131   3.640  -0.801  0.00  0.00     0.284 C 
ATOM      9  H3  UNL d   1       1.246   3.555  -1.681  0.00  0.00     0.395 HD
ENDBRANCH   1   7
TORSDOF 1
ENDMDL
