MODEL 1
REMARK minimizedAffinity 22.4331055
REMARK minimizedRMSD -1
REMARK  0 active torsions:
REMARK  status: ('A' for Active; 'I' for Inactive)
ROOT
ATOM      1  N1  IND d   1      -2.622   1.995  -5.690  0.00  0.00    -0.196 N 
ATOM      2  C2  IND d   1      -2.665   0.645  -5.478  0.00  0.00     0.054 A 
ATOM      3  C3  IND d   1      -3.560   0.349  -4.509  0.00  0.00    -0.031 A 
ATOM      4  C4  IND d   1      -5.139   1.911  -3.208  0.00  0.00     0.051 A 
ATOM      5  C5  IND d   1      -5.439   3.232  -3.028  0.00  0.00    -0.031 A 
ATOM      6  C6  IND d   1      -4.805   4.228  -3.742  0.00  0.00     0.015 A 
ATOM      7  C7  IND d   1      -3.850   3.938  -4.675  0.00  0.00    -0.016 A 
ATOM      8  C8  IND d   1      -3.538   2.598  -4.856  0.00  0.00    -0.047 A 
ATOM      9  C9  IND d   1      -4.148   1.586  -4.104  0.00  0.00    -0.096 A 
ATOM     10  HN1 IND d   1      -2.110   2.399  -6.249  0.00  0.00     0.298 HD
ENDROOT
TORSDOF 0
ENDMDL
