MODEL 1
REMARK minimizedAffinity 10.4809961
REMARK minimizedRMSD -1
REMARK  0 active torsions:
REMARK  status: ('A' for Active; 'I' for Inactive)
ROOT
ATOM      1  N1  IND d   1       5.944   0.370  -0.876  0.00  0.00    -0.196 N 
ATOM      2  C2  IND d   1       5.984   1.736  -0.869  0.00  0.00     0.054 A 
ATOM      3  C3  IND d   1       4.739   2.242  -0.729  0.00  0.00    -0.031 A 
ATOM      4  C4  IND d   1       2.502   1.013  -0.391  0.00  0.00     0.051 A 
ATOM      5  C5  IND d   1       1.954  -0.239  -0.364  0.00  0.00    -0.031 A 
ATOM      6  C6  IND d   1       2.725  -1.375  -0.506  0.00  0.00     0.015 A 
ATOM      7  C7  IND d   1       4.079  -1.301  -0.670  0.00  0.00    -0.016 A 
ATOM      8  C8  IND d   1       4.638  -0.032  -0.706  0.00  0.00    -0.047 A 
ATOM      9  C9  IND d   1       3.856   1.126  -0.605  0.00  0.00    -0.096 A 
ATOM     10  HN1 IND d   1       6.622  -0.152  -0.971  0.00  0.00     0.298 HD
ENDROOT
TORSDOF 0
ENDMDL
