MODEL 1
REMARK minimizedAffinity 17.6854115
REMARK minimizedRMSD -1
REMARK  0 active torsions:
REMARK  status: ('A' for Active; 'I' for Inactive)
ROOT
ATOM      1  N1  IND d   1      -5.249   1.114  -5.540  0.00  0.00    -0.196 N 
ATOM      2  C2  IND d   1      -5.732  -0.082  -5.088  0.00  0.00     0.054 A 
ATOM      3  C3  IND d   1      -5.997  -0.012  -3.764  0.00  0.00    -0.031 A 
ATOM      4  C4  IND d   1      -5.808   1.994  -2.162  0.00  0.00     0.051 A 
ATOM      5  C5  IND d   1      -5.379   3.290  -2.105  0.00  0.00    -0.031 A 
ATOM      6  C6  IND d   1      -4.878   3.942  -3.213  0.00  0.00     0.015 A 
ATOM      7  C7  IND d   1      -4.796   3.321  -4.428  0.00  0.00    -0.016 A 
ATOM      8  C8  IND d   1      -5.224   2.003  -4.488  0.00  0.00    -0.047 A 
ATOM      9  C9  IND d   1      -5.695   1.323  -3.357  0.00  0.00    -0.096 A 
ATOM     10  HN1 IND d   1      -5.002   1.283  -6.346  0.00  0.00     0.298 HD
ENDROOT
TORSDOF 0
ENDMDL
