MODEL 1
REMARK minimizedAffinity 10.8037434
REMARK minimizedRMSD -1
REMARK  0 active torsions:
REMARK  status: ('A' for Active; 'I' for Inactive)
ROOT
ATOM      1  N1  IND d   1       3.540  -1.236  -2.368  0.00  0.00    -0.196 N 
ATOM      2  C2  IND d   1       2.955  -1.973  -1.376  0.00  0.00     0.054 A 
ATOM      3  C3  IND d   1       3.247  -1.447  -0.166  0.00  0.00    -0.031 A 
ATOM      4  C4  IND d   1       4.580   0.677   0.416  0.00  0.00     0.051 A 
ATOM      5  C5  IND d   1       5.339   1.662  -0.151  0.00  0.00    -0.031 A 
ATOM      6  C6  IND d   1       5.538   1.734  -1.515  0.00  0.00     0.015 A 
ATOM      7  C7  IND d   1       4.975   0.826  -2.366  0.00  0.00    -0.016 A 
ATOM      8  C8  IND d   1       4.209  -0.179  -1.793  0.00  0.00    -0.047 A 
ATOM      9  C9  IND d   1       4.038  -0.282  -0.406  0.00  0.00    -0.096 A 
ATOM     10  HN1 IND d   1       3.497  -1.405  -3.211  0.00  0.00     0.298 HD
ENDROOT
TORSDOF 0
ENDMDL
