MODEL 1
REMARK minimizedAffinity 14.3286524
REMARK minimizedRMSD -1
REMARK  0 active torsions:
REMARK  status: ('A' for Active; 'I' for Inactive)
ROOT
ATOM      1  N1  IND d   1       4.312   0.285  -2.180  0.00  0.00    -0.196 N 
ATOM      2  C2  IND d   1       4.241   1.007  -1.021  0.00  0.00     0.054 A 
ATOM      3  C3  IND d   1       3.533   0.331  -0.089  0.00  0.00    -0.031 A 
ATOM      4  C4  IND d   1       2.486  -2.017  -0.214  0.00  0.00     0.051 A 
ATOM      5  C5  IND d   1       2.258  -3.050  -1.080  0.00  0.00    -0.031 A 
ATOM      6  C6  IND d   1       2.714  -3.024  -2.382  0.00  0.00     0.015 A 
ATOM      7  C7  IND d   1       3.429  -1.965  -2.865  0.00  0.00    -0.016 A 
ATOM      8  C8  IND d   1       3.656  -0.912  -1.991  0.00  0.00    -0.047 A 
ATOM      9  C9  IND d   1       3.159  -0.914  -0.682  0.00  0.00    -0.096 A 
ATOM     10  HN1 IND d   1       4.701   0.536  -2.904  0.00  0.00     0.298 HD
ENDROOT
TORSDOF 0
ENDMDL
