MODEL 1
REMARK minimizedAffinity 6.57663107
REMARK minimizedRMSD -1
REMARK  0 active torsions:
REMARK  status: ('A' for Active; 'I' for Inactive)
ROOT
ATOM      1  N1  IND d   1       5.840   3.243   5.991  0.00  0.00    -0.196 N 
ATOM      2  C2  IND d   1       5.833   2.132   5.194  0.00  0.00     0.054 A 
ATOM      3  C3  IND d   1       4.886   2.247   4.236  0.00  0.00    -0.031 A 
ATOM      4  C4  IND d   1       3.304   4.213   3.727  0.00  0.00     0.051 A 
ATOM      5  C5  IND d   1       2.916   5.434   4.202  0.00  0.00    -0.031 A 
ATOM      6  C6  IND d   1       3.496   6.000   5.319  0.00  0.00     0.015 A 
ATOM      7  C7  IND d   1       4.499   5.368   5.999  0.00  0.00    -0.016 A 
ATOM      8  C8  IND d   1       4.891   4.125   5.523  0.00  0.00    -0.047 A 
ATOM      9  C9  IND d   1       4.277   3.527   4.415  0.00  0.00    -0.096 A 
ATOM     10  HN1 IND d   1       6.352   3.370   6.670  0.00  0.00     0.298 HD
ENDROOT
TORSDOF 0
ENDMDL
