MODEL 1
REMARK minimizedAffinity 1.82126033
REMARK minimizedRMSD -1
REMARK  0 active torsions:
REMARK  status: ('A' for Active; 'I' for Inactive)
ROOT
ATOM      1  N1  IND d   1       5.649  -1.092  -3.611  0.00  0.00    -0.196 N 
ATOM      2  C2  IND d   1       6.000  -0.001  -2.866  0.00  0.00     0.054 A 
ATOM      3  C3  IND d   1       5.304   0.021  -1.707  0.00  0.00    -0.031 A 
ATOM      4  C4  IND d   1       3.613  -1.686  -0.783  0.00  0.00     0.051 A 
ATOM      5  C5  IND d   1       2.942  -2.828  -1.119  0.00  0.00    -0.031 A 
ATOM      6  C6  IND d   1       3.145  -3.465  -2.327  0.00  0.00     0.015 A 
ATOM      7  C7  IND d   1       4.039  -2.986  -3.242  0.00  0.00    -0.016 A 
ATOM      8  C8  IND d   1       4.717  -1.823  -2.907  0.00  0.00    -0.047 A 
ATOM      9  C9  IND d   1       4.484  -1.149  -1.701  0.00  0.00    -0.096 A 
ATOM     10  HN1 IND d   1       5.958  -1.289  -4.389  0.00  0.00     0.298 HD
ENDROOT
TORSDOF 0
ENDMDL
