MODEL 1
REMARK minimizedAffinity 9.55859661
REMARK minimizedRMSD -1
REMARK  0 active torsions:
REMARK  status: ('A' for Active; 'I' for Inactive)
ROOT
ATOM      1  N1  IND d   1      -0.236   1.608   0.105  0.00  0.00    -0.196 N 
ATOM      2  C2  IND d   1       0.625   1.668   1.165  0.00  0.00     0.054 A 
ATOM      3  C3  IND d   1       1.204   0.464   1.370  0.00  0.00    -0.031 A 
ATOM      4  C4  IND d   1       0.963  -1.717   0.024  0.00  0.00     0.051 A 
ATOM      5  C5  IND d   1       0.263  -2.273  -1.010  0.00  0.00    -0.031 A 
ATOM      6  C6  IND d   1      -0.656  -1.549  -1.741  0.00  0.00     0.015 A 
ATOM      7  C7  IND d   1      -0.902  -0.232  -1.472  0.00  0.00    -0.016 A 
ATOM      8  C8  IND d   1      -0.198   0.334  -0.419  0.00  0.00    -0.047 A 
ATOM      9  C9  IND d   1       0.705  -0.408   0.354  0.00  0.00    -0.096 A 
ATOM     10  HN1 IND d   1      -0.720   2.256  -0.186  0.00  0.00     0.298 HD
ENDROOT
TORSDOF 0
ENDMDL
