MODEL 1
REMARK minimizedAffinity -1.85002923
REMARK minimizedRMSD -1
REMARK  0 active torsions:
REMARK  status: ('A' for Active; 'I' for Inactive)
ROOT
ATOM      1  C   UNL d   1      -0.259   0.869   0.458  0.00  0.00     0.020 A 
ATOM      2  C1  UNL d   1      -0.631  -0.359   1.003  0.00  0.00     0.020 A 
ATOM      3  C2  UNL d   1      -0.066  -1.539   0.515  0.00  0.00     0.034 A 
ATOM      4  C3  UNL d   1       0.874  -1.494  -0.522  0.00  0.00     0.017 A 
ATOM      5  C4  UNL d   1       1.246  -0.260  -1.068  0.00  0.00     0.017 A 
ATOM      6  C5  UNL d   1       0.677   0.918  -0.575  0.00  0.00     0.034 A 
ATOM      7 Cl   UNL d   1       2.399  -0.124  -2.349  0.00  0.00    -0.070 Cl
ATOM      8 Cl1  UNL d   1       1.532  -2.992  -1.076  0.00  0.00    -0.070 Cl
ENDROOT
TORSDOF 0
ENDMDL
