MODEL 1
REMARK minimizedAffinity -5.04089165
REMARK minimizedRMSD -1
REMARK  0 active torsions:
REMARK  status: ('A' for Active; 'I' for Inactive)
ROOT
ATOM      1  C   UNL d   1       1.155   1.347  -1.845  0.00  0.00     0.020 A 
ATOM      2  C1  UNL d   1       1.841   0.406  -2.612  0.00  0.00     0.020 A 
ATOM      3  C2  UNL d   1       1.838  -0.938  -2.235  0.00  0.00     0.034 A 
ATOM      4  C3  UNL d   1       1.147  -1.345  -1.087  0.00  0.00     0.017 A 
ATOM      5  C4  UNL d   1       0.459  -0.400  -0.318  0.00  0.00     0.017 A 
ATOM      6  C5  UNL d   1       0.466   0.945  -0.701  0.00  0.00     0.034 A 
ATOM      7 Cl   UNL d   1      -0.417  -0.826   1.110  0.00  0.00    -0.070 Cl
ATOM      8 Cl1  UNL d   1       1.184  -3.024  -0.680  0.00  0.00    -0.070 Cl
ENDROOT
TORSDOF 0
ENDMDL
