MODEL 1
REMARK minimizedAffinity -1.03392947
REMARK minimizedRMSD -1
REMARK  0 active torsions:
REMARK  status: ('A' for Active; 'I' for Inactive)
ROOT
ATOM      1  C   UNL d   1       0.715   1.578  -1.271  0.00  0.00     0.020 A 
ATOM      2  C1  UNL d   1       1.731   0.626  -1.197  0.00  0.00     0.020 A 
ATOM      3  C2  UNL d   1       1.535  -0.550  -0.470  0.00  0.00     0.034 A 
ATOM      4  C3  UNL d   1       0.320  -0.777   0.185  0.00  0.00     0.017 A 
ATOM      5  C4  UNL d   1      -0.700   0.179   0.110  0.00  0.00     0.017 A 
ATOM      6  C5  UNL d   1      -0.498   1.354  -0.619  0.00  0.00     0.034 A 
ATOM      7 Cl   UNL d   1      -2.227  -0.031   0.893  0.00  0.00    -0.070 Cl
ATOM      8 Cl1  UNL d   1       0.146  -2.254   1.066  0.00  0.00    -0.070 Cl
ENDROOT
TORSDOF 0
ENDMDL
