MODEL 1
REMARK minimizedAffinity -0.56120199
REMARK minimizedRMSD -1
REMARK  0 active torsions:
REMARK  status: ('A' for Active; 'I' for Inactive)
ROOT
ATOM      1  C   UNL d   1      -0.630   0.233   0.776  0.00  0.00     0.020 A 
ATOM      2  C1  UNL d   1       0.086   1.259   0.161  0.00  0.00     0.020 A 
ATOM      3  C2  UNL d   1       1.177   0.956  -0.657  0.00  0.00     0.034 A 
ATOM      4  C3  UNL d   1       1.554  -0.376  -0.862  0.00  0.00     0.017 A 
ATOM      5  C4  UNL d   1       0.834  -1.405  -0.245  0.00  0.00     0.017 A 
ATOM      6  C5  UNL d   1      -0.257  -1.096   0.573  0.00  0.00     0.034 A 
ATOM      7 Cl   UNL d   1       1.239  -3.073  -0.452  0.00  0.00    -0.070 Cl
ATOM      8 Cl1  UNL d   1       2.913  -0.677  -1.886  0.00  0.00    -0.070 Cl
ENDROOT
TORSDOF 0
ENDMDL
