MODEL 1
REMARK minimizedAffinity -1.91998255
REMARK minimizedRMSD -1
REMARK  0 active torsions:
REMARK  status: ('A' for Active; 'I' for Inactive)
ROOT
ATOM      1  C   UNL d   1       0.351   1.667  -1.346  0.00  0.00     0.020 A 
ATOM      2  C1  UNL d   1       1.388   0.828  -0.941  0.00  0.00     0.020 A 
ATOM      3  C2  UNL d   1       1.197  -0.054   0.124  0.00  0.00     0.034 A 
ATOM      4  C3  UNL d   1      -0.034  -0.099   0.789  0.00  0.00     0.017 A 
ATOM      5  C4  UNL d   1      -1.075   0.744   0.382  0.00  0.00     0.017 A 
ATOM      6  C5  UNL d   1      -0.878   1.625  -0.686  0.00  0.00     0.034 A 
ATOM      7 Cl   UNL d   1      -2.622   0.745   1.152  0.00  0.00    -0.070 Cl
ATOM      8 Cl1  UNL d   1      -0.200  -1.215   2.098  0.00  0.00    -0.070 Cl
ENDROOT
TORSDOF 0
ENDMDL
