MODEL 1
REMARK minimizedAffinity -3.92558885
REMARK minimizedRMSD -1
REMARK  0 active torsions:
REMARK  status: ('A' for Active; 'I' for Inactive)
ROOT
ATOM      1  C   UNL d   1      -0.161   1.145  -0.590  0.00  0.00     0.020 A 
ATOM      2  C1  UNL d   1       0.725   1.232   0.482  0.00  0.00     0.020 A 
ATOM      3  C2  UNL d   1       0.280   0.966   1.779  0.00  0.00     0.034 A 
ATOM      4  C3  UNL d   1      -1.054   0.611   2.006  0.00  0.00     0.017 A 
ATOM      5  C4  UNL d   1      -1.943   0.524   0.929  0.00  0.00     0.017 A 
ATOM      6  C5  UNL d   1      -1.493   0.792  -0.367  0.00  0.00     0.034 A 
ATOM      7 Cl   UNL d   1      -3.605   0.093   1.131  0.00  0.00    -0.070 Cl
ATOM      8 Cl1  UNL d   1      -1.535   0.295   3.636  0.00  0.00    -0.070 Cl
ENDROOT
TORSDOF 0
ENDMDL
