MODEL 1
REMARK minimizedAffinity -3.18097639
REMARK minimizedRMSD -1
REMARK  0 active torsions:
REMARK  status: ('A' for Active; 'I' for Inactive)
ROOT
ATOM      1  C   UNL d   1      -0.756   1.394   0.196  0.00  0.00     0.020 A 
ATOM      2  C1  UNL d   1      -1.162   0.241   0.867  0.00  0.00     0.020 A 
ATOM      3  C2  UNL d   1      -0.674  -1.006   0.470  0.00  0.00     0.034 A 
ATOM      4  C3  UNL d   1       0.221  -1.103  -0.601  0.00  0.00     0.017 A 
ATOM      5  C4  UNL d   1       0.628   0.055  -1.274  0.00  0.00     0.017 A 
ATOM      6  C5  UNL d   1       0.137   1.301  -0.872  0.00  0.00     0.034 A 
ATOM      7 Cl   UNL d   1       1.731   0.014  -2.604  0.00  0.00    -0.070 Cl
ATOM      8 Cl1  UNL d   1       0.784  -2.678  -1.038  0.00  0.00    -0.070 Cl
ENDROOT
TORSDOF 0
ENDMDL
