MODEL 1
REMARK minimizedAffinity -3.02877307
REMARK minimizedRMSD -1
REMARK  0 active torsions:
REMARK  status: ('A' for Active; 'I' for Inactive)
ROOT
ATOM      1  C   UNL d   1       0.631  -0.482  -2.722  0.00  0.00     0.020 A 
ATOM      2  C1  UNL d   1       1.913  -0.010  -2.440  0.00  0.00     0.020 A 
ATOM      3  C2  UNL d   1       2.124   0.823  -1.340  0.00  0.00     0.034 A 
ATOM      4  C3  UNL d   1       1.052   1.187  -0.517  0.00  0.00     0.017 A 
ATOM      5  C4  UNL d   1      -0.234   0.713  -0.800  0.00  0.00     0.017 A 
ATOM      6  C5  UNL d   1      -0.440  -0.121  -1.904  0.00  0.00     0.034 A 
ATOM      7 Cl   UNL d   1      -1.607   1.119   0.169  0.00  0.00    -0.070 Cl
ATOM      8 Cl1  UNL d   1       1.385   2.221   0.827  0.00  0.00    -0.070 Cl
ENDROOT
TORSDOF 0
ENDMDL
