MODEL 1
REMARK minimizedAffinity -4.41942692
REMARK minimizedRMSD -1
REMARK  0 active torsions:
REMARK  status: ('A' for Active; 'I' for Inactive)
ROOT
ATOM      1  C   UNL d   1       1.208  -0.062  -2.654  0.00  0.00     0.020 A 
ATOM      2  C1  UNL d   1       0.577   1.115  -2.252  0.00  0.00     0.020 A 
ATOM      3  C2  UNL d   1      -0.195   1.130  -1.088  0.00  0.00     0.034 A 
ATOM      4  C3  UNL d   1      -0.338  -0.033  -0.323  0.00  0.00     0.017 A 
ATOM      5  C4  UNL d   1       0.296  -1.213  -0.727  0.00  0.00     0.017 A 
ATOM      6  C5  UNL d   1       1.068  -1.223  -1.893  0.00  0.00     0.034 A 
ATOM      7 Cl   UNL d   1       0.166  -2.688   0.165  0.00  0.00    -0.070 Cl
ATOM      8 Cl1  UNL d   1      -1.307   0.059   1.105  0.00  0.00    -0.070 Cl
ENDROOT
TORSDOF 0
ENDMDL
