MODEL 1
REMARK minimizedAffinity -0.749188244
REMARK minimizedRMSD -1
REMARK  0 active torsions:
REMARK  status: ('A' for Active; 'I' for Inactive)
ROOT
ATOM      1  C   UNL d   1       1.149   1.754  -0.702  0.00  0.00     0.020 A 
ATOM      2  C1  UNL d   1       1.919   1.135  -1.686  0.00  0.00     0.020 A 
ATOM      3  C2  UNL d   1       1.995  -0.258  -1.740  0.00  0.00     0.034 A 
ATOM      4  C3  UNL d   1       1.301  -1.037  -0.807  0.00  0.00     0.017 A 
ATOM      5  C4  UNL d   1       0.528  -0.415   0.180  0.00  0.00     0.017 A 
ATOM      6  C5  UNL d   1       0.455   0.980   0.229  0.00  0.00     0.034 A 
ATOM      7 Cl   UNL d   1      -0.356  -1.310   1.365  0.00  0.00    -0.070 Cl
ATOM      8 Cl1  UNL d   1       1.441  -2.755  -0.933  0.00  0.00    -0.070 Cl
ENDROOT
TORSDOF 0
ENDMDL
