MODEL 1
REMARK minimizedAffinity -4.82390738
REMARK minimizedRMSD -1
REMARK  0 active torsions:
REMARK  status: ('A' for Active; 'I' for Inactive)
ROOT
ATOM      1  C   UNL d   1       2.379  -2.006  -1.708  0.00  0.00     0.020 A 
ATOM      2  C1  UNL d   1       1.670  -2.741  -0.759  0.00  0.00     0.020 A 
ATOM      3  C2  UNL d   1       0.783  -2.095   0.105  0.00  0.00     0.034 A 
ATOM      4  C3  UNL d   1       0.603  -0.710   0.022  0.00  0.00     0.017 A 
ATOM      5  C4  UNL d   1       1.315   0.027  -0.931  0.00  0.00     0.017 A 
ATOM      6  C5  UNL d   1       2.201  -0.625  -1.794  0.00  0.00     0.034 A 
ATOM      7 Cl   UNL d   1       1.145   1.740  -1.094  0.00  0.00    -0.070 Cl
ATOM      8 Cl1  UNL d   1      -0.510   0.023   1.122  0.00  0.00    -0.070 Cl
ENDROOT
TORSDOF 0
ENDMDL
