MODEL 1
REMARK minimizedAffinity -1.18719244
REMARK minimizedRMSD -1
REMARK  0 active torsions:
REMARK  status: ('A' for Active; 'I' for Inactive)
ROOT
ATOM      1  C   UNL d   1      -0.848   1.481   0.632  0.00  0.00     0.020 A 
ATOM      2  C1  UNL d   1      -1.322   0.253   1.092  0.00  0.00     0.020 A 
ATOM      3  C2  UNL d   1      -0.666  -0.927   0.734  0.00  0.00     0.034 A 
ATOM      4  C3  UNL d   1       0.467  -0.882  -0.086  0.00  0.00     0.017 A 
ATOM      5  C4  UNL d   1       0.941   0.351  -0.548  0.00  0.00     0.017 A 
ATOM      6  C5  UNL d   1       0.281   1.530  -0.186  0.00  0.00     0.034 A 
ATOM      7 Cl   UNL d   1       2.333   0.487  -1.564  0.00  0.00    -0.070 Cl
ATOM      8 Cl1  UNL d   1       1.228  -2.380  -0.489  0.00  0.00    -0.070 Cl
ENDROOT
TORSDOF 0
ENDMDL
