MODEL 1
REMARK minimizedAffinity -0.923101664
REMARK minimizedRMSD -1
REMARK  0 active torsions:
REMARK  status: ('A' for Active; 'I' for Inactive)
ROOT
ATOM      1  C   UNL d   1       1.676  -2.256  -1.420  0.00  0.00     0.020 A 
ATOM      2  C1  UNL d   1       2.523  -1.262  -1.909  0.00  0.00     0.020 A 
ATOM      3  C2  UNL d   1       2.350   0.063  -1.505  0.00  0.00     0.034 A 
ATOM      4  C3  UNL d   1       1.328   0.398  -0.608  0.00  0.00     0.017 A 
ATOM      5  C4  UNL d   1       0.479  -0.600  -0.118  0.00  0.00     0.017 A 
ATOM      6  C5  UNL d   1       0.657  -1.926  -0.526  0.00  0.00     0.034 A 
ATOM      7 Cl   UNL d   1      -0.803  -0.264   0.991  0.00  0.00    -0.070 Cl
ATOM      8 Cl1  UNL d   1       1.173   2.057  -0.151  0.00  0.00    -0.070 Cl
ENDROOT
TORSDOF 0
ENDMDL
