MODEL 1
REMARK minimizedAffinity -1.22425604
REMARK minimizedRMSD -1
REMARK  0 active torsions:
REMARK  status: ('A' for Active; 'I' for Inactive)
ROOT
ATOM      1  C   UNL d   1       0.550  -1.286  -1.840  0.00  0.00     0.020 A 
ATOM      2  C1  UNL d   1       0.625  -2.054  -0.679  0.00  0.00     0.020 A 
ATOM      3  C2  UNL d   1       0.072  -1.577   0.511  0.00  0.00     0.034 A 
ATOM      4  C3  UNL d   1      -0.560  -0.328   0.542  0.00  0.00     0.017 A 
ATOM      5  C4  UNL d   1      -0.635   0.442  -0.624  0.00  0.00     0.017 A 
ATOM      6  C5  UNL d   1      -0.079  -0.040  -1.813  0.00  0.00     0.034 A 
ATOM      7 Cl   UNL d   1      -1.398   1.993  -0.663  0.00  0.00    -0.070 Cl
ATOM      8 Cl1  UNL d   1      -1.222   0.200   2.048  0.00  0.00    -0.070 Cl
ENDROOT
TORSDOF 0
ENDMDL
