MODEL 1
REMARK minimizedAffinity -3.31935525
REMARK minimizedRMSD -1
REMARK  0 active torsions:
REMARK  status: ('A' for Active; 'I' for Inactive)
ROOT
ATOM      1  C   UNL d   1      -0.822   2.007  -1.158  0.00  0.00     0.020 A 
ATOM      2  C1  UNL d   1       0.338   1.251  -0.987  0.00  0.00     0.020 A 
ATOM      3  C2  UNL d   1       0.378   0.242  -0.023  0.00  0.00     0.034 A 
ATOM      4  C3  UNL d   1      -0.743  -0.015   0.774  0.00  0.00     0.017 A 
ATOM      5  C4  UNL d   1      -1.907   0.744   0.602  0.00  0.00     0.017 A 
ATOM      6  C5  UNL d   1      -1.942   1.753  -0.365  0.00  0.00     0.034 A 
ATOM      7 Cl   UNL d   1      -3.330   0.486   1.548  0.00  0.00    -0.070 Cl
ATOM      8 Cl1  UNL d   1      -0.623  -1.278   1.947  0.00  0.00    -0.070 Cl
ENDROOT
TORSDOF 0
ENDMDL
