MODEL 1
REMARK minimizedAffinity -4.85508299
REMARK minimizedRMSD -1
REMARK  0 active torsions:
REMARK  status: ('A' for Active; 'I' for Inactive)
ROOT
ATOM      1  C   UNL d   1       1.767   0.190  -2.223  0.00  0.00     0.020 A 
ATOM      2  C1  UNL d   1       0.811  -0.812  -2.058  0.00  0.00     0.020 A 
ATOM      3  C2  UNL d   1       0.044  -0.860  -0.892  0.00  0.00     0.034 A 
ATOM      4  C3  UNL d   1       0.232   0.095   0.114  0.00  0.00     0.017 A 
ATOM      5  C4  UNL d   1       1.191   1.100  -0.053  0.00  0.00     0.017 A 
ATOM      6  C5  UNL d   1       1.956   1.144  -1.222  0.00  0.00     0.034 A 
ATOM      7 Cl   UNL d   1       1.479   2.314   1.144  0.00  0.00    -0.070 Cl
ATOM      8 Cl1  UNL d   1      -0.752  -0.025   1.529  0.00  0.00    -0.070 Cl
ENDROOT
TORSDOF 0
ENDMDL
