MODEL 1
REMARK minimizedAffinity -5.37430096
REMARK minimizedRMSD -1
REMARK  0 active torsions:
REMARK  status: ('A' for Active; 'I' for Inactive)
ROOT
ATOM      1  C   UNL d   1       2.312   0.021  -2.803  0.00  0.00     0.020 A 
ATOM      2  C1  UNL d   1       1.642   1.101  -2.232  0.00  0.00     0.020 A 
ATOM      3  C2  UNL d   1       0.738   0.890  -1.189  0.00  0.00     0.034 A 
ATOM      4  C3  UNL d   1       0.503  -0.405  -0.713  0.00  0.00     0.017 A 
ATOM      5  C4  UNL d   1       1.176  -1.489  -1.287  0.00  0.00     0.017 A 
ATOM      6  C5  UNL d   1       2.080  -1.272  -2.332  0.00  0.00     0.034 A 
ATOM      7 Cl   UNL d   1       0.938  -3.116  -0.754  0.00  0.00    -0.070 Cl
ATOM      8 Cl1  UNL d   1      -0.628  -0.593   0.580  0.00  0.00    -0.070 Cl
ENDROOT
TORSDOF 0
ENDMDL
