MODEL 1
REMARK minimizedAffinity -2.17871737
REMARK minimizedRMSD -1
REMARK  0 active torsions:
REMARK  status: ('A' for Active; 'I' for Inactive)
ROOT
ATOM      1  C   UNL d   1       1.018   2.372  -0.742  0.00  0.00     0.020 A 
ATOM      2  C1  UNL d   1       1.904   1.492  -1.361  0.00  0.00     0.020 A 
ATOM      3  C2  UNL d   1       1.694   0.114  -1.273  0.00  0.00     0.034 A 
ATOM      4  C3  UNL d   1       0.597  -0.387  -0.564  0.00  0.00     0.017 A 
ATOM      5  C4  UNL d   1      -0.292   0.497   0.058  0.00  0.00     0.017 A 
ATOM      6  C5  UNL d   1      -0.077   1.876  -0.034  0.00  0.00     0.034 A 
ATOM      7 Cl   UNL d   1      -1.669  -0.046   0.950  0.00  0.00    -0.070 Cl
ATOM      8 Cl1  UNL d   1       0.399  -2.103  -0.497  0.00  0.00    -0.070 Cl
ENDROOT
TORSDOF 0
ENDMDL
