MODEL 1
REMARK minimizedAffinity 1.29780722
REMARK minimizedRMSD -1
REMARK  0 active torsions:
REMARK  status: ('A' for Active; 'I' for Inactive)
ROOT
ATOM      1  C   UNL d   1       3.533   1.673   4.681  0.00  0.00     0.023 A 
ATOM      2  C1  UNL d   1       4.723   2.134   4.117  0.00  0.00     0.003 A 
ATOM      3  C2  UNL d   1       5.240   3.376   4.491  0.00  0.00     0.048 A 
ATOM      4  C3  UNL d   1       4.563   4.151   5.432  0.00  0.00     0.023 A 
ATOM      5  C4  UNL d   1       3.373   3.694   6.000  0.00  0.00     0.048 A 
ATOM      6  C5  UNL d   1       2.859   2.452   5.621  0.00  0.00     0.003 A 
ATOM      7  I   UNL d   1       5.331   6.000   5.992  0.00  0.00    -0.146 I 
ENDROOT
TORSDOF 0
ENDMDL
