MODEL 1
REMARK minimizedAffinity -2.57028913
REMARK minimizedRMSD -1
REMARK  0 active torsions:
REMARK  status: ('A' for Active; 'I' for Inactive)
ROOT
ATOM      1  C   UNL d   1       3.017   1.884   4.203  0.00  0.00     0.023 A 
ATOM      2  C1  UNL d   1       3.576   1.895   5.481  0.00  0.00     0.003 A 
ATOM      3  C2  UNL d   1       4.118   3.074   5.997  0.00  0.00     0.048 A 
ATOM      4  C3  UNL d   1       4.095   4.239   5.231  0.00  0.00     0.023 A 
ATOM      5  C4  UNL d   1       3.536   4.233   3.952  0.00  0.00     0.048 A 
ATOM      6  C5  UNL d   1       2.997   3.052   3.440  0.00  0.00     0.003 A 
ATOM      7  I   UNL d   1       4.901   5.995   5.998  0.00  0.00    -0.146 I 
ENDROOT
TORSDOF 0
ENDMDL
