MODEL 1
REMARK minimizedAffinity -4.39958286
REMARK minimizedRMSD -1
REMARK  0 active torsions:
REMARK  status: ('A' for Active; 'I' for Inactive)
ROOT
ATOM      1  C   UNL d   1       2.432   1.148   5.064  0.00  0.00     0.023 A 
ATOM      2  C1  UNL d   1       3.422   1.450   6.000  0.00  0.00     0.003 A 
ATOM      3  C2  UNL d   1       4.024   2.709   5.999  0.00  0.00     0.048 A 
ATOM      4  C3  UNL d   1       3.632   3.663   5.060  0.00  0.00     0.023 A 
ATOM      5  C4  UNL d   1       2.642   3.366   4.122  0.00  0.00     0.048 A 
ATOM      6  C5  UNL d   1       2.042   2.105   4.127  0.00  0.00     0.003 A 
ATOM      7  I   UNL d   1       4.528   5.538   5.056  0.00  0.00    -0.146 I 
ENDROOT
TORSDOF 0
ENDMDL
