MODEL 1
REMARK minimizedAffinity -2.05004883
REMARK minimizedRMSD -1
REMARK  0 active torsions:
REMARK  status: ('A' for Active; 'I' for Inactive)
ROOT
ATOM      1  C   UNL d   1       5.144   5.997   6.000  0.00  0.00     0.023 A 
ATOM      2  C1  UNL d   1       5.917   4.836   5.999  0.00  0.00     0.003 A 
ATOM      3  C2  UNL d   1       5.302   3.586   5.900  0.00  0.00     0.048 A 
ATOM      4  C3  UNL d   1       3.913   3.505   5.801  0.00  0.00     0.023 A 
ATOM      5  C4  UNL d   1       3.136   4.664   5.800  0.00  0.00     0.048 A 
ATOM      6  C5  UNL d   1       3.755   5.911   5.901  0.00  0.00     0.003 A 
ATOM      7  I   UNL d   1       2.996   1.646   5.652  0.00  0.00    -0.146 I 
ENDROOT
TORSDOF 0
ENDMDL
