MODEL 1
REMARK minimizedAffinity 3.37576056
REMARK minimizedRMSD -1
REMARK  0 active torsions:
REMARK  status: ('A' for Active; 'I' for Inactive)
ROOT
ATOM      1  C   UNL d   1       4.859   5.174   4.055  0.00  0.00     0.023 A 
ATOM      2  C1  UNL d   1       4.762   5.046   5.441  0.00  0.00     0.003 A 
ATOM      3  C2  UNL d   1       4.193   3.900   5.999  0.00  0.00     0.048 A 
ATOM      4  C3  UNL d   1       3.725   2.884   5.167  0.00  0.00     0.023 A 
ATOM      5  C4  UNL d   1       3.820   3.007   3.780  0.00  0.00     0.048 A 
ATOM      6  C5  UNL d   1       4.389   4.156   3.225  0.00  0.00     0.003 A 
ATOM      7  I   UNL d   1       2.878   1.177   5.996  0.00  0.00    -0.146 I 
ENDROOT
TORSDOF 0
ENDMDL
