MODEL 1
REMARK minimizedAffinity -3.82009697
REMARK minimizedRMSD -1
REMARK  0 active torsions:
REMARK  status: ('A' for Active; 'I' for Inactive)
ROOT
ATOM      1  C   UNL d   1       0.668   5.191   3.739  0.00  0.00     0.023 A 
ATOM      2  C1  UNL d   1       0.757   4.887   5.098  0.00  0.00     0.003 A 
ATOM      3  C2  UNL d   1       1.992   4.945   5.748  0.00  0.00     0.048 A 
ATOM      4  C3  UNL d   1       3.133   5.310   5.034  0.00  0.00     0.023 A 
ATOM      5  C4  UNL d   1       3.048   5.616   3.675  0.00  0.00     0.048 A 
ATOM      6  C5  UNL d   1       1.812   5.555   3.029  0.00  0.00     0.003 A 
ATOM      7  I   UNL d   1       4.971   5.398   6.000  0.00  0.00    -0.146 I 
ENDROOT
TORSDOF 0
ENDMDL
