MODEL 1
REMARK minimizedAffinity -2.42750978
REMARK minimizedRMSD -1
REMARK  0 active torsions:
REMARK  status: ('A' for Active; 'I' for Inactive)
ROOT
ATOM      1  C   UNL d   1       4.089   6.000   5.348  0.00  0.00     0.023 A 
ATOM      2  C1  UNL d   1       2.783   5.837   5.811  0.00  0.00     0.003 A 
ATOM      3  C2  UNL d   1       2.261   4.555   5.998  0.00  0.00     0.048 A 
ATOM      4  C3  UNL d   1       3.052   3.440   5.721  0.00  0.00     0.023 A 
ATOM      5  C4  UNL d   1       4.359   3.598   5.259  0.00  0.00     0.048 A 
ATOM      6  C5  UNL d   1       4.876   4.882   5.073  0.00  0.00     0.003 A 
ATOM      7  I   UNL d   1       2.278   1.531   5.999  0.00  0.00    -0.146 I 
ENDROOT
TORSDOF 0
ENDMDL
