MODEL 1
REMARK minimizedAffinity 2.954391
REMARK minimizedRMSD -1
REMARK  0 active torsions:
REMARK  status: ('A' for Active; 'I' for Inactive)
ROOT
ATOM      1  C   UNL d   1      -0.555   5.815   4.570  0.00  0.00     0.023 A 
ATOM      2  C1  UNL d   1      -0.165   5.258   5.788  0.00  0.00     0.003 A 
ATOM      3  C2  UNL d   1       1.164   4.883   5.991  0.00  0.00     0.048 A 
ATOM      4  C3  UNL d   1       2.099   5.069   4.973  0.00  0.00     0.023 A 
ATOM      5  C4  UNL d   1       1.713   5.626   3.753  0.00  0.00     0.048 A 
ATOM      6  C5  UNL d   1       0.383   5.999   3.554  0.00  0.00     0.003 A 
ATOM      7  I   UNL d   1       4.079   4.512   5.274  0.00  0.00    -0.146 I 
ENDROOT
TORSDOF 0
ENDMDL
