MODEL 1
REMARK minimizedAffinity 4.10364866
REMARK minimizedRMSD -1
REMARK  0 active torsions:
REMARK  status: ('A' for Active; 'I' for Inactive)
ROOT
ATOM      1  C   UNL d   1      -2.523  -1.125   2.845  0.00  0.00     0.172 C 
ATOM      2  N   UNL d   1      -1.112  -0.867   3.006  0.00  0.00    -0.070 N 
ATOM      3  C1  UNL d   1      -0.480   0.317   2.733  0.00  0.00    -0.004 A 
ATOM      4  C2  UNL d   1       0.859   0.156   3.016  0.00  0.00    -0.047 A 
ATOM      5  C3  UNL d   1       1.039  -1.171   3.475  0.00  0.00    -0.047 A 
ATOM      6  C4  UNL d   1      -0.197  -1.782   3.458  0.00  0.00    -0.004 A 
ENDROOT
TORSDOF 0
ENDMDL
