MODEL 1
REMARK minimizedAffinity 6.96600056
REMARK minimizedRMSD -1
REMARK  0 active torsions:
REMARK  status: ('A' for Active; 'I' for Inactive)
ROOT
ATOM      1  C   UNL d   1       1.785  -5.735  -5.994  0.00  0.00     0.172 C 
ATOM      2  N   UNL d   1       0.531  -5.017  -5.996  0.00  0.00    -0.070 N 
ATOM      3  C1  UNL d   1      -0.714  -5.586  -5.998  0.00  0.00    -0.004 A 
ATOM      4  C2  UNL d   1      -1.643  -4.568  -6.000  0.00  0.00    -0.047 A 
ATOM      5  C3  UNL d   1      -0.932  -3.345  -6.000  0.00  0.00    -0.047 A 
ATOM      6  C4  UNL d   1       0.413  -3.653  -5.998  0.00  0.00    -0.004 A 
ENDROOT
TORSDOF 0
ENDMDL
