MODEL 1
REMARK minimizedAffinity 2.08307385
REMARK minimizedRMSD -1
REMARK  0 active torsions:
REMARK  status: ('A' for Active; 'I' for Inactive)
ROOT
ATOM      1  C   UNL d   1       2.218  -4.484  -5.998  0.00  0.00     0.172 C 
ATOM      2  N   UNL d   1       0.802  -4.204  -5.998  0.00  0.00    -0.070 N 
ATOM      3  C1  UNL d   1       0.235  -2.958  -5.999  0.00  0.00    -0.004 A 
ATOM      4  C2  UNL d   1      -1.134  -3.117  -5.999  0.00  0.00    -0.047 A 
ATOM      5  C3  UNL d   1      -1.399  -4.507  -5.998  0.00  0.00    -0.047 A 
ATOM      6  C4  UNL d   1      -0.183  -5.157  -5.997  0.00  0.00    -0.004 A 
ENDROOT
TORSDOF 0
ENDMDL
