MODEL 1
REMARK minimizedAffinity 1.74915755
REMARK minimizedRMSD -1
REMARK  0 active torsions:
REMARK  status: ('A' for Active; 'I' for Inactive)
ROOT
ATOM      1  C   UNL d   1       5.168   4.127   1.104  0.00  0.00     0.172 C 
ATOM      2  N   UNL d   1       4.993   4.886   2.320  0.00  0.00    -0.070 N 
ATOM      3  C1  UNL d   1       5.995   5.287   3.162  0.00  0.00    -0.004 A 
ATOM      4  C2  UNL d   1       5.419   5.983   4.203  0.00  0.00    -0.047 A 
ATOM      5  C3  UNL d   1       4.022   6.000   3.979  0.00  0.00    -0.047 A 
ATOM      6  C4  UNL d   1       3.786   5.313   2.806  0.00  0.00    -0.004 A 
ENDROOT
TORSDOF 0
ENDMDL
