MODEL 1
REMARK minimizedAffinity 4.15042734
REMARK minimizedRMSD -1
REMARK  0 active torsions:
REMARK  status: ('A' for Active; 'I' for Inactive)
ROOT
ATOM      1  C   UNL d   1       0.168   1.778   4.635  0.00  0.00     0.172 C 
ATOM      2  N   UNL d   1       0.383   0.495   4.009  0.00  0.00    -0.070 N 
ATOM      3  C1  UNL d   1       1.209  -0.493   4.476  0.00  0.00    -0.004 A 
ATOM      4  C2  UNL d   1       1.136  -1.554   3.598  0.00  0.00    -0.047 A 
ATOM      5  C3  UNL d   1       0.237  -1.190   2.568  0.00  0.00    -0.047 A 
ATOM      6  C4  UNL d   1      -0.214   0.083   2.847  0.00  0.00    -0.004 A 
ENDROOT
TORSDOF 0
ENDMDL
