MODEL 1
REMARK minimizedAffinity 10.7337132
REMARK minimizedRMSD -1
REMARK  0 active torsions:
REMARK  status: ('A' for Active; 'I' for Inactive)
ROOT
ATOM      1  C   UNL d   1      -3.271  -4.308  -5.994  0.00  0.00     0.172 C 
ATOM      2  N   UNL d   1      -1.891  -4.720  -5.887  0.00  0.00    -0.070 N 
ATOM      3  C1  UNL d   1      -1.455  -5.999  -5.667  0.00  0.00    -0.004 A 
ATOM      4  C2  UNL d   1      -0.078  -5.975  -5.632  0.00  0.00    -0.047 A 
ATOM      5  C3  UNL d   1       0.328  -4.635  -5.838  0.00  0.00    -0.047 A 
ATOM      6  C4  UNL d   1      -0.815  -3.880  -5.993  0.00  0.00    -0.004 A 
ENDROOT
TORSDOF 0
ENDMDL
