MODEL 1
REMARK minimizedAffinity 10.0959215
REMARK minimizedRMSD -1
REMARK  0 active torsions:
REMARK  status: ('A' for Active; 'I' for Inactive)
ROOT
ATOM      1  C   UNL d   1       2.679  -3.009  -4.690  0.00  0.00     0.172 C 
ATOM      2  N   UNL d   1       1.706  -1.949  -4.567  0.00  0.00    -0.070 N 
ATOM      3  C1  UNL d   1       0.363  -2.067  -4.808  0.00  0.00    -0.004 A 
ATOM      4  C2  UNL d   1      -0.216  -0.838  -4.577  0.00  0.00    -0.047 A 
ATOM      5  C3  UNL d   1       0.814   0.049  -4.185  0.00  0.00    -0.047 A 
ATOM      6  C4  UNL d   1       1.993  -0.665  -4.187  0.00  0.00    -0.004 A 
ENDROOT
TORSDOF 0
ENDMDL
