MODEL 1
REMARK minimizedAffinity -5.60291147
REMARK minimizedRMSD -1
REMARK  2 active torsions:
REMARK  status: ('A' for Active; 'I' for Inactive)
REMARK    1  A    between atoms: C2'_3  and  C1'_4 
REMARK    2  A    between atoms: C1'_4  and  C1_5 
ROOT
ATOM      1  C1  I4B d   1       4.170   4.222  -3.763  0.00  0.00    -0.075 A 
ATOM      2  C2  I4B d   1       3.241   4.879  -2.996  0.00  0.00     0.003 A 
ATOM      3  C3  I4B d   1       3.646   5.587  -1.838  0.00  0.00     0.002 A 
ATOM      4  C4  I4B d   1       4.972   5.570  -1.460  0.00  0.00    -0.004 A 
ATOM      5  C5  I4B d   1       5.916   4.922  -2.252  0.00  0.00     0.002 A 
ATOM      6  C6  I4B d   1       5.515   4.254  -3.417  0.00  0.00     0.003 A 
ENDROOT
BRANCH   1   7
ATOM      7  C1' I4B d   1       3.704   3.456  -4.961  0.00  0.00     0.060 C 
BRANCH   7   8
ATOM      8  C2' I4B d   1       4.859   3.369  -5.938  0.00  0.00    -0.013 C 
ATOM      9  C4' I4B d   1       5.625   4.665  -5.994  0.00  0.00     0.013 C 
ATOM     10  C3' I4B d   1       5.743   2.236  -5.510  0.00  0.00     0.013 C 
ENDBRANCH   7   8
ENDBRANCH   1   7
TORSDOF 2
ENDMDL
