MODEL 1
REMARK minimizedAffinity -0.85279727
REMARK minimizedRMSD -1
REMARK  2 active torsions:
REMARK  status: ('A' for Active; 'I' for Inactive)
REMARK    1  A    between atoms: C2'_3  and  C1'_4 
REMARK    2  A    between atoms: C1'_4  and  C1_5 
ROOT
ATOM      1  C1  I4B d   1       4.859   4.755  -3.859  0.00  0.00    -0.075 A 
ATOM      2  C2  I4B d   1       5.127   4.883  -2.518  0.00  0.00     0.003 A 
ATOM      3  C3  I4B d   1       4.074   5.111  -1.600  0.00  0.00     0.002 A 
ATOM      4  C4  I4B d   1       2.783   5.254  -2.067  0.00  0.00    -0.004 A 
ATOM      5  C5  I4B d   1       2.511   5.102  -3.423  0.00  0.00     0.002 A 
ATOM      6  C6  I4B d   1       3.553   4.839  -4.324  0.00  0.00     0.003 A 
ENDROOT
BRANCH   1   7
ATOM      7  C1' I4B d   1       5.999   4.548  -4.805  0.00  0.00     0.060 C 
BRANCH   7   8
ATOM      8  C2' I4B d   1       5.612   3.442  -5.766  0.00  0.00    -0.013 C 
ATOM      9  C4' I4B d   1       5.999   2.090  -5.227  0.00  0.00     0.013 C 
ATOM     10  C3' I4B d   1       4.133   3.528  -5.999  0.00  0.00     0.013 C 
ENDBRANCH   7   8
ENDBRANCH   1   7
TORSDOF 2
ENDMDL
