MODEL 1
REMARK minimizedAffinity 11.4755373
REMARK minimizedRMSD -1
REMARK  2 active torsions:
REMARK  status: ('A' for Active; 'I' for Inactive)
REMARK    1  A    between atoms: C2'_3  and  C1'_4 
REMARK    2  A    between atoms: C1'_4  and  C1_5 
ROOT
ATOM      1  C1  I4B d   1       0.556  -3.378  -1.252  0.00  0.00    -0.075 A 
ATOM      2  C2  I4B d   1       0.239  -3.023   0.035  0.00  0.00     0.003 A 
ATOM      3  C3  I4B d   1      -0.793  -2.085   0.282  0.00  0.00     0.002 A 
ATOM      4  C4  I4B d   1      -1.442  -1.493  -0.783  0.00  0.00    -0.004 A 
ATOM      5  C5  I4B d   1      -1.135  -1.872  -2.086  0.00  0.00     0.002 A 
ATOM      6  C6  I4B d   1      -0.138  -2.830  -2.323  0.00  0.00     0.003 A 
ENDROOT
BRANCH   1   7
ATOM      7  C1' I4B d   1       1.673  -4.347  -1.478  0.00  0.00     0.060 C 
BRANCH   7   8
ATOM      8  C2' I4B d   1       1.120  -5.747  -1.300  0.00  0.00    -0.013 C 
ATOM      9  C4' I4B d   1       0.724  -5.999   0.131  0.00  0.00     0.013 C 
ATOM     10  C3' I4B d   1      -0.053  -5.901  -2.222  0.00  0.00     0.013 C 
ENDBRANCH   7   8
ENDBRANCH   1   7
TORSDOF 2
ENDMDL
