MODEL 1
REMARK minimizedAffinity -1.33439982
REMARK minimizedRMSD -1
REMARK  2 active torsions:
REMARK  status: ('A' for Active; 'I' for Inactive)
REMARK    1  A    between atoms: C2'_3  and  C1'_4 
REMARK    2  A    between atoms: C1'_4  and  C1_5 
ROOT
ATOM      1  C1  I4B d   1       4.854   4.074  -4.645  0.00  0.00    -0.075 A 
ATOM      2  C2  I4B d   1       3.770   4.044  -3.802  0.00  0.00     0.003 A 
ATOM      3  C3  I4B d   1       3.781   4.793  -2.600  0.00  0.00     0.002 A 
ATOM      4  C4  I4B d   1       4.908   5.512  -2.258  0.00  0.00    -0.004 A 
ATOM      5  C5  I4B d   1       5.996   5.559  -3.124  0.00  0.00     0.002 A 
ATOM      6  C6  I4B d   1       5.965   4.846  -4.331  0.00  0.00     0.003 A 
ENDROOT
BRANCH   1   7
ATOM      7  C1' I4B d   1       4.822   3.246  -5.890  0.00  0.00     0.060 C 
BRANCH   7   8
ATOM      8  C2' I4B d   1       5.583   1.964  -5.617  0.00  0.00    -0.013 C 
ATOM      9  C4' I4B d   1       5.999   1.874  -4.173  0.00  0.00     0.013 C 
ATOM     10  C3' I4B d   1       4.702   0.812  -6.000  0.00  0.00     0.013 C 
ENDBRANCH   7   8
ENDBRANCH   1   7
TORSDOF 2
ENDMDL
