MODEL 1
REMARK minimizedAffinity 4.84216881
REMARK minimizedRMSD -1
REMARK  2 active torsions:
REMARK  status: ('A' for Active; 'I' for Inactive)
REMARK    1  A    between atoms: C2'_3  and  C1'_4 
REMARK    2  A    between atoms: C1'_4  and  C1_5 
ROOT
ATOM      1  C1  I4B d   1       3.759   4.424  -1.177  0.00  0.00    -0.075 A 
ATOM      2  C2  I4B d   1       5.056   4.868  -1.235  0.00  0.00     0.003 A 
ATOM      3  C3  I4B d   1       5.650   5.169  -2.485  0.00  0.00     0.002 A 
ATOM      4  C4  I4B d   1       4.933   4.964  -3.646  0.00  0.00    -0.004 A 
ATOM      5  C5  I4B d   1       3.610   4.535  -3.583  0.00  0.00     0.002 A 
ATOM      6  C6  I4B d   1       3.015   4.275  -2.340  0.00  0.00     0.003 A 
ENDROOT
BRANCH   1   7
ATOM      7  C1' I4B d   1       3.173   4.084   0.157  0.00  0.00     0.060 C 
BRANCH   7   8
ATOM      8  C2' I4B d   1       1.667   4.215   0.053  0.00  0.00    -0.013 C 
ATOM      9  C4' I4B d   1       0.995   2.871   0.153  0.00  0.00     0.013 C 
ATOM     10  C3' I4B d   1       1.205   5.134   1.144  0.00  0.00     0.013 C 
ENDBRANCH   7   8
ENDBRANCH   1   7
TORSDOF 2
ENDMDL
