MODEL 1
REMARK minimizedAffinity 1.49694872
REMARK minimizedRMSD -1
REMARK  2 active torsions:
REMARK  status: ('A' for Active; 'I' for Inactive)
REMARK    1  A    between atoms: C2'_3  and  C1'_4 
REMARK    2  A    between atoms: C1'_4  and  C1_5 
ROOT
ATOM      1  C1  I4B d   1       5.010   4.023  -4.555  0.00  0.00    -0.075 A 
ATOM      2  C2  I4B d   1       3.967   3.908  -3.669  0.00  0.00     0.003 A 
ATOM      3  C3  I4B d   1       3.879   4.777  -2.555  0.00  0.00     0.002 A 
ATOM      4  C4  I4B d   1       4.876   5.707  -2.338  0.00  0.00    -0.004 A 
ATOM      5  C5  I4B d   1       5.920   5.837  -3.249  0.00  0.00     0.002 A 
ATOM      6  C6  I4B d   1       5.981   4.998  -4.371  0.00  0.00     0.003 A 
ENDROOT
BRANCH   1   7
ATOM      7  C1' I4B d   1       5.089   3.067  -5.703  0.00  0.00     0.060 C 
BRANCH   7   8
ATOM      8  C2' I4B d   1       5.994   1.922  -5.295  0.00  0.00    -0.013 C 
ATOM      9  C4' I4B d   1       5.994   1.732  -3.801  0.00  0.00     0.013 C 
ATOM     10  C3' I4B d   1       5.521   0.685  -5.999  0.00  0.00     0.013 C 
ENDBRANCH   7   8
ENDBRANCH   1   7
TORSDOF 2
ENDMDL
