MODEL 1
REMARK minimizedAffinity -0.478016943
REMARK minimizedRMSD -1
REMARK  2 active torsions:
REMARK  status: ('A' for Active; 'I' for Inactive)
REMARK    1  A    between atoms: C2'_3  and  C1'_4 
REMARK    2  A    between atoms: C1'_4  and  C1_5 
ROOT
ATOM      1  C1  I4B d   1       5.338   4.594  -3.680  0.00  0.00    -0.075 A 
ATOM      2  C2  I4B d   1       5.220   3.227  -3.672  0.00  0.00     0.003 A 
ATOM      3  C3  I4B d   1       5.508   2.480  -4.840  0.00  0.00     0.002 A 
ATOM      4  C4  I4B d   1       5.859   3.141  -6.000  0.00  0.00    -0.004 A 
ATOM      5  C5  I4B d   1       6.000   4.526  -5.999  0.00  0.00     0.002 A 
ATOM      6  C6  I4B d   1       5.750   5.256  -4.829  0.00  0.00     0.003 A 
ENDROOT
BRANCH   1   7
ATOM      7  C1' I4B d   1       4.994   5.354  -2.438  0.00  0.00     0.060 C 
BRANCH   7   8
ATOM      8  C2' I4B d   1       3.512   5.666  -2.477  0.00  0.00    -0.013 C 
ATOM      9  C4' I4B d   1       3.061   5.999  -3.875  0.00  0.00     0.013 C 
ATOM     10  C3' I4B d   1       2.774   4.476  -1.940  0.00  0.00     0.013 C 
ENDBRANCH   7   8
ENDBRANCH   1   7
TORSDOF 2
ENDMDL
