MODEL 1
REMARK minimizedAffinity 3.17784882
REMARK minimizedRMSD -1
REMARK  2 active torsions:
REMARK  status: ('A' for Active; 'I' for Inactive)
REMARK    1  A    between atoms: C2'_3  and  C1'_4 
REMARK    2  A    between atoms: C1'_4  and  C1_5 
ROOT
ATOM      1  C1  I4B d   1       3.663   4.792  -3.080  0.00  0.00    -0.075 A 
ATOM      2  C2  I4B d   1       3.603   3.587  -3.735  0.00  0.00     0.003 A 
ATOM      3  C3  I4B d   1       3.365   3.544  -5.130  0.00  0.00     0.002 A 
ATOM      4  C4  I4B d   1       3.144   4.720  -5.818  0.00  0.00    -0.004 A 
ATOM      5  C5  I4B d   1       3.228   5.942  -5.157  0.00  0.00     0.002 A 
ATOM      6  C6  I4B d   1       3.501   5.979  -3.782  0.00  0.00     0.003 A 
ENDROOT
BRANCH   1   7
ATOM      7  C1' I4B d   1       3.883   4.798  -1.601  0.00  0.00     0.060 C 
BRANCH   7   8
ATOM      8  C2' I4B d   1       5.377   4.753  -1.351  0.00  0.00    -0.013 C 
ATOM      9  C4' I4B d   1       5.992   3.517  -1.952  0.00  0.00     0.013 C 
ATOM     10  C3' I4B d   1       5.981   5.996  -1.932  0.00  0.00     0.013 C 
ENDBRANCH   7   8
ENDBRANCH   1   7
TORSDOF 2
ENDMDL
