MODEL 1
REMARK minimizedAffinity 6.4176631
REMARK minimizedRMSD -1
REMARK  2 active torsions:
REMARK  status: ('A' for Active; 'I' for Inactive)
REMARK    1  A    between atoms: C2'_3  and  C1'_4 
REMARK    2  A    between atoms: C1'_4  and  C1_5 
ROOT
ATOM      1  C1  I4B d   1       4.409   4.359  -2.748  0.00  0.00    -0.075 A 
ATOM      2  C2  I4B d   1       3.937   4.024  -3.992  0.00  0.00     0.003 A 
ATOM      3  C3  I4B d   1       4.507   4.605  -5.151  0.00  0.00     0.002 A 
ATOM      4  C4  I4B d   1       5.506   5.547  -5.017  0.00  0.00    -0.004 A 
ATOM      5  C5  I4B d   1       5.999   5.868  -3.756  0.00  0.00     0.002 A 
ATOM      6  C6  I4B d   1       5.456   5.261  -2.614  0.00  0.00     0.003 A 
ENDROOT
BRANCH   1   7
ATOM      7  C1' I4B d   1       3.762   3.751  -1.544  0.00  0.00     0.060 C 
BRANCH   7   8
ATOM      8  C2' I4B d   1       2.261   3.885  -1.703  0.00  0.00    -0.013 C 
ATOM      9  C4' I4B d   1       1.588   4.097  -0.373  0.00  0.00     0.013 C 
ATOM     10  C3' I4B d   1       1.995   5.031  -2.634  0.00  0.00     0.013 C 
ENDBRANCH   7   8
ENDBRANCH   1   7
TORSDOF 2
ENDMDL
