MODEL 1
REMARK minimizedAffinity -0.678291619
REMARK minimizedRMSD -1
REMARK  2 active torsions:
REMARK  status: ('A' for Active; 'I' for Inactive)
REMARK    1  A    between atoms: C2'_3  and  C1'_4 
REMARK    2  A    between atoms: C1'_4  and  C1_5 
ROOT
ATOM      1  C1  I4B d   1       4.497   5.195  -3.360  0.00  0.00    -0.075 A 
ATOM      2  C2  I4B d   1       3.880   6.000  -4.284  0.00  0.00     0.003 A 
ATOM      3  C3  I4B d   1       4.312   5.998  -5.633  0.00  0.00     0.002 A 
ATOM      4  C4  I4B d   1       5.390   5.219  -6.000  0.00  0.00    -0.004 A 
ATOM      5  C5  I4B d   1       6.000   4.386  -5.066  0.00  0.00     0.002 A 
ATOM      6  C6  I4B d   1       5.543   4.364  -3.741  0.00  0.00     0.003 A 
ENDROOT
BRANCH   1   7
ATOM      7  C1' I4B d   1       4.037   5.246  -1.938  0.00  0.00     0.060 C 
BRANCH   7   8
ATOM      8  C2' I4B d   1       3.008   4.151  -1.740  0.00  0.00    -0.013 C 
ATOM      9  C4' I4B d   1       1.917   4.591  -0.800  0.00  0.00     0.013 C 
ATOM     10  C3' I4B d   1       2.451   3.791  -3.085  0.00  0.00     0.013 C 
ENDBRANCH   7   8
ENDBRANCH   1   7
TORSDOF 2
ENDMDL
