MODEL 1
REMARK minimizedAffinity 1.8208425
REMARK minimizedRMSD -1
REMARK  2 active torsions:
REMARK  status: ('A' for Active; 'I' for Inactive)
REMARK    1  A    between atoms: C2'_3  and  C1'_4 
REMARK    2  A    between atoms: C1'_4  and  C1_5 
ROOT
ATOM      1  C1  I4B d   1       5.259  -3.632  -2.900  0.00  0.00    -0.075 A 
ATOM      2  C2  I4B d   1       5.284  -2.535  -2.075  0.00  0.00     0.003 A 
ATOM      3  C3  I4B d   1       5.684  -2.668  -0.724  0.00  0.00     0.002 A 
ATOM      4  C4  I4B d   1       6.000  -3.917  -0.228  0.00  0.00    -0.004 A 
ATOM      5  C5  I4B d   1       5.996  -5.024  -1.072  0.00  0.00     0.002 A 
ATOM      6  C6  I4B d   1       5.635  -4.879  -2.419  0.00  0.00     0.003 A 
ENDROOT
BRANCH   1   7
ATOM      7  C1' I4B d   1       4.800  -3.460  -4.313  0.00  0.00     0.060 C 
BRANCH   7   8
ATOM      8  C2' I4B d   1       3.390  -2.905  -4.282  0.00  0.00    -0.013 C 
ATOM      9  C4' I4B d   1       2.611  -3.326  -5.500  0.00  0.00     0.013 C 
ATOM     10  C3' I4B d   1       2.731  -3.385  -3.024  0.00  0.00     0.013 C 
ENDBRANCH   7   8
ENDBRANCH   1   7
TORSDOF 2
ENDMDL
