MODEL 1
REMARK minimizedAffinity 17.9580765
REMARK minimizedRMSD -1
REMARK  0 active torsions:
REMARK  status: ('A' for Active; 'I' for Inactive)
ROOT
ATOM      1  N1  IND d   1       0.102   4.518  -1.438  0.00  0.00    -0.196 N 
ATOM      2  C2  IND d   1       0.120   5.806  -0.981  0.00  0.00     0.054 A 
ATOM      3  C3  IND d   1       0.296   5.828   0.359  0.00  0.00    -0.031 A 
ATOM      4  C4  IND d   1       0.681   3.874   1.990  0.00  0.00     0.051 A 
ATOM      5  C5  IND d   1       0.712   2.509   2.047  0.00  0.00    -0.031 A 
ATOM      6  C6  IND d   1       0.541   1.728   0.922  0.00  0.00     0.015 A 
ATOM      7  C7  IND d   1       0.342   2.286  -0.309  0.00  0.00    -0.016 A 
ATOM      8  C8  IND d   1       0.303   3.672  -0.369  0.00  0.00    -0.047 A 
ATOM      9  C9  IND d   1       0.434   4.468   0.775  0.00  0.00    -0.096 A 
ATOM     10  HN1 IND d   1      -0.015   4.277  -2.255  0.00  0.00     0.298 HD
ENDROOT
TORSDOF 0
ENDMDL
