MODEL 1
REMARK minimizedAffinity 10.8815508
REMARK minimizedRMSD -1
REMARK  0 active torsions:
REMARK  status: ('A' for Active; 'I' for Inactive)
ROOT
ATOM      1  N1  IND d   1      -0.030   2.196   0.966  0.00  0.00    -0.196 N 
ATOM      2  C2  IND d   1      -0.207   2.443   2.299  0.00  0.00     0.054 A 
ATOM      3  C3  IND d   1      -0.314   3.773   2.521  0.00  0.00    -0.031 A 
ATOM      4  C4  IND d   1      -0.327   5.717   0.834  0.00  0.00     0.051 A 
ATOM      5  C5  IND d   1      -0.158   5.992  -0.495  0.00  0.00    -0.031 A 
ATOM      6  C6  IND d   1       0.063   4.995  -1.423  0.00  0.00     0.015 A 
ATOM      7  C7  IND d   1       0.114   3.679  -1.057  0.00  0.00    -0.016 A 
ATOM      8  C8  IND d   1      -0.050   3.397   0.291  0.00  0.00    -0.047 A 
ATOM      9  C9  IND d   1      -0.233   4.408   1.244  0.00  0.00    -0.096 A 
ATOM     10  HN1 IND d   1       0.077   1.421   0.609  0.00  0.00     0.298 HD
ENDROOT
TORSDOF 0
ENDMDL
