MODEL 1
REMARK minimizedAffinity 1.51843536
REMARK minimizedRMSD -1
REMARK  0 active torsions:
REMARK  status: ('A' for Active; 'I' for Inactive)
ROOT
ATOM      1  N1  IND d   1       0.676  -3.941  -0.601  0.00  0.00    -0.196 N 
ATOM      2  C2  IND d   1       0.024  -4.614  -1.597  0.00  0.00     0.054 A 
ATOM      3  C3  IND d   1       0.913  -5.138  -2.470  0.00  0.00    -0.031 A 
ATOM      4  C4  IND d   1       3.486  -5.103  -2.405  0.00  0.00     0.051 A 
ATOM      5  C5  IND d   1       4.539  -4.580  -1.708  0.00  0.00    -0.031 A 
ATOM      6  C6  IND d   1       4.354  -3.803  -0.583  0.00  0.00     0.015 A 
ATOM      7  C7  IND d   1       3.105  -3.529  -0.103  0.00  0.00    -0.016 A 
ATOM      8  C8  IND d   1       2.033  -4.053  -0.812  0.00  0.00    -0.047 A 
ATOM      9  C9  IND d   1       2.213  -4.807  -1.979  0.00  0.00    -0.096 A 
ATOM     10  HN1 IND d   1       0.302  -3.518   0.047  0.00  0.00     0.298 HD
ENDROOT
TORSDOF 0
ENDMDL
