MODEL 1
REMARK minimizedAffinity 12.8129358
REMARK minimizedRMSD -1
REMARK  0 active torsions:
REMARK  status: ('A' for Active; 'I' for Inactive)
ROOT
ATOM      1  N1  IND d   1       1.168   3.835   0.575  0.00  0.00    -0.196 N 
ATOM      2  C2  IND d   1       0.086   4.250  -0.151  0.00  0.00     0.054 A 
ATOM      3  C3  IND d   1      -1.060   3.833   0.432  0.00  0.00    -0.031 A 
ATOM      4  C4  IND d   1      -1.399   2.545   2.635  0.00  0.00     0.051 A 
ATOM      5  C5  IND d   1      -0.708   1.916   3.633  0.00  0.00    -0.031 A 
ATOM      6  C6  IND d   1       0.672   1.897   3.664  0.00  0.00     0.015 A 
ATOM      7  C7  IND d   1       1.415   2.518   2.701  0.00  0.00    -0.016 A 
ATOM      8  C8  IND d   1       0.716   3.152   1.682  0.00  0.00    -0.047 A 
ATOM      9  C9  IND d   1      -0.683   3.138   1.623  0.00  0.00    -0.096 A 
ATOM     10  HN1 IND d   1       1.992   3.978   0.374  0.00  0.00     0.298 HD
ENDROOT
TORSDOF 0
ENDMDL
