MODEL 1
REMARK minimizedAffinity 17.1317863
REMARK minimizedRMSD -1
REMARK  0 active torsions:
REMARK  status: ('A' for Active; 'I' for Inactive)
ROOT
ATOM      1  N1  IND d   1       4.113  -0.427  -0.798  0.00  0.00    -0.196 N 
ATOM      2  C2  IND d   1       2.992  -0.380  -0.016  0.00  0.00     0.054 A 
ATOM      3  C3  IND d   1       2.751  -1.591   0.534  0.00  0.00    -0.031 A 
ATOM      4  C4  IND d   1       4.122  -3.764   0.368  0.00  0.00     0.051 A 
ATOM      5  C5  IND d   1       5.207  -4.308  -0.261  0.00  0.00    -0.031 A 
ATOM      6  C6  IND d   1       6.000  -3.571  -1.116  0.00  0.00     0.015 A 
ATOM      7  C7  IND d   1       5.743  -2.252  -1.366  0.00  0.00    -0.016 A 
ATOM      8  C8  IND d   1       4.638  -1.698  -0.735  0.00  0.00    -0.047 A 
ATOM      9  C9  IND d   1       3.805  -2.453   0.101  0.00  0.00    -0.096 A 
ATOM     10  HN1 IND d   1       4.435   0.228  -1.253  0.00  0.00     0.298 HD
ENDROOT
TORSDOF 0
ENDMDL
