MODEL 1
REMARK minimizedAffinity 5.94999695
REMARK minimizedRMSD -1
REMARK  0 active torsions:
REMARK  status: ('A' for Active; 'I' for Inactive)
ROOT
ATOM      1  N1  IND d   1       5.342  -1.730  -1.049  0.00  0.00    -0.196 N 
ATOM      2  C2  IND d   1       4.926  -1.853   0.247  0.00  0.00     0.054 A 
ATOM      3  C3  IND d   1       4.070  -2.893   0.369  0.00  0.00    -0.031 A 
ATOM      4  C4  IND d   1       3.293  -4.589  -1.405  0.00  0.00     0.051 A 
ATOM      5  C5  IND d   1       3.375  -4.863  -2.741  0.00  0.00    -0.031 A 
ATOM      6  C6  IND d   1       4.134  -4.094  -3.598  0.00  0.00     0.015 A 
ATOM      7  C7  IND d   1       4.853  -3.023  -3.147  0.00  0.00    -0.016 A 
ATOM      8  C8  IND d   1       4.766  -2.737  -1.792  0.00  0.00    -0.047 A 
ATOM      9  C9  IND d   1       3.963  -3.488  -0.925  0.00  0.00    -0.096 A 
ATOM     10  HN1 IND d   1       5.875  -1.126  -1.349  0.00  0.00     0.298 HD
ENDROOT
TORSDOF 0
ENDMDL
