MODEL 1
REMARK minimizedAffinity 12.3453236
REMARK minimizedRMSD -1
REMARK  0 active torsions:
REMARK  status: ('A' for Active; 'I' for Inactive)
ROOT
ATOM      1  N1  IND d   1       1.357   5.226  -0.838  0.00  0.00    -0.196 N 
ATOM      2  C2  IND d   1       0.837   4.807   0.355  0.00  0.00     0.054 A 
ATOM      3  C3  IND d   1      -0.511   4.742   0.283  0.00  0.00    -0.031 A 
ATOM      4  C4  IND d   1      -2.065   5.179  -1.722  0.00  0.00     0.051 A 
ATOM      5  C5  IND d   1      -2.056   5.620  -3.016  0.00  0.00    -0.031 A 
ATOM      6  C6  IND d   1      -0.885   5.956  -3.663  0.00  0.00     0.015 A 
ATOM      7  C7  IND d   1       0.327   5.853  -3.042  0.00  0.00    -0.016 A 
ATOM      8  C8  IND d   1       0.321   5.412  -1.726  0.00  0.00    -0.047 A 
ATOM      9  C9  IND d   1      -0.868   5.110  -1.050  0.00  0.00    -0.096 A 
ATOM     10  HN1 IND d   1       2.191   5.352  -1.005  0.00  0.00     0.298 HD
ENDROOT
TORSDOF 0
ENDMDL
