MODEL 1
REMARK minimizedAffinity 14.5983677
REMARK minimizedRMSD -1
REMARK  0 active torsions:
REMARK  status: ('A' for Active; 'I' for Inactive)
ROOT
ATOM      1  N1  IND d   1       5.310  -1.624  -2.503  0.00  0.00    -0.196 N 
ATOM      2  C2  IND d   1       5.995  -2.721  -2.947  0.00  0.00     0.054 A 
ATOM      3  C3  IND d   1       5.999  -3.687  -2.001  0.00  0.00    -0.031 A 
ATOM      4  C4  IND d   1       4.857  -3.722   0.306  0.00  0.00     0.051 A 
ATOM      5  C5  IND d   1       4.147  -2.935   1.169  0.00  0.00    -0.031 A 
ATOM      6  C6  IND d   1       3.779  -1.646   0.844  0.00  0.00     0.015 A 
ATOM      7  C7  IND d   1       4.098  -1.097  -0.365  0.00  0.00    -0.016 A 
ATOM      8  C8  IND d   1       4.825  -1.891  -1.241  0.00  0.00    -0.047 A 
ATOM      9  C9  IND d   1       5.239  -3.185  -0.901  0.00  0.00    -0.096 A 
ATOM     10  HN1 IND d   1       5.200  -0.891  -2.939  0.00  0.00     0.298 HD
ENDROOT
TORSDOF 0
ENDMDL
