MODEL 1
REMARK minimizedAffinity 11.4149237
REMARK minimizedRMSD -1
REMARK  0 active torsions:
REMARK  status: ('A' for Active; 'I' for Inactive)
ROOT
ATOM      1  N1  IND d   1      -1.123   5.667   0.938  0.00  0.00    -0.196 N 
ATOM      2  C2  IND d   1      -0.957   6.000  -0.378  0.00  0.00     0.054 A 
ATOM      3  C3  IND d   1      -0.207   5.068  -1.008  0.00  0.00    -0.031 A 
ATOM      4  C4  IND d   1       0.769   2.866  -0.099  0.00  0.00     0.051 A 
ATOM      5  C5  IND d   1       0.914   2.147   1.054  0.00  0.00    -0.031 A 
ATOM      6  C6  IND d   1       0.374   2.572   2.251  0.00  0.00     0.015 A 
ATOM      7  C7  IND d   1      -0.344   3.731   2.337  0.00  0.00    -0.016 A 
ATOM      8  C8  IND d   1      -0.487   4.468   1.170  0.00  0.00    -0.047 A 
ATOM      9  C9  IND d   1       0.095   4.063  -0.039  0.00  0.00    -0.096 A 
ATOM     10  HN1 IND d   1      -1.552   6.130   1.522  0.00  0.00     0.298 HD
ENDROOT
TORSDOF 0
ENDMDL
