MODEL 1
REMARK minimizedAffinity -0.608294308
REMARK minimizedRMSD -1
REMARK  0 active torsions:
REMARK  status: ('A' for Active; 'I' for Inactive)
ROOT
ATOM      1  C1  BNZ d   1       3.778   0.016  -0.501  0.00  0.00     0.000 A 
ATOM      2  C2  BNZ d   1       4.018   0.322  -1.814  0.00  0.00     0.000 A 
ATOM      3  C3  BNZ d   1       3.415   1.398  -2.404  0.00  0.00     0.000 A 
ATOM      4  C4  BNZ d   1       2.543   2.141  -1.692  0.00  0.00     0.000 A 
ATOM      5  C5  BNZ d   1       2.283   1.840  -0.370  0.00  0.00     0.000 A 
ATOM      6  C6  BNZ d   1       2.922   0.780   0.231  0.00  0.00     0.000 A 
ENDROOT
TORSDOF 0
ENDMDL
