MODEL 1
REMARK minimizedAffinity 13.3137236
REMARK minimizedRMSD -1
REMARK  0 active torsions:
REMARK  status: ('A' for Active; 'I' for Inactive)
ROOT
ATOM      1  C1  BNZ d   1       3.784  -0.141   0.649  0.00  0.00     0.000 A 
ATOM      2  C2  BNZ d   1       3.801   0.938  -0.193  0.00  0.00     0.000 A 
ATOM      3  C3  BNZ d   1       2.765   1.830  -0.209  0.00  0.00     0.000 A 
ATOM      4  C4  BNZ d   1       1.698   1.620   0.588  0.00  0.00     0.000 A 
ATOM      5  C5  BNZ d   1       1.662   0.531   1.436  0.00  0.00     0.000 A 
ATOM      6  C6  BNZ d   1       2.723  -0.343   1.477  0.00  0.00     0.000 A 
ENDROOT
TORSDOF 0
ENDMDL
