MODEL 1
REMARK minimizedAffinity 13.8148785
REMARK minimizedRMSD -1
REMARK  0 active torsions:
REMARK  status: ('A' for Active; 'I' for Inactive)
ROOT
ATOM      1  C1  BNZ d   1       6.000   2.372  -4.970  0.00  0.00     0.000 A 
ATOM      2  C2  BNZ d   1       6.000   3.719  -5.214  0.00  0.00     0.000 A 
ATOM      3  C3  BNZ d   1       5.603   4.605  -4.251  0.00  0.00     0.000 A 
ATOM      4  C4  BNZ d   1       5.169   4.141  -3.062  0.00  0.00     0.000 A 
ATOM      5  C5  BNZ d   1       5.154   2.784  -2.804  0.00  0.00     0.000 A 
ATOM      6  C6  BNZ d   1       5.591   1.898  -3.761  0.00  0.00     0.000 A 
ENDROOT
TORSDOF 0
ENDMDL
