MODEL 1
REMARK minimizedAffinity 2.30434203
REMARK minimizedRMSD -1
REMARK  0 active torsions:
REMARK  status: ('A' for Active; 'I' for Inactive)
ROOT
ATOM      1  C1  BNZ d   1      -2.983  -3.688  -5.966  0.00  0.00     0.000 A 
ATOM      2  C2  BNZ d   1      -4.338  -3.494  -5.959  0.00  0.00     0.000 A 
ATOM      3  C3  BNZ d   1      -4.865  -2.233  -5.996  0.00  0.00     0.000 A 
ATOM      4  C4  BNZ d   1      -4.038  -1.168  -5.999  0.00  0.00     0.000 A 
ATOM      5  C5  BNZ d   1      -2.669  -1.347  -5.996  0.00  0.00     0.000 A 
ATOM      6  C6  BNZ d   1      -2.142  -2.618  -5.999  0.00  0.00     0.000 A 
ENDROOT
TORSDOF 0
ENDMDL
