MODEL 1
REMARK minimizedAffinity 7.68356705
REMARK minimizedRMSD -1
REMARK  0 active torsions:
REMARK  status: ('A' for Active; 'I' for Inactive)
ROOT
ATOM      1  C1  BNZ d   1       0.343  -0.666   3.101  0.00  0.00     0.000 A 
ATOM      2  C2  BNZ d   1       0.944   0.456   3.605  0.00  0.00     0.000 A 
ATOM      3  C3  BNZ d   1       0.373   1.155   4.632  0.00  0.00     0.000 A 
ATOM      4  C4  BNZ d   1      -0.816   0.754   5.126  0.00  0.00     0.000 A 
ATOM      5  C5  BNZ d   1      -1.439  -0.370   4.622  0.00  0.00     0.000 A 
ATOM      6  C6  BNZ d   1      -0.843  -1.093   3.614  0.00  0.00     0.000 A 
ENDROOT
TORSDOF 0
ENDMDL
