MODEL 1
REMARK minimizedAffinity 6.71383381
REMARK minimizedRMSD -1
REMARK  0 active torsions:
REMARK  status: ('A' for Active; 'I' for Inactive)
ROOT
ATOM      1  C1  BNZ d   1      -1.823  -2.339  -5.994  0.00  0.00     0.000 A 
ATOM      2  C2  BNZ d   1      -0.669  -3.077  -5.988  0.00  0.00     0.000 A 
ATOM      3  C3  BNZ d   1      -0.712  -4.443  -5.999  0.00  0.00     0.000 A 
ATOM      4  C4  BNZ d   1      -1.906  -5.069  -5.975  0.00  0.00     0.000 A 
ATOM      5  C5  BNZ d   1      -3.078  -4.340  -5.971  0.00  0.00     0.000 A 
ATOM      6  C6  BNZ d   1      -3.032  -2.965  -6.000  0.00  0.00     0.000 A 
ENDROOT
TORSDOF 0
ENDMDL
