MODEL 1
REMARK minimizedAffinity -2.66283441
REMARK minimizedRMSD -1
REMARK  0 active torsions:
REMARK  status: ('A' for Active; 'I' for Inactive)
ROOT
ATOM      1  C1  BNZ d   1       5.998   2.154  -5.643  0.00  0.00     0.000 A 
ATOM      2  C2  BNZ d   1       5.999   0.878  -5.147  0.00  0.00     0.000 A 
ATOM      3  C3  BNZ d   1       4.832   0.182  -5.002  0.00  0.00     0.000 A 
ATOM      4  C4  BNZ d   1       3.663   0.777  -5.315  0.00  0.00     0.000 A 
ATOM      5  C5  BNZ d   1       3.644   2.066  -5.809  0.00  0.00     0.000 A 
ATOM      6  C6  BNZ d   1       4.825   2.749  -5.990  0.00  0.00     0.000 A 
ENDROOT
TORSDOF 0
ENDMDL
