MODEL 1
REMARK minimizedAffinity 6.68826866
REMARK minimizedRMSD -1
REMARK  0 active torsions:
REMARK  status: ('A' for Active; 'I' for Inactive)
ROOT
ATOM      1  C1  BNZ d   1      -4.967  -2.756  -5.990  0.00  0.00     0.000 A 
ATOM      2  C2  BNZ d   1      -4.112  -3.826  -5.999  0.00  0.00     0.000 A 
ATOM      3  C3  BNZ d   1      -2.758  -3.640  -5.984  0.00  0.00     0.000 A 
ATOM      4  C4  BNZ d   1      -2.261  -2.387  -6.000  0.00  0.00     0.000 A 
ATOM      5  C5  BNZ d   1      -3.110  -1.298  -6.000  0.00  0.00     0.000 A 
ATOM      6  C6  BNZ d   1      -4.472  -1.489  -5.976  0.00  0.00     0.000 A 
ENDROOT
TORSDOF 0
ENDMDL
