MODEL 1
REMARK minimizedAffinity 5.80807066
REMARK minimizedRMSD -1
REMARK  0 active torsions:
REMARK  status: ('A' for Active; 'I' for Inactive)
ROOT
ATOM      1  C1  BNZ d   1       1.339   3.520   1.176  0.00  0.00     0.000 A 
ATOM      2  C2  BNZ d   1      -0.009   3.754   1.243  0.00  0.00     0.000 A 
ATOM      3  C3  BNZ d   1      -0.852   2.834   1.803  0.00  0.00     0.000 A 
ATOM      4  C4  BNZ d   1      -0.353   1.667   2.257  0.00  0.00     0.000 A 
ATOM      5  C5  BNZ d   1       1.003   1.412   2.188  0.00  0.00     0.000 A 
ATOM      6  C6  BNZ d   1       1.853   2.356   1.660  0.00  0.00     0.000 A 
ENDROOT
TORSDOF 0
ENDMDL
