MODEL 1
REMARK minimizedAffinity 1.40414965
REMARK minimizedRMSD -1
REMARK  0 active torsions:
REMARK  status: ('A' for Active; 'I' for Inactive)
ROOT
ATOM      1  C1  BNZ d   1      -2.239  -1.991   3.781  0.00  0.00     0.000 A 
ATOM      2  C2  BNZ d   1      -2.702  -3.124   4.395  0.00  0.00     0.000 A 
ATOM      3  C3  BNZ d   1      -2.038  -4.312   4.265  0.00  0.00     0.000 A 
ATOM      4  C4  BNZ d   1      -0.936  -4.374   3.489  0.00  0.00     0.000 A 
ATOM      5  C5  BNZ d   1      -0.463  -3.242   2.856  0.00  0.00     0.000 A 
ATOM      6  C6  BNZ d   1      -1.112  -2.040   3.021  0.00  0.00     0.000 A 
ENDROOT
TORSDOF 0
ENDMDL
