MODEL 1
REMARK minimizedAffinity 5.95443344
REMARK minimizedRMSD -1
REMARK  0 active torsions:
REMARK  status: ('A' for Active; 'I' for Inactive)
ROOT
ATOM      1  C1  BNZ d   1       0.077   3.597   1.165  0.00  0.00     0.000 A 
ATOM      2  C2  BNZ d   1       1.328   3.102   0.907  0.00  0.00     0.000 A 
ATOM      3  C3  BNZ d   1       1.811   2.027   1.600  0.00  0.00     0.000 A 
ATOM      4  C4  BNZ d   1       1.061   1.476   2.576  0.00  0.00     0.000 A 
ATOM      5  C5  BNZ d   1      -0.197   1.971   2.855  0.00  0.00     0.000 A 
ATOM      6  C6  BNZ d   1      -0.696   3.028   2.128  0.00  0.00     0.000 A 
ENDROOT
TORSDOF 0
ENDMDL
