MODEL 1
REMARK minimizedAffinity 11.4614782
REMARK minimizedRMSD -1
REMARK  0 active torsions:
REMARK  status: ('A' for Active; 'I' for Inactive)
ROOT
ATOM      1  C   UNL d   1      -2.321   1.794  -0.368  0.00  0.00     0.020 A 
ATOM      2  C1  UNL d   1      -1.822   0.494  -0.295  0.00  0.00     0.020 A 
ATOM      3  C2  UNL d   1      -1.804  -0.312  -1.436  0.00  0.00     0.034 A 
ATOM      4  C3  UNL d   1      -2.287   0.181  -2.653  0.00  0.00     0.017 A 
ATOM      5  C4  UNL d   1      -2.788   1.486  -2.726  0.00  0.00     0.017 A 
ATOM      6  C5  UNL d   1      -2.803   2.289  -1.581  0.00  0.00     0.034 A 
ATOM      7 Cl   UNL d   1      -3.400   2.164  -4.193  0.00  0.00    -0.070 Cl
ATOM      8 Cl1  UNL d   1      -2.234  -0.871  -4.023  0.00  0.00    -0.070 Cl
ENDROOT
TORSDOF 0
ENDMDL
