MODEL 1
REMARK minimizedAffinity 8.6491003
REMARK minimizedRMSD -1
REMARK  0 active torsions:
REMARK  status: ('A' for Active; 'I' for Inactive)
ROOT
ATOM      1  C   UNL d   1      -2.994   1.189  -1.723  0.00  0.00     0.020 A 
ATOM      2  C1  UNL d   1      -2.454   0.373  -2.717  0.00  0.00     0.020 A 
ATOM      3  C2  UNL d   1      -2.917   0.474  -4.030  0.00  0.00     0.034 A 
ATOM      4  C3  UNL d   1      -3.923   1.392  -4.354  0.00  0.00     0.017 A 
ATOM      5  C4  UNL d   1      -4.464   2.210  -3.356  0.00  0.00     0.017 A 
ATOM      6  C5  UNL d   1      -3.997   2.106  -2.042  0.00  0.00     0.034 A 
ATOM      7 Cl   UNL d   1      -5.707   3.367  -3.679  0.00  0.00    -0.070 Cl
ATOM      8 Cl1  UNL d   1      -4.447   1.462  -5.999  0.00  0.00    -0.070 Cl
ENDROOT
TORSDOF 0
ENDMDL
