MODEL 1
REMARK minimizedAffinity 2.86173773
REMARK minimizedRMSD -1
REMARK  0 active torsions:
REMARK  status: ('A' for Active; 'I' for Inactive)
ROOT
ATOM      1  C   UNL d   1       3.981  -0.450   1.289  0.00  0.00     0.020 A 
ATOM      2  C1  UNL d   1       3.461  -0.098   0.044  0.00  0.00     0.020 A 
ATOM      3  C2  UNL d   1       2.410   0.818  -0.039  0.00  0.00     0.034 A 
ATOM      4  C3  UNL d   1       1.877   1.385   1.124  0.00  0.00     0.017 A 
ATOM      5  C4  UNL d   1       2.399   1.031   2.372  0.00  0.00     0.017 A 
ATOM      6  C5  UNL d   1       3.451   0.113   2.450  0.00  0.00     0.034 A 
ATOM      7 Cl   UNL d   1       1.793   1.688   3.852  0.00  0.00    -0.070 Cl
ATOM      8 Cl1  UNL d   1       0.578   2.511   0.946  0.00  0.00    -0.070 Cl
ENDROOT
TORSDOF 0
ENDMDL
