MODEL 1
REMARK minimizedAffinity 3.75436306
REMARK minimizedRMSD -1
REMARK  0 active torsions:
REMARK  status: ('A' for Active; 'I' for Inactive)
ROOT
ATOM      1  C   UNL d   1       1.425  -2.706   2.572  0.00  0.00     0.020 A 
ATOM      2  C1  UNL d   1       2.084  -1.509   2.847  0.00  0.00     0.020 A 
ATOM      3  C2  UNL d   1       3.124  -1.482   3.779  0.00  0.00     0.034 A 
ATOM      4  C3  UNL d   1       3.508  -2.655   4.439  0.00  0.00     0.017 A 
ATOM      5  C4  UNL d   1       2.846  -3.856   4.162  0.00  0.00     0.017 A 
ATOM      6  C5  UNL d   1       1.806  -3.878   3.228  0.00  0.00     0.034 A 
ATOM      7 Cl   UNL d   1       3.264  -5.344   4.937  0.00  0.00    -0.070 Cl
ATOM      8 Cl1  UNL d   1       4.802  -2.548   5.578  0.00  0.00    -0.070 Cl
ENDROOT
TORSDOF 0
ENDMDL
