MODEL 1
REMARK minimizedAffinity 12.5297441
REMARK minimizedRMSD -1
REMARK  0 active torsions:
REMARK  status: ('A' for Active; 'I' for Inactive)
ROOT
ATOM      1  C   UNL d   1      -2.072   1.221  -0.727  0.00  0.00     0.020 A 
ATOM      2  C1  UNL d   1      -2.508   2.407  -1.314  0.00  0.00     0.020 A 
ATOM      3  C2  UNL d   1      -3.133   2.379  -2.563  0.00  0.00     0.034 A 
ATOM      4  C3  UNL d   1      -3.324   1.162  -3.228  0.00  0.00     0.017 A 
ATOM      5  C4  UNL d   1      -2.885  -0.028  -2.637  0.00  0.00     0.017 A 
ATOM      6  C5  UNL d   1      -2.260   0.005  -1.386  0.00  0.00     0.034 A 
ATOM      7 Cl   UNL d   1      -3.085  -1.568  -3.396  0.00  0.00    -0.070 Cl
ATOM      8 Cl1  UNL d   1      -4.104   1.202  -4.769  0.00  0.00    -0.070 Cl
ENDROOT
TORSDOF 0
ENDMDL
