MODEL 1
REMARK minimizedAffinity 4.09734821
REMARK minimizedRMSD -1
REMARK  0 active torsions:
REMARK  status: ('A' for Active; 'I' for Inactive)
ROOT
ATOM      1  C   UNL d   1       1.070  -5.934   1.217  0.00  0.00     0.020 A 
ATOM      2  C1  UNL d   1       0.117  -5.934   0.199  0.00  0.00     0.020 A 
ATOM      3  C2  UNL d   1       0.522  -5.954  -1.137  0.00  0.00     0.034 A 
ATOM      4  C3  UNL d   1       1.884  -5.974  -1.459  0.00  0.00     0.017 A 
ATOM      5  C4  UNL d   1       2.840  -5.974  -0.437  0.00  0.00     0.017 A 
ATOM      6  C5  UNL d   1       2.429  -5.954   0.899  0.00  0.00     0.034 A 
ATOM      7 Cl   UNL d   1       4.538  -5.998  -0.757  0.00  0.00    -0.070 Cl
ATOM      8 Cl1  UNL d   1       2.313  -5.999  -3.133  0.00  0.00    -0.070 Cl
ENDROOT
TORSDOF 0
ENDMDL
