MODEL 1
REMARK minimizedAffinity 4.20418501
REMARK minimizedRMSD -1
REMARK  0 active torsions:
REMARK  status: ('A' for Active; 'I' for Inactive)
ROOT
ATOM      1  C   UNL d   1       2.627  -5.964  -5.850  0.00  0.00     0.020 A 
ATOM      2  C1  UNL d   1       4.015  -5.964  -5.988  0.00  0.00     0.020 A 
ATOM      3  C2  UNL d   1       4.829  -5.969  -4.853  0.00  0.00     0.034 A 
ATOM      4  C3  UNL d   1       4.256  -5.973  -3.576  0.00  0.00     0.017 A 
ATOM      5  C4  UNL d   1       2.863  -5.974  -3.439  0.00  0.00     0.017 A 
ATOM      6  C5  UNL d   1       2.053  -5.969  -4.579  0.00  0.00     0.034 A 
ATOM      7 Cl   UNL d   1       2.083  -5.980  -1.897  0.00  0.00    -0.070 Cl
ATOM      8 Cl1  UNL d   1       5.323  -5.979  -2.217  0.00  0.00    -0.070 Cl
ENDROOT
TORSDOF 0
ENDMDL
