MODEL 1
REMARK minimizedAffinity 0.963265121
REMARK minimizedRMSD -1
REMARK  0 active torsions:
REMARK  status: ('A' for Active; 'I' for Inactive)
ROOT
ATOM      1  C   UNL d   1       1.562  -0.366   2.251  0.00  0.00     0.020 A 
ATOM      2  C1  UNL d   1       2.084  -1.288   1.345  0.00  0.00     0.020 A 
ATOM      3  C2  UNL d   1       2.325  -2.603   1.748  0.00  0.00     0.034 A 
ATOM      4  C3  UNL d   1       2.045  -3.000   3.061  0.00  0.00     0.017 A 
ATOM      5  C4  UNL d   1       1.520  -2.073   3.969  0.00  0.00     0.017 A 
ATOM      6  C5  UNL d   1       1.281  -0.758   3.560  0.00  0.00     0.034 A 
ATOM      7 Cl   UNL d   1       1.148  -2.488   5.606  0.00  0.00    -0.070 Cl
ATOM      8 Cl1  UNL d   1       2.367  -4.642   3.491  0.00  0.00    -0.070 Cl
ENDROOT
TORSDOF 0
ENDMDL
