MODEL 1
REMARK minimizedAffinity 5.74934435
REMARK minimizedRMSD -1
REMARK  0 active torsions:
REMARK  status: ('A' for Active; 'I' for Inactive)
ROOT
ATOM      1  C2' OXE d   1      -1.213   2.157   2.777  0.00  0.00     0.078 C 
ATOM      2  C1' OXE d   1       0.834   0.244   2.610  0.00  0.00     0.078 C 
ATOM      3  C1  OXE d   1      -0.487  -0.189   3.194  0.00  0.00    -0.078 A 
ATOM      4  C2  OXE d   1      -1.468   0.766   3.315  0.00  0.00    -0.078 A 
ATOM      5  C3  OXE d   1      -2.724   0.407   3.797  0.00  0.00     0.003 A 
ATOM      6  C4  OXE d   1      -2.948  -0.880   4.302  0.00  0.00    -0.002 A 
ATOM      7  C5  OXE d   1      -1.950  -1.856   4.225  0.00  0.00    -0.002 A 
ATOM      8  C6  OXE d   1      -0.730  -1.540   3.636  0.00  0.00     0.003 A 
ENDROOT
TORSDOF 0
ENDMDL
