MODEL 1
REMARK minimizedAffinity 1.40270102
REMARK minimizedRMSD -1
REMARK  0 active torsions:
REMARK  status: ('A' for Active; 'I' for Inactive)
ROOT
ATOM      1  C2' OXE d   1       0.980  -0.142   1.882  0.00  0.00     0.078 C 
ATOM      2  C1' OXE d   1      -0.497  -1.314  -0.198  0.00  0.00     0.078 C 
ATOM      3  C1  OXE d   1       0.395  -0.147  -0.540  0.00  0.00    -0.078 A 
ATOM      4  C2  OXE d   1       1.078   0.450   0.492  0.00  0.00    -0.078 A 
ATOM      5  C3  OXE d   1       1.957   1.496   0.224  0.00  0.00     0.003 A 
ATOM      6  C4  OXE d   1       2.034   2.044  -1.063  0.00  0.00    -0.002 A 
ATOM      7  C5  OXE d   1       1.316   1.476  -2.121  0.00  0.00    -0.002 A 
ATOM      8  C6  OXE d   1       0.527   0.356  -1.885  0.00  0.00     0.003 A 
ENDROOT
TORSDOF 0
ENDMDL
