MODEL 1
REMARK minimizedAffinity 7.85908556
REMARK minimizedRMSD -1
REMARK  0 active torsions:
REMARK  status: ('A' for Active; 'I' for Inactive)
ROOT
ATOM      1  C2' OXE d   1      -0.644   1.865   2.675  0.00  0.00     0.078 C 
ATOM      2  C1' OXE d   1      -1.925  -0.630   2.546  0.00  0.00     0.078 C 
ATOM      3  C1  OXE d   1      -0.518  -0.588   3.088  0.00  0.00    -0.078 A 
ATOM      4  C2  OXE d   1       0.118   0.630   3.104  0.00  0.00    -0.078 A 
ATOM      5  C3  OXE d   1       1.397   0.733   3.645  0.00  0.00     0.003 A 
ATOM      6  C4  OXE d   1       2.098  -0.416   4.030  0.00  0.00    -0.002 A 
ATOM      7  C5  OXE d   1       1.484  -1.671   3.985  0.00  0.00    -0.002 A 
ATOM      8  C6  OXE d   1       0.164  -1.769   3.558  0.00  0.00     0.003 A 
ENDROOT
TORSDOF 0
ENDMDL
