MODEL 1
REMARK minimizedAffinity 9.7166214
REMARK minimizedRMSD -1
REMARK  0 active torsions:
REMARK  status: ('A' for Active; 'I' for Inactive)
ROOT
ATOM      1  C2' OXE d   1      -0.501  -1.115   2.048  0.00  0.00     0.078 C 
ATOM      2  C1' OXE d   1       0.157   1.470   2.922  0.00  0.00     0.078 C 
ATOM      3  C1  OXE d   1       0.854   0.307   3.581  0.00  0.00    -0.078 A 
ATOM      4  C2  OXE d   1       0.492  -0.957   3.180  0.00  0.00    -0.078 A 
ATOM      5  C3  OXE d   1       1.143  -2.063   3.717  0.00  0.00     0.003 A 
ATOM      6  C4  OXE d   1       2.053  -1.909   4.770  0.00  0.00    -0.002 A 
ATOM      7  C5  OXE d   1       2.406  -0.632   5.221  0.00  0.00    -0.002 A 
ATOM      8  C6  OXE d   1       1.849   0.485   4.610  0.00  0.00     0.003 A 
ENDROOT
TORSDOF 0
ENDMDL
