MODEL 1
REMARK minimizedAffinity 8.23306465
REMARK minimizedRMSD -1
REMARK  0 active torsions:
REMARK  status: ('A' for Active; 'I' for Inactive)
ROOT
ATOM      1  C2' OXE d   1      -0.347   2.391   4.165  0.00  0.00     0.078 C 
ATOM      2  C1' OXE d   1      -1.838   0.201   3.236  0.00  0.00     0.078 C 
ATOM      3  C1  OXE d   1      -0.414   0.338   2.756  0.00  0.00    -0.078 A 
ATOM      4  C2  OXE d   1       0.293   1.438   3.179  0.00  0.00    -0.078 A 
ATOM      5  C3  OXE d   1       1.627   1.584   2.810  0.00  0.00     0.003 A 
ATOM      6  C4  OXE d   1       2.208   0.703   1.889  0.00  0.00    -0.002 A 
ATOM      7  C5  OXE d   1       1.493  -0.402   1.415  0.00  0.00    -0.002 A 
ATOM      8  C6  OXE d   1       0.198  -0.622   1.870  0.00  0.00     0.003 A 
ENDROOT
TORSDOF 0
ENDMDL
