MODEL 1
REMARK minimizedAffinity 8.83990002
REMARK minimizedRMSD -1
REMARK  0 active torsions:
REMARK  status: ('A' for Active; 'I' for Inactive)
ROOT
ATOM      1  C2' OXE d   1       2.989  -1.310   0.413  0.00  0.00     0.078 C 
ATOM      2  C1' OXE d   1       1.763   0.015   2.563  0.00  0.00     0.078 C 
ATOM      3  C1  OXE d   1       1.962   0.786   1.282  0.00  0.00    -0.078 A 
ATOM      4  C2  OXE d   1       2.605   0.145   0.251  0.00  0.00    -0.078 A 
ATOM      5  C3  OXE d   1       2.765   0.793  -0.970  0.00  0.00     0.003 A 
ATOM      6  C4  OXE d   1       2.416   2.142  -1.108  0.00  0.00    -0.002 A 
ATOM      7  C5  OXE d   1       1.797   2.826  -0.057  0.00  0.00    -0.002 A 
ATOM      8  C6  OXE d   1       1.524   2.152   1.128  0.00  0.00     0.003 A 
ENDROOT
TORSDOF 0
ENDMDL
