MODEL 1
REMARK minimizedAffinity 14.3975811
REMARK minimizedRMSD -1
REMARK  0 active torsions:
REMARK  status: ('A' for Active; 'I' for Inactive)
ROOT
ATOM      1  C2' OXE d   1       5.371   1.511   4.910  0.00  0.00     0.078 C 
ATOM      2  C1' OXE d   1       3.646  -0.084   3.374  0.00  0.00     0.078 C 
ATOM      3  C1  OXE d   1       3.028   0.957   4.273  0.00  0.00    -0.078 A 
ATOM      4  C2  OXE d   1       3.877   1.701   5.056  0.00  0.00    -0.078 A 
ATOM      5  C3  OXE d   1       3.363   2.712   5.863  0.00  0.00     0.003 A 
ATOM      6  C4  OXE d   1       1.979   2.875   6.000  0.00  0.00    -0.002 A 
ATOM      7  C5  OXE d   1       1.094   2.101   5.241  0.00  0.00    -0.002 A 
ATOM      8  C6  OXE d   1       1.603   1.169   4.344  0.00  0.00     0.003 A 
ENDROOT
TORSDOF 0
ENDMDL
