MODEL 1
REMARK minimizedAffinity 7.66925812
REMARK minimizedRMSD -1
REMARK  0 active torsions:
REMARK  status: ('A' for Active; 'I' for Inactive)
ROOT
ATOM      1  C2' OXE d   1       2.711   3.085   0.443  0.00  0.00     0.078 C 
ATOM      2  C1' OXE d   1       2.355   0.801   2.035  0.00  0.00     0.078 C 
ATOM      3  C1  OXE d   1       1.961   0.714   0.582  0.00  0.00    -0.078 A 
ATOM      4  C2  OXE d   1       2.095   1.850  -0.179  0.00  0.00    -0.078 A 
ATOM      5  C3  OXE d   1       1.797   1.809  -1.538  0.00  0.00     0.003 A 
ATOM      6  C4  OXE d   1       1.218   0.666  -2.103  0.00  0.00    -0.002 A 
ATOM      7  C5  OXE d   1       1.036  -0.490  -1.336  0.00  0.00    -0.002 A 
ATOM      8  C6  OXE d   1       1.441  -0.496  -0.006  0.00  0.00     0.003 A 
ENDROOT
TORSDOF 0
ENDMDL
