MODEL 1
REMARK minimizedAffinity 14.8538465
REMARK minimizedRMSD -1
REMARK  0 active torsions:
REMARK  status: ('A' for Active; 'I' for Inactive)
ROOT
ATOM      1  C2' OXE d   1       2.507   2.706  -0.333  0.00  0.00     0.078 C 
ATOM      2  C1' OXE d   1       3.193   1.904   2.269  0.00  0.00     0.078 C 
ATOM      3  C1  OXE d   1       2.604   0.867   1.345  0.00  0.00    -0.078 A 
ATOM      4  C2  OXE d   1       2.228   1.280   0.089  0.00  0.00    -0.078 A 
ATOM      5  C3  OXE d   1       1.730   0.352  -0.821  0.00  0.00     0.003 A 
ATOM      6  C4  OXE d   1       1.466  -0.963  -0.419  0.00  0.00    -0.002 A 
ATOM      7  C5  OXE d   1       1.804  -1.394   0.868  0.00  0.00    -0.002 A 
ATOM      8  C6  OXE d   1       2.412  -0.504   1.747  0.00  0.00     0.003 A 
ENDROOT
TORSDOF 0
ENDMDL
