MODEL 1
REMARK minimizedAffinity 6.77532864
REMARK minimizedRMSD -1
REMARK  0 active torsions:
REMARK  status: ('A' for Active; 'I' for Inactive)
ROOT
ATOM      1  C2' OXE d   1      -5.907   2.387   1.601  0.00  0.00     0.078 C 
ATOM      2  C1' OXE d   1      -5.449   2.020  -1.144  0.00  0.00     0.078 C 
ATOM      3  C1  OXE d   1      -5.618   3.432  -0.642  0.00  0.00    -0.078 A 
ATOM      4  C2  OXE d   1      -5.889   3.599   0.695  0.00  0.00    -0.078 A 
ATOM      5  C3  OXE d   1      -5.999   4.883   1.221  0.00  0.00     0.003 A 
ATOM      6  C4  OXE d   1      -5.990   5.999   0.375  0.00  0.00    -0.002 A 
ATOM      7  C5  OXE d   1      -5.756   5.848  -0.996  0.00  0.00    -0.002 A 
ATOM      8  C6  OXE d   1      -5.526   4.578  -1.513  0.00  0.00     0.003 A 
ENDROOT
TORSDOF 0
ENDMDL
