MODEL 1
REMARK minimizedAffinity 14.1753531
REMARK minimizedRMSD -1
REMARK  0 active torsions:
REMARK  status: ('A' for Active; 'I' for Inactive)
ROOT
ATOM      1  C   UNL d   1      -5.405   1.585   0.472  0.00  0.00    -0.002 A 
ATOM      2  C1  UNL d   1      -5.164   0.241   0.721  0.00  0.00     0.010 A 
ATOM      3  C2  UNL d   1      -5.202  -0.692  -0.316  0.00  0.00     0.041 A 
ATOM      4  C3  UNL d   1      -5.488  -0.248  -1.622  0.00  0.00    -0.075 A 
ATOM      5  S   UNL d   1      -5.587  -1.210  -3.049  0.00  0.00     0.015 SA
ATOM      6  C4  UNL d   1      -5.951   0.139  -4.024  0.00  0.00     0.022 A 
ATOM      7  C5  UNL d   1      -6.000   1.304  -3.295  0.00  0.00     0.026 A 
ATOM      8  C6  UNL d   1      -5.733   1.100  -1.899  0.00  0.00    -0.082 A 
ATOM      9  C7  UNL d   1      -5.688   2.022  -0.825  0.00  0.00     0.045 A 
ENDROOT
TORSDOF 0
ENDMDL
