MODEL 1
REMARK minimizedAffinity 9.91183281
REMARK minimizedRMSD -1
REMARK  0 active torsions:
REMARK  status: ('A' for Active; 'I' for Inactive)
ROOT
ATOM      1  C   UNL d   1      -2.103  -1.868   0.931  0.00  0.00    -0.002 A 
ATOM      2  C1  UNL d   1      -0.924  -2.599   0.974  0.00  0.00     0.010 A 
ATOM      3  C2  UNL d   1      -0.016  -2.422   2.019  0.00  0.00     0.041 A 
ATOM      4  C3  UNL d   1      -0.317  -1.491   3.033  0.00  0.00    -0.075 A 
ATOM      5  S   UNL d   1       0.646  -1.108   4.411  0.00  0.00     0.015 SA
ATOM      6  C4  UNL d   1      -0.486   0.034   4.977  0.00  0.00     0.022 A 
ATOM      7  C5  UNL d   1      -1.577   0.134   4.146  0.00  0.00     0.026 A 
ATOM      8  C6  UNL d   1      -1.498  -0.743   3.012  0.00  0.00    -0.082 A 
ATOM      9  C7  UNL d   1      -2.397  -0.945   1.938  0.00  0.00     0.045 A 
ENDROOT
TORSDOF 0
ENDMDL
