MODEL 1
REMARK minimizedAffinity 16.0282574
REMARK minimizedRMSD -1
REMARK  0 active torsions:
REMARK  status: ('A' for Active; 'I' for Inactive)
ROOT
ATOM      1  C   UNL d   1       5.349   2.554   1.566  0.00  0.00    -0.002 A 
ATOM      2  C1  UNL d   1       4.518   1.829   0.724  0.00  0.00     0.010 A 
ATOM      3  C2  UNL d   1       4.176   2.325  -0.536  0.00  0.00     0.041 A 
ATOM      4  C3  UNL d   1       4.691   3.573  -0.940  0.00  0.00    -0.075 A 
ATOM      5  S   UNL d   1       4.410   4.377  -2.439  0.00  0.00     0.015 SA
ATOM      6  C4  UNL d   1       5.387   5.702  -1.997  0.00  0.00     0.022 A 
ATOM      7  C5  UNL d   1       5.923   5.550  -0.740  0.00  0.00     0.026 A 
ATOM      8  C6  UNL d   1       5.531   4.320  -0.110  0.00  0.00    -0.082 A 
ATOM      9  C7  UNL d   1       5.858   3.791   1.161  0.00  0.00     0.045 A 
ENDROOT
TORSDOF 0
ENDMDL
