MODEL 1
REMARK minimizedAffinity 11.7070522
REMARK minimizedRMSD -1
REMARK  0 active torsions:
REMARK  status: ('A' for Active; 'I' for Inactive)
ROOT
ATOM      1  C   UNL d   1       3.360   0.756   1.430  0.00  0.00    -0.002 A 
ATOM      2  C1  UNL d   1       2.498   1.477   0.617  0.00  0.00     0.010 A 
ATOM      3  C2  UNL d   1       2.782   2.802   0.279  0.00  0.00     0.041 A 
ATOM      4  C3  UNL d   1       3.959   3.395   0.775  0.00  0.00    -0.075 A 
ATOM      5  S   UNL d   1       4.513   5.003   0.493  0.00  0.00     0.015 SA
ATOM      6  C4  UNL d   1       5.907   4.770   1.444  0.00  0.00     0.022 A 
ATOM      7  C5  UNL d   1       5.965   3.502   1.973  0.00  0.00     0.026 A 
ATOM      8  C6  UNL d   1       4.844   2.688   1.595  0.00  0.00    -0.082 A 
ATOM      9  C7  UNL d   1       4.527   1.347   1.921  0.00  0.00     0.045 A 
ENDROOT
TORSDOF 0
ENDMDL
