MODEL 1
REMARK minimizedAffinity 18.3198605
REMARK minimizedRMSD -1
REMARK  0 active torsions:
REMARK  status: ('A' for Active; 'I' for Inactive)
ROOT
ATOM      1  C   UNL d   1      -2.090   0.637   4.055  0.00  0.00    -0.002 A 
ATOM      2  C1  UNL d   1      -1.336   0.650   5.220  0.00  0.00     0.010 A 
ATOM      3  C2  UNL d   1      -0.187  -0.136   5.331  0.00  0.00     0.041 A 
ATOM      4  C3  UNL d   1       0.196  -0.941   4.241  0.00  0.00    -0.075 A 
ATOM      5  S   UNL d   1       1.566  -1.984   4.150  0.00  0.00     0.015 SA
ATOM      6  C4  UNL d   1       1.183  -2.471   2.562  0.00  0.00     0.022 A 
ATOM      7  C5  UNL d   1       0.041  -1.863   2.097  0.00  0.00     0.026 A 
ATOM      8  C6  UNL d   1      -0.546  -0.971   3.057  0.00  0.00    -0.082 A 
ATOM      9  C7  UNL d   1      -1.707  -0.164   2.975  0.00  0.00     0.045 A 
ENDROOT
TORSDOF 0
ENDMDL
