MODEL 1
REMARK minimizedAffinity 18.1038437
REMARK minimizedRMSD -1
REMARK  0 active torsions:
REMARK  status: ('A' for Active; 'I' for Inactive)
ROOT
ATOM      1  C   UNL d   1       2.642   4.151  -2.038  0.00  0.00    -0.002 A 
ATOM      2  C1  UNL d   1       1.893   3.275  -2.811  0.00  0.00     0.010 A 
ATOM      3  C2  UNL d   1       2.431   2.714  -3.971  0.00  0.00     0.041 A 
ATOM      4  C3  UNL d   1       3.747   3.050  -4.343  0.00  0.00    -0.075 A 
ATOM      5  S   UNL d   1       4.614   2.485  -5.722  0.00  0.00     0.015 SA
ATOM      6  C4  UNL d   1       5.999   3.392  -5.317  0.00  0.00     0.022 A 
ATOM      7  C5  UNL d   1       5.822   4.114  -4.161  0.00  0.00     0.026 A 
ATOM      8  C6  UNL d   1       4.521   3.929  -3.580  0.00  0.00    -0.082 A 
ATOM      9  C7  UNL d   1       3.947   4.482  -2.410  0.00  0.00     0.045 A 
ENDROOT
TORSDOF 0
ENDMDL
