MODEL 1
REMARK minimizedAffinity 23.8006668
REMARK minimizedRMSD -1
REMARK  0 active torsions:
REMARK  status: ('A' for Active; 'I' for Inactive)
ROOT
ATOM      1  C   UNL d   1       1.108  -2.584   3.616  0.00  0.00    -0.002 A 
ATOM      2  C1  UNL d   1       2.010  -1.531   3.548  0.00  0.00     0.010 A 
ATOM      3  C2  UNL d   1       2.908  -1.432   2.484  0.00  0.00     0.041 A 
ATOM      4  C3  UNL d   1       2.883  -2.417   1.477  0.00  0.00    -0.075 A 
ATOM      5  S   UNL d   1       3.888  -2.501   0.079  0.00  0.00     0.015 SA
ATOM      6  C4  UNL d   1       3.144  -3.935  -0.462  0.00  0.00     0.022 A 
ATOM      7  C5  UNL d   1       2.151  -4.355   0.391  0.00  0.00     0.026 A 
ATOM      8  C6  UNL d   1       1.984  -3.486   1.522  0.00  0.00    -0.082 A 
ATOM      9  C7  UNL d   1       1.087  -3.559   2.615  0.00  0.00     0.045 A 
ENDROOT
TORSDOF 0
ENDMDL
