MODEL 1
REMARK minimizedAffinity 9.38144016
REMARK minimizedRMSD -1
REMARK  0 active torsions:
REMARK  status: ('A' for Active; 'I' for Inactive)
ROOT
ATOM      1  C   UNL d   1       1.977   0.974   0.130  0.00  0.00    -0.002 A 
ATOM      2  C1  UNL d   1       2.718   0.751  -1.023  0.00  0.00     0.010 A 
ATOM      3  C2  UNL d   1       3.976   1.335  -1.183  0.00  0.00     0.041 A 
ATOM      4  C3  UNL d   1       4.483   2.154  -0.155  0.00  0.00    -0.075 A 
ATOM      5  S   UNL d   1       6.000   2.973  -0.132  0.00  0.00     0.015 SA
ATOM      6  C4  UNL d   1       5.701   3.638   1.409  0.00  0.00     0.022 A 
ATOM      7  C5  UNL d   1       4.479   3.255   1.908  0.00  0.00     0.026 A 
ATOM      8  C6  UNL d   1       3.756   2.393   1.015  0.00  0.00    -0.082 A 
ATOM      9  C7  UNL d   1       2.484   1.787   1.147  0.00  0.00     0.045 A 
ENDROOT
TORSDOF 0
ENDMDL
