MODEL 1
REMARK minimizedAffinity 15.9515924
REMARK minimizedRMSD -1
REMARK  0 active torsions:
REMARK  status: ('A' for Active; 'I' for Inactive)
ROOT
ATOM      1  C   UNL d   1       4.012   3.129  -3.791  0.00  0.00    -0.002 A 
ATOM      2  C1  UNL d   1       3.368   2.173  -3.019  0.00  0.00     0.010 A 
ATOM      3  C2  UNL d   1       3.594   2.101  -1.643  0.00  0.00     0.041 A 
ATOM      4  C3  UNL d   1       4.486   3.017  -1.050  0.00  0.00    -0.075 A 
ATOM      5  S   UNL d   1       4.916   3.119   0.616  0.00  0.00     0.015 SA
ATOM      6  C4  UNL d   1       5.964   4.434   0.342  0.00  0.00     0.022 A 
ATOM      7  C5  UNL d   1       5.997   4.800  -0.983  0.00  0.00     0.026 A 
ATOM      8  C6  UNL d   1       5.145   3.990  -1.807  0.00  0.00    -0.082 A 
ATOM      9  C7  UNL d   1       4.895   4.036  -3.200  0.00  0.00     0.045 A 
ENDROOT
TORSDOF 0
ENDMDL
