MODEL 1
REMARK minimizedAffinity 18.2897949
REMARK minimizedRMSD -1
REMARK  0 active torsions:
REMARK  status: ('A' for Active; 'I' for Inactive)
ROOT
ATOM      1  C   UNL d   1      -1.853  -0.931   1.125  0.00  0.00    -0.002 A 
ATOM      2  C1  UNL d   1      -3.151  -0.604   0.759  0.00  0.00     0.010 A 
ATOM      3  C2  UNL d   1      -4.005   0.032   1.662  0.00  0.00     0.041 A 
ATOM      4  C3  UNL d   1      -3.527   0.339   2.951  0.00  0.00    -0.075 A 
ATOM      5  S   UNL d   1      -4.393   1.116   4.223  0.00  0.00     0.015 SA
ATOM      6  C4  UNL d   1      -3.060   1.033   5.282  0.00  0.00     0.022 A 
ATOM      7  C5  UNL d   1      -1.972   0.430   4.696  0.00  0.00     0.026 A 
ATOM      8  C6  UNL d   1      -2.223   0.020   3.343  0.00  0.00    -0.082 A 
ATOM      9  C7  UNL d   1      -1.383  -0.625   2.405  0.00  0.00     0.045 A 
ENDROOT
TORSDOF 0
ENDMDL
