MODEL 1
REMARK minimizedAffinity 10.249856
REMARK minimizedRMSD -1
REMARK  0 active torsions:
REMARK  status: ('A' for Active; 'I' for Inactive)
ROOT
ATOM      1  C   UNL d   1       2.232   1.126   0.426  0.00  0.00    -0.002 A 
ATOM      2  C1  UNL d   1       2.824   1.084  -0.829  0.00  0.00     0.010 A 
ATOM      3  C2  UNL d   1       3.995   1.800  -1.086  0.00  0.00     0.041 A 
ATOM      4  C3  UNL d   1       4.568   2.564  -0.050  0.00  0.00    -0.075 A 
ATOM      5  S   UNL d   1       6.000   3.521  -0.134  0.00  0.00     0.015 SA
ATOM      6  C4  UNL d   1       5.860   4.006   1.494  0.00  0.00     0.022 A 
ATOM      7  C5  UNL d   1       4.754   3.462   2.101  0.00  0.00     0.026 A 
ATOM      8  C6  UNL d   1       3.991   2.621   1.222  0.00  0.00    -0.082 A 
ATOM      9  C7  UNL d   1       2.803   1.885   1.450  0.00  0.00     0.045 A 
ENDROOT
TORSDOF 0
ENDMDL
