MODEL 1
REMARK minimizedAffinity 21.7596207
REMARK minimizedRMSD -1
REMARK  0 active torsions:
REMARK  status: ('A' for Active; 'I' for Inactive)
ROOT
ATOM      1  C   UNL d   1       3.838  -5.999   0.553  0.00  0.00    -0.002 A 
ATOM      2  C1  UNL d   1       5.206  -5.957   0.781  0.00  0.00     0.010 A 
ATOM      3  C2  UNL d   1       5.951  -4.832   0.424  0.00  0.00     0.041 A 
ATOM      4  C3  UNL d   1       5.292  -3.738  -0.170  0.00  0.00    -0.075 A 
ATOM      5  S   UNL d   1       6.000  -2.254  -0.688  0.00  0.00     0.015 SA
ATOM      6  C4  UNL d   1       4.503  -1.640  -1.224  0.00  0.00     0.022 A 
ATOM      7  C5  UNL d   1       3.477  -2.533  -1.020  0.00  0.00     0.026 A 
ATOM      8  C6  UNL d   1       3.915  -3.756  -0.409  0.00  0.00    -0.082 A 
ATOM      9  C7  UNL d   1       3.187  -4.912  -0.036  0.00  0.00     0.045 A 
ENDROOT
TORSDOF 0
ENDMDL
