MODEL 1
REMARK minimizedAffinity 12.9132204
REMARK minimizedRMSD -1
REMARK  0 active torsions:
REMARK  status: ('A' for Active; 'I' for Inactive)
ROOT
ATOM      1  C   UNL d   1       5.150   1.754   0.941  0.00  0.00     0.020 A 
ATOM      2  C1  UNL d   1       6.000   2.291  -0.025  0.00  0.00     0.020 A 
ATOM      3  C2  UNL d   1       5.915   1.855  -1.349  0.00  0.00     0.034 A 
ATOM      4  C3  UNL d   1       4.978   0.880  -1.711  0.00  0.00     0.017 A 
ATOM      5  C4  UNL d   1       4.125   0.342  -0.740  0.00  0.00     0.017 A 
ATOM      6  C5  UNL d   1       4.214   0.782   0.584  0.00  0.00     0.034 A 
ATOM      7 Cl   UNL d   1       2.944  -0.864  -1.110  0.00  0.00    -0.070 Cl
ATOM      8 Cl1  UNL d   1       4.929   0.389  -3.366  0.00  0.00    -0.070 Cl
ENDROOT
TORSDOF 0
ENDMDL
