MODEL 1
REMARK minimizedAffinity 2.5741272
REMARK minimizedRMSD -1
REMARK  0 active torsions:
REMARK  status: ('A' for Active; 'I' for Inactive)
ROOT
ATOM      1  C   UNL d   1      -2.244  -5.217   5.732  0.00  0.00     0.020 A 
ATOM      2  C1  UNL d   1      -1.481  -6.000   4.866  0.00  0.00     0.020 A 
ATOM      3  C2  UNL d   1      -0.338  -5.467   4.267  0.00  0.00     0.034 A 
ATOM      4  C3  UNL d   1       0.046  -4.148   4.534  0.00  0.00     0.017 A 
ATOM      5  C4  UNL d   1      -0.720  -3.363   5.403  0.00  0.00     0.017 A 
ATOM      6  C5  UNL d   1      -1.864  -3.902   6.000  0.00  0.00     0.034 A 
ATOM      7 Cl   UNL d   1      -0.309  -1.727   5.781  0.00  0.00    -0.070 Cl
ATOM      8 Cl1  UNL d   1       1.472  -3.554   3.759  0.00  0.00    -0.070 Cl
ENDROOT
TORSDOF 0
ENDMDL
