MODEL 1
REMARK minimizedAffinity 4.3429985
REMARK minimizedRMSD -1
REMARK  0 active torsions:
REMARK  status: ('A' for Active; 'I' for Inactive)
ROOT
ATOM      1  C   UNL d   1       4.187   0.777  -1.068  0.00  0.00     0.020 A 
ATOM      2  C1  UNL d   1       3.209   0.782  -0.075  0.00  0.00     0.020 A 
ATOM      3  C2  UNL d   1       2.295  -0.270   0.010  0.00  0.00     0.034 A 
ATOM      4  C3  UNL d   1       2.357  -1.331  -0.900  0.00  0.00     0.017 A 
ATOM      5  C4  UNL d   1       3.339  -1.336  -1.897  0.00  0.00     0.017 A 
ATOM      6  C5  UNL d   1       4.252  -0.280  -1.978  0.00  0.00     0.034 A 
ATOM      7 Cl   UNL d   1       3.478  -2.610  -3.056  0.00  0.00    -0.070 Cl
ATOM      8 Cl1  UNL d   1       1.194  -2.599  -0.736  0.00  0.00    -0.070 Cl
ENDROOT
TORSDOF 0
ENDMDL
