MODEL 1
REMARK minimizedAffinity 8.81126308
REMARK minimizedRMSD -1
REMARK  0 active torsions:
REMARK  status: ('A' for Active; 'I' for Inactive)
ROOT
ATOM      1  C   UNL d   1       5.133   1.729  -0.919  0.00  0.00     0.020 A 
ATOM      2  C1  UNL d   1       3.831   1.522  -1.373  0.00  0.00     0.020 A 
ATOM      3  C2  UNL d   1       3.124   0.386  -0.972  0.00  0.00     0.034 A 
ATOM      4  C3  UNL d   1       3.718  -0.546  -0.113  0.00  0.00     0.017 A 
ATOM      5  C4  UNL d   1       5.025  -0.337   0.342  0.00  0.00     0.017 A 
ATOM      6  C5  UNL d   1       5.728   0.802  -0.063  0.00  0.00     0.034 A 
ATOM      7 Cl   UNL d   1       5.825  -1.442   1.403  0.00  0.00    -0.070 Cl
ATOM      8 Cl1  UNL d   1       2.785  -1.927   0.343  0.00  0.00    -0.070 Cl
ENDROOT
TORSDOF 0
ENDMDL
