MODEL 1
REMARK minimizedAffinity 8.99275589
REMARK minimizedRMSD -1
REMARK  0 active torsions:
REMARK  status: ('A' for Active; 'I' for Inactive)
ROOT
ATOM      1  C   UNL d   1      -2.324   0.809  -3.375  0.00  0.00     0.020 A 
ATOM      2  C1  UNL d   1      -2.324  -0.001  -2.240  0.00  0.00     0.020 A 
ATOM      3  C2  UNL d   1      -3.469  -0.090  -1.446  0.00  0.00     0.034 A 
ATOM      4  C3  UNL d   1      -4.619   0.632  -1.785  0.00  0.00     0.017 A 
ATOM      5  C4  UNL d   1      -4.618   1.444  -2.924  0.00  0.00     0.017 A 
ATOM      6  C5  UNL d   1      -3.469   1.530  -3.716  0.00  0.00     0.034 A 
ATOM      7 Cl   UNL d   1      -5.999   2.365  -3.407  0.00  0.00    -0.070 Cl
ATOM      8 Cl1  UNL d   1      -5.999   0.473  -0.757  0.00  0.00    -0.070 Cl
ENDROOT
TORSDOF 0
ENDMDL
