MODEL 1
REMARK minimizedAffinity 6.44550085
REMARK minimizedRMSD -1
REMARK  0 active torsions:
REMARK  status: ('A' for Active; 'I' for Inactive)
ROOT
ATOM      1  C   UNL d   1      -0.460   1.578   0.026  0.00  0.00     0.020 A 
ATOM      2  C1  UNL d   1      -0.956   0.925  -1.102  0.00  0.00     0.020 A 
ATOM      3  C2  UNL d   1      -2.317   0.624  -1.193  0.00  0.00     0.034 A 
ATOM      4  C3  UNL d   1      -3.186   0.975  -0.154  0.00  0.00     0.017 A 
ATOM      5  C4  UNL d   1      -2.688   1.631   0.978  0.00  0.00     0.017 A 
ATOM      6  C5  UNL d   1      -1.325   1.930   1.064  0.00  0.00     0.034 A 
ATOM      7 Cl   UNL d   1      -3.699   2.096   2.300  0.00  0.00    -0.070 Cl
ATOM      8 Cl1  UNL d   1      -4.857   0.572  -0.334  0.00  0.00    -0.070 Cl
ENDROOT
TORSDOF 0
ENDMDL
