MODEL 1
REMARK minimizedAffinity 11.9985943
REMARK minimizedRMSD -1
REMARK  0 active torsions:
REMARK  status: ('A' for Active; 'I' for Inactive)
ROOT
ATOM      1  C   UNL d   1       3.609   0.431   0.086  0.00  0.00     0.020 A 
ATOM      2  C1  UNL d   1       4.305   1.113  -0.911  0.00  0.00     0.020 A 
ATOM      3  C2  UNL d   1       4.389   0.575  -2.197  0.00  0.00     0.034 A 
ATOM      4  C3  UNL d   1       3.776  -0.649  -2.489  0.00  0.00     0.017 A 
ATOM      5  C4  UNL d   1       3.078  -1.333  -1.488  0.00  0.00     0.017 A 
ATOM      6  C5  UNL d   1       2.997  -0.790  -0.202  0.00  0.00     0.034 A 
ATOM      7 Cl   UNL d   1       2.296  -2.848  -1.772  0.00  0.00    -0.070 Cl
ATOM      8 Cl1  UNL d   1       3.921  -1.255  -4.101  0.00  0.00    -0.070 Cl
ENDROOT
TORSDOF 0
ENDMDL
