MODEL 1
REMARK minimizedAffinity 1.21327555
REMARK minimizedRMSD -1
REMARK  2 active torsions:
REMARK  status: ('A' for Active; 'I' for Inactive)
REMARK    1  A    between atoms: C1_2  and  C2_3 
REMARK    2  A    between atoms: C2_3  and  C3_4 
ROOT
ATOM      1  C3  UNL d   1      -4.780  -4.950  -3.357  0.00  0.00    -0.075 A 
ATOM      2  C4  UNL d   1      -4.495  -3.829  -4.150  0.00  0.00     0.002 A 
ATOM      3  C5  UNL d   1      -4.966  -3.752  -5.461  0.00  0.00     0.002 A 
ATOM      4  C6  UNL d   1      -5.716  -4.795  -5.998  0.00  0.00    -0.004 A 
ATOM      5  C7  UNL d   1      -5.991  -5.921  -5.225  0.00  0.00     0.002 A 
ATOM      6  C8  UNL d   1      -5.525  -6.000  -3.911  0.00  0.00     0.002 A 
ENDROOT
BRANCH   1   7
ATOM      7  C2  UNL d   1      -4.299  -5.028  -1.928  0.00  0.00     0.056 C 
BRANCH   7   8
ATOM      8  C1  UNL d   1      -4.510  -3.738  -1.128  0.00  0.00     0.007 C 
ATOM      9  C   UNL d   1      -5.709  -2.927  -1.602  0.00  0.00     0.009 C 
ENDBRANCH   7   8
ENDBRANCH   1   7
TORSDOF 2
ENDMDL
