MODEL 1
REMARK minimizedAffinity 8.88049126
REMARK minimizedRMSD -1
REMARK  2 active torsions:
REMARK  status: ('A' for Active; 'I' for Inactive)
REMARK    1  A    between atoms: C1_2  and  C2_3 
REMARK    2  A    between atoms: C2_3  and  C3_4 
ROOT
ATOM      1  C3  UNL d   1       2.702  -3.405   3.863  0.00  0.00    -0.075 A 
ATOM      2  C4  UNL d   1       1.873  -4.373   3.277  0.00  0.00     0.002 A 
ATOM      3  C5  UNL d   1       0.918  -4.007   2.328  0.00  0.00     0.002 A 
ATOM      4  C6  UNL d   1       0.773  -2.671   1.961  0.00  0.00    -0.004 A 
ATOM      5  C7  UNL d   1       1.580  -1.699   2.549  0.00  0.00     0.002 A 
ATOM      6  C8  UNL d   1       2.539  -2.063   3.495  0.00  0.00     0.002 A 
ENDROOT
BRANCH   1   7
ATOM      7  C2  UNL d   1       3.758  -3.798   4.869  0.00  0.00     0.056 C 
BRANCH   7   8
ATOM      8  C1  UNL d   1       5.108  -3.106   4.659  0.00  0.00     0.007 C 
ATOM      9  C   UNL d   1       6.000  -3.821   3.653  0.00  0.00     0.009 C 
ENDBRANCH   7   8
ENDBRANCH   1   7
TORSDOF 2
ENDMDL
