MODEL 1
REMARK minimizedAffinity 8.24399281
REMARK minimizedRMSD -1
REMARK  2 active torsions:
REMARK  status: ('A' for Active; 'I' for Inactive)
REMARK    1  A    between atoms: C1_2  and  C2_3 
REMARK    2  A    between atoms: C2_3  and  C3_4 
ROOT
ATOM      1  C3  UNL d   1       3.571  -2.664   3.604  0.00  0.00    -0.075 A 
ATOM      2  C4  UNL d   1       3.583  -3.088   4.941  0.00  0.00     0.002 A 
ATOM      3  C5  UNL d   1       4.790  -3.289   5.610  0.00  0.00     0.002 A 
ATOM      4  C6  UNL d   1       5.999  -3.080   4.950  0.00  0.00    -0.004 A 
ATOM      5  C7  UNL d   1       6.000  -2.676   3.616  0.00  0.00     0.002 A 
ATOM      6  C8  UNL d   1       4.793  -2.469   2.946  0.00  0.00     0.002 A 
ENDROOT
BRANCH   1   7
ATOM      7  C2  UNL d   1       2.268  -2.416   2.883  0.00  0.00     0.056 C 
BRANCH   7   8
ATOM      8  C1  UNL d   1       2.318  -1.255   1.885  0.00  0.00     0.007 C 
ATOM      9  C   UNL d   1       1.505  -0.046   2.328  0.00  0.00     0.009 C 
ENDBRANCH   7   8
ENDBRANCH   1   7
TORSDOF 2
ENDMDL
