MODEL 1
REMARK minimizedAffinity -1.42326248
REMARK minimizedRMSD -1
REMARK  2 active torsions:
REMARK  status: ('A' for Active; 'I' for Inactive)
REMARK    1  A    between atoms: C1_2  and  C2_3 
REMARK    2  A    between atoms: C2_3  and  C3_4 
ROOT
ATOM      1  C3  UNL d   1       2.989  -3.047   3.772  0.00  0.00    -0.075 A 
ATOM      2  C4  UNL d   1       2.098  -4.104   4.011  0.00  0.00     0.002 A 
ATOM      3  C5  UNL d   1       0.813  -4.083   3.469  0.00  0.00     0.002 A 
ATOM      4  C6  UNL d   1       0.400  -3.004   2.691  0.00  0.00    -0.004 A 
ATOM      5  C7  UNL d   1       1.271  -1.942   2.460  0.00  0.00     0.002 A 
ATOM      6  C8  UNL d   1       2.559  -1.962   2.998  0.00  0.00     0.002 A 
ENDROOT
BRANCH   1   7
ATOM      7  C2  UNL d   1       4.391  -3.077   4.332  0.00  0.00     0.056 C 
BRANCH   7   8
ATOM      8  C1  UNL d   1       5.478  -2.722   3.312  0.00  0.00     0.007 C 
ATOM      9  C   UNL d   1       6.000  -3.930   2.545  0.00  0.00     0.009 C 
ENDBRANCH   7   8
ENDBRANCH   1   7
TORSDOF 2
ENDMDL
