MODEL 1
REMARK minimizedAffinity 2.94944525
REMARK minimizedRMSD -1
REMARK  0 active torsions:
REMARK  status: ('A' for Active; 'I' for Inactive)
ROOT
ATOM      1  N1  IND d   1      -0.412   2.582  -0.007  0.00  0.00    -0.196 N 
ATOM      2  C2  IND d   1       0.574   1.977   0.722  0.00  0.00     0.054 A 
ATOM      3  C3  IND d   1       0.060   0.971   1.464  0.00  0.00    -0.031 A 
ATOM      4  C4  IND d   1      -2.352   0.076   1.559  0.00  0.00     0.051 A 
ATOM      5  C5  IND d   1      -3.614   0.328   1.098  0.00  0.00    -0.031 A 
ATOM      6  C6  IND d   1      -3.878   1.364   0.225  0.00  0.00     0.015 A 
ATOM      7  C7  IND d   1      -2.883   2.182  -0.230  0.00  0.00    -0.016 A 
ATOM      8  C8  IND d   1      -1.602   1.934   0.242  0.00  0.00    -0.047 A 
ATOM      9  C9  IND d   1      -1.335   0.911   1.161  0.00  0.00    -0.096 A 
ATOM     10  HN1 IND d   1      -0.307   3.254  -0.533  0.00  0.00     0.298 HD
ENDROOT
TORSDOF 0
ENDMDL
