MODEL 1
REMARK minimizedAffinity 1.21816409
REMARK minimizedRMSD -1
REMARK  0 active torsions:
REMARK  status: ('A' for Active; 'I' for Inactive)
ROOT
ATOM      1  N1  IND d   1      -2.958   2.241  -0.260  0.00  0.00    -0.196 N 
ATOM      2  C2  IND d   1      -3.827   1.224   0.023  0.00  0.00     0.054 A 
ATOM      3  C3  IND d   1      -3.175   0.202   0.622  0.00  0.00    -0.031 A 
ATOM      4  C4  IND d   1      -0.705   0.025   1.325  0.00  0.00     0.051 A 
ATOM      5  C5  IND d   1       0.488   0.688   1.245  0.00  0.00    -0.031 A 
ATOM      6  C6  IND d   1       0.595   1.928   0.649  0.00  0.00     0.015 A 
ATOM      7  C7  IND d   1      -0.495   2.560   0.119  0.00  0.00    -0.016 A 
ATOM      8  C8  IND d   1      -1.706   1.887   0.193  0.00  0.00    -0.047 A 
ATOM      9  C9  IND d   1      -1.813   0.610   0.758  0.00  0.00    -0.096 A 
ATOM     10  HN1 IND d   1      -3.160   2.977  -0.655  0.00  0.00     0.298 HD
ENDROOT
TORSDOF 0
ENDMDL
