MODEL 1
REMARK minimizedAffinity 1.88059616
REMARK minimizedRMSD -1
REMARK  0 active torsions:
REMARK  status: ('A' for Active; 'I' for Inactive)
ROOT
ATOM      1  N1  IND d   1      -0.079   2.473   0.789  0.00  0.00    -0.196 N 
ATOM      2  C2  IND d   1       0.674   1.560   1.473  0.00  0.00     0.054 A 
ATOM      3  C3  IND d   1      -0.074   0.481   1.796  0.00  0.00    -0.031 A 
ATOM      4  C4  IND d   1      -2.527  -0.042   1.215  0.00  0.00     0.051 A 
ATOM      5  C5  IND d   1      -3.637   0.506   0.636  0.00  0.00    -0.031 A 
ATOM      6  C6  IND d   1      -3.617   1.762   0.064  0.00  0.00     0.015 A 
ATOM      7  C7  IND d   1      -2.477   2.515   0.040  0.00  0.00    -0.016 A 
ATOM      8  C8  IND d   1      -1.350   1.965   0.634  0.00  0.00    -0.047 A 
ATOM      9  C9  IND d   1      -1.376   0.709   1.253  0.00  0.00    -0.096 A 
ATOM     10  HN1 IND d   1       0.195   3.237   0.504  0.00  0.00     0.298 HD
ENDROOT
TORSDOF 0
ENDMDL
