MODEL 1
REMARK minimizedAffinity 5.05420589
REMARK minimizedRMSD -1
REMARK  0 active torsions:
REMARK  status: ('A' for Active; 'I' for Inactive)
ROOT
ATOM      1  N1  IND d   1      -3.435  -0.152   1.834  0.00  0.00    -0.196 N 
ATOM      2  C2  IND d   1      -2.772  -1.158   2.480  0.00  0.00     0.054 A 
ATOM      3  C3  IND d   1      -1.436  -1.010   2.334  0.00  0.00    -0.031 A 
ATOM      4  C4  IND d   1      -0.116   0.865   1.162  0.00  0.00     0.051 A 
ATOM      5  C5  IND d   1      -0.285   1.984   0.396  0.00  0.00    -0.031 A 
ATOM      6  C6  IND d   1      -1.538   2.460   0.066  0.00  0.00     0.015 A 
ATOM      7  C7  IND d   1      -2.673   1.837   0.501  0.00  0.00    -0.016 A 
ATOM      8  C8  IND d   1      -2.506   0.697   1.273  0.00  0.00    -0.047 A 
ATOM      9  C9  IND d   1      -1.238   0.185   1.576  0.00  0.00    -0.096 A 
ATOM     10  HN1 IND d   1      -4.289  -0.064   1.786  0.00  0.00     0.298 HD
ENDROOT
TORSDOF 0
ENDMDL
