MODEL 1
REMARK minimizedAffinity -4.88269329
REMARK minimizedRMSD -1
REMARK  0 active torsions:
REMARK  status: ('A' for Active; 'I' for Inactive)
ROOT
ATOM      1  N1  IND d   1      -3.751   1.190   0.619  0.00  0.00    -0.196 N 
ATOM      2  C2  IND d   1      -4.181   2.211  -0.181  0.00  0.00     0.054 A 
ATOM      3  C3  IND d   1      -3.127   2.845  -0.742  0.00  0.00    -0.031 A 
ATOM      4  C4  IND d   1      -0.615   2.311  -0.566  0.00  0.00     0.051 A 
ATOM      5  C5  IND d   1       0.270   1.492   0.077  0.00  0.00    -0.031 A 
ATOM      6  C6  IND d   1      -0.149   0.508   0.950  0.00  0.00     0.015 A 
ATOM      7  C7  IND d   1      -1.475   0.299   1.204  0.00  0.00    -0.016 A 
ATOM      8  C8  IND d   1      -2.376   1.134   0.557  0.00  0.00    -0.047 A 
ATOM      9  C9  IND d   1      -1.955   2.161  -0.296  0.00  0.00    -0.096 A 
ATOM     10  HN1 IND d   1      -4.255   0.669   1.083  0.00  0.00     0.298 HD
ENDROOT
TORSDOF 0
ENDMDL
