MODEL 1
REMARK minimizedAffinity 6.16072416
REMARK minimizedRMSD -1
REMARK  0 active torsions:
REMARK  status: ('A' for Active; 'I' for Inactive)
ROOT
ATOM      1  N1  IND d   1       1.214   3.955   1.106  0.00  0.00    -0.196 N 
ATOM      2  C2  IND d   1       1.129   3.024   2.104  0.00  0.00     0.054 A 
ATOM      3  C3  IND d   1       2.268   3.008   2.831  0.00  0.00    -0.031 A 
ATOM      4  C4  IND d   1       4.362   4.491   2.624  0.00  0.00     0.051 A 
ATOM      5  C5  IND d   1       4.922   5.461   1.840  0.00  0.00    -0.031 A 
ATOM      6  C6  IND d   1       4.260   5.991   0.752  0.00  0.00     0.015 A 
ATOM      7  C7  IND d   1       3.003   5.577   0.411  0.00  0.00    -0.016 A 
ATOM      8  C8  IND d   1       2.435   4.587   1.200  0.00  0.00    -0.047 A 
ATOM      9  C9  IND d   1       3.119   4.015   2.281  0.00  0.00    -0.096 A 
ATOM     10  HN1 IND d   1       0.608   4.118   0.518  0.00  0.00     0.298 HD
ENDROOT
TORSDOF 0
ENDMDL
