MODEL 1
REMARK minimizedAffinity 7.05998135
REMARK minimizedRMSD -1
REMARK  0 active torsions:
REMARK  status: ('A' for Active; 'I' for Inactive)
ROOT
ATOM      1  N1  IND d   1      -1.188   2.361   2.408  0.00  0.00    -0.196 N 
ATOM      2  C2  IND d   1      -0.735   3.425   3.137  0.00  0.00     0.054 A 
ATOM      3  C3  IND d   1       0.601   3.565   2.984  0.00  0.00    -0.031 A 
ATOM      4  C4  IND d   1       2.228   2.224   1.507  0.00  0.00     0.051 A 
ATOM      5  C5  IND d   1       2.287   1.133   0.685  0.00  0.00    -0.031 A 
ATOM      6  C6  IND d   1       1.168   0.382   0.388  0.00  0.00     0.015 A 
ATOM      7  C7  IND d   1      -0.060   0.703   0.895  0.00  0.00    -0.016 A 
ATOM      8  C8  IND d   1      -0.123   1.805   1.734  0.00  0.00    -0.047 A 
ATOM      9  C9  IND d   1       1.017   2.546   2.074  0.00  0.00    -0.096 A 
ATOM     10  HN1 IND d   1      -2.002   2.085   2.376  0.00  0.00     0.298 HD
ENDROOT
TORSDOF 0
ENDMDL
