MODEL 1
REMARK minimizedAffinity 4.27011871
REMARK minimizedRMSD -1
REMARK  0 active torsions:
REMARK  status: ('A' for Active; 'I' for Inactive)
ROOT
ATOM      1  N1  IND d   1      -0.151  -4.132   4.122  0.00  0.00    -0.196 N 
ATOM      2  C2  IND d   1       0.173  -5.457   4.032  0.00  0.00     0.054 A 
ATOM      3  C3  IND d   1      -0.371  -6.000   2.919  0.00  0.00    -0.031 A 
ATOM      4  C4  IND d   1      -1.742  -4.874   1.054  0.00  0.00     0.051 A 
ATOM      5  C5  IND d   1      -2.325  -3.686   0.712  0.00  0.00    -0.031 A 
ATOM      6  C6  IND d   1      -2.208  -2.563   1.505  0.00  0.00     0.015 A 
ATOM      7  C7  IND d   1      -1.492  -2.582   2.668  0.00  0.00    -0.016 A 
ATOM      8  C8  IND d   1      -0.904  -3.789   3.021  0.00  0.00    -0.047 A 
ATOM      9  C9  IND d   1      -1.055  -4.944   2.242  0.00  0.00    -0.096 A 
ATOM     10  HN1 IND d   1       0.077  -3.602   4.759  0.00  0.00     0.298 HD
ENDROOT
TORSDOF 0
ENDMDL
