MODEL 1
REMARK minimizedAffinity 2.39667082
REMARK minimizedRMSD -1
REMARK  0 active torsions:
REMARK  status: ('A' for Active; 'I' for Inactive)
ROOT
ATOM      1  N1  IND d   1       3.136   1.482   1.633  0.00  0.00    -0.196 N 
ATOM      2  C2  IND d   1       2.708   0.669   0.621  0.00  0.00     0.054 A 
ATOM      3  C3  IND d   1       1.358   0.689   0.540  0.00  0.00    -0.031 A 
ATOM      4  C4  IND d   1      -0.341   2.064   1.900  0.00  0.00     0.051 A 
ATOM      5  C5  IND d   1      -0.431   2.922   2.960  0.00  0.00    -0.031 A 
ATOM      6  C6  IND d   1       0.687   3.355   3.644  0.00  0.00     0.015 A 
ATOM      7  C7  IND d   1       1.942   2.953   3.285  0.00  0.00    -0.016 A 
ATOM      8  C8  IND d   1       2.036   2.076   2.213  0.00  0.00    -0.047 A 
ATOM      9  C9  IND d   1       0.902   1.600   1.542  0.00  0.00    -0.096 A 
ATOM     10  HN1 IND d   1       3.954   1.602   1.868  0.00  0.00     0.298 HD
ENDROOT
TORSDOF 0
ENDMDL
