MODEL 1
REMARK minimizedAffinity 3.68472171
REMARK minimizedRMSD -1
REMARK  0 active torsions:
REMARK  status: ('A' for Active; 'I' for Inactive)
ROOT
ATOM      1  N1  IND d   1      -1.215   2.160   1.986  0.00  0.00    -0.196 N 
ATOM      2  C2  IND d   1      -1.299   3.057   3.015  0.00  0.00     0.054 A 
ATOM      3  C3  IND d   1      -0.063   3.378   3.459  0.00  0.00    -0.031 A 
ATOM      4  C4  IND d   1       2.238   2.632   2.578  0.00  0.00     0.051 A 
ATOM      5  C5  IND d   1       2.824   1.790   1.676  0.00  0.00    -0.031 A 
ATOM      6  C6  IND d   1       2.079   1.015   0.811  0.00  0.00     0.015 A 
ATOM      7  C7  IND d   1       0.714   1.062   0.809  0.00  0.00    -0.016 A 
ATOM      8  C8  IND d   1       0.115   1.910   1.729  0.00  0.00    -0.047 A 
ATOM      9  C9  IND d   1       0.865   2.668   2.638  0.00  0.00    -0.096 A 
ATOM     10  HN1 IND d   1      -1.882   1.812   1.569  0.00  0.00     0.298 HD
ENDROOT
TORSDOF 0
ENDMDL
