MODEL 1
REMARK minimizedAffinity 3.90532374
REMARK minimizedRMSD -1
REMARK  0 active torsions:
REMARK  status: ('A' for Active; 'I' for Inactive)
ROOT
ATOM      1  N1  IND d   1      -1.598   2.293   1.843  0.00  0.00    -0.196 N 
ATOM      2  C2  IND d   1      -1.739   3.196   2.860  0.00  0.00     0.054 A 
ATOM      3  C3  IND d   1      -0.533   3.497   3.392  0.00  0.00    -0.031 A 
ATOM      4  C4  IND d   1       1.812   2.705   2.683  0.00  0.00     0.051 A 
ATOM      5  C5  IND d   1       2.447   1.849   1.828  0.00  0.00    -0.031 A 
ATOM      6  C6  IND d   1       1.752   1.083   0.914  0.00  0.00     0.015 A 
ATOM      7  C7  IND d   1       0.391   1.154   0.812  0.00  0.00    -0.016 A 
ATOM      8  C8  IND d   1      -0.257   2.018   1.684  0.00  0.00    -0.047 A 
ATOM      9  C9  IND d   1       0.439   2.766   2.642  0.00  0.00    -0.096 A 
ATOM     10  HN1 IND d   1      -2.238   1.955   1.380  0.00  0.00     0.298 HD
ENDROOT
TORSDOF 0
ENDMDL
