MODEL 1
REMARK minimizedAffinity 3.01693654
REMARK minimizedRMSD -1
REMARK  0 active torsions:
REMARK  status: ('A' for Active; 'I' for Inactive)
ROOT
ATOM      1  N1  IND d   1       0.931   3.363   3.768  0.00  0.00    -0.196 N 
ATOM      2  C2  IND d   1      -0.030   2.806   2.971  0.00  0.00     0.054 A 
ATOM      3  C3  IND d   1      -0.010   3.373   1.744  0.00  0.00    -0.031 A 
ATOM      4  C4  IND d   1       1.580   5.162   0.795  0.00  0.00     0.051 A 
ATOM      5  C5  IND d   1       2.598   6.000   1.156  0.00  0.00    -0.031 A 
ATOM      6  C6  IND d   1       3.124   6.000   2.432  0.00  0.00     0.015 A 
ATOM      7  C7  IND d   1       2.657   5.150   3.395  0.00  0.00    -0.016 A 
ATOM      8  C8  IND d   1       1.620   4.303   3.033  0.00  0.00    -0.047 A 
ATOM      9  C9  IND d   1       1.053   4.328   1.752  0.00  0.00    -0.096 A 
ATOM     10  HN1 IND d   1       1.079   3.161   4.590  0.00  0.00     0.298 HD
ENDROOT
TORSDOF 0
ENDMDL
