MODEL 1
REMARK minimizedAffinity 6.95531273
REMARK minimizedRMSD -1
REMARK  0 active torsions:
REMARK  status: ('A' for Active; 'I' for Inactive)
ROOT
ATOM      1  N1  IND d   1       2.292   1.072   1.411  0.00  0.00    -0.196 N 
ATOM      2  C2  IND d   1       1.752   0.240   0.471  0.00  0.00     0.054 A 
ATOM      3  C3  IND d   1       0.424   0.460   0.355  0.00  0.00    -0.031 A 
ATOM      4  C4  IND d   1      -1.054   2.206   1.536  0.00  0.00     0.051 A 
ATOM      5  C5  IND d   1      -1.018   3.167   2.507  0.00  0.00    -0.031 A 
ATOM      6  C6  IND d   1       0.147   3.487   3.174  0.00  0.00     0.015 A 
ATOM      7  C7  IND d   1       1.327   2.863   2.886  0.00  0.00    -0.016 A 
ATOM      8  C8  IND d   1       1.294   1.882   1.905  0.00  0.00    -0.047 A 
ATOM      9  C9  IND d   1       0.106   1.523   1.255  0.00  0.00    -0.096 A 
ATOM     10  HN1 IND d   1       3.117   1.087   1.653  0.00  0.00     0.298 HD
ENDROOT
TORSDOF 0
ENDMDL
