MODEL 1
REMARK minimizedAffinity 8.07260799
REMARK minimizedRMSD -1
REMARK  0 active torsions:
REMARK  status: ('A' for Active; 'I' for Inactive)
ROOT
ATOM      1  N1  IND d   1      -0.302   1.719   0.014  0.00  0.00    -0.196 N 
ATOM      2  C2  IND d   1       0.376   1.244   1.102  0.00  0.00     0.054 A 
ATOM      3  C3  IND d   1       1.626   0.869   0.750  0.00  0.00    -0.031 A 
ATOM      4  C4  IND d   1       2.805   1.042  -1.532  0.00  0.00     0.051 A 
ATOM      5  C5  IND d   1       2.580   1.377  -2.838  0.00  0.00    -0.031 A 
ATOM      6  C6  IND d   1       1.359   1.856  -3.268  0.00  0.00     0.015 A 
ATOM      7  C7  IND d   1       0.316   2.028  -2.402  0.00  0.00    -0.016 A 
ATOM      8  C8  IND d   1       0.539   1.682  -1.077  0.00  0.00    -0.047 A 
ATOM      9  C9  IND d   1       1.763   1.157  -0.643  0.00  0.00    -0.096 A 
ATOM     10  HN1 IND d   1      -1.116   1.995   0.011  0.00  0.00     0.298 HD
ENDROOT
TORSDOF 0
ENDMDL
