MODEL 1
REMARK minimizedAffinity 6.77484751
REMARK minimizedRMSD -1
REMARK  0 active torsions:
REMARK  status: ('A' for Active; 'I' for Inactive)
ROOT
ATOM      1  N1  IND d   1       1.768  -5.841   4.991  0.00  0.00    -0.196 N 
ATOM      2  C2  IND d   1       0.809  -5.821   5.964  0.00  0.00     0.054 A 
ATOM      3  C3  IND d   1      -0.424  -5.829   5.410  0.00  0.00    -0.031 A 
ATOM      4  C4  IND d   1      -1.102  -5.978   2.931  0.00  0.00     0.051 A 
ATOM      5  C5  IND d   1      -0.577  -5.981   1.669  0.00  0.00    -0.031 A 
ATOM      6  C6  IND d   1       0.785  -5.940   1.445  0.00  0.00     0.015 A 
ATOM      7  C7  IND d   1       1.676  -5.905   2.480  0.00  0.00    -0.016 A 
ATOM      8  C8  IND d   1       1.146  -5.895   3.763  0.00  0.00    -0.047 A 
ATOM      9  C9  IND d   1      -0.236  -5.894   3.995  0.00  0.00    -0.096 A 
ATOM     10  HN1 IND d   1       2.618  -5.824   5.123  0.00  0.00     0.298 HD
ENDROOT
TORSDOF 0
ENDMDL
