MODEL 1
REMARK minimizedAffinity 12.6920395
REMARK minimizedRMSD -1
REMARK  0 active torsions:
REMARK  status: ('A' for Active; 'I' for Inactive)
ROOT
ATOM      1  N1  IND d   1      -0.189   2.914   2.918  0.00  0.00    -0.196 N 
ATOM      2  C2  IND d   1      -1.415   2.608   2.397  0.00  0.00     0.054 A 
ATOM      3  C3  IND d   1      -1.294   1.672   1.428  0.00  0.00    -0.031 A 
ATOM      4  C4  IND d   1       0.807   0.430   0.608  0.00  0.00     0.051 A 
ATOM      5  C5  IND d   1       2.165   0.394   0.758  0.00  0.00    -0.031 A 
ATOM      6  C6  IND d   1       2.821   1.211   1.656  0.00  0.00     0.015 A 
ATOM      7  C7  IND d   1       2.139   2.090   2.449  0.00  0.00    -0.016 A 
ATOM      8  C8  IND d   1       0.760   2.134   2.294  0.00  0.00    -0.047 A 
ATOM      9  C9  IND d   1       0.093   1.338   1.354  0.00  0.00    -0.096 A 
ATOM     10  HN1 IND d   1      -0.036   3.495   3.533  0.00  0.00     0.298 HD
ENDROOT
TORSDOF 0
ENDMDL
