MODEL 1
REMARK minimizedAffinity 2.06752777
REMARK minimizedRMSD -1
REMARK  0 active torsions:
REMARK  status: ('A' for Active; 'I' for Inactive)
ROOT
ATOM      1  N1  IND d   1      -1.362   2.708   2.410  0.00  0.00    -0.196 N 
ATOM      2  C2  IND d   1      -0.684   3.345   3.411  0.00  0.00     0.054 A 
ATOM      3  C3  IND d   1       0.633   3.042   3.353  0.00  0.00    -0.031 A 
ATOM      4  C4  IND d   1       1.907   1.606   1.639  0.00  0.00     0.051 A 
ATOM      5  C5  IND d   1       1.712   0.788   0.562  0.00  0.00    -0.031 A 
ATOM      6  C6  IND d   1       0.457   0.566   0.033  0.00  0.00     0.015 A 
ATOM      7  C7  IND d   1      -0.653   1.165   0.557  0.00  0.00    -0.016 A 
ATOM      8  C8  IND d   1      -0.460   1.991   1.655  0.00  0.00    -0.047 A 
ATOM      9  C9  IND d   1       0.806   2.186   2.223  0.00  0.00    -0.096 A 
ATOM     10  HN1 IND d   1      -2.210   2.748   2.274  0.00  0.00     0.298 HD
ENDROOT
TORSDOF 0
ENDMDL
