MODEL 1
REMARK minimizedAffinity 3.52871251
REMARK minimizedRMSD -1
REMARK  0 active torsions:
REMARK  status: ('A' for Active; 'I' for Inactive)
ROOT
ATOM      1  N1  IND d   1      -1.466   1.491   0.869  0.00  0.00    -0.196 N 
ATOM      2  C2  IND d   1      -0.921   1.136  -0.334  0.00  0.00     0.054 A 
ATOM      3  C3  IND d   1       0.400   1.424  -0.356  0.00  0.00    -0.031 A 
ATOM      4  C4  IND d   1       1.894   2.386   1.506  0.00  0.00     0.051 A 
ATOM      5  C5  IND d   1       1.843   2.901   2.771  0.00  0.00    -0.031 A 
ATOM      6  C6  IND d   1       0.662   2.971   3.482  0.00  0.00     0.015 A 
ATOM      7  C7  IND d   1      -0.514   2.517   2.956  0.00  0.00    -0.016 A 
ATOM      8  C8  IND d   1      -0.467   2.000   1.669  0.00  0.00    -0.047 A 
ATOM      9  C9  IND d   1       0.721   1.965   0.927  0.00  0.00    -0.096 A 
ATOM     10  HN1 IND d   1      -2.293   1.411   1.088  0.00  0.00     0.298 HD
ENDROOT
TORSDOF 0
ENDMDL
