MODEL 1
REMARK minimizedAffinity 1.21981704
REMARK minimizedRMSD -1
REMARK  0 active torsions:
REMARK  status: ('A' for Active; 'I' for Inactive)
ROOT
ATOM      1  N1  IND d   1      -0.497   1.815   2.402  0.00  0.00    -0.196 N 
ATOM      2  C2  IND d   1      -0.326   2.719   3.414  0.00  0.00     0.054 A 
ATOM      3  C3  IND d   1       0.972   3.086   3.503  0.00  0.00    -0.031 A 
ATOM      4  C4  IND d   1       2.968   2.407   2.025  0.00  0.00     0.051 A 
ATOM      5  C5  IND d   1       3.314   1.576   0.997  0.00  0.00    -0.031 A 
ATOM      6  C6  IND d   1       2.388   0.768   0.370  0.00  0.00     0.015 A 
ATOM      7  C7  IND d   1       1.073   0.769   0.742  0.00  0.00    -0.016 A 
ATOM      8  C8  IND d   1       0.720   1.607   1.791  0.00  0.00    -0.047 A 
ATOM      9  C9  IND d   1       1.664   2.398   2.459  0.00  0.00    -0.096 A 
ATOM     10  HN1 IND d   1      -1.239   1.440   2.184  0.00  0.00     0.298 HD
ENDROOT
TORSDOF 0
ENDMDL
