MODEL 1
REMARK minimizedAffinity 8.1458931
REMARK minimizedRMSD -1
REMARK  1 active torsions:
REMARK  status: ('A' for Active; 'I' for Inactive)
REMARK    1  A    between atoms: C1_2  and  C2_3 
ROOT
ATOM      1  C2  UNL d   1       4.736   1.334   1.063  0.00  0.00    -0.081 A 
ATOM      2  C3  UNL d   1       3.708   1.422   0.116  0.00  0.00     0.006 A 
ATOM      3  C4  UNL d   1       2.880   0.326  -0.135  0.00  0.00     0.002 A 
ATOM      4  C5  UNL d   1       3.061  -0.874   0.561  0.00  0.00    -0.080 A 
ATOM      5  C6  UNL d   1       2.160  -2.050   0.323  0.00  0.00     0.076 C 
ATOM      6  C7  UNL d   1       4.099  -0.969   1.494  0.00  0.00     0.002 A 
ATOM      7  C8  UNL d   1       4.928   0.127   1.745  0.00  0.00     0.006 A 
ENDROOT
BRANCH   1   8
ATOM      8  C1  UNL d   1       5.589   2.535   1.383  0.00  0.00     0.054 C 
ATOM      9  C   UNL d   1       5.566   2.849   2.872  0.00  0.00     0.018 C 
ENDBRANCH   1   8
TORSDOF 1
ENDMDL
