MODEL 1
REMARK minimizedAffinity 11.2694788
REMARK minimizedRMSD -1
REMARK  1 active torsions:
REMARK  status: ('A' for Active; 'I' for Inactive)
REMARK    1  A    between atoms: C1_2  and  C2_3 
ROOT
ATOM      1  C2  UNL d   1       5.183   3.538  -1.242  0.00  0.00    -0.081 A 
ATOM      2  C3  UNL d   1       3.949   2.951  -1.550  0.00  0.00     0.006 A 
ATOM      3  C4  UNL d   1       3.537   1.786  -0.899  0.00  0.00     0.002 A 
ATOM      4  C5  UNL d   1       4.347   1.193   0.075  0.00  0.00    -0.080 A 
ATOM      5  C6  UNL d   1       3.902  -0.041   0.803  0.00  0.00     0.076 C 
ATOM      6  C7  UNL d   1       5.587   1.768   0.370  0.00  0.00     0.002 A 
ATOM      7  C8  UNL d   1       6.000   2.933  -0.281  0.00  0.00     0.006 A 
ENDROOT
BRANCH   1   8
ATOM      8  C1  UNL d   1       5.601   4.830  -1.895  0.00  0.00     0.054 C 
ATOM      9  C   UNL d   1       5.530   5.993  -0.917  0.00  0.00     0.018 C 
ENDBRANCH   1   8
TORSDOF 1
ENDMDL
