MODEL 1
REMARK minimizedAffinity -5.57167482
REMARK minimizedRMSD -1
REMARK  1 active torsions:
REMARK  status: ('A' for Active; 'I' for Inactive)
REMARK    1  A    between atoms: C1_2  and  C2_3 
ROOT
ATOM      1  C2  UNL d   1       3.285  -0.681   0.761  0.00  0.00    -0.081 A 
ATOM      2  C3  UNL d   1       2.531   0.447   0.415  0.00  0.00     0.006 A 
ATOM      3  C4  UNL d   1       3.159   1.667   0.153  0.00  0.00     0.002 A 
ATOM      4  C5  UNL d   1       4.552   1.778   0.226  0.00  0.00    -0.080 A 
ATOM      5  C6  UNL d   1       5.241   3.074  -0.081  0.00  0.00     0.076 C 
ATOM      6  C7  UNL d   1       5.305   0.656   0.589  0.00  0.00     0.002 A 
ATOM      7  C8  UNL d   1       4.677  -0.564   0.851  0.00  0.00     0.006 A 
ENDROOT
BRANCH   1   8
ATOM      8  C1  UNL d   1       2.616  -2.014   0.980  0.00  0.00     0.054 C 
ATOM      9  C   UNL d   1       1.789  -2.423  -0.230  0.00  0.00     0.018 C 
ENDBRANCH   1   8
TORSDOF 1
ENDMDL
