MODEL 1
REMARK minimizedAffinity 11.1583261
REMARK minimizedRMSD -1
REMARK  1 active torsions:
REMARK  status: ('A' for Active; 'I' for Inactive)
REMARK    1  A    between atoms: C1_2  and  C2_3 
ROOT
ATOM      1  C2  UNL d   1       2.983   0.236   0.126  0.00  0.00    -0.081 A 
ATOM      2  C3  UNL d   1       2.671   1.556  -0.222  0.00  0.00     0.006 A 
ATOM      3  C4  UNL d   1       3.639   2.559  -0.137  0.00  0.00     0.002 A 
ATOM      4  C5  UNL d   1       4.938   2.258   0.289  0.00  0.00    -0.080 A 
ATOM      5  C6  UNL d   1       5.995   3.319   0.355  0.00  0.00     0.076 C 
ATOM      6  C7  UNL d   1       5.245   0.942   0.652  0.00  0.00     0.002 A 
ATOM      7  C8  UNL d   1       4.277  -0.061   0.568  0.00  0.00     0.006 A 
ENDROOT
BRANCH   1   8
ATOM      8  C1  UNL d   1       1.959  -0.859  -0.026  0.00  0.00     0.054 C 
ATOM      9  C   UNL d   1       2.135  -1.603  -1.343  0.00  0.00     0.018 C 
ENDBRANCH   1   8
TORSDOF 1
ENDMDL
