MODEL 1
REMARK minimizedAffinity 2.13449168
REMARK minimizedRMSD -1
REMARK  1 active torsions:
REMARK  status: ('A' for Active; 'I' for Inactive)
REMARK    1  A    between atoms: C1_2  and  C2_3 
ROOT
ATOM      1  C2  UNL d   1       2.816   1.247  -0.002  0.00  0.00    -0.081 A 
ATOM      2  C3  UNL d   1       3.940   1.568  -0.773  0.00  0.00     0.006 A 
ATOM      3  C4  UNL d   1       4.923   2.423  -0.269  0.00  0.00     0.002 A 
ATOM      4  C5  UNL d   1       4.803   2.965   1.015  0.00  0.00    -0.080 A 
ATOM      5  C6  UNL d   1       5.866   3.860   1.578  0.00  0.00     0.076 C 
ATOM      6  C7  UNL d   1       3.672   2.658   1.778  0.00  0.00     0.002 A 
ATOM      7  C8  UNL d   1       2.688   1.804   1.275  0.00  0.00     0.006 A 
ENDROOT
BRANCH   1   8
ATOM      8  C1  UNL d   1       1.786   0.274  -0.516  0.00  0.00     0.054 C 
ATOM      9  C   UNL d   1       2.422  -1.057  -0.893  0.00  0.00     0.018 C 
ENDBRANCH   1   8
TORSDOF 1
ENDMDL
