MODEL 1
REMARK minimizedAffinity 3.15551901
REMARK minimizedRMSD -1
REMARK  1 active torsions:
REMARK  status: ('A' for Active; 'I' for Inactive)
REMARK    1  A    between atoms: C1_2  and  C2_3 
ROOT
ATOM      1  C2  UNL d   1       5.334   3.693  -0.362  0.00  0.00    -0.081 A 
ATOM      2  C3  UNL d   1       4.744   3.123  -1.496  0.00  0.00     0.006 A 
ATOM      3  C4  UNL d   1       4.076   1.899  -1.408  0.00  0.00     0.002 A 
ATOM      4  C5  UNL d   1       3.980   1.230  -0.183  0.00  0.00    -0.080 A 
ATOM      5  C6  UNL d   1       3.239  -0.069  -0.068  0.00  0.00     0.076 C 
ATOM      6  C7  UNL d   1       4.584   1.791   0.947  0.00  0.00     0.002 A 
ATOM      7  C8  UNL d   1       5.253   3.014   0.859  0.00  0.00     0.006 A 
ENDROOT
BRANCH   1   8
ATOM      8  C1  UNL d   1       6.000   5.043  -0.440  0.00  0.00     0.054 C 
ATOM      9  C   UNL d   1       5.978   5.589  -1.861  0.00  0.00     0.018 C 
ENDBRANCH   1   8
TORSDOF 1
ENDMDL
