MODEL 1
REMARK minimizedAffinity 25.0909271
REMARK minimizedRMSD -1
REMARK  0 active torsions:
REMARK  status: ('A' for Active; 'I' for Inactive)
ROOT
ATOM      1  C   UNL d   1       4.840   5.440  -2.994  0.00  0.00     0.124 A 
ATOM      2  C1  UNL d   1       3.638   5.651  -3.654  0.00  0.00     0.062 A 
ATOM      3  C2  UNL d   1       2.432   5.500  -2.976  0.00  0.00     0.162 A 
ATOM      4  C3  UNL d   1       2.422   5.138  -1.629  0.00  0.00    -0.034 A 
ATOM      5  C4  UNL d   1       3.636   4.926  -0.972  0.00  0.00     0.162 A 
ATOM      6  C5  UNL d   1       4.838   5.078  -1.654  0.00  0.00     0.062 A 
ATOM      7  F   UNL d   1       6.000   4.873  -1.015  0.00  0.00    -0.097 F 
ATOM      8  F1  UNL d   1       3.663   4.577   0.322  0.00  0.00    -0.096 F 
ATOM      9  I   UNL d   1       0.621   4.912  -0.611  0.00  0.00    -0.060 I 
ATOM     10  F2  UNL d   1       1.284   5.711  -3.638  0.00  0.00    -0.096 F 
ATOM     11  F3  UNL d   1       3.637   6.000  -4.948  0.00  0.00    -0.097 F 
ATOM     12  F4  UNL d   1       5.999   5.584  -3.649  0.00  0.00    -0.092 F 
ENDROOT
TORSDOF 0
ENDMDL
