MODEL 1
REMARK minimizedAffinity 11.8300142
REMARK minimizedRMSD -1
REMARK  0 active torsions:
REMARK  status: ('A' for Active; 'I' for Inactive)
ROOT
ATOM      1  C   UNL d   1       4.271   4.932  -4.091  0.00  0.00     0.124 A 
ATOM      2  C1  UNL d   1       4.755   4.392  -2.907  0.00  0.00     0.062 A 
ATOM      3  C2  UNL d   1       3.959   4.381  -1.765  0.00  0.00     0.162 A 
ATOM      4  C3  UNL d   1       2.669   4.910  -1.802  0.00  0.00    -0.034 A 
ATOM      5  C4  UNL d   1       2.189   5.451  -2.996  0.00  0.00     0.162 A 
ATOM      6  C5  UNL d   1       2.989   5.460  -4.134  0.00  0.00     0.062 A 
ATOM      7  F   UNL d   1       2.519   5.982  -5.277  0.00  0.00    -0.097 F 
ATOM      8  F1  UNL d   1       0.953   5.968  -3.067  0.00  0.00    -0.096 F 
ATOM      9  I   UNL d   1       1.474   4.894  -0.098  0.00  0.00    -0.060 I 
ATOM     10  F2  UNL d   1       4.453   3.854  -0.635  0.00  0.00    -0.096 F 
ATOM     11  F3  UNL d   1       5.994   3.882  -2.862  0.00  0.00    -0.097 F 
ATOM     12  F4  UNL d   1       5.040   4.942  -5.187  0.00  0.00    -0.092 F 
ENDROOT
TORSDOF 0
ENDMDL
