MODEL 1
REMARK minimizedAffinity 10.8475151
REMARK minimizedRMSD -1
REMARK  0 active torsions:
REMARK  status: ('A' for Active; 'I' for Inactive)
ROOT
ATOM      1  C   UNL d   1      -1.676  -2.612   1.224  0.00  0.00     0.124 A 
ATOM      2  C1  UNL d   1      -2.394  -2.184   0.116  0.00  0.00     0.062 A 
ATOM      3  C2  UNL d   1      -1.966  -2.516  -1.166  0.00  0.00     0.162 A 
ATOM      4  C3  UNL d   1      -0.814  -3.282  -1.347  0.00  0.00    -0.034 A 
ATOM      5  C4  UNL d   1      -0.097  -3.708  -0.227  0.00  0.00     0.162 A 
ATOM      6  C5  UNL d   1      -0.529  -3.373   1.052  0.00  0.00     0.062 A 
ATOM      7  F   UNL d   1       0.166  -3.787   2.121  0.00  0.00    -0.097 F 
ATOM      8  F1  UNL d   1       1.015  -4.445  -0.365  0.00  0.00    -0.096 F 
ATOM      9  I   UNL d   1      -0.170  -3.781  -3.262  0.00  0.00    -0.060 I 
ATOM     10  F2  UNL d   1      -2.679  -2.089  -2.219  0.00  0.00    -0.096 F 
ATOM     11  F3  UNL d   1      -3.502  -1.448   0.280  0.00  0.00    -0.097 F 
ATOM     12  F4  UNL d   1      -2.090  -2.290   2.457  0.00  0.00    -0.092 F 
ENDROOT
TORSDOF 0
ENDMDL
