MODEL 1
REMARK minimizedAffinity 9.41378498
REMARK minimizedRMSD -1
REMARK  0 active torsions:
REMARK  status: ('A' for Active; 'I' for Inactive)
ROOT
ATOM      1  C   UNL d   1       1.733  -2.023  -3.298  0.00  0.00     0.124 A 
ATOM      2  C1  UNL d   1       0.407  -2.364  -3.525  0.00  0.00     0.062 A 
ATOM      3  C2  UNL d   1      -0.474  -2.499  -2.456  0.00  0.00     0.162 A 
ATOM      4  C3  UNL d   1      -0.031  -2.294  -1.149  0.00  0.00    -0.034 A 
ATOM      5  C4  UNL d   1       1.304  -1.953  -0.929  0.00  0.00     0.162 A 
ATOM      6  C5  UNL d   1       2.181  -1.819  -2.001  0.00  0.00     0.062 A 
ATOM      7  F   UNL d   1       3.462  -1.490  -1.779  0.00  0.00    -0.097 F 
ATOM      8  F1  UNL d   1       1.763  -1.748   0.315  0.00  0.00    -0.096 F 
ATOM      9  I   UNL d   1      -1.345  -2.496   0.453  0.00  0.00    -0.060 I 
ATOM     10  F2  UNL d   1      -1.750  -2.829  -2.705  0.00  0.00    -0.096 F 
ATOM     11  F3  UNL d   1      -0.028  -2.563  -4.778  0.00  0.00    -0.097 F 
ATOM     12  F4  UNL d   1       2.578  -1.894  -4.329  0.00  0.00    -0.092 F 
ENDROOT
TORSDOF 0
ENDMDL
