MODEL 1
REMARK minimizedAffinity 13.4895515
REMARK minimizedRMSD -1
REMARK  0 active torsions:
REMARK  status: ('A' for Active; 'I' for Inactive)
ROOT
ATOM      1  C   UNL d   1       1.503  -2.542   2.894  0.00  0.00     0.124 A 
ATOM      2  C1  UNL d   1       1.756  -1.780   4.026  0.00  0.00     0.062 A 
ATOM      3  C2  UNL d   1       0.726  -1.481   4.913  0.00  0.00     0.162 A 
ATOM      4  C3  UNL d   1      -0.567  -1.945   4.672  0.00  0.00    -0.034 A 
ATOM      5  C4  UNL d   1      -0.814  -2.711   3.532  0.00  0.00     0.162 A 
ATOM      6  C5  UNL d   1       0.219  -3.007   2.648  0.00  0.00     0.062 A 
ATOM      7  F   UNL d   1      -0.027  -3.744   1.555  0.00  0.00    -0.097 F 
ATOM      8  F1  UNL d   1      -2.045  -3.174   3.270  0.00  0.00    -0.096 F 
ATOM      9  I   UNL d   1      -2.110  -1.500   5.996  0.00  0.00    -0.060 I 
ATOM     10  F2  UNL d   1       0.999  -0.741   5.998  0.00  0.00    -0.096 F 
ATOM     11  F3  UNL d   1       2.995  -1.328   4.265  0.00  0.00    -0.097 F 
ATOM     12  F4  UNL d   1       2.496  -2.828   2.042  0.00  0.00    -0.092 F 
ENDROOT
TORSDOF 0
ENDMDL
