MODEL 1
REMARK minimizedAffinity 13.4576006
REMARK minimizedRMSD -1
REMARK  0 active torsions:
REMARK  status: ('A' for Active; 'I' for Inactive)
ROOT
ATOM      1  C   UNL d   1      -1.612  -2.557  -1.037  0.00  0.00     0.124 A 
ATOM      2  C1  UNL d   1      -0.315  -2.144  -1.308  0.00  0.00     0.062 A 
ATOM      3  C2  UNL d   1       0.643  -2.138  -0.298  0.00  0.00     0.162 A 
ATOM      4  C3  UNL d   1       0.308  -2.547   0.993  0.00  0.00    -0.034 A 
ATOM      5  C4  UNL d   1      -0.999  -2.961   1.258  0.00  0.00     0.162 A 
ATOM      6  C5  UNL d   1      -1.952  -2.965   0.245  0.00  0.00     0.062 A 
ATOM      7  F   UNL d   1      -3.205  -3.365   0.509  0.00  0.00    -0.097 F 
ATOM      8  F1  UNL d   1      -1.355  -3.361   2.487  0.00  0.00    -0.096 F 
ATOM      9  I   UNL d   1       1.738  -2.540   2.505  0.00  0.00    -0.060 I 
ATOM     10  F2  UNL d   1       1.889  -1.734  -0.588  0.00  0.00    -0.096 F 
ATOM     11  F3  UNL d   1       0.017  -1.749  -2.545  0.00  0.00    -0.097 F 
ATOM     12  F4  UNL d   1      -2.532  -2.561  -2.010  0.00  0.00    -0.092 F 
ENDROOT
TORSDOF 0
ENDMDL
