MODEL 1
REMARK minimizedAffinity 13.109086
REMARK minimizedRMSD -1
REMARK  0 active torsions:
REMARK  status: ('A' for Active; 'I' for Inactive)
ROOT
ATOM      1  C   UNL d   1      -0.227  -3.688  -3.543  0.00  0.00     0.124 A 
ATOM      2  C1  UNL d   1      -0.407  -2.408  -3.037  0.00  0.00     0.062 A 
ATOM      3  C2  UNL d   1      -0.459  -2.199  -1.662  0.00  0.00     0.162 A 
ATOM      4  C3  UNL d   1      -0.330  -3.274  -0.782  0.00  0.00    -0.034 A 
ATOM      5  C4  UNL d   1      -0.150  -4.558  -1.298  0.00  0.00     0.162 A 
ATOM      6  C5  UNL d   1      -0.099  -4.762  -2.673  0.00  0.00     0.062 A 
ATOM      7  F   UNL d   1       0.075  -5.999  -3.159  0.00  0.00    -0.097 F 
ATOM      8  F1  UNL d   1      -0.022  -5.614  -0.480  0.00  0.00    -0.096 F 
ATOM      9  I   UNL d   1      -0.407  -2.965   1.275  0.00  0.00    -0.060 I 
ATOM     10  F2  UNL d   1      -0.634  -0.952  -1.202  0.00  0.00    -0.096 F 
ATOM     11  F3  UNL d   1      -0.533  -1.370  -3.876  0.00  0.00    -0.097 F 
ATOM     12  F4  UNL d   1      -0.179  -3.887  -4.866  0.00  0.00    -0.092 F 
ENDROOT
TORSDOF 0
ENDMDL
