MODEL 1
REMARK minimizedAffinity 9.78044033
REMARK minimizedRMSD -1
REMARK  0 active torsions:
REMARK  status: ('A' for Active; 'I' for Inactive)
ROOT
ATOM      1  C   UNL d   1       0.088  -2.384  -3.056  0.00  0.00     0.124 A 
ATOM      2  C1  UNL d   1      -0.047  -3.664  -2.535  0.00  0.00     0.062 A 
ATOM      3  C2  UNL d   1      -0.329  -3.844  -1.185  0.00  0.00     0.162 A 
ATOM      4  C3  UNL d   1      -0.480  -2.741  -0.344  0.00  0.00    -0.034 A 
ATOM      5  C4  UNL d   1      -0.343  -1.457  -0.875  0.00  0.00     0.162 A 
ATOM      6  C5  UNL d   1      -0.060  -1.283  -2.226  0.00  0.00     0.062 A 
ATOM      7  F   UNL d   1       0.069  -0.045  -2.727  0.00  0.00    -0.097 F 
ATOM      8  F1  UNL d   1      -0.482  -0.375  -0.095  0.00  0.00    -0.096 F 
ATOM      9  I   UNL d   1      -0.903  -3.006   1.677  0.00  0.00    -0.060 I 
ATOM     10  F2  UNL d   1      -0.454  -5.092  -0.709  0.00  0.00    -0.096 F 
ATOM     11  F3  UNL d   1       0.097  -4.730  -3.336  0.00  0.00    -0.097 F 
ATOM     12  F4  UNL d   1       0.361  -2.214  -4.356  0.00  0.00    -0.092 F 
ENDROOT
TORSDOF 0
ENDMDL
