MODEL 1
REMARK minimizedAffinity 16.6377792
REMARK minimizedRMSD -1
REMARK  0 active torsions:
REMARK  status: ('A' for Active; 'I' for Inactive)
ROOT
ATOM      1  C   UNL d   1       1.302  -2.970  -3.615  0.00  0.00     0.124 A 
ATOM      2  C1  UNL d   1       1.061  -1.859  -2.818  0.00  0.00     0.062 A 
ATOM      3  C2  UNL d   1      -0.035  -1.838  -1.960  0.00  0.00     0.162 A 
ATOM      4  C3  UNL d   1      -0.898  -2.931  -1.894  0.00  0.00    -0.034 A 
ATOM      5  C4  UNL d   1      -0.650  -4.045  -2.699  0.00  0.00     0.162 A 
ATOM      6  C5  UNL d   1       0.447  -4.061  -3.554  0.00  0.00     0.062 A 
ATOM      7  F   UNL d   1       0.678  -5.135  -4.323  0.00  0.00    -0.097 F 
ATOM      8  F1  UNL d   1      -1.460  -5.113  -2.659  0.00  0.00    -0.096 F 
ATOM      9  I   UNL d   1      -2.538  -2.903  -0.612  0.00  0.00    -0.060 I 
ATOM     10  F2  UNL d   1      -0.244  -0.751  -1.202  0.00  0.00    -0.096 F 
ATOM     11  F3  UNL d   1       1.885  -0.803  -2.876  0.00  0.00    -0.097 F 
ATOM     12  F4  UNL d   1       2.356  -2.988  -4.440  0.00  0.00    -0.092 F 
ENDROOT
TORSDOF 0
ENDMDL
