MODEL 1
REMARK minimizedAffinity 21.2172279
REMARK minimizedRMSD -1
REMARK  0 active torsions:
REMARK  status: ('A' for Active; 'I' for Inactive)
ROOT
ATOM      1  C   UNL d   1      -0.054  -2.381  -2.375  0.00  0.00     0.124 A 
ATOM      2  C1  UNL d   1      -0.425  -3.672  -2.024  0.00  0.00     0.062 A 
ATOM      3  C2  UNL d   1      -0.631  -4.634  -3.008  0.00  0.00     0.162 A 
ATOM      4  C3  UNL d   1      -0.464  -4.309  -4.355  0.00  0.00    -0.034 A 
ATOM      5  C4  UNL d   1      -0.092  -3.009  -4.700  0.00  0.00     0.162 A 
ATOM      6  C5  UNL d   1       0.112  -2.051  -3.712  0.00  0.00     0.062 A 
ATOM      7  F   UNL d   1       0.470  -0.805  -4.054  0.00  0.00    -0.097 F 
ATOM      8  F1  UNL d   1       0.076  -2.663  -5.985  0.00  0.00    -0.096 F 
ATOM      9  I   UNL d   1      -0.770  -5.745  -5.830  0.00  0.00    -0.060 I 
ATOM     10  F2  UNL d   1      -0.989  -5.873  -2.640  0.00  0.00    -0.096 F 
ATOM     11  F3  UNL d   1      -0.588  -3.993  -0.732  0.00  0.00    -0.097 F 
ATOM     12  F4  UNL d   1       0.142  -1.458  -1.425  0.00  0.00    -0.092 F 
ENDROOT
TORSDOF 0
ENDMDL
