MODEL 1
REMARK minimizedAffinity 18.5627518
REMARK minimizedRMSD -1
REMARK  0 active torsions:
REMARK  status: ('A' for Active; 'I' for Inactive)
ROOT
ATOM      1  C   UNL d   1       2.400   5.739  -4.008  0.00  0.00     0.124 A 
ATOM      2  C1  UNL d   1       2.121   5.701  -2.648  0.00  0.00     0.062 A 
ATOM      3  C2  UNL d   1       3.144   5.484  -1.730  0.00  0.00     0.162 A 
ATOM      4  C3  UNL d   1       4.457   5.305  -2.168  0.00  0.00    -0.034 A 
ATOM      5  C4  UNL d   1       4.729   5.344  -3.536  0.00  0.00     0.162 A 
ATOM      6  C5  UNL d   1       3.703   5.560  -4.450  0.00  0.00     0.062 A 
ATOM      7  F   UNL d   1       3.974   5.597  -5.763  0.00  0.00    -0.097 F 
ATOM      8  F1  UNL d   1       5.979   5.175  -3.991  0.00  0.00    -0.096 F 
ATOM      9  I   UNL d   1       5.989   4.981  -0.797  0.00  0.00    -0.060 I 
ATOM     10  F2  UNL d   1       2.846   5.452  -0.423  0.00  0.00    -0.096 F 
ATOM     11  F3  UNL d   1       0.863   5.872  -2.218  0.00  0.00    -0.097 F 
ATOM     12  F4  UNL d   1       1.413   5.946  -4.889  0.00  0.00    -0.092 F 
ENDROOT
TORSDOF 0
ENDMDL
