MODEL 1
REMARK minimizedAffinity 18.9108047
REMARK minimizedRMSD -1
REMARK  0 active torsions:
REMARK  status: ('A' for Active; 'I' for Inactive)
ROOT
ATOM      1  C   UNL d   1       1.151  -2.147  -3.520  0.00  0.00     0.124 A 
ATOM      2  C1  UNL d   1       1.557  -2.091  -2.194  0.00  0.00     0.062 A 
ATOM      3  C2  UNL d   1       0.624  -2.224  -1.170  0.00  0.00     0.162 A 
ATOM      4  C3  UNL d   1      -0.725  -2.416  -1.468  0.00  0.00    -0.034 A 
ATOM      5  C4  UNL d   1      -1.126  -2.470  -2.804  0.00  0.00     0.162 A 
ATOM      6  C5  UNL d   1      -0.189  -2.336  -3.824  0.00  0.00     0.062 A 
ATOM      7  F   UNL d   1      -0.583  -2.390  -5.105  0.00  0.00    -0.097 F 
ATOM      8  F1  UNL d   1      -2.415  -2.654  -3.126  0.00  0.00    -0.096 F 
ATOM      9  I   UNL d   1      -2.123  -2.616   0.060  0.00  0.00    -0.060 I 
ATOM     10  F2  UNL d   1       1.045  -2.166   0.102  0.00  0.00    -0.096 F 
ATOM     11  F3  UNL d   1       2.852  -1.907  -1.898  0.00  0.00    -0.097 F 
ATOM     12  F4  UNL d   1       2.051  -2.017  -4.504  0.00  0.00    -0.092 F 
ENDROOT
TORSDOF 0
ENDMDL
