MODEL 1
REMARK minimizedAffinity 16.9794922
REMARK minimizedRMSD -1
REMARK  0 active torsions:
REMARK  status: ('A' for Active; 'I' for Inactive)
ROOT
ATOM      1  C   UNL d   1       4.810   4.863  -3.174  0.00  0.00     0.124 A 
ATOM      2  C1  UNL d   1       4.862   5.435  -1.910  0.00  0.00     0.062 A 
ATOM      3  C2  UNL d   1       3.737   5.426  -1.090  0.00  0.00     0.162 A 
ATOM      4  C3  UNL d   1       2.550   4.841  -1.531  0.00  0.00    -0.034 A 
ATOM      5  C4  UNL d   1       2.505   4.268  -2.803  0.00  0.00     0.162 A 
ATOM      6  C5  UNL d   1       3.632   4.280  -3.619  0.00  0.00     0.062 A 
ATOM      7  F   UNL d   1       3.579   3.727  -4.839  0.00  0.00    -0.097 F 
ATOM      8  F1  UNL d   1       1.380   3.697  -3.258  0.00  0.00    -0.096 F 
ATOM      9  I   UNL d   1       0.866   4.825  -0.308  0.00  0.00    -0.060 I 
ATOM     10  F2  UNL d   1       3.817   5.986   0.126  0.00  0.00    -0.096 F 
ATOM     11  F3  UNL d   1       5.999   6.000  -1.478  0.00  0.00    -0.097 F 
ATOM     12  F4  UNL d   1       5.893   4.874  -3.961  0.00  0.00    -0.092 F 
ENDROOT
TORSDOF 0
ENDMDL
