MODEL 1
REMARK minimizedAffinity 19.0691547
REMARK minimizedRMSD -1
REMARK  0 active torsions:
REMARK  status: ('A' for Active; 'I' for Inactive)
ROOT
ATOM      1  C   UNL d   1       1.105  -2.214  -3.689  0.00  0.00     0.124 A 
ATOM      2  C1  UNL d   1       1.533  -2.013  -2.383  0.00  0.00     0.062 A 
ATOM      3  C2  UNL d   1       0.605  -1.899  -1.353  0.00  0.00     0.162 A 
ATOM      4  C3  UNL d   1      -0.761  -1.986  -1.622  0.00  0.00    -0.034 A 
ATOM      5  C4  UNL d   1      -1.183  -2.187  -2.938  0.00  0.00     0.162 A 
ATOM      6  C5  UNL d   1      -0.252  -2.300  -3.964  0.00  0.00     0.062 A 
ATOM      7  F   UNL d   1      -0.667  -2.494  -5.225  0.00  0.00    -0.097 F 
ATOM      8  F1  UNL d   1      -2.489  -2.275  -3.232  0.00  0.00    -0.096 F 
ATOM      9  I   UNL d   1      -2.152  -1.815  -0.084  0.00  0.00    -0.060 I 
ATOM     10  F2  UNL d   1       1.047  -1.706  -0.101  0.00  0.00    -0.096 F 
ATOM     11  F3  UNL d   1       2.844  -1.929  -2.114  0.00  0.00    -0.097 F 
ATOM     12  F4  UNL d   1       2.001  -2.323  -4.679  0.00  0.00    -0.092 F 
ENDROOT
TORSDOF 0
ENDMDL
