MODEL 1
REMARK minimizedAffinity 14.4998131
REMARK minimizedRMSD -1
REMARK  0 active torsions:
REMARK  status: ('A' for Active; 'I' for Inactive)
ROOT
ATOM      1  C   UNL d   1      -1.023  -3.899  -4.951  0.00  0.00     0.124 A 
ATOM      2  C1  UNL d   1      -0.208  -2.810  -5.229  0.00  0.00     0.062 A 
ATOM      3  C2  UNL d   1       1.090  -2.760  -4.728  0.00  0.00     0.162 A 
ATOM      4  C3  UNL d   1       1.581  -3.804  -3.944  0.00  0.00    -0.034 A 
ATOM      5  C4  UNL d   1       0.756  -4.895  -3.667  0.00  0.00     0.162 A 
ATOM      6  C5  UNL d   1      -0.540  -4.940  -4.171  0.00  0.00     0.062 A 
ATOM      7  F   UNL d   1      -1.326  -5.993  -3.901  0.00  0.00    -0.097 F 
ATOM      8  F1  UNL d   1       1.197  -5.915  -2.917  0.00  0.00    -0.096 F 
ATOM      9  I   UNL d   1       3.521  -3.733  -3.192  0.00  0.00    -0.060 I 
ATOM     10  F2  UNL d   1       1.855  -1.696  -5.013  0.00  0.00    -0.096 F 
ATOM     11  F3  UNL d   1      -0.672  -1.802  -5.983  0.00  0.00    -0.097 F 
ATOM     12  F4  UNL d   1      -2.271  -3.944  -5.434  0.00  0.00    -0.092 F 
ENDROOT
TORSDOF 0
ENDMDL
