MODEL 1
REMARK minimizedAffinity 16.1229744
REMARK minimizedRMSD -1
REMARK  0 active torsions:
REMARK  status: ('A' for Active; 'I' for Inactive)
ROOT
ATOM      1  C   UNL d   1       2.909   5.035  -2.187  0.00  0.00     0.124 A 
ATOM      2  C1  UNL d   1       4.088   4.335  -1.971  0.00  0.00     0.062 A 
ATOM      3  C2  UNL d   1       4.865   3.923  -3.049  0.00  0.00     0.162 A 
ATOM      4  C3  UNL d   1       4.467   4.211  -4.355  0.00  0.00    -0.034 A 
ATOM      5  C4  UNL d   1       3.279   4.915  -4.564  0.00  0.00     0.162 A 
ATOM      6  C5  UNL d   1       2.506   5.324  -3.483  0.00  0.00     0.062 A 
ATOM      7  F   UNL d   1       1.367   6.000  -3.693  0.00  0.00    -0.097 F 
ATOM      8  F1  UNL d   1       2.866   5.208  -5.806  0.00  0.00    -0.096 F 
ATOM      9  I   UNL d   1       5.626   3.597  -5.970  0.00  0.00    -0.060 I 
ATOM     10  F2  UNL d   1       6.000   3.248  -2.811  0.00  0.00    -0.096 F 
ATOM     11  F3  UNL d   1       4.480   4.053  -0.719  0.00  0.00    -0.097 F 
ATOM     12  F4  UNL d   1       2.163   5.429  -1.147  0.00  0.00    -0.092 F 
ENDROOT
TORSDOF 0
ENDMDL
