MODEL 1
REMARK minimizedAffinity 9.52773666
REMARK minimizedRMSD -1
REMARK  0 active torsions:
REMARK  status: ('A' for Active; 'I' for Inactive)
ROOT
ATOM      1  C   UNL d   1      -1.254  -2.483  -0.805  0.00  0.00     0.124 A 
ATOM      2  C1  UNL d   1       0.028  -2.630  -0.294  0.00  0.00     0.062 A 
ATOM      3  C2  UNL d   1       1.135  -2.450  -1.118  0.00  0.00     0.162 A 
ATOM      4  C3  UNL d   1       0.965  -2.120  -2.463  0.00  0.00    -0.034 A 
ATOM      5  C4  UNL d   1      -0.327  -1.975  -2.970  0.00  0.00     0.162 A 
ATOM      6  C5  UNL d   1      -1.431  -2.156  -2.142  0.00  0.00     0.062 A 
ATOM      7  F   UNL d   1      -2.668  -2.013  -2.638  0.00  0.00    -0.097 F 
ATOM      8  F1  UNL d   1      -0.526  -1.658  -4.258  0.00  0.00    -0.096 F 
ATOM      9  I   UNL d   1       2.618  -1.851  -3.698  0.00  0.00    -0.060 I 
ATOM     10  F2  UNL d   1       2.362  -2.599  -0.597  0.00  0.00    -0.096 F 
ATOM     11  F3  UNL d   1       0.201  -2.947   0.998  0.00  0.00    -0.097 F 
ATOM     12  F4  UNL d   1      -2.318  -2.657  -0.010  0.00  0.00    -0.092 F 
ENDROOT
TORSDOF 0
ENDMDL
