MODEL 1
REMARK minimizedAffinity 0.527500808
REMARK minimizedRMSD -1
REMARK  0 active torsions:
REMARK  status: ('A' for Active; 'I' for Inactive)
ROOT
ATOM      1  C   UNL d   1      -2.534  -0.213   0.488  0.00  0.00    -0.002 A 
ATOM      2  C1  UNL d   1      -2.407   0.289   1.775  0.00  0.00     0.010 A 
ATOM      3  C2  UNL d   1      -1.148   0.424   2.364  0.00  0.00     0.041 A 
ATOM      4  C3  UNL d   1      -0.008   0.044   1.628  0.00  0.00    -0.075 A 
ATOM      5  S   UNL d   1       1.635   0.122   2.144  0.00  0.00     0.015 SA
ATOM      6  C4  UNL d   1       2.207  -0.508   0.667  0.00  0.00     0.022 A 
ATOM      7  C5  UNL d   1       1.183  -0.777  -0.210  0.00  0.00     0.026 A 
ATOM      8  C6  UNL d   1      -0.111  -0.462   0.329  0.00  0.00    -0.082 A 
ATOM      9  C7  UNL d   1      -1.401  -0.588  -0.239  0.00  0.00     0.045 A 
ENDROOT
TORSDOF 0
ENDMDL
