MODEL 1
REMARK minimizedAffinity -2.30906725
REMARK minimizedRMSD -1
REMARK  0 active torsions:
REMARK  status: ('A' for Active; 'I' for Inactive)
ROOT
ATOM      1  C   UNL d   1       1.505  -1.275  -0.263  0.00  0.00    -0.002 A 
ATOM      2  C1  UNL d   1       2.130  -0.637   0.799  0.00  0.00     0.010 A 
ATOM      3  C2  UNL d   1       1.412   0.221   1.634  0.00  0.00     0.041 A 
ATOM      4  C3  UNL d   1       0.042   0.428   1.383  0.00  0.00    -0.075 A 
ATOM      5  S   UNL d   1      -1.038   1.434   2.274  0.00  0.00     0.015 SA
ATOM      6  C4  UNL d   1      -2.355   1.039   1.266  0.00  0.00     0.022 A 
ATOM      7  C5  UNL d   1      -1.998   0.163   0.269  0.00  0.00     0.026 A 
ATOM      8  C6  UNL d   1      -0.610  -0.204   0.320  0.00  0.00    -0.082 A 
ATOM      9  C7  UNL d   1       0.145  -1.068  -0.509  0.00  0.00     0.045 A 
ENDROOT
TORSDOF 0
ENDMDL
