MODEL 1
REMARK minimizedAffinity -3.82974958
REMARK minimizedRMSD -1
REMARK  0 active torsions:
REMARK  status: ('A' for Active; 'I' for Inactive)
ROOT
ATOM      1  C   UNL d   1       1.497  -1.545   0.094  0.00  0.00    -0.002 A 
ATOM      2  C1  UNL d   1       2.032  -0.882   1.190  0.00  0.00     0.010 A 
ATOM      3  C2  UNL d   1       1.268   0.043   1.903  0.00  0.00     0.041 A 
ATOM      4  C3  UNL d   1      -0.057   0.292   1.494  0.00  0.00    -0.075 A 
ATOM      5  S   UNL d   1      -1.181   1.382   2.217  0.00  0.00     0.015 SA
ATOM      6  C4  UNL d   1      -2.398   0.993   1.089  0.00  0.00     0.022 A 
ATOM      7  C5  UNL d   1      -1.974   0.057   0.176  0.00  0.00     0.026 A 
ATOM      8  C6  UNL d   1      -0.619  -0.363   0.395  0.00  0.00    -0.082 A 
ATOM      9  C7  UNL d   1       0.183  -1.295  -0.308  0.00  0.00     0.045 A 
ENDROOT
TORSDOF 0
ENDMDL
