MODEL 1
REMARK minimizedAffinity -2.1058414
REMARK minimizedRMSD -1
REMARK  0 active torsions:
REMARK  status: ('A' for Active; 'I' for Inactive)
ROOT
ATOM      1  C   UNL d   1      -1.958  -3.008  -4.416  0.00  0.00     0.078 C 
ATOM      2  C1  UNL d   1      -1.510  -2.842  -2.994  0.00  0.00    -0.077 A 
ATOM      3  C2  UNL d   1      -1.902  -1.729  -2.240  0.00  0.00    -0.001 A 
ATOM      4  C3  UNL d   1      -1.469  -1.582  -0.921  0.00  0.00     0.003 A 
ATOM      5  C4  UNL d   1      -0.642  -2.544  -0.345  0.00  0.00    -0.005 A 
ATOM      6  C5  UNL d   1      -0.245  -3.654  -1.089  0.00  0.00     0.003 A 
ATOM      7  C6  UNL d   1      -0.676  -3.802  -2.408  0.00  0.00    -0.001 A 
ENDROOT
TORSDOF 0
ENDMDL
