MODEL 1
REMARK minimizedAffinity 9.19006634
REMARK minimizedRMSD -1
REMARK  0 active torsions:
REMARK  status: ('A' for Active; 'I' for Inactive)
ROOT
ATOM      1  C   UNL d   1       2.664   1.288  -5.994  0.00  0.00     0.078 C 
ATOM      2  C1  UNL d   1       3.498   0.083  -5.676  0.00  0.00    -0.077 A 
ATOM      3  C2  UNL d   1       4.754   0.214  -5.071  0.00  0.00    -0.001 A 
ATOM      4  C3  UNL d   1       5.524  -0.916  -4.790  0.00  0.00     0.003 A 
ATOM      5  C4  UNL d   1       5.047  -2.185  -5.110  0.00  0.00    -0.005 A 
ATOM      6  C5  UNL d   1       3.799  -2.326  -5.714  0.00  0.00     0.003 A 
ATOM      7  C6  UNL d   1       3.028  -1.197  -5.996  0.00  0.00    -0.001 A 
ENDROOT
TORSDOF 0
ENDMDL
