MODEL 1
REMARK minimizedAffinity 3.70930099
REMARK minimizedRMSD -1
REMARK  0 active torsions:
REMARK  status: ('A' for Active; 'I' for Inactive)
ROOT
ATOM      1  C   UNL d   1       3.834   3.293  -2.672  0.00  0.00     0.078 C 
ATOM      2  C1  UNL d   1       3.205   4.009  -3.829  0.00  0.00    -0.077 A 
ATOM      3  C2  UNL d   1       2.249   3.379  -4.635  0.00  0.00    -0.001 A 
ATOM      4  C3  UNL d   1       1.679   4.055  -5.714  0.00  0.00     0.003 A 
ATOM      5  C4  UNL d   1       2.059   5.365  -6.000  0.00  0.00    -0.005 A 
ATOM      6  C5  UNL d   1       3.011   6.000  -5.205  0.00  0.00     0.003 A 
ATOM      7  C6  UNL d   1       3.582   5.325  -4.125  0.00  0.00    -0.001 A 
ENDROOT
TORSDOF 0
ENDMDL
