MODEL 1
REMARK minimizedAffinity 1.29204524
REMARK minimizedRMSD -1
REMARK  0 active torsions:
REMARK  status: ('A' for Active; 'I' for Inactive)
ROOT
ATOM      1  C   UNL d   1       3.218   2.002  -5.991  0.00  0.00     0.078 C 
ATOM      2  C1  UNL d   1       2.646   3.388  -5.983  0.00  0.00    -0.077 A 
ATOM      3  C2  UNL d   1       1.261   3.597  -5.998  0.00  0.00    -0.001 A 
ATOM      4  C3  UNL d   1       0.743   4.893  -6.000  0.00  0.00     0.003 A 
ATOM      5  C4  UNL d   1       1.602   5.990  -5.988  0.00  0.00    -0.005 A 
ATOM      6  C5  UNL d   1       2.981   5.792  -5.974  0.00  0.00     0.003 A 
ATOM      7  C6  UNL d   1       3.501   4.497  -5.973  0.00  0.00    -0.001 A 
ENDROOT
TORSDOF 0
ENDMDL
