MODEL 1
REMARK minimizedAffinity 4.22983313
REMARK minimizedRMSD -1
REMARK  0 active torsions:
REMARK  status: ('A' for Active; 'I' for Inactive)
ROOT
ATOM      1  C   UNL d   1       3.478   1.540  -5.985  0.00  0.00     0.078 C 
ATOM      2  C1  UNL d   1       2.971   2.951  -5.996  0.00  0.00    -0.077 A 
ATOM      3  C2  UNL d   1       3.857   4.036  -5.999  0.00  0.00    -0.001 A 
ATOM      4  C3  UNL d   1       3.370   5.344  -5.999  0.00  0.00     0.003 A 
ATOM      5  C4  UNL d   1       1.997   5.580  -5.994  0.00  0.00    -0.005 A 
ATOM      6  C5  UNL d   1       1.108   4.507  -5.988  0.00  0.00     0.003 A 
ATOM      7  C6  UNL d   1       1.593   3.198  -5.988  0.00  0.00    -0.001 A 
ENDROOT
TORSDOF 0
ENDMDL
