MODEL 1
REMARK minimizedAffinity 3.00301719
REMARK minimizedRMSD -1
REMARK  0 active torsions:
REMARK  status: ('A' for Active; 'I' for Inactive)
ROOT
ATOM      1  C   UNL d   1      -1.609  -2.555  -2.268  0.00  0.00     0.078 C 
ATOM      2  C1  UNL d   1      -2.227  -2.959  -3.573  0.00  0.00    -0.077 A 
ATOM      3  C2  UNL d   1      -1.645  -2.588  -4.791  0.00  0.00    -0.001 A 
ATOM      4  C3  UNL d   1      -2.237  -2.963  -5.999  0.00  0.00     0.003 A 
ATOM      5  C4  UNL d   1      -3.413  -3.710  -6.000  0.00  0.00    -0.005 A 
ATOM      6  C5  UNL d   1      -4.000  -4.081  -4.792  0.00  0.00     0.003 A 
ATOM      7  C6  UNL d   1      -3.411  -3.707  -3.584  0.00  0.00    -0.001 A 
ENDROOT
TORSDOF 0
ENDMDL
