MODEL 1
REMARK minimizedAffinity 2.09844947
REMARK minimizedRMSD -1
REMARK  0 active torsions:
REMARK  status: ('A' for Active; 'I' for Inactive)
ROOT
ATOM      1  C   UNL d   1      -2.040  -3.392  -3.295  0.00  0.00     0.078 C 
ATOM      2  C1  UNL d   1      -1.749  -3.121  -1.849  0.00  0.00    -0.077 A 
ATOM      3  C2  UNL d   1      -0.665  -3.729  -1.205  0.00  0.00    -0.001 A 
ATOM      4  C3  UNL d   1      -0.412  -3.475   0.144  0.00  0.00     0.003 A 
ATOM      5  C4  UNL d   1      -1.240  -2.614   0.861  0.00  0.00    -0.005 A 
ATOM      6  C5  UNL d   1      -2.323  -2.006   0.230  0.00  0.00     0.003 A 
ATOM      7  C6  UNL d   1      -2.578  -2.259  -1.119  0.00  0.00    -0.001 A 
ENDROOT
TORSDOF 0
ENDMDL
