MODEL 1
REMARK minimizedAffinity 2.53331137
REMARK minimizedRMSD -1
REMARK  0 active torsions:
REMARK  status: ('A' for Active; 'I' for Inactive)
ROOT
ATOM      1  C   UNL d   1      -2.638  -1.254  -0.277  0.00  0.00     0.078 C 
ATOM      2  C1  UNL d   1      -3.147  -2.188  -1.335  0.00  0.00    -0.077 A 
ATOM      3  C2  UNL d   1      -4.360  -2.867  -1.174  0.00  0.00    -0.001 A 
ATOM      4  C3  UNL d   1      -4.817  -3.741  -2.162  0.00  0.00     0.003 A 
ATOM      5  C4  UNL d   1      -4.066  -3.943  -3.318  0.00  0.00    -0.005 A 
ATOM      6  C5  UNL d   1      -2.856  -3.273  -3.486  0.00  0.00     0.003 A 
ATOM      7  C6  UNL d   1      -2.398  -2.399  -2.499  0.00  0.00    -0.001 A 
ENDROOT
TORSDOF 0
ENDMDL
