MODEL 1
REMARK minimizedAffinity 0.199249282
REMARK minimizedRMSD -1
REMARK  0 active torsions:
REMARK  status: ('A' for Active; 'I' for Inactive)
ROOT
ATOM      1  C   UNL d   1       2.970   1.821  -5.956  0.00  0.00     0.078 C 
ATOM      2  C1  UNL d   1       2.603   3.275  -5.963  0.00  0.00    -0.077 A 
ATOM      3  C2  UNL d   1       1.263   3.680  -5.961  0.00  0.00    -0.001 A 
ATOM      4  C3  UNL d   1       0.936   5.037  -5.977  0.00  0.00     0.003 A 
ATOM      5  C4  UNL d   1       1.944   5.999  -5.996  0.00  0.00    -0.005 A 
ATOM      6  C5  UNL d   1       3.280   5.605  -6.000  0.00  0.00     0.003 A 
ATOM      7  C6  UNL d   1       3.609   4.249  -5.984  0.00  0.00    -0.001 A 
ENDROOT
TORSDOF 0
ENDMDL
