MODEL 1
REMARK minimizedAffinity 9.03792953
REMARK minimizedRMSD -1
REMARK  0 active torsions:
REMARK  status: ('A' for Active; 'I' for Inactive)
ROOT
ATOM      1  C   UNL d   1      -1.685  -1.200  -0.118  0.00  0.00     0.078 C 
ATOM      2  C1  UNL d   1      -1.515  -1.202   1.371  0.00  0.00    -0.077 A 
ATOM      3  C2  UNL d   1      -1.828  -2.336   2.131  0.00  0.00    -0.001 A 
ATOM      4  C3  UNL d   1      -1.674  -2.321   3.518  0.00  0.00     0.003 A 
ATOM      5  C4  UNL d   1      -1.208  -1.174   4.158  0.00  0.00    -0.005 A 
ATOM      6  C5  UNL d   1      -0.896  -0.040   3.410  0.00  0.00     0.003 A 
ATOM      7  C6  UNL d   1      -1.049  -0.054   2.023  0.00  0.00    -0.001 A 
ENDROOT
TORSDOF 0
ENDMDL
