MODEL 1
REMARK minimizedAffinity 8.38815117
REMARK minimizedRMSD -1
REMARK  0 active torsions:
REMARK  status: ('A' for Active; 'I' for Inactive)
ROOT
ATOM      1  C   UNL d   1       2.278   3.765   1.058  0.00  0.00     0.078 C 
ATOM      2  C1  UNL d   1       0.902   3.594   1.630  0.00  0.00    -0.077 A 
ATOM      3  C2  UNL d   1       0.599   2.514   2.468  0.00  0.00    -0.001 A 
ATOM      4  C3  UNL d   1      -0.688   2.361   2.986  0.00  0.00     0.003 A 
ATOM      5  C4  UNL d   1      -1.683   3.284   2.670  0.00  0.00    -0.005 A 
ATOM      6  C5  UNL d   1      -1.392   4.361   1.835  0.00  0.00     0.003 A 
ATOM      7  C6  UNL d   1      -0.105   4.515   1.317  0.00  0.00    -0.001 A 
ENDROOT
TORSDOF 0
ENDMDL
