MODEL 1
REMARK minimizedAffinity -0.0208003856
REMARK minimizedRMSD -1
REMARK  0 active torsions:
REMARK  status: ('A' for Active; 'I' for Inactive)
ROOT
ATOM      1  C   UNL d   1       3.288   1.918  -5.962  0.00  0.00     0.078 C 
ATOM      2  C1  UNL d   1       2.822   3.344  -5.977  0.00  0.00    -0.077 A 
ATOM      3  C2  UNL d   1       3.738   4.402  -5.960  0.00  0.00    -0.001 A 
ATOM      4  C3  UNL d   1       3.290   5.724  -5.964  0.00  0.00     0.003 A 
ATOM      5  C4  UNL d   1       1.924   6.000  -5.984  0.00  0.00    -0.005 A 
ATOM      6  C5  UNL d   1       1.005   4.953  -6.000  0.00  0.00     0.003 A 
ATOM      7  C6  UNL d   1       1.451   3.630  -5.995  0.00  0.00    -0.001 A 
ENDROOT
TORSDOF 0
ENDMDL
