MODEL 1
REMARK minimizedAffinity -1.74703562
REMARK minimizedRMSD -1
REMARK  0 active torsions:
REMARK  status: ('A' for Active; 'I' for Inactive)
ROOT
ATOM      1  C   UNL d   1       3.692   2.172  -5.987  0.00  0.00     0.078 C 
ATOM      2  C1  UNL d   1       2.998   3.502  -5.983  0.00  0.00    -0.077 A 
ATOM      3  C2  UNL d   1       1.600   3.586  -5.985  0.00  0.00    -0.001 A 
ATOM      4  C3  UNL d   1       0.968   4.830  -5.991  0.00  0.00     0.003 A 
ATOM      5  C4  UNL d   1       1.725   6.000  -5.997  0.00  0.00    -0.005 A 
ATOM      6  C5  UNL d   1       3.116   5.926  -5.998  0.00  0.00     0.003 A 
ATOM      7  C6  UNL d   1       3.750   4.683  -5.991  0.00  0.00    -0.001 A 
ENDROOT
TORSDOF 0
ENDMDL
