MODEL 1
REMARK minimizedAffinity 5.87797642
REMARK minimizedRMSD -1
REMARK  0 active torsions:
REMARK  status: ('A' for Active; 'I' for Inactive)
ROOT
ATOM      1  C   UNL d   1      -1.710  -2.911   2.969  0.00  0.00     0.078 C 
ATOM      2  C1  UNL d   1      -1.726  -2.581   1.507  0.00  0.00    -0.077 A 
ATOM      3  C2  UNL d   1      -2.847  -1.990   0.913  0.00  0.00    -0.001 A 
ATOM      4  C3  UNL d   1      -2.852  -1.697  -0.452  0.00  0.00     0.003 A 
ATOM      5  C4  UNL d   1      -1.738  -1.993  -1.235  0.00  0.00    -0.005 A 
ATOM      6  C5  UNL d   1      -0.618  -2.584  -0.653  0.00  0.00     0.003 A 
ATOM      7  C6  UNL d   1      -0.612  -2.878   0.711  0.00  0.00    -0.001 A 
ENDROOT
TORSDOF 0
ENDMDL
