MODEL 1
REMARK minimizedAffinity 4.67658091
REMARK minimizedRMSD -1
REMARK  0 active torsions:
REMARK  status: ('A' for Active; 'I' for Inactive)
ROOT
ATOM      1  C   UNL d   1       1.093   2.666  -2.468  0.00  0.00     0.078 C 
ATOM      2  C1  UNL d   1       1.607   3.363  -3.692  0.00  0.00    -0.077 A 
ATOM      3  C2  UNL d   1       1.805   4.750  -3.702  0.00  0.00    -0.001 A 
ATOM      4  C3  UNL d   1       2.275   5.387  -4.852  0.00  0.00     0.003 A 
ATOM      5  C4  UNL d   1       2.550   4.647  -6.000  0.00  0.00    -0.005 A 
ATOM      6  C5  UNL d   1       2.354   3.267  -6.000  0.00  0.00     0.003 A 
ATOM      7  C6  UNL d   1       1.884   2.628  -4.851  0.00  0.00    -0.001 A 
ENDROOT
TORSDOF 0
ENDMDL
