MODEL 1
REMARK minimizedAffinity 3.39419293
REMARK minimizedRMSD -1
REMARK  0 active torsions:
REMARK  status: ('A' for Active; 'I' for Inactive)
ROOT
ATOM      1  C   UNL d   1       0.558   3.982  -2.702  0.00  0.00     0.078 C 
ATOM      2  C1  UNL d   1       1.453   4.365  -3.843  0.00  0.00    -0.077 A 
ATOM      3  C2  UNL d   1       2.120   5.596  -3.854  0.00  0.00    -0.001 A 
ATOM      4  C3  UNL d   1       2.942   5.944  -4.927  0.00  0.00     0.003 A 
ATOM      5  C4  UNL d   1       3.103   5.067  -5.998  0.00  0.00    -0.005 A 
ATOM      6  C5  UNL d   1       2.442   3.840  -5.997  0.00  0.00     0.003 A 
ATOM      7  C6  UNL d   1       1.619   3.491  -4.924  0.00  0.00    -0.001 A 
ENDROOT
TORSDOF 0
ENDMDL
