MODEL 1
REMARK minimizedAffinity 7.23498106
REMARK minimizedRMSD -1
REMARK  0 active torsions:
REMARK  status: ('A' for Active; 'I' for Inactive)
ROOT
ATOM      1  C   UNL d   1       4.969   0.256  -3.952  0.00  0.00     0.078 C 
ATOM      2  C1  UNL d   1       4.209  -0.960  -4.389  0.00  0.00    -0.077 A 
ATOM      3  C2  UNL d   1       3.189  -0.868  -5.345  0.00  0.00    -0.001 A 
ATOM      4  C3  UNL d   1       2.484  -2.007  -5.736  0.00  0.00     0.003 A 
ATOM      5  C4  UNL d   1       2.788  -3.246  -5.175  0.00  0.00    -0.005 A 
ATOM      6  C5  UNL d   1       3.799  -3.347  -4.222  0.00  0.00     0.003 A 
ATOM      7  C6  UNL d   1       4.506  -2.209  -3.830  0.00  0.00    -0.001 A 
ENDROOT
TORSDOF 0
ENDMDL
