MODEL 1
REMARK minimizedAffinity 1.06207347
REMARK minimizedRMSD -1
REMARK  0 active torsions:
REMARK  status: ('A' for Active; 'I' for Inactive)
ROOT
ATOM      1  C   UNL d   1      -2.060   6.000  -1.143  0.00  0.00     0.078 C 
ATOM      2  C1  UNL d   1      -0.821   5.289  -0.685  0.00  0.00    -0.077 A 
ATOM      3  C2  UNL d   1      -0.125   4.428  -1.542  0.00  0.00    -0.001 A 
ATOM      4  C3  UNL d   1       1.021   3.765  -1.099  0.00  0.00     0.003 A 
ATOM      5  C4  UNL d   1       1.480   3.956   0.203  0.00  0.00    -0.005 A 
ATOM      6  C5  UNL d   1       0.793   4.809   1.064  0.00  0.00     0.003 A 
ATOM      7  C6  UNL d   1      -0.353   5.473   0.623  0.00  0.00    -0.001 A 
ENDROOT
TORSDOF 0
ENDMDL
