MODEL 1
REMARK minimizedAffinity 1.30701101
REMARK minimizedRMSD -1
REMARK  0 active torsions:
REMARK  status: ('A' for Active; 'I' for Inactive)
ROOT
ATOM      1  C   UNL d   1       4.247  -4.779   0.493  0.00  0.00     0.020 A 
ATOM      2  C1  UNL d   1       3.194  -4.174  -0.194  0.00  0.00     0.020 A 
ATOM      3  C2  UNL d   1       2.488  -3.124   0.396  0.00  0.00     0.034 A 
ATOM      4  C3  UNL d   1       2.833  -2.674   1.676  0.00  0.00     0.017 A 
ATOM      5  C4  UNL d   1       3.890  -3.282   2.364  0.00  0.00     0.017 A 
ATOM      6  C5  UNL d   1       4.593  -4.333   1.769  0.00  0.00     0.034 A 
ATOM      7 Cl   UNL d   1       4.374  -2.782   3.946  0.00  0.00    -0.070 Cl
ATOM      8 Cl1  UNL d   1       1.917  -1.370   2.344  0.00  0.00    -0.070 Cl
ENDROOT
TORSDOF 0
ENDMDL
