MODEL 1
REMARK minimizedAffinity 10.0017548
REMARK minimizedRMSD -1
REMARK  0 active torsions:
REMARK  status: ('A' for Active; 'I' for Inactive)
ROOT
ATOM      1  C   UNL d   1       4.632   5.278  -5.987  0.00  0.00     0.020 A 
ATOM      2  C1  UNL d   1       4.917   3.913  -5.981  0.00  0.00     0.020 A 
ATOM      3  C2  UNL d   1       3.875   2.983  -5.978  0.00  0.00     0.034 A 
ATOM      4  C3  UNL d   1       2.544   3.416  -5.979  0.00  0.00     0.017 A 
ATOM      5  C4  UNL d   1       2.260   4.786  -5.985  0.00  0.00     0.017 A 
ATOM      6  C5  UNL d   1       3.306   5.714  -5.989  0.00  0.00     0.034 A 
ATOM      7 Cl   UNL d   1       0.643   5.397  -5.988  0.00  0.00    -0.070 Cl
ATOM      8 Cl1  UNL d   1       1.307   2.210  -5.975  0.00  0.00    -0.070 Cl
ENDROOT
TORSDOF 0
ENDMDL
