MODEL 1
REMARK minimizedAffinity 0.726433158
REMARK minimizedRMSD -1
REMARK  0 active torsions:
REMARK  status: ('A' for Active; 'I' for Inactive)
ROOT
ATOM      1  C   UNL d   1       4.049  -5.999   4.966  0.00  0.00     0.020 A 
ATOM      2  C1  UNL d   1       4.481  -5.169   6.000  0.00  0.00     0.020 A 
ATOM      3  C2  UNL d   1       5.081  -3.943   5.707  0.00  0.00     0.034 A 
ATOM      4  C3  UNL d   1       5.251  -3.543   4.376  0.00  0.00     0.017 A 
ATOM      5  C4  UNL d   1       4.817  -4.376   3.339  0.00  0.00     0.017 A 
ATOM      6  C5  UNL d   1       4.217  -5.603   3.639  0.00  0.00     0.034 A 
ATOM      7 Cl   UNL d   1       4.992  -3.951   1.673  0.00  0.00    -0.070 Cl
ATOM      8 Cl1  UNL d   1       6.000  -2.013   4.087  0.00  0.00    -0.070 Cl
ENDROOT
TORSDOF 0
ENDMDL
