MODEL 1
REMARK minimizedAffinity 2.02279234
REMARK minimizedRMSD -1
REMARK  0 active torsions:
REMARK  status: ('A' for Active; 'I' for Inactive)
ROOT
ATOM      1  C   UNL d   1       3.611  -4.043  -0.770  0.00  0.00     0.020 A 
ATOM      2  C1  UNL d   1       4.605  -4.668  -0.018  0.00  0.00     0.020 A 
ATOM      3  C2  UNL d   1       4.687  -4.443   1.358  0.00  0.00     0.034 A 
ATOM      4  C3  UNL d   1       3.773  -3.589   1.986  0.00  0.00     0.017 A 
ATOM      5  C4  UNL d   1       2.775  -2.962   1.231  0.00  0.00     0.017 A 
ATOM      6  C5  UNL d   1       2.698  -3.191  -0.146  0.00  0.00     0.034 A 
ATOM      7 Cl   UNL d   1       1.612  -1.895   1.936  0.00  0.00    -0.070 Cl
ATOM      8 Cl1  UNL d   1       3.932  -3.356   3.691  0.00  0.00    -0.070 Cl
ENDROOT
TORSDOF 0
ENDMDL
