MODEL 1
REMARK minimizedAffinity 0.291675568
REMARK minimizedRMSD -1
REMARK  0 active torsions:
REMARK  status: ('A' for Active; 'I' for Inactive)
ROOT
ATOM      1  C   UNL d   1       2.690   5.470  -6.000  0.00  0.00     0.020 A 
ATOM      2  C1  UNL d   1       4.079   5.593  -6.000  0.00  0.00     0.020 A 
ATOM      3  C2  UNL d   1       4.882   4.451  -6.000  0.00  0.00     0.034 A 
ATOM      4  C3  UNL d   1       4.297   3.179  -5.999  0.00  0.00     0.017 A 
ATOM      5  C4  UNL d   1       2.903   3.056  -5.999  0.00  0.00     0.017 A 
ATOM      6  C5  UNL d   1       2.103   4.204  -6.000  0.00  0.00     0.034 A 
ATOM      7 Cl   UNL d   1       2.108   1.521  -5.999  0.00  0.00    -0.070 Cl
ATOM      8 Cl1  UNL d   1       5.350   1.810  -6.000  0.00  0.00    -0.070 Cl
ENDROOT
TORSDOF 0
ENDMDL
