MODEL 1
REMARK minimizedAffinity -2.7273252
REMARK minimizedRMSD -1
REMARK  0 active torsions:
REMARK  status: ('A' for Active; 'I' for Inactive)
ROOT
ATOM      1  C   UNL d   1       1.893   4.657  -5.993  0.00  0.00     0.020 A 
ATOM      2  C1  UNL d   1       2.041   3.271  -5.938  0.00  0.00     0.020 A 
ATOM      3  C2  UNL d   1       3.317   2.707  -5.887  0.00  0.00     0.034 A 
ATOM      4  C3  UNL d   1       4.450   3.528  -5.890  0.00  0.00     0.017 A 
ATOM      5  C4  UNL d   1       4.301   4.918  -5.945  0.00  0.00     0.017 A 
ATOM      6  C5  UNL d   1       3.021   5.478  -5.996  0.00  0.00     0.034 A 
ATOM      7 Cl   UNL d   1       5.652   5.996  -5.952  0.00  0.00    -0.070 Cl
ATOM      8 Cl1  UNL d   1       5.998   2.761  -5.824  0.00  0.00    -0.070 Cl
ENDROOT
TORSDOF 0
ENDMDL
