MODEL 1
REMARK minimizedAffinity -2.18885994
REMARK minimizedRMSD -1
REMARK  0 active torsions:
REMARK  status: ('A' for Active; 'I' for Inactive)
ROOT
ATOM      1  C   UNL d   1       3.022  -2.984  -0.801  0.00  0.00     0.020 A 
ATOM      2  C1  UNL d   1       4.195  -3.587  -0.349  0.00  0.00     0.020 A 
ATOM      3  C2  UNL d   1       4.526  -3.542   1.007  0.00  0.00     0.034 A 
ATOM      4  C3  UNL d   1       3.682  -2.893   1.916  0.00  0.00     0.017 A 
ATOM      5  C4  UNL d   1       2.505  -2.288   1.462  0.00  0.00     0.017 A 
ATOM      6  C5  UNL d   1       2.179  -2.336   0.103  0.00  0.00     0.034 A 
ATOM      7 Cl   UNL d   1       1.415  -1.469   2.523  0.00  0.00    -0.070 Cl
ATOM      8 Cl1  UNL d   1       4.153  -2.878   3.578  0.00  0.00    -0.070 Cl
ENDROOT
TORSDOF 0
ENDMDL
