MODEL 1
REMARK minimizedAffinity 2.42264342
REMARK minimizedRMSD -1
REMARK  0 active torsions:
REMARK  status: ('A' for Active; 'I' for Inactive)
ROOT
ATOM      1  C   UNL d   1      -1.534  -0.370   1.628  0.00  0.00     0.023 A 
ATOM      2  C1  UNL d   1      -1.850  -1.073   2.791  0.00  0.00     0.003 A 
ATOM      3  C2  UNL d   1      -0.834  -1.489   3.654  0.00  0.00     0.048 A 
ATOM      4  C3  UNL d   1       0.495  -1.198   3.349  0.00  0.00     0.023 A 
ATOM      5  C4  UNL d   1       0.816  -0.494   2.187  0.00  0.00     0.048 A 
ATOM      6  C5  UNL d   1      -0.203  -0.081   1.326  0.00  0.00     0.003 A 
ATOM      7  I   UNL d   1       2.008  -1.816   4.632  0.00  0.00    -0.146 I 
ENDROOT
TORSDOF 0
ENDMDL
