MODEL 1
REMARK minimizedAffinity 4.14432621
REMARK minimizedRMSD -1
REMARK  0 active torsions:
REMARK  status: ('A' for Active; 'I' for Inactive)
ROOT
ATOM      1  C   UNL d   1      -2.545  -0.098   1.622  0.00  0.00     0.023 A 
ATOM      2  C1  UNL d   1      -1.437   0.717   1.853  0.00  0.00     0.003 A 
ATOM      3  C2  UNL d   1      -0.317   0.204   2.512  0.00  0.00     0.048 A 
ATOM      4  C3  UNL d   1      -0.312  -1.124   2.934  0.00  0.00     0.023 A 
ATOM      5  C4  UNL d   1      -1.418  -1.944   2.704  0.00  0.00     0.048 A 
ATOM      6  C5  UNL d   1      -2.536  -1.427   2.046  0.00  0.00     0.003 A 
ATOM      7  I   UNL d   1       1.354  -1.889   3.914  0.00  0.00    -0.146 I 
ENDROOT
TORSDOF 0
ENDMDL
