MODEL 1
REMARK minimizedAffinity 5.55614424
REMARK minimizedRMSD -1
REMARK  0 active torsions:
REMARK  status: ('A' for Active; 'I' for Inactive)
ROOT
ATOM      1  C   UNL d   1       2.736  -1.659   4.837  0.00  0.00     0.023 A 
ATOM      2  C1  UNL d   1       1.533  -2.353   4.967  0.00  0.00     0.003 A 
ATOM      3  C2  UNL d   1       0.443  -2.023   4.158  0.00  0.00     0.048 A 
ATOM      4  C3  UNL d   1       0.564  -0.999   3.219  0.00  0.00     0.023 A 
ATOM      5  C4  UNL d   1       1.766  -0.303   3.084  0.00  0.00     0.048 A 
ATOM      6  C5  UNL d   1       2.852  -0.635   3.896  0.00  0.00     0.003 A 
ATOM      7  I   UNL d   1      -1.055  -0.507   2.013  0.00  0.00    -0.146 I 
ENDROOT
TORSDOF 0
ENDMDL
