MODEL 1
REMARK minimizedAffinity -0.357770473
REMARK minimizedRMSD -1
REMARK  0 active torsions:
REMARK  status: ('A' for Active; 'I' for Inactive)
ROOT
ATOM      1  C   UNL d   1      -2.378  -0.634   1.410  0.00  0.00     0.023 A 
ATOM      2  C1  UNL d   1      -2.458  -1.732   2.266  0.00  0.00     0.003 A 
ATOM      3  C2  UNL d   1      -1.361  -2.088   3.053  0.00  0.00     0.048 A 
ATOM      4  C3  UNL d   1      -0.187  -1.340   2.981  0.00  0.00     0.023 A 
ATOM      5  C4  UNL d   1      -0.102  -0.239   2.127  0.00  0.00     0.048 A 
ATOM      6  C5  UNL d   1      -1.201   0.112   1.341  0.00  0.00     0.003 A 
ATOM      7  I   UNL d   1       1.448  -1.867   4.151  0.00  0.00    -0.146 I 
ENDROOT
TORSDOF 0
ENDMDL
