MODEL 1
REMARK minimizedAffinity 2.03928828
REMARK minimizedRMSD -1
REMARK  0 active torsions:
REMARK  status: ('A' for Active; 'I' for Inactive)
ROOT
ATOM      1  C   UNL d   1       2.207  -0.726   2.447  0.00  0.00     0.023 A 
ATOM      2  C1  UNL d   1       1.375  -0.125   1.502  0.00  0.00     0.003 A 
ATOM      3  C2  UNL d   1      -0.012  -0.251   1.610  0.00  0.00     0.048 A 
ATOM      4  C3  UNL d   1      -0.559  -0.980   2.665  0.00  0.00     0.023 A 
ATOM      5  C4  UNL d   1       0.269  -1.582   3.613  0.00  0.00     0.048 A 
ATOM      6  C5  UNL d   1       1.655  -1.453   3.501  0.00  0.00     0.003 A 
ATOM      7  I   UNL d   1      -2.623  -1.170   2.827  0.00  0.00    -0.146 I 
ENDROOT
TORSDOF 0
ENDMDL
