MODEL 1
REMARK minimizedAffinity -2.06249332
REMARK minimizedRMSD -1
REMARK  0 active torsions:
REMARK  status: ('A' for Active; 'I' for Inactive)
ROOT
ATOM      1  C   UNL d   1      -0.092   0.131   1.349  0.00  0.00     0.023 A 
ATOM      2  C1  UNL d   1       1.208  -0.245   1.688  0.00  0.00     0.003 A 
ATOM      3  C2  UNL d   1       1.436  -1.034   2.817  0.00  0.00     0.048 A 
ATOM      4  C3  UNL d   1       0.359  -1.445   3.602  0.00  0.00     0.023 A 
ATOM      5  C4  UNL d   1      -0.943  -1.072   3.267  0.00  0.00     0.048 A 
ATOM      6  C5  UNL d   1      -1.166  -0.282   2.138  0.00  0.00     0.003 A 
ATOM      7  I   UNL d   1       0.696  -2.620   5.283  0.00  0.00    -0.146 I 
ENDROOT
TORSDOF 0
ENDMDL
