MODEL 1
REMARK minimizedAffinity 0.512655437
REMARK minimizedRMSD -1
REMARK  2 active torsions:
REMARK  status: ('A' for Active; 'I' for Inactive)
REMARK    1  A    between atoms: C2'_3  and  C1'_4 
REMARK    2  A    between atoms: C1'_4  and  C1_5 
ROOT
ATOM      1  C1  I4B d   1       1.536   3.204   0.462  0.00  0.00    -0.075 A 
ATOM      2  C2  I4B d   1       2.607   2.479   0.002  0.00  0.00     0.003 A 
ATOM      3  C3  I4B d   1       2.468   1.097  -0.271  0.00  0.00     0.002 A 
ATOM      4  C4  I4B d   1       1.262   0.473  -0.023  0.00  0.00    -0.004 A 
ATOM      5  C5  I4B d   1       0.171   1.214   0.423  0.00  0.00     0.002 A 
ATOM      6  C6  I4B d   1       0.305   2.590   0.655  0.00  0.00     0.003 A 
ENDROOT
BRANCH   1   7
ATOM      7  C1' I4B d   1       1.728   4.655   0.772  0.00  0.00     0.060 C 
BRANCH   7   8
ATOM      8  C2' I4B d   1       3.196   4.981   0.591  0.00  0.00    -0.013 C 
ATOM      9  C4' I4B d   1       3.399   5.994  -0.505  0.00  0.00     0.013 C 
ATOM     10  C3' I4B d   1       3.722   5.487   1.901  0.00  0.00     0.013 C 
ENDBRANCH   7   8
ENDBRANCH   1   7
TORSDOF 2
ENDMDL
