MODEL 1
REMARK minimizedAffinity -1.41807902
REMARK minimizedRMSD -1
REMARK  2 active torsions:
REMARK  status: ('A' for Active; 'I' for Inactive)
REMARK    1  A    between atoms: C2'_3  and  C1'_4 
REMARK    2  A    between atoms: C1'_4  and  C1_5 
ROOT
ATOM      1  C1  I4B d   1      -0.177  -0.222   0.099  0.00  0.00    -0.075 A 
ATOM      2  C2  I4B d   1      -0.276   0.548   1.231  0.00  0.00     0.003 A 
ATOM      3  C3  I4B d   1      -1.546   0.845   1.782  0.00  0.00     0.002 A 
ATOM      4  C4  I4B d   1      -2.685   0.399   1.144  0.00  0.00    -0.004 A 
ATOM      5  C5  I4B d   1      -2.582  -0.400   0.009  0.00  0.00     0.002 A 
ATOM      6  C6  I4B d   1      -1.320  -0.723  -0.510  0.00  0.00     0.003 A 
ENDROOT
BRANCH   1   7
ATOM      7  C1' I4B d   1       1.179  -0.489  -0.475  0.00  0.00     0.060 C 
BRANCH   7   8
ATOM      8  C2' I4B d   1       2.191   0.292   0.338  0.00  0.00    -0.013 C 
ATOM      9  C4' I4B d   1       3.162  -0.629   1.029  0.00  0.00     0.013 C 
ATOM     10  C3' I4B d   1       2.903   1.231  -0.590  0.00  0.00     0.013 C 
ENDBRANCH   7   8
ENDBRANCH   1   7
TORSDOF 2
ENDMDL
