MODEL 1
REMARK minimizedAffinity 0.377495378
REMARK minimizedRMSD -1
REMARK  2 active torsions:
REMARK  status: ('A' for Active; 'I' for Inactive)
REMARK    1  A    between atoms: C2'_3  and  C1'_4 
REMARK    2  A    between atoms: C1'_4  and  C1_5 
ROOT
ATOM      1  C1  I4B d   1      -0.054   0.057   1.251  0.00  0.00    -0.075 A 
ATOM      2  C2  I4B d   1      -1.350   0.248   0.841  0.00  0.00     0.003 A 
ATOM      3  C3  I4B d   1      -1.777  -0.236  -0.419  0.00  0.00     0.002 A 
ATOM      4  C4  I4B d   1      -0.868  -0.856  -1.253  0.00  0.00    -0.004 A 
ATOM      5  C5  I4B d   1       0.439  -1.068  -0.825  0.00  0.00     0.002 A 
ATOM      6  C6  I4B d   1       0.847  -0.620   0.439  0.00  0.00     0.003 A 
ENDROOT
BRANCH   1   7
ATOM      7  C1' I4B d   1       0.372   0.610   2.575  0.00  0.00     0.060 C 
BRANCH   7   8
ATOM      8  C2' I4B d   1      -0.875   0.878   3.392  0.00  0.00    -0.013 C 
ATOM      9  C4' I4B d   1      -1.539  -0.408   3.810  0.00  0.00     0.013 C 
ATOM     10  C3' I4B d   1      -0.480   1.696   4.585  0.00  0.00     0.013 C 
ENDBRANCH   7   8
ENDBRANCH   1   7
TORSDOF 2
ENDMDL
