MODEL 1
REMARK minimizedAffinity -1.71267879
REMARK minimizedRMSD -1
REMARK  2 active torsions:
REMARK  status: ('A' for Active; 'I' for Inactive)
REMARK    1  A    between atoms: C2'_3  and  C1'_4 
REMARK    2  A    between atoms: C1'_4  and  C1_5 
ROOT
ATOM      1  C1  I4B d   1       0.596  -0.233  -0.674  0.00  0.00    -0.075 A 
ATOM      2  C2  I4B d   1      -0.575   0.197  -0.101  0.00  0.00     0.003 A 
ATOM      3  C3  I4B d   1      -0.661   0.367   1.302  0.00  0.00     0.002 A 
ATOM      4  C4  I4B d   1       0.424   0.049   2.093  0.00  0.00    -0.004 A 
ATOM      5  C5  I4B d   1       1.617  -0.364   1.508  0.00  0.00     0.002 A 
ATOM      6  C6  I4B d   1       1.708  -0.494   0.115  0.00  0.00     0.003 A 
ENDROOT
BRANCH   1   7
ATOM      7  C1' I4B d   1       0.642  -0.433  -2.156  0.00  0.00     0.060 C 
BRANCH   7   8
ATOM      8  C2' I4B d   1       0.931   0.908  -2.799  0.00  0.00    -0.013 C 
ATOM      9  C4' I4B d   1       2.413   1.141  -2.932  0.00  0.00     0.013 C 
ATOM     10  C3' I4B d   1       0.257   0.935  -4.138  0.00  0.00     0.013 C 
ENDBRANCH   7   8
ENDBRANCH   1   7
TORSDOF 2
ENDMDL
