MODEL 1
REMARK minimizedAffinity 0.0839670375
REMARK minimizedRMSD -1
REMARK  2 active torsions:
REMARK  status: ('A' for Active; 'I' for Inactive)
REMARK    1  A    between atoms: C2'_3  and  C1'_4 
REMARK    2  A    between atoms: C1'_4  and  C1_5 
ROOT
ATOM      1  C1  I4B d   1       0.705  -0.259   1.354  0.00  0.00    -0.075 A 
ATOM      2  C2  I4B d   1       0.415   0.400   2.522  0.00  0.00     0.003 A 
ATOM      3  C3  I4B d   1      -0.904   0.849   2.778  0.00  0.00     0.002 A 
ATOM      4  C4  I4B d   1      -1.883   0.663   1.823  0.00  0.00    -0.004 A 
ATOM      5  C5  I4B d   1      -1.591  -0.027   0.649  0.00  0.00     0.002 A 
ATOM      6  C6  I4B d   1      -0.292  -0.502   0.418  0.00  0.00     0.003 A 
ENDROOT
BRANCH   1   7
ATOM      7  C1' I4B d   1       2.115  -0.690   1.101  0.00  0.00     0.060 C 
BRANCH   7   8
ATOM      8  C2' I4B d   1       2.683   0.189   0.006  0.00  0.00    -0.013 C 
ATOM      9  C4' I4B d   1       2.574   1.648   0.366  0.00  0.00     0.013 C 
ATOM     10  C3' I4B d   1       4.112  -0.209  -0.214  0.00  0.00     0.013 C 
ENDBRANCH   7   8
ENDBRANCH   1   7
TORSDOF 2
ENDMDL
