MODEL 1
REMARK minimizedAffinity -6.30242252
REMARK minimizedRMSD -1
REMARK  2 active torsions:
REMARK  status: ('A' for Active; 'I' for Inactive)
REMARK    1  A    between atoms: C2'_3  and  C1'_4 
REMARK    2  A    between atoms: C1'_4  and  C1_5 
ROOT
ATOM      1  C1  I4B d   1       1.524  -0.108   0.722  0.00  0.00    -0.075 A 
ATOM      2  C2  I4B d   1       0.233   0.358   0.709  0.00  0.00     0.003 A 
ATOM      3  C3  I4B d   1      -0.329   0.935   1.874  0.00  0.00     0.002 A 
ATOM      4  C4  I4B d   1       0.414   0.979   3.036  0.00  0.00    -0.004 A 
ATOM      5  C5  I4B d   1       1.730   0.527   3.041  0.00  0.00     0.002 A 
ATOM      6  C6  I4B d   1       2.293  -0.009   1.873  0.00  0.00     0.003 A 
ENDROOT
BRANCH   1   7
ATOM      7  C1' I4B d   1       2.074  -0.741  -0.517  0.00  0.00     0.060 C 
BRANCH   7   8
ATOM      8  C2' I4B d   1       1.427  -0.070  -1.711  0.00  0.00    -0.013 C 
ATOM      9  C4' I4B d   1       2.464   0.470  -2.661  0.00  0.00     0.013 C 
ATOM     10  C3' I4B d   1       0.546  -1.077  -2.388  0.00  0.00     0.013 C 
ENDBRANCH   7   8
ENDBRANCH   1   7
TORSDOF 2
ENDMDL
