MODEL 1
REMARK minimizedAffinity -5.90425968
REMARK minimizedRMSD -1
REMARK  2 active torsions:
REMARK  status: ('A' for Active; 'I' for Inactive)
REMARK    1  A    between atoms: C2'_3  and  C1'_4 
REMARK    2  A    between atoms: C1'_4  and  C1_5 
ROOT
ATOM      1  C1  I4B d   1      -0.184  -0.339  -0.144  0.00  0.00    -0.075 A 
ATOM      2  C2  I4B d   1       0.403   0.299   0.920  0.00  0.00     0.003 A 
ATOM      3  C3  I4B d   1      -0.397   0.920   1.909  0.00  0.00     0.002 A 
ATOM      4  C4  I4B d   1      -1.770   0.923   1.770  0.00  0.00    -0.004 A 
ATOM      5  C5  I4B d   1      -2.365   0.256   0.703  0.00  0.00     0.002 A 
ATOM      6  C6  I4B d   1      -1.568  -0.390  -0.253  0.00  0.00     0.003 A 
ENDROOT
BRANCH   1   7
ATOM      7  C1' I4B d   1       0.691  -0.956  -1.187  0.00  0.00     0.060 C 
BRANCH   7   8
ATOM      8  C2' I4B d   1       1.626   0.117  -1.707  0.00  0.00    -0.013 C 
ATOM      9  C4' I4B d   1       3.067  -0.266  -1.498  0.00  0.00     0.013 C 
ATOM     10  C3' I4B d   1       1.327   0.326  -3.162  0.00  0.00     0.013 C 
ENDBRANCH   7   8
ENDBRANCH   1   7
TORSDOF 2
ENDMDL
