MODEL 1
REMARK minimizedAffinity 6.77927399
REMARK minimizedRMSD -1
REMARK  0 active torsions:
REMARK  status: ('A' for Active; 'I' for Inactive)
ROOT
ATOM      1  C1  BNZ d   1       5.255   4.942   0.425  0.00  0.00     0.000 A 
ATOM      2  C2  BNZ d   1       4.644   4.209   1.407  0.00  0.00     0.000 A 
ATOM      3  C3  BNZ d   1       4.726   2.844   1.415  0.00  0.00     0.000 A 
ATOM      4  C4  BNZ d   1       5.385   2.214   0.421  0.00  0.00     0.000 A 
ATOM      5  C5  BNZ d   1       5.998   2.938  -0.581  0.00  0.00     0.000 A 
ATOM      6  C6  BNZ d   1       5.946   4.313  -0.565  0.00  0.00     0.000 A 
ENDROOT
TORSDOF 0
ENDMDL
