MODEL 1
REMARK minimizedAffinity 9.38973522
REMARK minimizedRMSD -1
REMARK  0 active torsions:
REMARK  status: ('A' for Active; 'I' for Inactive)
ROOT
ATOM      1  C1  BNZ d   1       4.502   1.732   2.769  0.00  0.00     0.000 A 
ATOM      2  C2  BNZ d   1       3.777   2.634   2.036  0.00  0.00     0.000 A 
ATOM      3  C3  BNZ d   1       4.143   2.953   0.758  0.00  0.00     0.000 A 
ATOM      4  C4  BNZ d   1       5.254   2.400   0.229  0.00  0.00     0.000 A 
ATOM      5  C5  BNZ d   1       6.000   1.496   0.958  0.00  0.00     0.000 A 
ATOM      6  C6  BNZ d   1       5.607   1.148   2.230  0.00  0.00     0.000 A 
ENDROOT
TORSDOF 0
ENDMDL
