MODEL 1
REMARK minimizedAffinity 2.74396563
REMARK minimizedRMSD -1
REMARK  0 active torsions:
REMARK  status: ('A' for Active; 'I' for Inactive)
ROOT
ATOM      1  C1  BNZ d   1       4.923   0.562   2.964  0.00  0.00     0.000 A 
ATOM      2  C2  BNZ d   1       3.850   1.324   2.587  0.00  0.00     0.000 A 
ATOM      3  C3  BNZ d   1       3.833   1.957   1.375  0.00  0.00     0.000 A 
ATOM      4  C4  BNZ d   1       4.903   1.860   0.561  0.00  0.00     0.000 A 
ATOM      5  C5  BNZ d   1       5.997   1.102   0.931  0.00  0.00     0.000 A 
ATOM      6  C6  BNZ d   1       5.995   0.435   2.135  0.00  0.00     0.000 A 
ENDROOT
TORSDOF 0
ENDMDL
