MODEL 1
REMARK minimizedAffinity 13.2278967
REMARK minimizedRMSD -1
REMARK  0 active torsions:
REMARK  status: ('A' for Active; 'I' for Inactive)
ROOT
ATOM      1  C1  BNZ d   1      -0.941  -1.874  -1.799  0.00  0.00     0.000 A 
ATOM      2  C2  BNZ d   1      -0.908  -1.758  -0.435  0.00  0.00     0.000 A 
ATOM      3  C3  BNZ d   1      -0.634  -2.841   0.353  0.00  0.00     0.000 A 
ATOM      4  C4  BNZ d   1      -0.433  -4.045  -0.221  0.00  0.00     0.000 A 
ATOM      5  C5  BNZ d   1      -0.472  -4.180  -1.595  0.00  0.00     0.000 A 
ATOM      6  C6  BNZ d   1      -0.710  -3.080  -2.387  0.00  0.00     0.000 A 
ENDROOT
TORSDOF 0
ENDMDL
