MODEL 1
REMARK minimizedAffinity 8.68080521
REMARK minimizedRMSD -1
REMARK  0 active torsions:
REMARK  status: ('A' for Active; 'I' for Inactive)
ROOT
ATOM      1  C1  BNZ d   1      -1.226   3.355  -5.999  0.00  0.00     0.000 A 
ATOM      2  C2  BNZ d   1      -2.596   3.384  -5.999  0.00  0.00     0.000 A 
ATOM      3  C3  BNZ d   1      -3.310   2.708  -5.049  0.00  0.00     0.000 A 
ATOM      4  C4  BNZ d   1      -2.656   1.973  -4.126  0.00  0.00     0.000 A 
ATOM      5  C5  BNZ d   1      -1.276   1.927  -4.118  0.00  0.00     0.000 A 
ATOM      6  C6  BNZ d   1      -0.560   2.640  -5.052  0.00  0.00     0.000 A 
ENDROOT
TORSDOF 0
ENDMDL
