MODEL 1
REMARK minimizedAffinity 4.9326148
REMARK minimizedRMSD -1
REMARK  0 active torsions:
REMARK  status: ('A' for Active; 'I' for Inactive)
ROOT
ATOM      1  C1  BNZ d   1       5.998   1.843  -0.044  0.00  0.00     0.000 A 
ATOM      2  C2  BNZ d   1       5.216   1.471   1.017  0.00  0.00     0.000 A 
ATOM      3  C3  BNZ d   1       4.122   2.209   1.372  0.00  0.00     0.000 A 
ATOM      4  C4  BNZ d   1       3.834   3.338   0.692  0.00  0.00     0.000 A 
ATOM      5  C5  BNZ d   1       4.619   3.731  -0.374  0.00  0.00     0.000 A 
ATOM      6  C6  BNZ d   1       5.697   2.965  -0.753  0.00  0.00     0.000 A 
ENDROOT
TORSDOF 0
ENDMDL
