MODEL 1
REMARK minimizedAffinity 5.05859995
REMARK minimizedRMSD -1
REMARK  0 active torsions:
REMARK  status: ('A' for Active; 'I' for Inactive)
ROOT
ATOM      1  C1  BNZ d   1       6.000   1.116   1.496  0.00  0.00     0.000 A 
ATOM      2  C2  BNZ d   1       5.997   1.873   0.355  0.00  0.00     0.000 A 
ATOM      3  C3  BNZ d   1       5.256   3.019   0.277  0.00  0.00     0.000 A 
ATOM      4  C4  BNZ d   1       4.488   3.384   1.324  0.00  0.00     0.000 A 
ATOM      5  C5  BNZ d   1       4.473   2.626   2.478  0.00  0.00     0.000 A 
ATOM      6  C6  BNZ d   1       5.250   1.494   2.567  0.00  0.00     0.000 A 
ENDROOT
TORSDOF 0
ENDMDL
