MODEL 1
REMARK minimizedAffinity 2.02777934
REMARK minimizedRMSD -1
REMARK  0 active torsions:
REMARK  status: ('A' for Active; 'I' for Inactive)
ROOT
ATOM      1  C1  BNZ d   1      -0.650  -3.979   1.551  0.00  0.00     0.000 A 
ATOM      2  C2  BNZ d   1      -0.771  -3.472   0.284  0.00  0.00     0.000 A 
ATOM      3  C3  BNZ d   1      -1.615  -2.428   0.026  0.00  0.00     0.000 A 
ATOM      4  C4  BNZ d   1      -2.365  -1.919   1.024  0.00  0.00     0.000 A 
ATOM      5  C5  BNZ d   1      -2.262  -2.426   2.304  0.00  0.00     0.000 A 
ATOM      6  C6  BNZ d   1      -1.383  -3.451   2.568  0.00  0.00     0.000 A 
ENDROOT
TORSDOF 0
ENDMDL
