MODEL 1
REMARK minimizedAffinity 8.52050877
REMARK minimizedRMSD -1
REMARK  0 active torsions:
REMARK  status: ('A' for Active; 'I' for Inactive)
ROOT
ATOM      1  C1  BNZ d   1       5.928   1.115   2.622  0.00  0.00     0.000 A 
ATOM      2  C2  BNZ d   1       5.999   1.495   1.308  0.00  0.00     0.000 A 
ATOM      3  C3  BNZ d   1       5.012   2.255   0.744  0.00  0.00     0.000 A 
ATOM      4  C4  BNZ d   1       3.937   2.598   1.483  0.00  0.00     0.000 A 
ATOM      5  C5  BNZ d   1       3.845   2.214   2.806  0.00  0.00     0.000 A 
ATOM      6  C6  BNZ d   1       4.860   1.483   3.380  0.00  0.00     0.000 A 
ENDROOT
TORSDOF 0
ENDMDL
