MODEL 1
REMARK minimizedAffinity 6.47809553
REMARK minimizedRMSD -1
REMARK  0 active torsions:
REMARK  status: ('A' for Active; 'I' for Inactive)
ROOT
ATOM      1  C1  BNZ d   1       5.634   2.262   0.200  0.00  0.00     0.000 A 
ATOM      2  C2  BNZ d   1       6.000   1.335   1.139  0.00  0.00     0.000 A 
ATOM      3  C3  BNZ d   1       5.236   1.127   2.253  0.00  0.00     0.000 A 
ATOM      4  C4  BNZ d   1       4.130   1.874   2.447  0.00  0.00     0.000 A 
ATOM      5  C5  BNZ d   1       3.752   2.819   1.514  0.00  0.00     0.000 A 
ATOM      6  C6  BNZ d   1       4.502   2.998   0.375  0.00  0.00     0.000 A 
ENDROOT
TORSDOF 0
ENDMDL
