MODEL 1
REMARK minimizedAffinity 0.276310652
REMARK minimizedRMSD -1
REMARK  0 active torsions:
REMARK  status: ('A' for Active; 'I' for Inactive)
ROOT
ATOM      1  C1  BNZ d   1      -5.063   3.931   0.762  0.00  0.00     0.000 A 
ATOM      2  C2  BNZ d   1      -4.115   3.988  -0.224  0.00  0.00     0.000 A 
ATOM      3  C3  BNZ d   1      -4.082   5.035  -1.103  0.00  0.00     0.000 A 
ATOM      4  C4  BNZ d   1      -5.020   6.000  -1.021  0.00  0.00     0.000 A 
ATOM      5  C5  BNZ d   1      -5.988   5.951  -0.038  0.00  0.00     0.000 A 
ATOM      6  C6  BNZ d   1      -5.995   4.917   0.869  0.00  0.00     0.000 A 
ENDROOT
TORSDOF 0
ENDMDL
