MODEL 1
REMARK minimizedAffinity -1.36250436
REMARK minimizedRMSD -1
REMARK  0 active torsions:
REMARK  status: ('A' for Active; 'I' for Inactive)
ROOT
ATOM      1  C1  BNZ d   1      -0.826  -3.900   1.719  0.00  0.00     0.000 A 
ATOM      2  C2  BNZ d   1      -1.038  -3.419   0.454  0.00  0.00     0.000 A 
ATOM      3  C3  BNZ d   1      -2.152  -2.683   0.163  0.00  0.00     0.000 A 
ATOM      4  C4  BNZ d   1      -3.072  -2.464   1.125  0.00  0.00     0.000 A 
ATOM      5  C5  BNZ d   1      -2.877  -2.950   2.403  0.00  0.00     0.000 A 
ATOM      6  C6  BNZ d   1      -1.735  -3.657   2.702  0.00  0.00     0.000 A 
ENDROOT
TORSDOF 0
ENDMDL
