MODEL 1
REMARK minimizedAffinity 4.35566521
REMARK minimizedRMSD -1
REMARK  0 active torsions:
REMARK  status: ('A' for Active; 'I' for Inactive)
ROOT
ATOM      1  C1  BNZ d   1      -2.161  -1.529   0.013  0.00  0.00     0.000 A 
ATOM      2  C2  BNZ d   1      -1.827  -1.634   1.337  0.00  0.00     0.000 A 
ATOM      3  C3  BNZ d   1      -1.361  -2.812   1.850  0.00  0.00     0.000 A 
ATOM      4  C4  BNZ d   1      -1.268  -3.893   1.049  0.00  0.00     0.000 A 
ATOM      5  C5  BNZ d   1      -1.610  -3.806  -0.286  0.00  0.00     0.000 A 
ATOM      6  C6  BNZ d   1      -2.042  -2.608  -0.807  0.00  0.00     0.000 A 
ENDROOT
TORSDOF 0
ENDMDL
