MODEL 1
REMARK minimizedAffinity 9.32580376
REMARK minimizedRMSD -1
REMARK  0 active torsions:
REMARK  status: ('A' for Active; 'I' for Inactive)
ROOT
ATOM      1  C1  BNZ d   1       4.127   3.791   0.816  0.00  0.00     0.000 A 
ATOM      2  C2  BNZ d   1       4.132   2.608   1.506  0.00  0.00     0.000 A 
ATOM      3  C3  BNZ d   1       5.080   1.656   1.256  0.00  0.00     0.000 A 
ATOM      4  C4  BNZ d   1       5.996   1.870   0.290  0.00  0.00     0.000 A 
ATOM      5  C5  BNZ d   1       5.999   3.054  -0.421  0.00  0.00     0.000 A 
ATOM      6  C6  BNZ d   1       5.067   4.026  -0.140  0.00  0.00     0.000 A 
ENDROOT
TORSDOF 0
ENDMDL
