MODEL 1
REMARK minimizedAffinity 4.80362844
REMARK minimizedRMSD -1
REMARK  0 active torsions:
REMARK  status: ('A' for Active; 'I' for Inactive)
ROOT
ATOM      1  C1  BNZ d   1      -2.406  -2.591   0.414  0.00  0.00     0.000 A 
ATOM      2  C2  BNZ d   1      -3.241  -2.252   1.445  0.00  0.00     0.000 A 
ATOM      3  C3  BNZ d   1      -2.882  -2.486   2.743  0.00  0.00     0.000 A 
ATOM      4  C4  BNZ d   1      -1.707  -3.093   3.006  0.00  0.00     0.000 A 
ATOM      5  C5  BNZ d   1      -0.858  -3.449   1.978  0.00  0.00     0.000 A 
ATOM      6  C6  BNZ d   1      -1.205  -3.177   0.674  0.00  0.00     0.000 A 
ENDROOT
TORSDOF 0
ENDMDL
