MODEL 1
REMARK minimizedAffinity 3.91508389
REMARK minimizedRMSD -1
REMARK  0 active torsions:
REMARK  status: ('A' for Active; 'I' for Inactive)
ROOT
ATOM      1  C1  BNZ d   1      -3.325   1.241   5.994  0.00  0.00     0.000 A 
ATOM      2  C2  BNZ d   1      -3.493  -0.118   5.991  0.00  0.00     0.000 A 
ATOM      3  C3  BNZ d   1      -4.744  -0.668   5.962  0.00  0.00     0.000 A 
ATOM      4  C4  BNZ d   1      -5.824   0.139   5.977  0.00  0.00     0.000 A 
ATOM      5  C5  BNZ d   1      -5.671   1.511   5.989  0.00  0.00     0.000 A 
ATOM      6  C6  BNZ d   1      -4.410   2.062   5.979  0.00  0.00     0.000 A 
ENDROOT
TORSDOF 0
ENDMDL
