MODEL 1
REMARK minimizedAffinity 10.286912
REMARK minimizedRMSD -1
REMARK  0 active torsions:
REMARK  status: ('A' for Active; 'I' for Inactive)
ROOT
ATOM      1  C1  BNZ d   1      -2.494  -1.494   0.383  0.00  0.00     0.000 A 
ATOM      2  C2  BNZ d   1      -2.476  -0.614  -0.666  0.00  0.00     0.000 A 
ATOM      3  C3  BNZ d   1      -1.610  -0.787  -1.710  0.00  0.00     0.000 A 
ATOM      4  C4  BNZ d   1      -0.738  -1.816  -1.684  0.00  0.00     0.000 A 
ATOM      5  C5  BNZ d   1      -0.738  -2.706  -0.629  0.00  0.00     0.000 A 
ATOM      6  C6  BNZ d   1      -1.637  -2.551   0.401  0.00  0.00     0.000 A 
ENDROOT
TORSDOF 0
ENDMDL
