MODEL 1
REMARK minimizedAffinity 3.31503677
REMARK minimizedRMSD -1
REMARK  0 active torsions:
REMARK  status: ('A' for Active; 'I' for Inactive)
ROOT
ATOM      1  C1  BNZ d   1      -1.682  -1.665  -0.979  0.00  0.00     0.000 A 
ATOM      2  C2  BNZ d   1      -0.653  -2.569  -0.962  0.00  0.00     0.000 A 
ATOM      3  C3  BNZ d   1      -0.494  -3.428   0.090  0.00  0.00     0.000 A 
ATOM      4  C4  BNZ d   1      -1.338  -3.355   1.139  0.00  0.00     0.000 A 
ATOM      5  C5  BNZ d   1      -2.374  -2.443   1.141  0.00  0.00     0.000 A 
ATOM      6  C6  BNZ d   1      -2.555  -1.607   0.063  0.00  0.00     0.000 A 
ENDROOT
TORSDOF 0
ENDMDL
