MODEL 1
REMARK minimizedAffinity -0.102756262
REMARK minimizedRMSD -1
REMARK  0 active torsions:
REMARK  status: ('A' for Active; 'I' for Inactive)
ROOT
ATOM      1  C   UNL d   1      -2.628  -0.780   1.532  0.00  0.00     0.023 A 
ATOM      2  C1  UNL d   1      -2.640  -0.077   0.327  0.00  0.00     0.003 A 
ATOM      3  C2  UNL d   1      -1.437   0.288  -0.281  0.00  0.00     0.048 A 
ATOM      4  C3  UNL d   1      -0.226  -0.055   0.320  0.00  0.00     0.023 A 
ATOM      5  C4  UNL d   1      -0.210  -0.759   1.525  0.00  0.00     0.048 A 
ATOM      6  C5  UNL d   1      -1.415  -1.121   2.130  0.00  0.00     0.003 A 
ATOM      7  I   UNL d   1       1.565   0.487  -0.584  0.00  0.00    -0.146 I 
ENDROOT
TORSDOF 0
ENDMDL
