MODEL 1
REMARK minimizedAffinity -2.12263203
REMARK minimizedRMSD -1
REMARK  0 active torsions:
REMARK  status: ('A' for Active; 'I' for Inactive)
ROOT
ATOM      1  C   UNL d   1      -1.996  -0.890  -0.146  0.00  0.00     0.023 A 
ATOM      2  C1  UNL d   1      -1.579  -0.405  -1.385  0.00  0.00     0.003 A 
ATOM      3  C2  UNL d   1      -0.346   0.240  -1.505  0.00  0.00     0.048 A 
ATOM      4  C3  UNL d   1       0.466   0.394  -0.382  0.00  0.00     0.023 A 
ATOM      5  C4  UNL d   1       0.053  -0.091   0.860  0.00  0.00     0.048 A 
ATOM      6  C5  UNL d   1      -1.181  -0.733   0.976  0.00  0.00     0.003 A 
ATOM      7  I   UNL d   1       2.302   1.353  -0.558  0.00  0.00    -0.146 I 
ENDROOT
TORSDOF 0
ENDMDL
