MODEL 1
REMARK minimizedAffinity -2.54752183
REMARK minimizedRMSD -1
REMARK  0 active torsions:
REMARK  status: ('A' for Active; 'I' for Inactive)
ROOT
ATOM      1  C   UNL d   1      -1.023  -0.606  -0.046  0.00  0.00     0.023 A 
ATOM      2  C1  UNL d   1      -0.302  -0.559   1.148  0.00  0.00     0.003 A 
ATOM      3  C2  UNL d   1       0.871   0.193   1.228  0.00  0.00     0.048 A 
ATOM      4  C3  UNL d   1       1.318   0.898   0.110  0.00  0.00     0.023 A 
ATOM      5  C4  UNL d   1       0.600   0.855  -1.086  0.00  0.00     0.048 A 
ATOM      6  C5  UNL d   1      -0.572   0.100  -1.161  0.00  0.00     0.003 A 
ATOM      7  I   UNL d   1       3.064   2.019   0.227  0.00  0.00    -0.146 I 
ENDROOT
TORSDOF 0
ENDMDL
