MODEL 1
REMARK minimizedAffinity -3.35019064
REMARK minimizedRMSD -1
REMARK  0 active torsions:
REMARK  status: ('A' for Active; 'I' for Inactive)
ROOT
ATOM      1  C   UNL d   1      -3.549  -0.991  -0.548  0.00  0.00     0.023 A 
ATOM      2  C1  UNL d   1      -3.207  -0.681   0.769  0.00  0.00     0.003 A 
ATOM      3  C2  UNL d   1      -1.879  -0.403   1.099  0.00  0.00     0.048 A 
ATOM      4  C3  UNL d   1      -0.899  -0.434   0.108  0.00  0.00     0.023 A 
ATOM      5  C4  UNL d   1      -1.237  -0.743  -1.211  0.00  0.00     0.048 A 
ATOM      6  C5  UNL d   1      -2.565  -1.022  -1.536  0.00  0.00     0.003 A 
ATOM      7  I   UNL d   1       1.078  -0.019   0.598  0.00  0.00    -0.146 I 
ENDROOT
TORSDOF 0
ENDMDL
