MODEL 1
REMARK minimizedAffinity -2.85319591
REMARK minimizedRMSD -1
REMARK  0 active torsions:
REMARK  status: ('A' for Active; 'I' for Inactive)
ROOT
ATOM      1  C   UNL d   1       2.264   1.549   0.695  0.00  0.00     0.023 A 
ATOM      2  C1  UNL d   1       2.301   0.272   0.133  0.00  0.00     0.003 A 
ATOM      3  C2  UNL d   1       1.115  -0.368  -0.230  0.00  0.00     0.048 A 
ATOM      4  C3  UNL d   1      -0.107   0.275  -0.030  0.00  0.00     0.023 A 
ATOM      5  C4  UNL d   1      -0.149   1.552   0.531  0.00  0.00     0.048 A 
ATOM      6  C5  UNL d   1       1.040   2.188   0.894  0.00  0.00     0.003 A 
ATOM      7  I   UNL d   1      -1.874  -0.676  -0.570  0.00  0.00    -0.146 I 
ENDROOT
TORSDOF 0
ENDMDL
