MODEL 1
REMARK minimizedAffinity -1.1018132
REMARK minimizedRMSD -1
REMARK  0 active torsions:
REMARK  status: ('A' for Active; 'I' for Inactive)
ROOT
ATOM      1  C   UNL d   1      -3.237  -1.113  -0.510  0.00  0.00     0.023 A 
ATOM      2  C1  UNL d   1      -2.396  -0.877  -1.598  0.00  0.00     0.003 A 
ATOM      3  C2  UNL d   1      -1.064  -0.515  -1.387  0.00  0.00     0.048 A 
ATOM      4  C3  UNL d   1      -0.579  -0.392  -0.085  0.00  0.00     0.023 A 
ATOM      5  C4  UNL d   1      -1.416  -0.628   1.006  0.00  0.00     0.048 A 
ATOM      6  C5  UNL d   1      -2.748  -0.988   0.791  0.00  0.00     0.003 A 
ATOM      7  I   UNL d   1       1.403   0.146   0.231  0.00  0.00    -0.146 I 
ENDROOT
TORSDOF 0
ENDMDL
