MODEL 1
REMARK minimizedAffinity -1.07147312
REMARK minimizedRMSD -1
REMARK  0 active torsions:
REMARK  status: ('A' for Active; 'I' for Inactive)
ROOT
ATOM      1  C   UNL d   1      -3.070  -1.191  -0.622  0.00  0.00     0.023 A 
ATOM      2  C1  UNL d   1      -2.653  -1.107   0.707  0.00  0.00     0.003 A 
ATOM      3  C2  UNL d   1      -1.368  -0.654   1.009  0.00  0.00     0.048 A 
ATOM      4  C3  UNL d   1      -0.504  -0.285  -0.021  0.00  0.00     0.023 A 
ATOM      5  C4  UNL d   1      -0.917  -0.366  -1.352  0.00  0.00     0.048 A 
ATOM      6  C5  UNL d   1      -2.203  -0.821  -1.650  0.00  0.00     0.003 A 
ATOM      7  I   UNL d   1       1.410   0.390   0.426  0.00  0.00    -0.146 I 
ENDROOT
TORSDOF 0
ENDMDL
