MODEL 1
REMARK minimizedAffinity -2.55768085
REMARK minimizedRMSD -1
REMARK  0 active torsions:
REMARK  status: ('A' for Active; 'I' for Inactive)
ROOT
ATOM      1  C   UNL d   1       2.846   0.213   0.155  0.00  0.00     0.023 A 
ATOM      2  C1  UNL d   1       2.437  -0.539   1.257  0.00  0.00     0.003 A 
ATOM      3  C2  UNL d   1       1.081  -0.636   1.573  0.00  0.00     0.048 A 
ATOM      4  C3  UNL d   1       0.138   0.020   0.782  0.00  0.00     0.023 A 
ATOM      5  C4  UNL d   1       0.541   0.772  -0.322  0.00  0.00     0.048 A 
ATOM      6  C5  UNL d   1       1.899   0.867  -0.634  0.00  0.00     0.003 A 
ATOM      7  I   UNL d   1      -1.882  -0.124   1.251  0.00  0.00    -0.146 I 
ENDROOT
TORSDOF 0
ENDMDL
