MODEL 1
REMARK minimizedAffinity -3.41113281
REMARK minimizedRMSD -1
REMARK  0 active torsions:
REMARK  status: ('A' for Active; 'I' for Inactive)
ROOT
ATOM      1  C   UNL d   1      -2.889  -0.698  -0.540  0.00  0.00     0.023 A 
ATOM      2  C1  UNL d   1      -2.407  -0.660   0.769  0.00  0.00     0.003 A 
ATOM      3  C2  UNL d   1      -1.058  -0.390   1.010  0.00  0.00     0.048 A 
ATOM      4  C3  UNL d   1      -0.197  -0.157  -0.062  0.00  0.00     0.023 A 
ATOM      5  C4  UNL d   1      -0.675  -0.194  -1.373  0.00  0.00     0.048 A 
ATOM      6  C5  UNL d   1      -2.024  -0.465  -1.609  0.00  0.00     0.003 A 
ATOM      7  I   UNL d   1       1.810   0.245   0.294  0.00  0.00    -0.146 I 
ENDROOT
TORSDOF 0
ENDMDL
