MODEL 1
REMARK minimizedAffinity -4.47481775
REMARK minimizedRMSD -1
REMARK  0 active torsions:
REMARK  status: ('A' for Active; 'I' for Inactive)
ROOT
ATOM      1  C   UNL d   1       2.450   2.996   0.448  0.00  0.00     0.023 A 
ATOM      2  C1  UNL d   1       2.726   1.932  -0.410  0.00  0.00     0.003 A 
ATOM      3  C2  UNL d   1       3.521   2.133  -1.541  0.00  0.00     0.048 A 
ATOM      4  C3  UNL d   1       4.037   3.401  -1.807  0.00  0.00     0.023 A 
ATOM      5  C4  UNL d   1       3.764   4.468  -0.950  0.00  0.00     0.048 A 
ATOM      6  C5  UNL d   1       2.968   4.263   0.179  0.00  0.00     0.003 A 
ATOM      7  I   UNL d   1       5.220   3.703  -3.489  0.00  0.00    -0.146 I 
ENDROOT
TORSDOF 0
ENDMDL
