MODEL 1
REMARK minimizedAffinity -2.28814077
REMARK minimizedRMSD -1
REMARK  0 active torsions:
REMARK  status: ('A' for Active; 'I' for Inactive)
ROOT
ATOM      1  C   UNL d   1      -2.450  -0.502  -0.507  0.00  0.00     0.023 A 
ATOM      2  C1  UNL d   1      -1.906  -0.728   0.757  0.00  0.00     0.003 A 
ATOM      3  C2  UNL d   1      -0.553  -0.474   0.991  0.00  0.00     0.048 A 
ATOM      4  C3  UNL d   1       0.250   0.007  -0.043  0.00  0.00     0.023 A 
ATOM      5  C4  UNL d   1      -0.291   0.236  -1.309  0.00  0.00     0.048 A 
ATOM      6  C5  UNL d   1      -1.644  -0.020  -1.539  0.00  0.00     0.003 A 
ATOM      7  I   UNL d   1       2.264   0.386   0.304  0.00  0.00    -0.146 I 
ENDROOT
TORSDOF 0
ENDMDL
