MODEL 1
REMARK minimizedAffinity -4.97195721
REMARK minimizedRMSD -1
REMARK  0 active torsions:
REMARK  status: ('A' for Active; 'I' for Inactive)
ROOT
ATOM      1  C   UNL d   1      -2.867  -1.027  -0.606  0.00  0.00     0.023 A 
ATOM      2  C1  UNL d   1      -2.315  -1.232   0.658  0.00  0.00     0.003 A 
ATOM      3  C2  UNL d   1      -1.100  -0.633   0.997  0.00  0.00     0.048 A 
ATOM      4  C3  UNL d   1      -0.443   0.172   0.066  0.00  0.00     0.023 A 
ATOM      5  C4  UNL d   1      -0.992   0.380  -1.200  0.00  0.00     0.048 A 
ATOM      6  C5  UNL d   1      -2.206  -0.222  -1.534  0.00  0.00     0.003 A 
ATOM      7  I   UNL d   1       1.365   1.065   0.568  0.00  0.00    -0.146 I 
ENDROOT
TORSDOF 0
ENDMDL
