MODEL 1
REMARK minimizedAffinity -1.51282251
REMARK minimizedRMSD -1
REMARK  0 active torsions:
REMARK  status: ('A' for Active; 'I' for Inactive)
ROOT
ATOM      1  C   UNL d   1      -2.674  -0.725  -0.621  0.00  0.00     0.023 A 
ATOM      2  C1  UNL d   1      -1.914  -1.236   0.431  0.00  0.00     0.003 A 
ATOM      3  C2  UNL d   1      -0.619  -0.763   0.653  0.00  0.00     0.048 A 
ATOM      4  C3  UNL d   1      -0.090   0.221  -0.180  0.00  0.00     0.023 A 
ATOM      5  C4  UNL d   1      -0.847   0.736  -1.234  0.00  0.00     0.048 A 
ATOM      6  C5  UNL d   1      -2.141   0.260  -1.453  0.00  0.00     0.003 A 
ATOM      7  I   UNL d   1       1.837   0.926   0.148  0.00  0.00    -0.146 I 
ENDROOT
TORSDOF 0
ENDMDL
