MODEL 1
REMARK minimizedAffinity -3.77691722
REMARK minimizedRMSD -1
REMARK  0 active torsions:
REMARK  status: ('A' for Active; 'I' for Inactive)
ROOT
ATOM      1  C   UNL d   1       1.643  -0.243   0.386  0.00  0.00     0.023 A 
ATOM      2  C1  UNL d   1       0.950   0.409  -0.634  0.00  0.00     0.003 A 
ATOM      3  C2  UNL d   1      -0.402   0.135  -0.847  0.00  0.00     0.048 A 
ATOM      4  C3  UNL d   1      -1.056  -0.791  -0.035  0.00  0.00     0.023 A 
ATOM      5  C4  UNL d   1      -0.367  -1.445   0.988  0.00  0.00     0.048 A 
ATOM      6  C5  UNL d   1       0.986  -1.168   1.196  0.00  0.00     0.003 A 
ATOM      7  I   UNL d   1      -3.069  -1.200  -0.349  0.00  0.00    -0.146 I 
ENDROOT
TORSDOF 0
ENDMDL
