MODEL 1
REMARK minimizedAffinity -2.61239839
REMARK minimizedRMSD -1
REMARK  0 active torsions:
REMARK  status: ('A' for Active; 'I' for Inactive)
ROOT
ATOM      1  C   UNL d   1       1.551  -0.296  -0.097  0.00  0.00     0.023 A 
ATOM      2  C1  UNL d   1       0.898   0.043  -1.282  0.00  0.00     0.003 A 
ATOM      3  C2  UNL d   1      -0.496   0.013  -1.345  0.00  0.00     0.048 A 
ATOM      4  C3  UNL d   1      -1.232  -0.354  -0.219  0.00  0.00     0.023 A 
ATOM      5  C4  UNL d   1      -0.583  -0.693   0.969  0.00  0.00     0.048 A 
ATOM      6  C5  UNL d   1       0.811  -0.663   1.027  0.00  0.00     0.003 A 
ATOM      7  I   UNL d   1      -3.308  -0.398  -0.311  0.00  0.00    -0.146 I 
ENDROOT
TORSDOF 0
ENDMDL
