MODEL 1
REMARK minimizedAffinity -4.9015913
REMARK minimizedRMSD -1
REMARK  0 active torsions:
REMARK  status: ('A' for Active; 'I' for Inactive)
ROOT
ATOM      1  C   UNL d   1      -1.248   0.855  -1.655  0.00  0.00     0.077 C 
ATOM      2  C1  UNL d   1      -0.151   0.151  -0.913  0.00  0.00    -0.074 A 
ATOM      3  C2  UNL d   1       0.811  -0.601  -1.595  0.00  0.00    -0.005 A 
ATOM      4  C3  UNL d   1       1.831  -1.242  -0.892  0.00  0.00     0.006 A 
ATOM      5  C4  UNL d   1       1.899  -1.138   0.498  0.00  0.00    -0.005 A 
ATOM      6  C5  UNL d   1       0.946  -0.390   1.197  0.00  0.00    -0.074 A 
ATOM      7  C6  UNL d   1       1.011  -0.259   2.690  0.00  0.00     0.077 C 
ATOM      8  C7  UNL d   1      -0.071   0.258   0.483  0.00  0.00    -0.001 A 
ENDROOT
TORSDOF 0
ENDMDL
