MODEL 1
REMARK minimizedAffinity -5.25253391
REMARK minimizedRMSD -1
REMARK  0 active torsions:
REMARK  status: ('A' for Active; 'I' for Inactive)
ROOT
ATOM      1  C   UNL d   1      -0.736   3.157  -1.872  0.00  0.00     0.077 C 
ATOM      2  C1  UNL d   1      -0.297   1.770  -1.506  0.00  0.00    -0.074 A 
ATOM      3  C2  UNL d   1      -0.220   0.762  -2.472  0.00  0.00    -0.005 A 
ATOM      4  C3  UNL d   1       0.199  -0.521  -2.118  0.00  0.00     0.006 A 
ATOM      5  C4  UNL d   1       0.545  -0.807  -0.797  0.00  0.00    -0.005 A 
ATOM      6  C5  UNL d   1       0.475   0.188   0.183  0.00  0.00    -0.074 A 
ATOM      7  C6  UNL d   1       0.853  -0.100   1.605  0.00  0.00     0.077 C 
ATOM      8  C7  UNL d   1       0.060   1.476  -0.182  0.00  0.00    -0.001 A 
ENDROOT
TORSDOF 0
ENDMDL
