MODEL 1
REMARK minimizedAffinity -4.29513264
REMARK minimizedRMSD -1
REMARK  0 active torsions:
REMARK  status: ('A' for Active; 'I' for Inactive)
ROOT
ATOM      1  C   UNL d   1       0.192  -0.647   3.373  0.00  0.00     0.077 C 
ATOM      2  C1  UNL d   1       0.109  -0.501   1.883  0.00  0.00    -0.074 A 
ATOM      3  C2  UNL d   1      -0.977   0.143   1.283  0.00  0.00    -0.005 A 
ATOM      4  C3  UNL d   1      -1.036   0.280  -0.104  0.00  0.00     0.006 A 
ATOM      5  C4  UNL d   1      -0.010  -0.226  -0.904  0.00  0.00    -0.005 A 
ATOM      6  C5  UNL d   1       1.085  -0.873  -0.321  0.00  0.00    -0.074 A 
ATOM      7  C6  UNL d   1       2.201  -1.413  -1.165  0.00  0.00     0.077 C 
ATOM      8  C7  UNL d   1       1.140  -1.000   1.073  0.00  0.00    -0.001 A 
ENDROOT
TORSDOF 0
ENDMDL
