MODEL 1
REMARK minimizedAffinity -4.34972858
REMARK minimizedRMSD -1
REMARK  0 active torsions:
REMARK  status: ('A' for Active; 'I' for Inactive)
ROOT
ATOM      1  C   UNL d   1      -1.438   0.928  -2.139  0.00  0.00     0.077 C 
ATOM      2  C1  UNL d   1      -0.364   0.216  -1.372  0.00  0.00    -0.074 A 
ATOM      3  C2  UNL d   1       0.639  -0.498  -2.035  0.00  0.00    -0.005 A 
ATOM      4  C3  UNL d   1       1.637  -1.148  -1.309  0.00  0.00     0.006 A 
ATOM      5  C4  UNL d   1       1.642  -1.090   0.086  0.00  0.00    -0.005 A 
ATOM      6  C5  UNL d   1       0.648  -0.380   0.766  0.00  0.00    -0.074 A 
ATOM      7  C6  UNL d   1       0.644  -0.300   2.263  0.00  0.00     0.077 C 
ATOM      8  C7  UNL d   1      -0.348   0.276   0.029  0.00  0.00    -0.001 A 
ENDROOT
TORSDOF 0
ENDMDL
