MODEL 1
REMARK minimizedAffinity -5.02361202
REMARK minimizedRMSD -1
REMARK  0 active torsions:
REMARK  status: ('A' for Active; 'I' for Inactive)
ROOT
ATOM      1  C   UNL d   1       1.075   0.121   1.703  0.00  0.00     0.077 C 
ATOM      2  C1  UNL d   1       0.328   0.197   0.405  0.00  0.00    -0.074 A 
ATOM      3  C2  UNL d   1      -0.153  -0.961  -0.217  0.00  0.00    -0.005 A 
ATOM      4  C3  UNL d   1      -0.854  -0.874  -1.419  0.00  0.00     0.006 A 
ATOM      5  C4  UNL d   1      -1.081   0.369  -2.012  0.00  0.00    -0.005 A 
ATOM      6  C5  UNL d   1      -0.608   1.537  -1.405  0.00  0.00    -0.074 A 
ATOM      7  C6  UNL d   1      -0.852   2.881  -2.024  0.00  0.00     0.077 C 
ATOM      8  C7  UNL d   1       0.089   1.442  -0.193  0.00  0.00    -0.001 A 
ENDROOT
TORSDOF 0
ENDMDL
