MODEL 1
REMARK minimizedAffinity -4.02547932
REMARK minimizedRMSD -1
REMARK  0 active torsions:
REMARK  status: ('A' for Active; 'I' for Inactive)
ROOT
ATOM      1  C   UNL d   1       1.497  -0.250   3.128  0.00  0.00     0.077 C 
ATOM      2  C1  UNL d   1       0.708  -0.286   1.853  0.00  0.00    -0.074 A 
ATOM      3  C2  UNL d   1      -0.629   0.123   1.823  0.00  0.00    -0.005 A 
ATOM      4  C3  UNL d   1      -1.348   0.093   0.628  0.00  0.00     0.006 A 
ATOM      5  C4  UNL d   1      -0.737  -0.345  -0.548  0.00  0.00    -0.005 A 
ATOM      6  C5  UNL d   1       0.599  -0.757  -0.537  0.00  0.00    -0.074 A 
ATOM      7  C6  UNL d   1       1.273  -1.222  -1.794  0.00  0.00     0.077 C 
ATOM      8  C7  UNL d   1       1.316  -0.717   0.666  0.00  0.00    -0.001 A 
ENDROOT
TORSDOF 0
ENDMDL
