MODEL 1
REMARK minimizedAffinity 0.884057283
REMARK minimizedRMSD -1
REMARK  0 active torsions:
REMARK  status: ('A' for Active; 'I' for Inactive)
ROOT
ATOM      1  C   UNL d   1      -1.146   1.146  -1.056  0.00  0.00     0.077 C 
ATOM      2  C1  UNL d   1       0.022   0.338  -0.576  0.00  0.00    -0.074 A 
ATOM      3  C2  UNL d   1       0.988  -0.132  -1.472  0.00  0.00    -0.005 A 
ATOM      4  C3  UNL d   1       2.075  -0.874  -1.010  0.00  0.00     0.006 A 
ATOM      5  C4  UNL d   1       2.207  -1.154   0.351  0.00  0.00    -0.005 A 
ATOM      6  C5  UNL d   1       1.252  -0.691   1.262  0.00  0.00    -0.074 A 
ATOM      7  C6  UNL d   1       1.383  -0.975   2.729  0.00  0.00     0.077 C 
ATOM      8  C7  UNL d   1       0.166   0.060   0.791  0.00  0.00    -0.001 A 
ENDROOT
TORSDOF 0
ENDMDL
