MODEL 1
REMARK minimizedAffinity -2.00618339
REMARK minimizedRMSD -1
REMARK  0 active torsions:
REMARK  status: ('A' for Active; 'I' for Inactive)
ROOT
ATOM      1  C   UNL d   1      -0.464  -1.375   2.946  0.00  0.00     0.077 C 
ATOM      2  C1  UNL d   1      -0.312  -0.731   1.600  0.00  0.00    -0.074 A 
ATOM      3  C2  UNL d   1      -1.033   0.420   1.267  0.00  0.00    -0.005 A 
ATOM      4  C3  UNL d   1      -0.874   1.012   0.015  0.00  0.00     0.006 A 
ATOM      5  C4  UNL d   1       0.007   0.460  -0.917  0.00  0.00    -0.005 A 
ATOM      6  C5  UNL d   1       0.737  -0.690  -0.602  0.00  0.00    -0.074 A 
ATOM      7  C6  UNL d   1       1.695  -1.290  -1.588  0.00  0.00     0.077 C 
ATOM      8  C7  UNL d   1       0.577  -1.275   0.661  0.00  0.00    -0.001 A 
ENDROOT
TORSDOF 0
ENDMDL
