MODEL 1
REMARK minimizedAffinity -4.10468531
REMARK minimizedRMSD -1
REMARK  0 active torsions:
REMARK  status: ('A' for Active; 'I' for Inactive)
ROOT
ATOM      1  C   UNL d   1       1.597  -0.335   3.161  0.00  0.00     0.077 C 
ATOM      2  C1  UNL d   1       0.609  -0.370   2.033  0.00  0.00    -0.074 A 
ATOM      3  C2  UNL d   1      -0.763  -0.247   2.275  0.00  0.00    -0.005 A 
ATOM      4  C3  UNL d   1      -1.669  -0.272   1.215  0.00  0.00     0.006 A 
ATOM      5  C4  UNL d   1      -1.213  -0.421  -0.096  0.00  0.00    -0.005 A 
ATOM      6  C5  UNL d   1       0.156  -0.545  -0.357  0.00  0.00    -0.074 A 
ATOM      7  C6  UNL d   1       0.663  -0.696  -1.760  0.00  0.00     0.077 C 
ATOM      8  C7  UNL d   1       1.060  -0.512   0.713  0.00  0.00    -0.001 A 
ENDROOT
TORSDOF 0
ENDMDL
