MODEL 1
REMARK minimizedAffinity -2.43134212
REMARK minimizedRMSD -1
REMARK  0 active torsions:
REMARK  status: ('A' for Active; 'I' for Inactive)
ROOT
ATOM      1  C2' OXE d   1      -1.679  -2.583   0.612  0.00  0.00     0.078 C 
ATOM      2  C1' OXE d   1       1.014  -2.906  -0.112  0.00  0.00     0.078 C 
ATOM      3  C1  OXE d   1       0.513  -1.504   0.128  0.00  0.00    -0.078 A 
ATOM      4  C2  OXE d   1      -0.817  -1.351   0.436  0.00  0.00    -0.078 A 
ATOM      5  C3  OXE d   1      -1.318  -0.084   0.721  0.00  0.00     0.003 A 
ATOM      6  C4  OXE d   1      -0.516   1.051   0.546  0.00  0.00    -0.002 A 
ATOM      7  C5  OXE d   1       0.831   0.920   0.194  0.00  0.00    -0.002 A 
ATOM      8  C6  OXE d   1       1.372  -0.350   0.023  0.00  0.00     0.003 A 
ENDROOT
TORSDOF 0
ENDMDL
