MODEL 1
REMARK minimizedAffinity -4.86543083
REMARK minimizedRMSD -1
REMARK  0 active torsions:
REMARK  status: ('A' for Active; 'I' for Inactive)
ROOT
ATOM      1  C2' OXE d   1      -0.819  -0.028   1.885  0.00  0.00     0.078 C 
ATOM      2  C1' OXE d   1       0.239   1.133  -0.442  0.00  0.00     0.078 C 
ATOM      3  C1  OXE d   1       0.306  -0.368  -0.312  0.00  0.00    -0.078 A 
ATOM      4  C2  OXE d   1      -0.172  -0.924   0.851  0.00  0.00    -0.078 A 
ATOM      5  C3  OXE d   1      -0.184  -2.308   0.999  0.00  0.00     0.003 A 
ATOM      6  C4  OXE d   1       0.426  -3.128   0.042  0.00  0.00    -0.002 A 
ATOM      7  C5  OXE d   1       0.954  -2.579  -1.131  0.00  0.00    -0.002 A 
ATOM      8  C6  OXE d   1       0.864  -1.208  -1.342  0.00  0.00     0.003 A 
ENDROOT
TORSDOF 0
ENDMDL
