MODEL 1
REMARK minimizedAffinity -3.46006036
REMARK minimizedRMSD -1
REMARK  0 active torsions:
REMARK  status: ('A' for Active; 'I' for Inactive)
ROOT
ATOM      1  C2' OXE d   1       0.684   1.214   0.104  0.00  0.00     0.078 C 
ATOM      2  C1' OXE d   1      -1.778   0.389   1.171  0.00  0.00     0.078 C 
ATOM      3  C1  OXE d   1      -0.894  -0.662   0.547  0.00  0.00    -0.078 A 
ATOM      4  C2  OXE d   1       0.288  -0.242  -0.014  0.00  0.00    -0.078 A 
ATOM      5  C3  OXE d   1       1.166  -1.178  -0.553  0.00  0.00     0.003 A 
ATOM      6  C4  OXE d   1       0.787  -2.521  -0.667  0.00  0.00    -0.002 A 
ATOM      7  C5  OXE d   1      -0.430  -2.963  -0.137  0.00  0.00    -0.002 A 
ATOM      8  C6  OXE d   1      -1.261  -2.056   0.510  0.00  0.00     0.003 A 
ENDROOT
TORSDOF 0
ENDMDL
