MODEL 1
REMARK minimizedAffinity -1.96134424
REMARK minimizedRMSD -1
REMARK  0 active torsions:
REMARK  status: ('A' for Active; 'I' for Inactive)
ROOT
ATOM      1  C2' OXE d   1      -0.141   0.746  -2.190  0.00  0.00     0.078 C 
ATOM      2  C1' OXE d   1       0.770   2.398  -0.111  0.00  0.00     0.078 C 
ATOM      3  C1  OXE d   1       0.614   0.925   0.177  0.00  0.00    -0.078 A 
ATOM      4  C2  OXE d   1       0.123   0.132  -0.833  0.00  0.00    -0.078 A 
ATOM      5  C3  OXE d   1       0.011  -1.241  -0.638  0.00  0.00     0.003 A 
ATOM      6  C4  OXE d   1       0.248  -1.800   0.624  0.00  0.00    -0.002 A 
ATOM      7  C5  OXE d   1       0.711  -1.003   1.677  0.00  0.00    -0.002 A 
ATOM      8  C6  OXE d   1       0.939   0.351   1.459  0.00  0.00     0.003 A 
ENDROOT
TORSDOF 0
ENDMDL
