MODEL 1
REMARK minimizedAffinity -4.34484625
REMARK minimizedRMSD -1
REMARK  0 active torsions:
REMARK  status: ('A' for Active; 'I' for Inactive)
ROOT
ATOM      1  C2' OXE d   1       0.002   2.536   0.213  0.00  0.00     0.078 C 
ATOM      2  C1' OXE d   1      -0.232   1.247  -2.270  0.00  0.00     0.078 C 
ATOM      3  C1  OXE d   1       0.123   0.404  -1.071  0.00  0.00    -0.078 A 
ATOM      4  C2  OXE d   1       0.281   1.050   0.132  0.00  0.00    -0.078 A 
ATOM      5  C3  OXE d   1       0.554   0.313   1.280  0.00  0.00     0.003 A 
ATOM      6  C4  OXE d   1       0.819  -1.059   1.195  0.00  0.00    -0.002 A 
ATOM      7  C5  OXE d   1       0.703  -1.730  -0.027  0.00  0.00    -0.002 A 
ATOM      8  C6  OXE d   1       0.314  -1.022  -1.159  0.00  0.00     0.003 A 
ENDROOT
TORSDOF 0
ENDMDL
