MODEL 1
REMARK minimizedAffinity -2.18621683
REMARK minimizedRMSD -1
REMARK  0 active torsions:
REMARK  status: ('A' for Active; 'I' for Inactive)
ROOT
ATOM      1  C2' OXE d   1       0.163  -2.799   0.436  0.00  0.00     0.078 C 
ATOM      2  C1' OXE d   1       1.022  -1.780  -2.034  0.00  0.00     0.078 C 
ATOM      3  C1  OXE d   1       0.606  -0.793  -0.972  0.00  0.00    -0.078 A 
ATOM      4  C2  OXE d   1       0.143  -1.302   0.218  0.00  0.00    -0.078 A 
ATOM      5  C3  OXE d   1      -0.202  -0.435   1.251  0.00  0.00     0.003 A 
ATOM      6  C4  OXE d   1      -0.228   0.948   1.037  0.00  0.00    -0.002 A 
ATOM      7  C5  OXE d   1       0.202   1.486  -0.181  0.00  0.00    -0.002 A 
ATOM      8  C6  OXE d   1       0.661   0.633  -1.179  0.00  0.00     0.003 A 
ENDROOT
TORSDOF 0
ENDMDL
