MODEL 1
REMARK minimizedAffinity -3.67459941
REMARK minimizedRMSD -1
REMARK  0 active torsions:
REMARK  status: ('A' for Active; 'I' for Inactive)
ROOT
ATOM      1  C2' OXE d   1      -1.947   0.024   0.811  0.00  0.00     0.078 C 
ATOM      2  C1' OXE d   1       0.537   0.992  -0.068  0.00  0.00     0.078 C 
ATOM      3  C1  OXE d   1       0.378  -0.500   0.084  0.00  0.00    -0.078 A 
ATOM      4  C2  OXE d   1      -0.826  -0.962   0.560  0.00  0.00    -0.078 A 
ATOM      5  C3  OXE d   1      -1.045  -2.332   0.667  0.00  0.00     0.003 A 
ATOM      6  C4  OXE d   1       0.000  -3.236   0.442  0.00  0.00    -0.002 A 
ATOM      7  C5  OXE d   1       1.246  -2.784  -0.005  0.00  0.00    -0.002 A 
ATOM      8  C6  OXE d   1       1.438  -1.426  -0.229  0.00  0.00     0.003 A 
ENDROOT
TORSDOF 0
ENDMDL
