MODEL 1
REMARK minimizedAffinity -1.71291876
REMARK minimizedRMSD -1
REMARK  0 active torsions:
REMARK  status: ('A' for Active; 'I' for Inactive)
ROOT
ATOM      1  C2' OXE d   1       2.880   4.605   0.224  0.00  0.00     0.078 C 
ATOM      2  C1' OXE d   1       0.441   4.340   1.589  0.00  0.00     0.078 C 
ATOM      3  C1  OXE d   1       0.730   3.371   0.470  0.00  0.00    -0.078 A 
ATOM      4  C2  OXE d   1       1.905   3.537  -0.223  0.00  0.00    -0.078 A 
ATOM      5  C3  OXE d   1       2.245   2.637  -1.228  0.00  0.00     0.003 A 
ATOM      6  C4  OXE d   1       1.333   1.658  -1.642  0.00  0.00    -0.002 A 
ATOM      7  C5  OXE d   1       0.114   1.497  -0.976  0.00  0.00    -0.002 A 
ATOM      8  C6  OXE d   1      -0.184   2.316   0.108  0.00  0.00     0.003 A 
ENDROOT
TORSDOF 0
ENDMDL
