MODEL 1
REMARK minimizedAffinity -3.20937037
REMARK minimizedRMSD -1
REMARK  0 active torsions:
REMARK  status: ('A' for Active; 'I' for Inactive)
ROOT
ATOM      1  C2' OXE d   1      -2.035   0.021   1.887  0.00  0.00     0.078 C 
ATOM      2  C1' OXE d   1      -0.612   1.297  -0.170  0.00  0.00     0.078 C 
ATOM      3  C1  OXE d   1      -0.387  -0.181   0.029  0.00  0.00    -0.078 A 
ATOM      4  C2  OXE d   1      -1.052  -0.787   1.068  0.00  0.00    -0.078 A 
ATOM      5  C3  OXE d   1      -0.923  -2.160   1.261  0.00  0.00     0.003 A 
ATOM      6  C4  OXE d   1      -0.004  -2.898   0.506  0.00  0.00    -0.002 A 
ATOM      7  C5  OXE d   1       0.713  -2.292  -0.531  0.00  0.00    -0.002 A 
ATOM      8  C6  OXE d   1       0.502  -0.946  -0.809  0.00  0.00     0.003 A 
ENDROOT
TORSDOF 0
ENDMDL
