MODEL 1
REMARK minimizedAffinity -2.28757763
REMARK minimizedRMSD -1
REMARK  0 active torsions:
REMARK  status: ('A' for Active; 'I' for Inactive)
ROOT
ATOM      1  C2' OXE d   1       0.350  -2.947   0.723  0.00  0.00     0.078 C 
ATOM      2  C1' OXE d   1      -1.573  -1.414   2.077  0.00  0.00     0.078 C 
ATOM      3  C1  OXE d   1      -0.905  -0.800   0.872  0.00  0.00    -0.078 A 
ATOM      4  C2  OXE d   1       0.068  -1.540   0.244  0.00  0.00    -0.078 A 
ATOM      5  C3  OXE d   1       0.677  -1.043  -0.905  0.00  0.00     0.003 A 
ATOM      6  C4  OXE d   1       0.418   0.264  -1.336  0.00  0.00    -0.002 A 
ATOM      7  C5  OXE d   1      -0.541   1.049  -0.687  0.00  0.00    -0.002 A 
ATOM      8  C6  OXE d   1      -1.240   0.517   0.391  0.00  0.00     0.003 A 
ENDROOT
TORSDOF 0
ENDMDL
