MODEL 1
REMARK minimizedAffinity 1.14168179
REMARK minimizedRMSD -1
REMARK  0 active torsions:
REMARK  status: ('A' for Active; 'I' for Inactive)
ROOT
ATOM      1  C2' OXE d   1       0.950   3.884   1.236  0.00  0.00     0.078 C 
ATOM      2  C1' OXE d   1       2.915   3.370  -0.702  0.00  0.00     0.078 C 
ATOM      3  C1  OXE d   1       1.686   2.495  -0.697  0.00  0.00    -0.078 A 
ATOM      4  C2  OXE d   1       0.752   2.724   0.284  0.00  0.00    -0.078 A 
ATOM      5  C3  OXE d   1      -0.426   1.981   0.301  0.00  0.00     0.003 A 
ATOM      6  C4  OXE d   1      -0.597   0.904  -0.577  0.00  0.00    -0.002 A 
ATOM      7  C5  OXE d   1       0.361   0.628  -1.558  0.00  0.00    -0.002 A 
ATOM      8  C6  OXE d   1       1.486   1.439  -1.659  0.00  0.00     0.003 A 
ENDROOT
TORSDOF 0
ENDMDL
