MODEL 1
REMARK minimizedAffinity -5.82037497
REMARK minimizedRMSD -1
REMARK  0 active torsions:
REMARK  status: ('A' for Active; 'I' for Inactive)
ROOT
ATOM      1  C2' OXE d   1      -0.298  -0.271   0.792  0.00  0.00     0.078 C 
ATOM      2  C1' OXE d   1      -0.253   0.370  -1.941  0.00  0.00     0.078 C 
ATOM      3  C1  OXE d   1      -0.047  -1.073  -1.553  0.00  0.00    -0.078 A 
ATOM      4  C2  OXE d   1      -0.023  -1.370  -0.212  0.00  0.00    -0.078 A 
ATOM      5  C3  OXE d   1       0.109  -2.693   0.199  0.00  0.00     0.003 A 
ATOM      6  C4  OXE d   1       0.373  -3.702  -0.735  0.00  0.00    -0.002 A 
ATOM      7  C5  OXE d   1       0.393  -3.415  -2.104  0.00  0.00    -0.002 A 
ATOM      8  C6  OXE d   1       0.143  -2.116  -2.531  0.00  0.00     0.003 A 
ENDROOT
TORSDOF 0
ENDMDL
