MODEL 1
REMARK minimizedAffinity -4.82682419
REMARK minimizedRMSD -1
REMARK  0 active torsions:
REMARK  status: ('A' for Active; 'I' for Inactive)
ROOT
ATOM      1  C2' OXE d   1      -0.797  -1.109   1.776  0.00  0.00     0.078 C 
ATOM      2  C1' OXE d   1       0.180  -3.223   0.209  0.00  0.00     0.078 C 
ATOM      3  C1  OXE d   1       0.133  -1.850  -0.413  0.00  0.00    -0.078 A 
ATOM      4  C2  OXE d   1      -0.390  -0.830   0.346  0.00  0.00    -0.078 A 
ATOM      5  C3  OXE d   1      -0.405   0.467  -0.160  0.00  0.00     0.003 A 
ATOM      6  C4  OXE d   1      -0.036   0.715  -1.488  0.00  0.00    -0.002 A 
ATOM      7  C5  OXE d   1       0.462  -0.317  -2.290  0.00  0.00    -0.002 A 
ATOM      8  C6  OXE d   1       0.593  -1.594  -1.755  0.00  0.00     0.003 A 
ENDROOT
TORSDOF 0
ENDMDL
