MODEL 1
REMARK minimizedAffinity -1.60466194
REMARK minimizedRMSD -1
REMARK  0 active torsions:
REMARK  status: ('A' for Active; 'I' for Inactive)
ROOT
ATOM      1  C2' OXE d   1       2.339  -1.114  -0.044  0.00  0.00     0.078 C 
ATOM      2  C1' OXE d   1       0.191   0.692   0.008  0.00  0.00     0.078 C 
ATOM      3  C1  OXE d   1      -0.117  -0.772   0.196  0.00  0.00    -0.078 A 
ATOM      4  C2  OXE d   1       0.935  -1.654   0.123  0.00  0.00    -0.078 A 
ATOM      5  C3  OXE d   1       0.714  -3.010   0.344  0.00  0.00     0.003 A 
ATOM      6  C4  OXE d   1      -0.589  -3.502   0.488  0.00  0.00    -0.002 A 
ATOM      7  C5  OXE d   1      -1.678  -2.626   0.526  0.00  0.00    -0.002 A 
ATOM      8  C6  OXE d   1      -1.456  -1.257   0.424  0.00  0.00     0.003 A 
ENDROOT
TORSDOF 0
ENDMDL
