MODEL 1
REMARK minimizedAffinity -5.73748302
REMARK minimizedRMSD -1
REMARK  0 active torsions:
REMARK  status: ('A' for Active; 'I' for Inactive)
ROOT
ATOM      1  C2' OXE d   1      -0.766  -1.485   1.330  0.00  0.00     0.078 C 
ATOM      2  C1' OXE d   1      -0.057   0.713  -0.266  0.00  0.00     0.078 C 
ATOM      3  C1  OXE d   1       0.010  -0.660  -0.889  0.00  0.00    -0.078 A 
ATOM      4  C2  OXE d   1      -0.293  -1.733  -0.086  0.00  0.00    -0.078 A 
ATOM      5  C3  OXE d   1      -0.300  -3.017  -0.625  0.00  0.00     0.003 A 
ATOM      6  C4  OXE d   1       0.148  -3.238  -1.933  0.00  0.00    -0.002 A 
ATOM      7  C5  OXE d   1       0.500  -2.162  -2.755  0.00  0.00    -0.002 A 
ATOM      8  C6  OXE d   1       0.396  -0.866  -2.263  0.00  0.00     0.003 A 
ENDROOT
TORSDOF 0
ENDMDL
