MODEL 1
REMARK minimizedAffinity -2.58658218
REMARK minimizedRMSD -1
REMARK  0 active torsions:
REMARK  status: ('A' for Active; 'I' for Inactive)
ROOT
ATOM      1  C2' OXE d   1      -1.826   0.484   0.820  0.00  0.00     0.078 C 
ATOM      2  C1' OXE d   1       0.715   1.043  -0.234  0.00  0.00     0.078 C 
ATOM      3  C1  OXE d   1       0.361  -0.400   0.020  0.00  0.00    -0.078 A 
ATOM      4  C2  OXE d   1      -0.866  -0.661   0.580  0.00  0.00    -0.078 A 
ATOM      5  C3  OXE d   1      -1.265  -1.979   0.784  0.00  0.00     0.003 A 
ATOM      6  C4  OXE d   1      -0.368  -3.033   0.568  0.00  0.00    -0.002 A 
ATOM      7  C5  OXE d   1       0.902  -2.786   0.036  0.00  0.00    -0.002 A 
ATOM      8  C6  OXE d   1       1.266  -1.482  -0.283  0.00  0.00     0.003 A 
ENDROOT
TORSDOF 0
ENDMDL
