MODEL 1
REMARK minimizedAffinity -4.97549772
REMARK minimizedRMSD -1
REMARK  0 active torsions:
REMARK  status: ('A' for Active; 'I' for Inactive)
ROOT
ATOM      1  C2' OXE d   1      -1.861   0.544   2.192  0.00  0.00     0.078 C 
ATOM      2  C1' OXE d   1      -0.340   1.677   0.122  0.00  0.00     0.078 C 
ATOM      3  C1  OXE d   1      -0.299   0.178   0.286  0.00  0.00    -0.078 A 
ATOM      4  C2  OXE d   1      -1.009  -0.363   1.330  0.00  0.00    -0.078 A 
ATOM      5  C3  OXE d   1      -1.048  -1.745   1.494  0.00  0.00     0.003 A 
ATOM      6  C4  OXE d   1      -0.250  -2.576   0.699  0.00  0.00    -0.002 A 
ATOM      7  C5  OXE d   1       0.512  -2.041  -0.345  0.00  0.00    -0.002 A 
ATOM      8  C6  OXE d   1       0.465  -0.673  -0.592  0.00  0.00     0.003 A 
ENDROOT
TORSDOF 0
ENDMDL
