MODEL 1
REMARK minimizedAffinity -5.3730607
REMARK minimizedRMSD -1
REMARK  0 active torsions:
REMARK  status: ('A' for Active; 'I' for Inactive)
ROOT
ATOM      1  C2' OXE d   1      -1.896   0.354   1.988  0.00  0.00     0.078 C 
ATOM      2  C1' OXE d   1      -0.114   1.404   0.090  0.00  0.00     0.078 C 
ATOM      3  C1  OXE d   1      -0.173  -0.095   0.245  0.00  0.00    -0.078 A 
ATOM      4  C2  OXE d   1      -1.014  -0.598   1.209  0.00  0.00    -0.078 A 
ATOM      5  C3  OXE d   1      -1.148  -1.975   1.356  0.00  0.00     0.003 A 
ATOM      6  C4  OXE d   1      -0.322  -2.848   0.639  0.00  0.00    -0.002 A 
ATOM      7  C5  OXE d   1       0.570  -2.355  -0.320  0.00  0.00    -0.002 A 
ATOM      8  C6  OXE d   1       0.626  -0.986  -0.558  0.00  0.00     0.003 A 
ENDROOT
TORSDOF 0
ENDMDL
