MODEL 1
REMARK minimizedAffinity 4.51339436
REMARK minimizedRMSD -1
REMARK  0 active torsions:
REMARK  status: ('A' for Active; 'I' for Inactive)
ROOT
ATOM      1  C4' PXY d   1       2.175  -2.515   3.272  0.00  0.00     0.077 C 
ATOM      2  C1' PXY d   1       2.220  -1.438  -2.407  0.00  0.00     0.077 C 
ATOM      3  C1  PXY d   1       2.220  -1.714  -0.917  0.00  0.00    -0.082 A 
ATOM      4  C2  PXY d   1       1.519  -2.731  -0.440  0.00  0.00     0.003 A 
ATOM      5  C3  PXY d   1       1.482  -2.976   0.908  0.00  0.00     0.003 A 
ATOM      6  C4  PXY d   1       2.212  -2.205   1.773  0.00  0.00    -0.082 A 
ATOM      7  C5  PXY d   1       2.938  -1.172   1.293  0.00  0.00     0.003 A 
ATOM      8  C6  PXY d   1       2.930  -0.915  -0.075  0.00  0.00     0.003 A 
ENDROOT
TORSDOF 0
ENDMDL
