MODEL 1
REMARK minimizedAffinity 2.9370904
REMARK minimizedRMSD -1
REMARK  0 active torsions:
REMARK  status: ('A' for Active; 'I' for Inactive)
ROOT
ATOM      1  C4' PXY d   1       3.408   1.894   0.824  0.00  0.00     0.077 C 
ATOM      2  C1' PXY d   1       1.205  -3.320  -0.349  0.00  0.00     0.077 C 
ATOM      3  C1  PXY d   1       1.792  -1.958  -0.035  0.00  0.00    -0.082 A 
ATOM      4  C2  PXY d   1       1.010  -0.891  -0.043  0.00  0.00     0.003 A 
ATOM      5  C3  PXY d   1       1.532   0.352   0.207  0.00  0.00     0.003 A 
ATOM      6  C4  PXY d   1       2.856   0.498   0.522  0.00  0.00    -0.082 A 
ATOM      7  C5  PXY d   1       3.658  -0.588   0.543  0.00  0.00     0.003 A 
ATOM      8  C6  PXY d   1       3.118  -1.836   0.245  0.00  0.00     0.003 A 
ENDROOT
TORSDOF 0
ENDMDL
