MODEL 1
REMARK minimizedAffinity 16.7378349
REMARK minimizedRMSD -1
REMARK  0 active torsions:
REMARK  status: ('A' for Active; 'I' for Inactive)
ROOT
ATOM      1  C4' PXY d   1       3.152   1.827  -0.008  0.00  0.00     0.077 C 
ATOM      2  C1' PXY d   1       1.549  -3.689   0.636  0.00  0.00     0.077 C 
ATOM      3  C1  PXY d   1       1.972  -2.245   0.455  0.00  0.00    -0.082 A 
ATOM      4  C2  PXY d   1       2.450  -1.568   1.486  0.00  0.00     0.003 A 
ATOM      5  C3  PXY d   1       2.807  -0.252   1.347  0.00  0.00     0.003 A 
ATOM      6  C4  PXY d   1       2.722   0.364   0.127  0.00  0.00    -0.082 A 
ATOM      7  C5  PXY d   1       2.245  -0.322  -0.933  0.00  0.00     0.003 A 
ATOM      8  C6  PXY d   1       1.850  -1.646  -0.761  0.00  0.00     0.003 A 
ENDROOT
TORSDOF 0
ENDMDL
