MODEL 1
REMARK minimizedAffinity -1.43103898
REMARK minimizedRMSD -1
REMARK  0 active torsions:
REMARK  status: ('A' for Active; 'I' for Inactive)
ROOT
ATOM      1  C4' PXY d   1       2.076   2.013   0.210  0.00  0.00     0.077 C 
ATOM      2  C1' PXY d   1       1.220  -3.663  -0.476  0.00  0.00     0.077 C 
ATOM      3  C1  PXY d   1       1.449  -2.177  -0.284  0.00  0.00    -0.082 A 
ATOM      4  C2  PXY d   1       0.741  -1.309  -0.989  0.00  0.00     0.003 A 
ATOM      5  C3  PXY d   1       0.958   0.038  -0.851  0.00  0.00     0.003 A 
ATOM      6  C4  PXY d   1       1.872   0.503   0.056  0.00  0.00    -0.082 A 
ATOM      7  C5  PXY d   1       2.591  -0.376   0.786  0.00  0.00     0.003 A 
ATOM      8  C6  PXY d   1       2.385  -1.740   0.602  0.00  0.00     0.003 A 
ENDROOT
TORSDOF 0
ENDMDL
