MODEL 1
REMARK minimizedAffinity 7.68534422
REMARK minimizedRMSD -1
REMARK  0 active torsions:
REMARK  status: ('A' for Active; 'I' for Inactive)
ROOT
ATOM      1  C4' PXY d   1       2.263  -3.299  -0.721  0.00  0.00     0.077 C 
ATOM      2  C1' PXY d   1       2.552   1.872   1.847  0.00  0.00     0.077 C 
ATOM      3  C1  PXY d   1       2.487   0.512   1.180  0.00  0.00    -0.082 A 
ATOM      4  C2  PXY d   1       1.909   0.391  -0.004  0.00  0.00     0.003 A 
ATOM      5  C3  PXY d   1       1.813  -0.837  -0.607  0.00  0.00     0.003 A 
ATOM      6  C4  PXY d   1       2.361  -1.944  -0.015  0.00  0.00    -0.082 A 
ATOM      7  C5  PXY d   1       2.961  -1.827   1.188  0.00  0.00     0.003 A 
ATOM      8  C6  PXY d   1       3.012  -0.578   1.802  0.00  0.00     0.003 A 
ENDROOT
TORSDOF 0
ENDMDL
