MODEL 1
REMARK minimizedAffinity 6.94609118
REMARK minimizedRMSD -1
REMARK  0 active torsions:
REMARK  status: ('A' for Active; 'I' for Inactive)
ROOT
ATOM      1  C4' PXY d   1       1.529   2.874   0.283  0.00  0.00     0.077 C 
ATOM      2  C1' PXY d   1       2.395  -2.822  -0.189  0.00  0.00     0.077 C 
ATOM      3  C1  PXY d   1       2.156  -1.330  -0.070  0.00  0.00    -0.082 A 
ATOM      4  C2  PXY d   1       3.188  -0.502  -0.044  0.00  0.00     0.003 A 
ATOM      5  C3  PXY d   1       2.991   0.848   0.095  0.00  0.00     0.003 A 
ATOM      6  C4  PXY d   1       1.723   1.360   0.155  0.00  0.00    -0.082 A 
ATOM      7  C5  PXY d   1       0.665   0.523   0.118  0.00  0.00     0.003 A 
ATOM      8  C6  PXY d   1       0.887  -0.847   0.018  0.00  0.00     0.003 A 
ENDROOT
TORSDOF 0
ENDMDL
