MODEL 1
REMARK minimizedAffinity 4.98757458
REMARK minimizedRMSD -1
REMARK  0 active torsions:
REMARK  status: ('A' for Active; 'I' for Inactive)
ROOT
ATOM      1  C4' PXY d   1       4.857   0.044  -2.584  0.00  0.00     0.077 C 
ATOM      2  C1' PXY d   1       2.546  -1.284   2.545  0.00  0.00     0.077 C 
ATOM      3  C1  PXY d   1       3.151  -0.948   1.196  0.00  0.00    -0.082 A 
ATOM      4  C2  PXY d   1       3.955   0.096   1.081  0.00  0.00     0.003 A 
ATOM      5  C3  PXY d   1       4.485   0.433  -0.138  0.00  0.00     0.003 A 
ATOM      6  C4  PXY d   1       4.231  -0.338  -1.240  0.00  0.00    -0.082 A 
ATOM      7  C5  PXY d   1       3.420  -1.411  -1.129  0.00  0.00     0.003 A 
ATOM      8  C6  PXY d   1       2.860  -1.713   0.109  0.00  0.00     0.003 A 
ENDROOT
TORSDOF 0
ENDMDL
