MODEL 1
REMARK minimizedAffinity 10.9317551
REMARK minimizedRMSD -1
REMARK  0 active torsions:
REMARK  status: ('A' for Active; 'I' for Inactive)
ROOT
ATOM      1  C4' PXY d   1       1.006   1.209   5.314  0.00  0.00     0.077 C 
ATOM      2  C1' PXY d   1       0.211   2.189  -0.327  0.00  0.00     0.077 C 
ATOM      3  C1  PXY d   1       0.407   1.935   1.155  0.00  0.00    -0.082 A 
ATOM      4  C2  PXY d   1       1.610   2.070   1.688  0.00  0.00     0.003 A 
ATOM      5  C3  PXY d   1       1.811   1.812   3.020  0.00  0.00     0.003 A 
ATOM      6  C4  PXY d   1       0.760   1.465   3.825  0.00  0.00    -0.082 A 
ATOM      7  C5  PXY d   1      -0.473   1.335   3.290  0.00  0.00     0.003 A 
ATOM      8  C6  PXY d   1      -0.649   1.561   1.928  0.00  0.00     0.003 A 
ENDROOT
TORSDOF 0
ENDMDL
