MODEL 1
REMARK minimizedAffinity 2.44174743
REMARK minimizedRMSD -1
REMARK  0 active torsions:
REMARK  status: ('A' for Active; 'I' for Inactive)
ROOT
ATOM      1  C4' PXY d   1      -6.000   1.376   1.871  0.00  0.00     0.077 C 
ATOM      2  C1' PXY d   1      -5.667  -3.318  -1.486  0.00  0.00     0.077 C 
ATOM      3  C1  PXY d   1      -5.751  -2.080  -0.616  0.00  0.00    -0.082 A 
ATOM      4  C2  PXY d   1      -5.655  -2.197   0.699  0.00  0.00     0.003 A 
ATOM      5  C3  PXY d   1      -5.760  -1.091   1.503  0.00  0.00     0.003 A 
ATOM      6  C4  PXY d   1      -5.912   0.154   0.953  0.00  0.00    -0.082 A 
ATOM      7  C5  PXY d   1      -5.999   0.282  -0.388  0.00  0.00     0.003 A 
ATOM      8  C6  PXY d   1      -5.932  -0.857  -1.185  0.00  0.00     0.003 A 
ENDROOT
TORSDOF 0
ENDMDL
