MODEL 1
REMARK minimizedAffinity -0.515709519
REMARK minimizedRMSD -1
REMARK  0 active torsions:
REMARK  status: ('A' for Active; 'I' for Inactive)
ROOT
ATOM      1  C4' PXY d   1       0.747  -1.079  -0.060  0.00  0.00     0.077 C 
ATOM      2  C1' PXY d   1       5.407   1.187  -2.622  0.00  0.00     0.077 C 
ATOM      3  C1  PXY d   1       4.184   0.583  -1.960  0.00  0.00    -0.082 A 
ATOM      4  C2  PXY d   1       3.441   1.328  -1.158  0.00  0.00     0.003 A 
ATOM      5  C3  PXY d   1       2.350   0.789  -0.525  0.00  0.00     0.003 A 
ATOM      6  C4  PXY d   1       1.985  -0.510  -0.758  0.00  0.00    -0.082 A 
ATOM      7  C5  PXY d   1       2.733  -1.273  -1.584  0.00  0.00     0.003 A 
ATOM      8  C6  PXY d   1       3.860  -0.719  -2.184  0.00  0.00     0.003 A 
ENDROOT
TORSDOF 0
ENDMDL
