MODEL 1
REMARK minimizedAffinity 8.35549831
REMARK minimizedRMSD -1
REMARK  0 active torsions:
REMARK  status: ('A' for Active; 'I' for Inactive)
ROOT
ATOM      1  O1  BZF d   1       1.628  -4.611   0.599  0.00  0.00    -0.204 OA
ATOM      2  C2  BZF d   1       2.682  -3.858   0.119  0.00  0.00     0.174 A 
ATOM      3  C3  BZF d   1       2.419  -2.540   0.231  0.00  0.00    -0.012 A 
ATOM      4  C3A BZF d   1       1.158  -2.464   0.902  0.00  0.00    -0.107 A 
ATOM      5  C4  BZF d   1       0.375  -1.423   1.315  0.00  0.00     0.055 A 
ATOM      6  C5  BZF d   1      -0.834  -1.688   1.876  0.00  0.00    -0.016 A 
ATOM      7  C6  BZF d   1      -1.293  -2.979   2.035  0.00  0.00     0.022 A 
ATOM      8  C7  BZF d   1      -0.550  -4.044   1.646  0.00  0.00     0.029 A 
ATOM      9  C7A BZF d   1       0.686  -3.781   1.109  0.00  0.00     0.058 A 
ENDROOT
TORSDOF 0
ENDMDL
