MODEL 1
REMARK minimizedAffinity 2.62781096
REMARK minimizedRMSD -1
REMARK  0 active torsions:
REMARK  status: ('A' for Active; 'I' for Inactive)
ROOT
ATOM      1  O1  BZF d   1      -0.288   1.717  -3.187  0.00  0.00    -0.204 OA
ATOM      2  C2  BZF d   1       0.480   0.616  -3.512  0.00  0.00     0.174 A 
ATOM      3  C3  BZF d   1       0.080  -0.468  -2.818  0.00  0.00    -0.012 A 
ATOM      4  C3A BZF d   1      -1.065  -0.039  -2.076  0.00  0.00    -0.107 A 
ATOM      5  C4  BZF d   1      -1.914  -0.669  -1.211  0.00  0.00     0.055 A 
ATOM      6  C5  BZF d   1      -2.890   0.053  -0.600  0.00  0.00    -0.016 A 
ATOM      7  C6  BZF d   1      -3.042   1.405  -0.826  0.00  0.00     0.022 A 
ATOM      8  C7  BZF d   1      -2.227   2.073  -1.679  0.00  0.00     0.029 A 
ATOM      9  C7A BZF d   1      -1.261   1.339  -2.323  0.00  0.00     0.058 A 
ENDROOT
TORSDOF 0
ENDMDL
