MODEL 1
REMARK minimizedAffinity 6.56221771
REMARK minimizedRMSD -1
REMARK  0 active torsions:
REMARK  status: ('A' for Active; 'I' for Inactive)
ROOT
ATOM      1  O1  BZF d   1       3.057  -3.087  -0.684  0.00  0.00    -0.204 OA
ATOM      2  C2  BZF d   1       1.793  -3.406  -0.227  0.00  0.00     0.174 A 
ATOM      3  C3  BZF d   1       1.858  -4.316   0.766  0.00  0.00    -0.012 A 
ATOM      4  C3A BZF d   1       3.255  -4.513   1.004  0.00  0.00    -0.107 A 
ATOM      5  C4  BZF d   1       3.957  -5.288   1.882  0.00  0.00     0.055 A 
ATOM      6  C5  BZF d   1       5.314  -5.308   1.807  0.00  0.00    -0.016 A 
ATOM      7  C6  BZF d   1       5.999  -4.570   0.864  0.00  0.00     0.022 A 
ATOM      8  C7  BZF d   1       5.347  -3.782  -0.025  0.00  0.00     0.029 A 
ATOM      9  C7A BZF d   1       3.977  -3.735   0.070  0.00  0.00     0.058 A 
ENDROOT
TORSDOF 0
ENDMDL
