MODEL 1
REMARK minimizedAffinity 4.20409346
REMARK minimizedRMSD -1
REMARK  0 active torsions:
REMARK  status: ('A' for Active; 'I' for Inactive)
ROOT
ATOM      1  O1  BZF d   1       3.122   1.072  -0.011  0.00  0.00    -0.204 OA
ATOM      2  C2  BZF d   1       3.146   2.185   0.808  0.00  0.00     0.174 A 
ATOM      3  C3  BZF d   1       2.392   1.986   1.908  0.00  0.00    -0.012 A 
ATOM      4  C3A BZF d   1       1.939   0.632   1.814  0.00  0.00    -0.107 A 
ATOM      5  C4  BZF d   1       1.166  -0.158   2.616  0.00  0.00     0.055 A 
ATOM      6  C5  BZF d   1       0.850  -1.412   2.201  0.00  0.00    -0.016 A 
ATOM      7  C6  BZF d   1       1.286  -1.908   0.990  0.00  0.00     0.022 A 
ATOM      8  C7  BZF d   1       2.060  -1.164   0.162  0.00  0.00     0.029 A 
ATOM      9  C7A BZF d   1       2.408   0.093   0.593  0.00  0.00     0.058 A 
ENDROOT
TORSDOF 0
ENDMDL
