MODEL 1
REMARK minimizedAffinity 5.09162235
REMARK minimizedRMSD -1
REMARK  0 active torsions:
REMARK  status: ('A' for Active; 'I' for Inactive)
ROOT
ATOM      1  O1  BZF d   1      -1.995  -1.274  -3.766  0.00  0.00    -0.204 OA
ATOM      2  C2  BZF d   1      -1.581  -1.872  -4.941  0.00  0.00     0.174 A 
ATOM      3  C3  BZF d   1      -2.286  -1.403  -5.990  0.00  0.00    -0.012 A 
ATOM      4  C3A BZF d   1      -3.134  -0.385  -5.450  0.00  0.00    -0.107 A 
ATOM      5  C4  BZF d   1      -4.057   0.457  -6.000  0.00  0.00     0.055 A 
ATOM      6  C5  BZF d   1      -4.766   1.283  -5.185  0.00  0.00    -0.016 A 
ATOM      7  C6  BZF d   1      -4.582   1.288  -3.818  0.00  0.00     0.022 A 
ATOM      8  C7  BZF d   1      -3.674   0.473  -3.227  0.00  0.00     0.029 A 
ATOM      9  C7A BZF d   1      -2.932  -0.338  -4.051  0.00  0.00     0.058 A 
ENDROOT
TORSDOF 0
ENDMDL
