MODEL 1
REMARK minimizedAffinity 8.37011242
REMARK minimizedRMSD -1
REMARK  0 active torsions:
REMARK  status: ('A' for Active; 'I' for Inactive)
ROOT
ATOM      1  O1  BZF d   1       2.008  -4.486   0.475  0.00  0.00    -0.204 OA
ATOM      2  C2  BZF d   1       1.869  -3.291   1.153  0.00  0.00     0.174 A 
ATOM      3  C3  BZF d   1       3.060  -2.867   1.623  0.00  0.00    -0.012 A 
ATOM      4  C3A BZF d   1       4.016  -3.813   1.135  0.00  0.00    -0.107 A 
ATOM      5  C4  BZF d   1       5.372  -3.924   1.253  0.00  0.00     0.055 A 
ATOM      6  C5  BZF d   1       5.995  -5.006   0.718  0.00  0.00    -0.016 A 
ATOM      7  C6  BZF d   1       5.294  -5.997   0.063  0.00  0.00     0.022 A 
ATOM      8  C7  BZF d   1       3.949  -5.929  -0.084  0.00  0.00     0.029 A 
ATOM      9  C7A BZF d   1       3.320  -4.820   0.428  0.00  0.00     0.058 A 
ENDROOT
TORSDOF 0
ENDMDL
