MODEL 1
REMARK minimizedAffinity -1.12405944
REMARK minimizedRMSD -1
REMARK  0 active torsions:
REMARK  status: ('A' for Active; 'I' for Inactive)
ROOT
ATOM      1  O1  BZF d   1       2.062   0.029  -0.143  0.00  0.00    -0.204 OA
ATOM      2  C2  BZF d   1       2.984   0.247  -1.148  0.00  0.00     0.174 A 
ATOM      3  C3  BZF d   1       3.808  -0.812  -1.280  0.00  0.00    -0.012 A 
ATOM      4  C3A BZF d   1       3.315  -1.789  -0.358  0.00  0.00    -0.107 A 
ATOM      5  C4  BZF d   1       3.704  -3.059  -0.039  0.00  0.00     0.055 A 
ATOM      6  C5  BZF d   1       3.055  -3.717   0.957  0.00  0.00    -0.016 A 
ATOM      7  C6  BZF d   1       2.019  -3.136   1.657  0.00  0.00     0.022 A 
ATOM      8  C7  BZF d   1       1.594  -1.881   1.373  0.00  0.00     0.029 A 
ATOM      9  C7A BZF d   1       2.226  -1.225   0.344  0.00  0.00     0.058 A 
ENDROOT
TORSDOF 0
ENDMDL
