MODEL 1
REMARK minimizedAffinity 4.40069914
REMARK minimizedRMSD -1
REMARK  0 active torsions:
REMARK  status: ('A' for Active; 'I' for Inactive)
ROOT
ATOM      1  O1  BZF d   1       2.434   1.721   1.183  0.00  0.00    -0.204 OA
ATOM      2  C2  BZF d   1       3.223   1.590   0.056  0.00  0.00     0.174 A 
ATOM      3  C3  BZF d   1       3.256   0.307  -0.359  0.00  0.00    -0.012 A 
ATOM      4  C3A BZF d   1       2.363  -0.393   0.513  0.00  0.00    -0.107 A 
ATOM      5  C4  BZF d   1       1.960  -1.695   0.594  0.00  0.00     0.055 A 
ATOM      6  C5  BZF d   1       1.134  -2.069   1.607  0.00  0.00    -0.016 A 
ATOM      7  C6  BZF d   1       0.697  -1.169   2.556  0.00  0.00     0.022 A 
ATOM      8  C7  BZF d   1       1.065   0.135   2.514  0.00  0.00     0.029 A 
ATOM      9  C7A BZF d   1       1.873   0.522   1.473  0.00  0.00     0.058 A 
ENDROOT
TORSDOF 0
ENDMDL
