MODEL 1
REMARK minimizedAffinity 5.04896545
REMARK minimizedRMSD -1
REMARK  0 active torsions:
REMARK  status: ('A' for Active; 'I' for Inactive)
ROOT
ATOM      1  O1  BZF d   1       3.633   2.253   0.804  0.00  0.00    -0.204 OA
ATOM      2  C2  BZF d   1       3.707   1.614  -0.419  0.00  0.00     0.174 A 
ATOM      3  C3  BZF d   1       2.953   0.495  -0.420  0.00  0.00    -0.012 A 
ATOM      4  C3A BZF d   1       2.300   0.480   0.853  0.00  0.00    -0.107 A 
ATOM      5  C4  BZF d   1       1.409  -0.371   1.441  0.00  0.00     0.055 A 
ATOM      6  C5  BZF d   1       1.021  -0.139   2.723  0.00  0.00    -0.016 A 
ATOM      7  C6  BZF d   1       1.507   0.930   3.446  0.00  0.00     0.022 A 
ATOM      8  C7  BZF d   1       2.388   1.805   2.904  0.00  0.00     0.029 A 
ATOM      9  C7A BZF d   1       2.757   1.592   1.598  0.00  0.00     0.058 A 
ENDROOT
TORSDOF 0
ENDMDL
