MODEL 1
REMARK minimizedAffinity 2.80304432
REMARK minimizedRMSD -1
REMARK  0 active torsions:
REMARK  status: ('A' for Active; 'I' for Inactive)
ROOT
ATOM      1  O1  BZF d   1      -5.044   0.995  -5.999  0.00  0.00    -0.204 OA
ATOM      2  C2  BZF d   1      -6.000   1.383  -5.080  0.00  0.00     0.174 A 
ATOM      3  C3  BZF d   1      -5.780   0.798  -3.885  0.00  0.00    -0.012 A 
ATOM      4  C3A BZF d   1      -4.561   0.066  -4.043  0.00  0.00    -0.107 A 
ATOM      5  C4  BZF d   1      -3.817  -0.710  -3.201  0.00  0.00     0.055 A 
ATOM      6  C5  BZF d   1      -2.716  -1.343  -3.686  0.00  0.00    -0.016 A 
ATOM      7  C6  BZF d   1      -2.335  -1.226  -5.007  0.00  0.00     0.022 A 
ATOM      8  C7  BZF d   1      -3.039  -0.463  -5.878  0.00  0.00     0.029 A 
ATOM      9  C7A BZF d   1      -4.133   0.204  -5.383  0.00  0.00     0.058 A 
ENDROOT
TORSDOF 0
ENDMDL
