MODEL 1
REMARK minimizedAffinity -1.49319494
REMARK minimizedRMSD -1
REMARK  0 active torsions:
REMARK  status: ('A' for Active; 'I' for Inactive)
ROOT
ATOM      1  O1  BZF d   1       0.543  -1.324  -0.704  0.00  0.00    -0.204 OA
ATOM      2  C2  BZF d   1      -0.079  -1.330  -1.938  0.00  0.00     0.174 A 
ATOM      3  C3  BZF d   1      -1.374  -0.972  -1.822  0.00  0.00    -0.012 A 
ATOM      4  C3A BZF d   1      -1.551  -0.638  -0.442  0.00  0.00    -0.107 A 
ATOM      5  C4  BZF d   1      -2.616  -0.195   0.288  0.00  0.00     0.055 A 
ATOM      6  C5  BZF d   1      -2.477  -0.034   1.630  0.00  0.00    -0.016 A 
ATOM      7  C6  BZF d   1      -1.289  -0.311   2.274  0.00  0.00     0.022 A 
ATOM      8  C7  BZF d   1      -0.203  -0.748   1.592  0.00  0.00     0.029 A 
ATOM      9  C7A BZF d   1      -0.331  -0.880   0.231  0.00  0.00     0.058 A 
ENDROOT
TORSDOF 0
ENDMDL
