MODEL 1
REMARK minimizedAffinity 9.59321976
REMARK minimizedRMSD -1
REMARK  2 active torsions:
REMARK  status: ('A' for Active; 'I' for Inactive)
REMARK    1  A    between atoms: C1_2  and  C2_3 
REMARK    2  A    between atoms: C2_3  and  C3_4 
ROOT
ATOM      1  C3  UNL d   1       0.846  -2.190   1.781  0.00  0.00    -0.075 A 
ATOM      2  C4  UNL d   1       1.266  -1.428   0.681  0.00  0.00     0.002 A 
ATOM      3  C5  UNL d   1       2.199  -1.942  -0.220  0.00  0.00     0.002 A 
ATOM      4  C6  UNL d   1       2.730  -3.215  -0.028  0.00  0.00    -0.004 A 
ATOM      5  C7  UNL d   1       2.332  -3.974   1.071  0.00  0.00     0.002 A 
ATOM      6  C8  UNL d   1       1.396  -3.464   1.972  0.00  0.00     0.002 A 
ENDROOT
BRANCH   1   7
ATOM      7  C2  UNL d   1      -0.185  -1.651   2.744  0.00  0.00     0.056 C 
BRANCH   7   8
ATOM      8  C1  UNL d   1      -1.480  -2.469   2.792  0.00  0.00     0.007 C 
ATOM      9  C   UNL d   1      -2.549  -1.959   1.835  0.00  0.00     0.009 C 
ENDBRANCH   7   8
ENDBRANCH   1   7
TORSDOF 2
ENDMDL
