MODEL 1
REMARK minimizedAffinity 6.12214708
REMARK minimizedRMSD -1
REMARK  2 active torsions:
REMARK  status: ('A' for Active; 'I' for Inactive)
REMARK    1  A    between atoms: C1_2  and  C2_3 
REMARK    2  A    between atoms: C2_3  and  C3_4 
ROOT
ATOM      1  C3  UNL d   1       0.054  -1.811   2.393  0.00  0.00    -0.075 A 
ATOM      2  C4  UNL d   1       0.177  -1.378   1.064  0.00  0.00     0.002 A 
ATOM      3  C5  UNL d   1       1.137  -1.942   0.222  0.00  0.00     0.002 A 
ATOM      4  C6  UNL d   1       1.990  -2.934   0.699  0.00  0.00    -0.004 A 
ATOM      5  C7  UNL d   1       1.887  -3.360   2.021  0.00  0.00     0.002 A 
ATOM      6  C8  UNL d   1       0.926  -2.801   2.865  0.00  0.00     0.002 A 
ENDROOT
BRANCH   1   7
ATOM      7  C2  UNL d   1      -1.001  -1.226   3.301  0.00  0.00     0.056 C 
BRANCH   7   8
ATOM      8  C1  UNL d   1      -1.432   0.195   2.922  0.00  0.00     0.007 C 
ATOM      9  C   UNL d   1      -2.876   0.504   3.294  0.00  0.00     0.009 C 
ENDBRANCH   7   8
ENDBRANCH   1   7
TORSDOF 2
ENDMDL
