MODEL 1
REMARK minimizedAffinity 2.00613928
REMARK minimizedRMSD -1
REMARK  2 active torsions:
REMARK  status: ('A' for Active; 'I' for Inactive)
REMARK    1  A    between atoms: C1_2  and  C2_3 
REMARK    2  A    between atoms: C2_3  and  C3_4 
ROOT
ATOM      1  C3  UNL d   1       0.954  -2.100   1.966  0.00  0.00    -0.075 A 
ATOM      2  C4  UNL d   1       1.143  -3.475   1.763  0.00  0.00     0.002 A 
ATOM      3  C5  UNL d   1       1.987  -3.932   0.750  0.00  0.00     0.002 A 
ATOM      4  C6  UNL d   1       2.643  -3.024  -0.077  0.00  0.00    -0.004 A 
ATOM      5  C7  UNL d   1       2.450  -1.656   0.105  0.00  0.00     0.002 A 
ATOM      6  C8  UNL d   1       1.610  -1.196   1.120  0.00  0.00     0.002 A 
ENDROOT
BRANCH   1   7
ATOM      7  C2  UNL d   1       0.066  -1.599   3.079  0.00  0.00     0.056 C 
BRANCH   7   8
ATOM      8  C1  UNL d   1      -0.616  -0.260   2.778  0.00  0.00     0.007 C 
ATOM      9  C   UNL d   1      -2.016  -0.415   2.201  0.00  0.00     0.009 C 
ENDBRANCH   7   8
ENDBRANCH   1   7
TORSDOF 2
ENDMDL
