MODEL 1
REMARK minimizedAffinity 4.73501587
REMARK minimizedRMSD -1
REMARK  2 active torsions:
REMARK  status: ('A' for Active; 'I' for Inactive)
REMARK    1  A    between atoms: C1_2  and  C2_3 
REMARK    2  A    between atoms: C2_3  and  C3_4 
ROOT
ATOM      1  C3  UNL d   1      -0.849  -0.998   2.407  0.00  0.00    -0.075 A 
ATOM      2  C4  UNL d   1      -1.151   0.084   3.247  0.00  0.00     0.002 A 
ATOM      3  C5  UNL d   1      -2.350   0.782   3.100  0.00  0.00     0.002 A 
ATOM      4  C6  UNL d   1      -3.255   0.416   2.107  0.00  0.00    -0.004 A 
ATOM      5  C7  UNL d   1      -2.958  -0.646   1.256  0.00  0.00     0.002 A 
ATOM      6  C8  UNL d   1      -1.761  -1.350   1.404  0.00  0.00     0.002 A 
ENDROOT
BRANCH   1   7
ATOM      7  C2  UNL d   1       0.434  -1.776   2.580  0.00  0.00     0.056 C 
BRANCH   7   8
ATOM      8  C1  UNL d   1       1.146  -2.105   1.264  0.00  0.00     0.007 C 
ATOM      9  C   UNL d   1       2.015  -3.353   1.348  0.00  0.00     0.009 C 
ENDBRANCH   7   8
ENDBRANCH   1   7
TORSDOF 2
ENDMDL
