MODEL 1
REMARK minimizedAffinity 3.6294558
REMARK minimizedRMSD -1
REMARK  2 active torsions:
REMARK  status: ('A' for Active; 'I' for Inactive)
REMARK    1  A    between atoms: C1_2  and  C2_3 
REMARK    2  A    between atoms: C2_3  and  C3_4 
ROOT
ATOM      1  C3  UNL d   1       0.041   2.316  -3.633  0.00  0.00    -0.075 A 
ATOM      2  C4  UNL d   1       0.823   3.447  -3.356  0.00  0.00     0.002 A 
ATOM      3  C5  UNL d   1       1.676   3.973  -4.327  0.00  0.00     0.002 A 
ATOM      4  C6  UNL d   1       1.765   3.371  -5.580  0.00  0.00    -0.004 A 
ATOM      5  C7  UNL d   1       1.005   2.237  -5.860  0.00  0.00     0.002 A 
ATOM      6  C8  UNL d   1       0.148   1.712  -4.892  0.00  0.00     0.002 A 
ENDROOT
BRANCH   1   7
ATOM      7  C2  UNL d   1      -0.906   1.760  -2.596  0.00  0.00     0.056 C 
BRANCH   7   8
ATOM      8  C1  UNL d   1      -2.388   1.945  -2.942  0.00  0.00     0.007 C 
ATOM      9  C   UNL d   1      -2.782   3.403  -3.134  0.00  0.00     0.009 C 
ENDBRANCH   7   8
ENDBRANCH   1   7
TORSDOF 2
ENDMDL
