MODEL 1
REMARK minimizedAffinity 9.94256592
REMARK minimizedRMSD -1
REMARK  2 active torsions:
REMARK  status: ('A' for Active; 'I' for Inactive)
REMARK    1  A    between atoms: C1_2  and  C2_3 
REMARK    2  A    between atoms: C2_3  and  C3_4 
ROOT
ATOM      1  C3  UNL d   1       0.434  -2.534   1.881  0.00  0.00    -0.075 A 
ATOM      2  C4  UNL d   1       1.130  -3.752   1.873  0.00  0.00     0.002 A 
ATOM      3  C5  UNL d   1       2.057  -4.031   0.869  0.00  0.00     0.002 A 
ATOM      4  C6  UNL d   1       2.292  -3.105  -0.145  0.00  0.00    -0.004 A 
ATOM      5  C7  UNL d   1       1.594  -1.899  -0.156  0.00  0.00     0.002 A 
ATOM      6  C8  UNL d   1       0.669  -1.614   0.850  0.00  0.00     0.002 A 
ENDROOT
BRANCH   1   7
ATOM      7  C2  UNL d   1      -0.549  -2.213   2.981  0.00  0.00     0.056 C 
BRANCH   7   8
ATOM      8  C1  UNL d   1      -1.774  -3.132   3.011  0.00  0.00     0.007 C 
ATOM      9  C   UNL d   1      -2.992  -2.531   2.323  0.00  0.00     0.009 C 
ENDBRANCH   7   8
ENDBRANCH   1   7
TORSDOF 2
ENDMDL
