MODEL 1
REMARK minimizedAffinity 0.695672989
REMARK minimizedRMSD -1
REMARK  0 active torsions:
REMARK  status: ('A' for Active; 'I' for Inactive)
ROOT
ATOM      1  C1  BNZ d   1       0.429  -0.353   0.021  0.00  0.00     0.000 A 
ATOM      2  C2  BNZ d   1      -0.449  -0.727   1.004  0.00  0.00     0.000 A 
ATOM      3  C3  BNZ d   1      -1.595  -0.017   1.226  0.00  0.00     0.000 A 
ATOM      4  C4  BNZ d   1      -1.843   1.088   0.493  0.00  0.00     0.000 A 
ATOM      5  C5  BNZ d   1      -0.963   1.484  -0.495  0.00  0.00     0.000 A 
ATOM      6  C6  BNZ d   1       0.171   0.744  -0.742  0.00  0.00     0.000 A 
ENDROOT
TORSDOF 0
ENDMDL
