MODEL 1
REMARK minimizedAffinity 2.0031898
REMARK minimizedRMSD -1
REMARK  0 active torsions:
REMARK  status: ('A' for Active; 'I' for Inactive)
ROOT
ATOM      1  C1  BNZ d   1       2.149  -4.676  -5.945  0.00  0.00     0.000 A 
ATOM      2  C2  BNZ d   1       2.908  -4.856  -4.819  0.00  0.00     0.000 A 
ATOM      3  C3  BNZ d   1       2.413  -5.536  -3.742  0.00  0.00     0.000 A 
ATOM      4  C4  BNZ d   1       1.147  -5.999  -3.775  0.00  0.00     0.000 A 
ATOM      5  C5  BNZ d   1       0.365  -5.818  -4.899  0.00  0.00     0.000 A 
ATOM      6  C6  BNZ d   1       0.881  -5.167  -5.996  0.00  0.00     0.000 A 
ENDROOT
TORSDOF 0
ENDMDL
