MODEL 1
REMARK minimizedAffinity 1.93385386
REMARK minimizedRMSD -1
REMARK  0 active torsions:
REMARK  status: ('A' for Active; 'I' for Inactive)
ROOT
ATOM      1  C1  BNZ d   1       0.348  -0.015  -0.021  0.00  0.00     0.000 A 
ATOM      2  C2  BNZ d   1      -0.223   0.623   1.048  0.00  0.00     0.000 A 
ATOM      3  C3  BNZ d   1      -1.582   0.716   1.163  0.00  0.00     0.000 A 
ATOM      4  C4  BNZ d   1      -2.366   0.206   0.191  0.00  0.00     0.000 A 
ATOM      5  C5  BNZ d   1      -1.805  -0.431  -0.897  0.00  0.00     0.000 A 
ATOM      6  C6  BNZ d   1      -0.438  -0.557  -0.991  0.00  0.00     0.000 A 
ENDROOT
TORSDOF 0
ENDMDL
