MODEL 1
REMARK minimizedAffinity -4.86914062
REMARK minimizedRMSD -1
REMARK  0 active torsions:
REMARK  status: ('A' for Active; 'I' for Inactive)
ROOT
ATOM      1  C1  BNZ d   1       0.569   0.444   1.021  0.00  0.00     0.000 A 
ATOM      2  C2  BNZ d   1      -0.559   1.052   1.503  0.00  0.00     0.000 A 
ATOM      3  C3  BNZ d   1      -0.722   1.262   2.844  0.00  0.00     0.000 A 
ATOM      4  C4  BNZ d   1       0.223   0.829   3.703  0.00  0.00     0.000 A 
ATOM      5  C5  BNZ d   1       1.362   0.205   3.233  0.00  0.00     0.000 A 
ATOM      6  C6  BNZ d   1       1.541   0.031   1.880  0.00  0.00     0.000 A 
ENDROOT
TORSDOF 0
ENDMDL
