MODEL 1
REMARK minimizedAffinity -3.35043001
REMARK minimizedRMSD -1
REMARK  0 active torsions:
REMARK  status: ('A' for Active; 'I' for Inactive)
ROOT
ATOM      1  C1  BNZ d   1      -1.041   0.344   2.339  0.00  0.00     0.000 A 
ATOM      2  C2  BNZ d   1       0.119   0.223   1.621  0.00  0.00     0.000 A 
ATOM      3  C3  BNZ d   1       0.088  -0.061   0.284  0.00  0.00     0.000 A 
ATOM      4  C4  BNZ d   1      -1.099  -0.264  -0.324  0.00  0.00     0.000 A 
ATOM      5  C5  BNZ d   1      -2.276  -0.155   0.388  0.00  0.00     0.000 A 
ATOM      6  C6  BNZ d   1      -2.244   0.169   1.725  0.00  0.00     0.000 A 
ENDROOT
TORSDOF 0
ENDMDL
