MODEL 1
REMARK minimizedAffinity -0.395595849
REMARK minimizedRMSD -1
REMARK  0 active torsions:
REMARK  status: ('A' for Active; 'I' for Inactive)
ROOT
ATOM      1  C1  BNZ d   1      -0.462   0.288  -0.108  0.00  0.00     0.000 A 
ATOM      2  C2  BNZ d   1       0.511  -0.158  -0.963  0.00  0.00     0.000 A 
ATOM      3  C3  BNZ d   1       1.713  -0.599  -0.486  0.00  0.00     0.000 A 
ATOM      4  C4  BNZ d   1       1.957  -0.556   0.840  0.00  0.00     0.000 A 
ATOM      5  C5  BNZ d   1       0.990  -0.100   1.714  0.00  0.00     0.000 A 
ATOM      6  C6  BNZ d   1      -0.233   0.307   1.234  0.00  0.00     0.000 A 
ENDROOT
TORSDOF 0
ENDMDL
