MODEL 1
REMARK minimizedAffinity -4.41585255
REMARK minimizedRMSD -1
REMARK  0 active torsions:
REMARK  status: ('A' for Active; 'I' for Inactive)
ROOT
ATOM      1  C1  BNZ d   1      -1.207   0.501   0.470  0.00  0.00     0.000 A 
ATOM      2  C2  BNZ d   1      -1.399   0.820   1.788  0.00  0.00     0.000 A 
ATOM      3  C3  BNZ d   1      -0.338   0.936   2.641  0.00  0.00     0.000 A 
ATOM      4  C4  BNZ d   1       0.908   0.693   2.187  0.00  0.00     0.000 A 
ATOM      5  C5  BNZ d   1       1.117   0.361   0.863  0.00  0.00     0.000 A 
ATOM      6  C6  BNZ d   1       0.050   0.284  -0.003  0.00  0.00     0.000 A 
ENDROOT
TORSDOF 0
ENDMDL
