MODEL 1
REMARK minimizedAffinity -4.71269083
REMARK minimizedRMSD -1
REMARK  0 active torsions:
REMARK  status: ('A' for Active; 'I' for Inactive)
ROOT
ATOM      1  C1  BNZ d   1       1.147   0.480   2.751  0.00  0.00     0.000 A 
ATOM      2  C2  BNZ d   1       1.237   0.176   1.419  0.00  0.00     0.000 A 
ATOM      3  C3  BNZ d   1       0.232   0.510   0.555  0.00  0.00     0.000 A 
ATOM      4  C4  BNZ d   1      -0.878   1.112   1.030  0.00  0.00     0.000 A 
ATOM      5  C5  BNZ d   1      -0.987   1.417   2.372  0.00  0.00     0.000 A 
ATOM      6  C6  BNZ d   1       0.043   1.113   3.232  0.00  0.00     0.000 A 
ENDROOT
TORSDOF 0
ENDMDL
