MODEL 1
REMARK minimizedAffinity -3.97912216
REMARK minimizedRMSD -1
REMARK  0 active torsions:
REMARK  status: ('A' for Active; 'I' for Inactive)
ROOT
ATOM      1  C1  BNZ d   1       0.294   1.270   1.926  0.00  0.00     0.000 A 
ATOM      2  C2  BNZ d   1      -0.647   0.925   2.860  0.00  0.00     0.000 A 
ATOM      3  C3  BNZ d   1      -1.567  -0.051   2.599  0.00  0.00     0.000 A 
ATOM      4  C4  BNZ d   1      -1.570  -0.653   1.392  0.00  0.00     0.000 A 
ATOM      5  C5  BNZ d   1      -0.634  -0.311   0.437  0.00  0.00     0.000 A 
ATOM      6  C6  BNZ d   1       0.315   0.645   0.717  0.00  0.00     0.000 A 
ENDROOT
TORSDOF 0
ENDMDL
