MODEL 1
REMARK minimizedAffinity -3.99231577
REMARK minimizedRMSD -1
REMARK  0 active torsions:
REMARK  status: ('A' for Active; 'I' for Inactive)
ROOT
ATOM      1  C1  BNZ d   1       1.064  -0.927   2.091  0.00  0.00     0.000 A 
ATOM      2  C2  BNZ d   1      -0.024  -0.366   2.706  0.00  0.00     0.000 A 
ATOM      3  C3  BNZ d   1      -1.119   0.013   1.981  0.00  0.00     0.000 A 
ATOM      4  C4  BNZ d   1      -1.110  -0.132   0.641  0.00  0.00     0.000 A 
ATOM      5  C5  BNZ d   1      -0.017  -0.688   0.005  0.00  0.00     0.000 A 
ATOM      6  C6  BNZ d   1       1.068  -1.104   0.742  0.00  0.00     0.000 A 
ENDROOT
TORSDOF 0
ENDMDL
