MODEL 1
REMARK minimizedAffinity -3.21251869
REMARK minimizedRMSD -1
REMARK  1 active torsions:
REMARK  status: ('A' for Active; 'I' for Inactive)
REMARK    1  A    between atoms: N_2  and  C1_3 
ROOT
ATOM      1  C1  UNL d   1       0.372   0.531   1.575  0.00  0.00     0.143 A 
ATOM      2  C2  UNL d   1      -0.724   0.629   2.439  0.00  0.00    -0.057 A 
ATOM      3  C3  UNL d   1      -1.969   0.086   2.097  0.00  0.00     0.033 A 
ATOM      4  C4  UNL d   1      -2.147  -0.542   0.869  0.00  0.00    -0.042 A 
ATOM      5  C5  UNL d   1      -1.078  -0.629  -0.016  0.00  0.00     0.033 A 
ATOM      6  C6  UNL d   1       0.164  -0.090   0.333  0.00  0.00    -0.057 A 
ENDROOT
BRANCH   1   7
ATOM      7  N   UNL d   1       1.608   1.137   1.815  0.00  0.00    -0.732 N 
ATOM      8  C   UNL d   1       2.633   1.149   0.793  0.00  0.00     0.284 C 
ATOM      9  H3  UNL d   1       1.519   2.012   2.325  0.00  0.00     0.395 HD
ENDBRANCH   1   7
TORSDOF 1
ENDMDL
