MODEL 1
REMARK minimizedAffinity -3.46875978
REMARK minimizedRMSD -1
REMARK  1 active torsions:
REMARK  status: ('A' for Active; 'I' for Inactive)
REMARK    1  A    between atoms: N_2  and  C1_3 
ROOT
ATOM      1  C1  UNL d   1       0.485   0.808   0.812  0.00  0.00     0.143 A 
ATOM      2  C2  UNL d   1      -0.446  -0.050   0.217  0.00  0.00    -0.057 A 
ATOM      3  C3  UNL d   1      -1.623  -0.416   0.881  0.00  0.00     0.033 A 
ATOM      4  C4  UNL d   1      -1.876   0.047   2.168  0.00  0.00    -0.042 A 
ATOM      5  C5  UNL d   1      -0.953   0.881   2.788  0.00  0.00     0.033 A 
ATOM      6  C6  UNL d   1       0.217   1.249   2.118  0.00  0.00    -0.057 A 
ENDROOT
BRANCH   1   7
ATOM      7  N   UNL d   1       1.720   1.131   0.243  0.00  0.00    -0.732 N 
ATOM      8  C   UNL d   1       2.954   0.771   0.908  0.00  0.00     0.284 C 
ATOM      9  H3  UNL d   1       1.733   0.988  -0.764  0.00  0.00     0.395 HD
ENDBRANCH   1   7
TORSDOF 1
ENDMDL
