MODEL 1
REMARK minimizedAffinity -3.97790933
REMARK minimizedRMSD -1
REMARK  0 active torsions:
REMARK  status: ('A' for Active; 'I' for Inactive)
ROOT
ATOM      1  C1  BNZ d   1      -1.993   2.015   1.037  0.00  0.00     0.000 A 
ATOM      2  C2  BNZ d   1      -1.453   0.973   0.331  0.00  0.00     0.000 A 
ATOM      3  C3  BNZ d   1      -0.350   0.312   0.793  0.00  0.00     0.000 A 
ATOM      4  C4  BNZ d   1       0.236   0.718   1.938  0.00  0.00     0.000 A 
ATOM      5  C5  BNZ d   1      -0.291   1.773   2.657  0.00  0.00     0.000 A 
ATOM      6  C6  BNZ d   1      -1.425   2.411   2.209  0.00  0.00     0.000 A 
ENDROOT
TORSDOF 0
ENDMDL
