MODEL 1
REMARK minimizedAffinity -3.59499693
REMARK minimizedRMSD -1
REMARK  0 active torsions:
REMARK  status: ('A' for Active; 'I' for Inactive)
ROOT
ATOM      1  C1  BNZ d   1      -0.213   1.562  -1.676  0.00  0.00     0.000 A 
ATOM      2  C2  BNZ d   1      -1.086   2.014  -0.723  0.00  0.00     0.000 A 
ATOM      3  C3  BNZ d   1      -1.417   1.234   0.350  0.00  0.00     0.000 A 
ATOM      4  C4  BNZ d   1      -0.906  -0.011   0.447  0.00  0.00     0.000 A 
ATOM      5  C5  BNZ d   1      -0.031  -0.484  -0.511  0.00  0.00     0.000 A 
ATOM      6  C6  BNZ d   1       0.330   0.318  -1.569  0.00  0.00     0.000 A 
ENDROOT
TORSDOF 0
ENDMDL
