MODEL 1
REMARK minimizedAffinity -3.01395583
REMARK minimizedRMSD -1
REMARK  0 active torsions:
REMARK  status: ('A' for Active; 'I' for Inactive)
ROOT
ATOM      1  C1  BNZ d   1       0.790  -0.082   1.547  0.00  0.00     0.000 A 
ATOM      2  C2  BNZ d   1       0.624   1.109   2.204  0.00  0.00     0.000 A 
ATOM      3  C3  BNZ d   1      -0.338   1.996   1.811  0.00  0.00     0.000 A 
ATOM      4  C4  BNZ d   1      -1.106   1.711   0.740  0.00  0.00     0.000 A 
ATOM      5  C5  BNZ d   1      -0.944   0.519   0.061  0.00  0.00     0.000 A 
ATOM      6  C6  BNZ d   1      -0.000  -0.389   0.483  0.00  0.00     0.000 A 
ENDROOT
TORSDOF 0
ENDMDL
