MODEL 1
REMARK minimizedAffinity -3.58338857
REMARK minimizedRMSD -1
REMARK  0 active torsions:
REMARK  status: ('A' for Active; 'I' for Inactive)
ROOT
ATOM      1  C1  BNZ d   1      -1.441   2.151  -0.125  0.00  0.00     0.000 A 
ATOM      2  C2  BNZ d   1      -0.864   1.728  -1.293  0.00  0.00     0.000 A 
ATOM      3  C3  BNZ d   1       0.086   0.745  -1.289  0.00  0.00     0.000 A 
ATOM      4  C4  BNZ d   1       0.487   0.216  -0.116  0.00  0.00     0.000 A 
ATOM      5  C5  BNZ d   1      -0.078   0.638   1.071  0.00  0.00     0.000 A 
ATOM      6  C6  BNZ d   1      -1.062   1.600   1.060  0.00  0.00     0.000 A 
ENDROOT
TORSDOF 0
ENDMDL
