MODEL 1
REMARK minimizedAffinity -1.8473084
REMARK minimizedRMSD -1
REMARK  0 active torsions:
REMARK  status: ('A' for Active; 'I' for Inactive)
ROOT
ATOM      1  C1  BNZ d   1       0.533  -5.814  -0.413  0.00  0.00     0.000 A 
ATOM      2  C2  BNZ d   1      -0.466  -5.003  -0.880  0.00  0.00     0.000 A 
ATOM      3  C3  BNZ d   1      -0.207  -3.710  -1.242  0.00  0.00     0.000 A 
ATOM      4  C4  BNZ d   1       1.041  -3.219  -1.099  0.00  0.00     0.000 A 
ATOM      5  C5  BNZ d   1       2.057  -4.022  -0.621  0.00  0.00     0.000 A 
ATOM      6  C6  BNZ d   1       1.801  -5.334  -0.294  0.00  0.00     0.000 A 
ENDROOT
TORSDOF 0
ENDMDL
