MODEL 1
REMARK minimizedAffinity -2.53264666
REMARK minimizedRMSD -1
REMARK  0 active torsions:
REMARK  status: ('A' for Active; 'I' for Inactive)
ROOT
ATOM      1  C1  BNZ d   1       0.310   1.058  -1.374  0.00  0.00     0.000 A 
ATOM      2  C2  BNZ d   1      -0.211   2.297  -1.110  0.00  0.00     0.000 A 
ATOM      3  C3  BNZ d   1      -1.162   2.464  -0.143  0.00  0.00     0.000 A 
ATOM      4  C4  BNZ d   1      -1.619   1.389   0.531  0.00  0.00     0.000 A 
ATOM      5  C5  BNZ d   1      -1.110   0.132   0.270  0.00  0.00     0.000 A 
ATOM      6  C6  BNZ d   1      -0.125  -0.027  -0.677  0.00  0.00     0.000 A 
ENDROOT
TORSDOF 0
ENDMDL
