MODEL 1
REMARK minimizedAffinity -3.4376862
REMARK minimizedRMSD -1
REMARK  0 active torsions:
REMARK  status: ('A' for Active; 'I' for Inactive)
ROOT
ATOM      1  C1  BNZ d   1      -1.227   1.711  -0.727  0.00  0.00     0.000 A 
ATOM      2  C2  BNZ d   1      -0.401   1.205  -1.696  0.00  0.00     0.000 A 
ATOM      3  C3  BNZ d   1       0.417   0.142  -1.432  0.00  0.00     0.000 A 
ATOM      4  C4  BNZ d   1       0.438  -0.387  -0.192  0.00  0.00     0.000 A 
ATOM      5  C5  BNZ d   1      -0.382   0.118   0.798  0.00  0.00     0.000 A 
ATOM      6  C6  BNZ d   1      -1.232   1.163   0.518  0.00  0.00     0.000 A 
ENDROOT
TORSDOF 0
ENDMDL
