MODEL 1
REMARK minimizedAffinity -1.748384
REMARK minimizedRMSD -1
REMARK  0 active torsions:
REMARK  status: ('A' for Active; 'I' for Inactive)
ROOT
ATOM      1  C1  BNZ d   1       0.004   0.642  -1.609  0.00  0.00     0.000 A 
ATOM      2  C2  BNZ d   1      -0.735   1.795  -1.618  0.00  0.00     0.000 A 
ATOM      3  C3  BNZ d   1      -1.698   2.017  -0.674  0.00  0.00     0.000 A 
ATOM      4  C4  BNZ d   1      -1.949   1.069   0.252  0.00  0.00     0.000 A 
ATOM      5  C5  BNZ d   1      -1.219  -0.103   0.269  0.00  0.00     0.000 A 
ATOM      6  C6  BNZ d   1      -0.224  -0.306  -0.660  0.00  0.00     0.000 A 
ENDROOT
TORSDOF 0
ENDMDL
