MODEL 1
REMARK minimizedAffinity -2.31126261
REMARK minimizedRMSD -1
REMARK  0 active torsions:
REMARK  status: ('A' for Active; 'I' for Inactive)
ROOT
ATOM      1  C1  BNZ d   1       0.367   0.090  -1.004  0.00  0.00     0.000 A 
ATOM      2  C2  BNZ d   1      -0.139  -0.721  -0.023  0.00  0.00     0.000 A 
ATOM      3  C3  BNZ d   1      -1.225  -0.335   0.712  0.00  0.00     0.000 A 
ATOM      4  C4  BNZ d   1      -1.777   0.876   0.494  0.00  0.00     0.000 A 
ATOM      5  C5  BNZ d   1      -1.272   1.708  -0.485  0.00  0.00     0.000 A 
ATOM      6  C6  BNZ d   1      -0.204   1.300  -1.250  0.00  0.00     0.000 A 
ENDROOT
TORSDOF 0
ENDMDL
