MODEL 1
REMARK minimizedAffinity -2.25718522
REMARK minimizedRMSD -1
REMARK  0 active torsions:
REMARK  status: ('A' for Active; 'I' for Inactive)
ROOT
ATOM      1  C1  BNZ d   1      -0.160  -0.564   0.501  0.00  0.00     0.000 A 
ATOM      2  C2  BNZ d   1      -0.125  -0.145   1.804  0.00  0.00     0.000 A 
ATOM      3  C3  BNZ d   1      -0.343   1.167   2.123  0.00  0.00     0.000 A 
ATOM      4  C4  BNZ d   1      -0.556   2.062   1.138  0.00  0.00     0.000 A 
ATOM      5  C5  BNZ d   1      -0.585   1.657  -0.182  0.00  0.00     0.000 A 
ATOM      6  C6  BNZ d   1      -0.404   0.329  -0.496  0.00  0.00     0.000 A 
ENDROOT
TORSDOF 0
ENDMDL
