MODEL 1
REMARK minimizedAffinity 13.9451418
REMARK minimizedRMSD -1
REMARK  1 active torsions:
REMARK  status: ('A' for Active; 'I' for Inactive)
REMARK    1  A    between atoms: C1_2  and  C2_3 
ROOT
ATOM      1  C2  UNL d   1      -1.736  -5.990  -1.048  0.00  0.00    -0.073 A 
ATOM      2  C3  UNL d   1      -3.105  -5.996  -0.761  0.00  0.00    -0.002 A 
ATOM      3  C4  UNL d   1      -4.042  -5.993  -1.795  0.00  0.00     0.004 A 
ATOM      4  C5  UNL d   1      -3.620  -5.991  -3.125  0.00  0.00    -0.004 A 
ATOM      5  C6  UNL d   1      -2.256  -5.997  -3.432  0.00  0.00    -0.075 A 
ATOM      6  C7  UNL d   1      -1.786  -5.993  -4.857  0.00  0.00     0.076 C 
ATOM      7  C8  UNL d   1      -1.321  -5.997  -2.388  0.00  0.00     0.001 A 
ENDROOT
BRANCH   1   8
ATOM      8  C1  UNL d   1      -0.720  -6.000   0.065  0.00  0.00     0.053 C 
ATOM      9  C   UNL d   1       0.702  -5.878  -0.459  0.00  0.00     0.018 C 
ENDBRANCH   1   8
TORSDOF 1
ENDMDL
