MODEL 1
REMARK minimizedAffinity 13.9272966
REMARK minimizedRMSD -1
REMARK  1 active torsions:
REMARK  status: ('A' for Active; 'I' for Inactive)
REMARK    1  A    between atoms: C1_2  and  C2_3 
ROOT
ATOM      1  C2  UNL d   1      -5.088   0.373  -2.881  0.00  0.00    -0.073 A 
ATOM      2  C3  UNL d   1      -5.571   0.743  -1.621  0.00  0.00    -0.002 A 
ATOM      3  C4  UNL d   1      -4.721   0.745  -0.514  0.00  0.00     0.004 A 
ATOM      4  C5  UNL d   1      -3.382   0.385  -0.656  0.00  0.00    -0.004 A 
ATOM      5  C6  UNL d   1      -2.878   0.023  -1.909  0.00  0.00    -0.075 A 
ATOM      6  C7  UNL d   1      -1.439  -0.369  -2.079  0.00  0.00     0.076 C 
ATOM      7  C8  UNL d   1      -3.737   0.021  -3.016  0.00  0.00     0.001 A 
ENDROOT
BRANCH   1   8
ATOM      8  C1  UNL d   1      -6.000   0.376  -4.081  0.00  0.00     0.053 C 
ATOM      9  C   UNL d   1      -5.222   0.379  -5.388  0.00  0.00     0.018 C 
ENDBRANCH   1   8
TORSDOF 1
ENDMDL
