MODEL 1
REMARK minimizedAffinity 13.2727242
REMARK minimizedRMSD -1
REMARK  1 active torsions:
REMARK  status: ('A' for Active; 'I' for Inactive)
REMARK    1  A    between atoms: C1_2  and  C2_3 
ROOT
ATOM      1  C2  UNL d   1      -1.913  -5.406   3.217  0.00  0.00    -0.073 A 
ATOM      2  C3  UNL d   1      -2.199  -5.994   4.454  0.00  0.00    -0.002 A 
ATOM      3  C4  UNL d   1      -1.697  -5.438   5.632  0.00  0.00     0.004 A 
ATOM      4  C5  UNL d   1      -0.911  -4.287   5.585  0.00  0.00    -0.004 A 
ATOM      5  C6  UNL d   1      -0.624  -3.678   4.359  0.00  0.00    -0.075 A 
ATOM      6  C7  UNL d   1       0.222  -2.441   4.292  0.00  0.00     0.076 C 
ATOM      7  C8  UNL d   1      -1.129  -4.244   3.181  0.00  0.00     0.001 A 
ENDROOT
BRANCH   1   8
ATOM      8  C1  UNL d   1      -2.458  -5.999   1.943  0.00  0.00     0.053 C 
ATOM      9  C   UNL d   1      -1.595  -5.656   0.740  0.00  0.00     0.018 C 
ENDBRANCH   1   8
TORSDOF 1
ENDMDL
