MODEL 1
REMARK minimizedAffinity 18.8263435
REMARK minimizedRMSD -1
REMARK  1 active torsions:
REMARK  status: ('A' for Active; 'I' for Inactive)
REMARK    1  A    between atoms: C1_2  and  C2_3 
ROOT
ATOM      1  C2  UNL d   1       4.564   3.350   2.265  0.00  0.00    -0.073 A 
ATOM      2  C3  UNL d   1       3.444   4.132   2.570  0.00  0.00    -0.002 A 
ATOM      3  C4  UNL d   1       3.147   4.452   3.895  0.00  0.00     0.004 A 
ATOM      4  C5  UNL d   1       3.969   3.999   4.928  0.00  0.00    -0.004 A 
ATOM      5  C6  UNL d   1       5.099   3.225   4.642  0.00  0.00    -0.075 A 
ATOM      6  C7  UNL d   1       5.991   2.729   5.741  0.00  0.00     0.076 C 
ATOM      7  C8  UNL d   1       5.389   2.907   3.309  0.00  0.00     0.001 A 
ENDROOT
BRANCH   1   8
ATOM      8  C1  UNL d   1       4.892   3.008   0.835  0.00  0.00     0.053 C 
ATOM      9  C   UNL d   1       3.758   2.258   0.153  0.00  0.00     0.018 C 
ENDBRANCH   1   8
TORSDOF 1
ENDMDL
