MODEL 1
REMARK minimizedAffinity 10.7762403
REMARK minimizedRMSD -1
REMARK  0 active torsions:
REMARK  status: ('A' for Active; 'I' for Inactive)
ROOT
ATOM      1  N1  IND d   1       3.458   5.258  -0.926  0.00  0.00    -0.196 N 
ATOM      2  C2  IND d   1       2.356   4.504  -1.217  0.00  0.00     0.054 A 
ATOM      3  C3  IND d   1       2.391   4.097  -2.506  0.00  0.00    -0.031 A 
ATOM      4  C4  IND d   1       4.212   4.468  -4.288  0.00  0.00     0.051 A 
ATOM      5  C5  IND d   1       5.390   5.126  -4.504  0.00  0.00    -0.031 A 
ATOM      6  C6  IND d   1       5.998   5.874  -3.517  0.00  0.00     0.015 A 
ATOM      7  C7  IND d   1       5.454   5.984  -2.269  0.00  0.00    -0.016 A 
ATOM      8  C8  IND d   1       4.254   5.323  -2.048  0.00  0.00    -0.047 A 
ATOM      9  C9  IND d   1       3.610   4.597  -3.058  0.00  0.00    -0.096 A 
ATOM     10  HN1 IND d   1       3.626   5.629  -0.169  0.00  0.00     0.298 HD
ENDROOT
TORSDOF 0
ENDMDL
