MODEL 1
REMARK minimizedAffinity 10.9167309
REMARK minimizedRMSD -1
REMARK  0 active torsions:
REMARK  status: ('A' for Active; 'I' for Inactive)
ROOT
ATOM      1  N1  IND d   1      -4.218  -2.305  -4.272  0.00  0.00    -0.196 N 
ATOM      2  C2  IND d   1      -5.209  -1.559  -4.847  0.00  0.00     0.054 A 
ATOM      3  C3  IND d   1      -6.000  -2.340  -5.616  0.00  0.00    -0.031 A 
ATOM      4  C4  IND d   1      -5.915  -4.885  -5.994  0.00  0.00     0.051 A 
ATOM      5  C5  IND d   1      -5.165  -5.992  -5.709  0.00  0.00    -0.031 A 
ATOM      6  C6  IND d   1      -4.040  -5.926  -4.912  0.00  0.00     0.015 A 
ATOM      7  C7  IND d   1      -3.628  -4.746  -4.359  0.00  0.00    -0.016 A 
ATOM      8  C8  IND d   1      -4.383  -3.619  -4.652  0.00  0.00    -0.047 A 
ATOM      9  C9  IND d   1      -5.500  -3.673  -5.494  0.00  0.00    -0.096 A 
ATOM     10  HN1 IND d   1      -3.597  -2.005  -3.760  0.00  0.00     0.298 HD
ENDROOT
TORSDOF 0
ENDMDL
