MODEL 1
REMARK minimizedAffinity 9.5926609
REMARK minimizedRMSD -1
REMARK  0 active torsions:
REMARK  status: ('A' for Active; 'I' for Inactive)
ROOT
ATOM      1  N1  IND d   1       5.998   5.985  -4.569  0.00  0.00    -0.196 N 
ATOM      2  C2  IND d   1       5.214   5.577  -5.612  0.00  0.00     0.054 A 
ATOM      3  C3  IND d   1       4.043   5.080  -5.153  0.00  0.00    -0.031 A 
ATOM      4  C4  IND d   1       3.162   4.933  -2.739  0.00  0.00     0.051 A 
ATOM      5  C5  IND d   1       3.534   5.147  -1.441  0.00  0.00    -0.031 A 
ATOM      6  C6  IND d   1       4.771   5.665  -1.114  0.00  0.00     0.015 A 
ATOM      7  C7  IND d   1       5.681   6.000  -2.076  0.00  0.00    -0.016 A 
ATOM      8  C8  IND d   1       5.309   5.777  -3.394  0.00  0.00    -0.047 A 
ATOM      9  C9  IND d   1       4.072   5.212  -3.731  0.00  0.00    -0.096 A 
ATOM     10  HN1 IND d   1       6.788   6.317  -4.635  0.00  0.00     0.298 HD
ENDROOT
TORSDOF 0
ENDMDL
