MODEL 1
REMARK minimizedAffinity 12.1706305
REMARK minimizedRMSD -1
REMARK  0 active torsions:
REMARK  status: ('A' for Active; 'I' for Inactive)
ROOT
ATOM      1  N1  IND d   1       6.000  -1.822  -5.971  0.00  0.00    -0.196 N 
ATOM      2  C2  IND d   1       5.795  -2.854  -5.098  0.00  0.00     0.054 A 
ATOM      3  C3  IND d   1       5.049  -2.441  -4.048  0.00  0.00    -0.031 A 
ATOM      4  C4  IND d   1       3.973  -0.143  -3.610  0.00  0.00     0.051 A 
ATOM      5  C5  IND d   1       3.909   1.129  -4.107  0.00  0.00    -0.031 A 
ATOM      6  C6  IND d   1       4.550   1.488  -5.275  0.00  0.00     0.015 A 
ATOM      7  C7  IND d   1       5.272   0.583  -5.999  0.00  0.00    -0.016 A 
ATOM      8  C8  IND d   1       5.345  -0.708  -5.495  0.00  0.00    -0.047 A 
ATOM      9  C9  IND d   1       4.732  -1.068  -4.288  0.00  0.00    -0.096 A 
ATOM     10  HN1 IND d   1       6.461  -1.863  -6.696  0.00  0.00     0.298 HD
ENDROOT
TORSDOF 0
ENDMDL
