MODEL 1
REMARK minimizedAffinity 11.185647
REMARK minimizedRMSD -1
REMARK  0 active torsions:
REMARK  status: ('A' for Active; 'I' for Inactive)
ROOT
ATOM      1  N1  IND d   1       3.924   0.960  -0.342  0.00  0.00    -0.196 N 
ATOM      2  C2  IND d   1       3.651   2.270  -0.624  0.00  0.00     0.054 A 
ATOM      3  C3  IND d   1       2.700   2.743   0.213  0.00  0.00    -0.031 A 
ATOM      4  C4  IND d   1       1.527   1.573   2.183  0.00  0.00     0.051 A 
ATOM      5  C5  IND d   1       1.419   0.362   2.807  0.00  0.00    -0.031 A 
ATOM      6  C6  IND d   1       2.157  -0.733   2.406  0.00  0.00     0.015 A 
ATOM      7  C7  IND d   1       3.043  -0.654   1.370  0.00  0.00    -0.016 A 
ATOM      8  C8  IND d   1       3.151   0.572   0.730  0.00  0.00    -0.047 A 
ATOM      9  C9  IND d   1       2.373   1.675   1.104  0.00  0.00    -0.096 A 
ATOM     10  HN1 IND d   1       4.485   0.463  -0.764  0.00  0.00     0.298 HD
ENDROOT
TORSDOF 0
ENDMDL
