MODEL 1
REMARK minimizedAffinity 6.73802519
REMARK minimizedRMSD -1
REMARK  0 active torsions:
REMARK  status: ('A' for Active; 'I' for Inactive)
ROOT
ATOM      1  N1  IND d   1       3.536   2.162   0.419  0.00  0.00    -0.196 N 
ATOM      2  C2  IND d   1       2.495   2.926   0.869  0.00  0.00     0.054 A 
ATOM      3  C3  IND d   1       1.591   2.156   1.516  0.00  0.00    -0.031 A 
ATOM      4  C4  IND d   1       1.669  -0.363   2.044  0.00  0.00     0.051 A 
ATOM      5  C5  IND d   1       2.403  -1.491   1.807  0.00  0.00    -0.031 A 
ATOM      6  C6  IND d   1       3.577  -1.458   1.083  0.00  0.00     0.015 A 
ATOM      7  C7  IND d   1       4.069  -0.289   0.577  0.00  0.00    -0.016 A 
ATOM      8  C8  IND d   1       3.323   0.858   0.809  0.00  0.00    -0.047 A 
ATOM      9  C9  IND d   1       2.108   0.824   1.507  0.00  0.00    -0.096 A 
ATOM     10  HN1 IND d   1       4.210   2.448  -0.031  0.00  0.00     0.298 HD
ENDROOT
TORSDOF 0
ENDMDL
