MODEL 1
REMARK minimizedAffinity 5.08589888
REMARK minimizedRMSD -1
REMARK  0 active torsions:
REMARK  status: ('A' for Active; 'I' for Inactive)
ROOT
ATOM      1  N1  IND d   1       2.711  -3.192   2.440  0.00  0.00    -0.196 N 
ATOM      2  C2  IND d   1       2.896  -2.783   1.148  0.00  0.00     0.054 A 
ATOM      3  C3  IND d   1       2.533  -1.488   1.009  0.00  0.00    -0.031 A 
ATOM      4  C4  IND d   1       1.706   0.179   2.787  0.00  0.00     0.051 A 
ATOM      5  C5  IND d   1       1.342   0.260   4.102  0.00  0.00    -0.031 A 
ATOM      6  C6  IND d   1       1.421  -0.828   4.948  0.00  0.00     0.015 A 
ATOM      7  C7  IND d   1       1.879  -2.039   4.511  0.00  0.00    -0.016 A 
ATOM      8  C8  IND d   1       2.242  -2.126   3.175  0.00  0.00    -0.047 A 
ATOM      9  C9  IND d   1       2.124  -1.037   2.301  0.00  0.00    -0.096 A 
ATOM     10  HN1 IND d   1       2.863  -3.983   2.742  0.00  0.00     0.298 HD
ENDROOT
TORSDOF 0
ENDMDL
