MODEL 1
REMARK minimizedAffinity 6.13880587
REMARK minimizedRMSD -1
REMARK  0 active torsions:
REMARK  status: ('A' for Active; 'I' for Inactive)
ROOT
ATOM      1  N1  IND d   1       2.637   1.597   0.873  0.00  0.00    -0.196 N 
ATOM      2  C2  IND d   1       2.630   2.834   0.291  0.00  0.00     0.054 A 
ATOM      3  C3  IND d   1       1.361   3.237   0.057  0.00  0.00    -0.031 A 
ATOM      4  C4  IND d   1      -0.859   2.071   0.640  0.00  0.00     0.051 A 
ATOM      5  C5  IND d   1      -1.364   0.906   1.145  0.00  0.00    -0.031 A 
ATOM      6  C6  IND d   1      -0.544  -0.108   1.598  0.00  0.00     0.015 A 
ATOM      7  C7  IND d   1       0.817   0.011   1.571  0.00  0.00    -0.016 A 
ATOM      8  C8  IND d   1       1.333   1.190   1.052  0.00  0.00    -0.047 A 
ATOM      9  C9  IND d   1       0.507   2.205   0.553  0.00  0.00    -0.096 A 
ATOM     10  HN1 IND d   1       3.337   1.148   1.090  0.00  0.00     0.298 HD
ENDROOT
TORSDOF 0
ENDMDL
