MODEL 1
REMARK minimizedAffinity -5.557271
REMARK minimizedRMSD -1
REMARK  0 active torsions:
REMARK  status: ('A' for Active; 'I' for Inactive)
ROOT
ATOM      1  N1  IND d   1      -5.648  -3.374  -5.152  0.00  0.00    -0.196 N 
ATOM      2  C2  IND d   1      -5.831  -4.431  -6.000  0.00  0.00     0.054 A 
ATOM      3  C3  IND d   1      -5.531  -5.592  -5.375  0.00  0.00    -0.031 A 
ATOM      4  C4  IND d   1      -4.818  -6.000  -2.935  0.00  0.00     0.051 A 
ATOM      5  C5  IND d   1      -4.481  -5.340  -1.787  0.00  0.00    -0.031 A 
ATOM      6  C6  IND d   1      -4.519  -3.963  -1.699  0.00  0.00     0.015 A 
ATOM      7  C7  IND d   1      -4.908  -3.193  -2.758  0.00  0.00    -0.016 A 
ATOM      8  C8  IND d   1      -5.244  -3.859  -3.927  0.00  0.00    -0.047 A 
ATOM      9  C9  IND d   1      -5.167  -5.253  -4.036  0.00  0.00    -0.096 A 
ATOM     10  HN1 IND d   1      -5.765  -2.546  -5.351  0.00  0.00     0.298 HD
ENDROOT
TORSDOF 0
ENDMDL
