MODEL 1
REMARK minimizedAffinity 1.2982167
REMARK minimizedRMSD -1
REMARK  0 active torsions:
REMARK  status: ('A' for Active; 'I' for Inactive)
ROOT
ATOM      1  N1  IND d   1      -5.700  -1.292  -3.804  0.00  0.00    -0.196 N 
ATOM      2  C2  IND d   1      -5.985  -1.808  -5.037  0.00  0.00     0.054 A 
ATOM      3  C3  IND d   1      -5.732  -0.894  -6.000  0.00  0.00    -0.031 A 
ATOM      4  C4  IND d   1      -4.747   1.475  -5.788  0.00  0.00     0.051 A 
ATOM      5  C5  IND d   1      -4.360   2.402  -4.861  0.00  0.00    -0.031 A 
ATOM      6  C6  IND d   1      -4.398   2.138  -3.507  0.00  0.00     0.015 A 
ATOM      7  C7  IND d   1      -4.816   0.929  -3.028  0.00  0.00    -0.016 A 
ATOM      8  C8  IND d   1      -5.216  -0.012  -3.966  0.00  0.00    -0.047 A 
ATOM      9  C9  IND d   1      -5.220   0.264  -5.339  0.00  0.00    -0.096 A 
ATOM     10  HN1 IND d   1      -5.804  -1.698  -3.053  0.00  0.00     0.298 HD
ENDROOT
TORSDOF 0
ENDMDL
