MODEL 1
REMARK minimizedAffinity -1.27278125
REMARK minimizedRMSD -1
REMARK  0 active torsions:
REMARK  status: ('A' for Active; 'I' for Inactive)
ROOT
ATOM      1  N1  IND d   1       3.040   3.852   0.336  0.00  0.00    -0.196 N 
ATOM      2  C2  IND d   1       1.983   4.682   0.086  0.00  0.00     0.054 A 
ATOM      3  C3  IND d   1       0.829   4.112   0.501  0.00  0.00    -0.031 A 
ATOM      4  C4  IND d   1       0.454   1.869   1.708  0.00  0.00     0.051 A 
ATOM      5  C5  IND d   1       1.113   0.746   2.121  0.00  0.00    -0.031 A 
ATOM      6  C6  IND d   1       2.475   0.598   1.960  0.00  0.00     0.015 A 
ATOM      7  C7  IND d   1       3.235   1.578   1.387  0.00  0.00    -0.016 A 
ATOM      8  C8  IND d   1       2.569   2.718   0.960  0.00  0.00    -0.047 A 
ATOM      9  C9  IND d   1       1.180   2.855   1.082  0.00  0.00    -0.096 A 
ATOM     10  HN1 IND d   1       3.861   4.012   0.137  0.00  0.00     0.298 HD
ENDROOT
TORSDOF 0
ENDMDL
