MODEL 1
REMARK minimizedAffinity 3.39619803
REMARK minimizedRMSD -1
REMARK  0 active torsions:
REMARK  status: ('A' for Active; 'I' for Inactive)
ROOT
ATOM      1  N1  IND d   1       1.387   0.209  -0.268  0.00  0.00    -0.196 N 
ATOM      2  C2  IND d   1       0.250  -0.468   0.074  0.00  0.00     0.054 A 
ATOM      3  C3  IND d   1      -0.473  -0.760  -1.030  0.00  0.00    -0.031 A 
ATOM      4  C4  IND d   1       0.069  -0.314  -3.507  0.00  0.00     0.051 A 
ATOM      5  C5  IND d   1       0.978   0.309  -4.315  0.00  0.00    -0.031 A 
ATOM      6  C6  IND d   1       2.094   0.941  -3.806  0.00  0.00     0.015 A 
ATOM      7  C7  IND d   1       2.350   0.963  -2.464  0.00  0.00    -0.016 A 
ATOM      8  C8  IND d   1       1.425   0.338  -1.639  0.00  0.00    -0.047 A 
ATOM      9  C9  IND d   1       0.268  -0.268  -2.147  0.00  0.00    -0.096 A 
ATOM     10  HN1 IND d   1       1.980   0.505   0.281  0.00  0.00     0.298 HD
ENDROOT
TORSDOF 0
ENDMDL
