MODEL 1
REMARK minimizedAffinity -2.74194074
REMARK minimizedRMSD -1
REMARK  0 active torsions:
REMARK  status: ('A' for Active; 'I' for Inactive)
ROOT
ATOM      1  N1  IND d   1      -3.067  -1.699   1.287  0.00  0.00    -0.196 N 
ATOM      2  C2  IND d   1      -3.375  -1.941   2.596  0.00  0.00     0.054 A 
ATOM      3  C3  IND d   1      -2.646  -1.141   3.407  0.00  0.00    -0.031 A 
ATOM      4  C4  IND d   1      -0.965   0.711   2.795  0.00  0.00     0.051 A 
ATOM      5  C5  IND d   1      -0.327   1.276   1.727  0.00  0.00    -0.031 A 
ATOM      6  C6  IND d   1      -0.576   0.873   0.432  0.00  0.00     0.015 A 
ATOM      7  C7  IND d   1      -1.486  -0.108   0.153  0.00  0.00    -0.016 A 
ATOM      8  C8  IND d   1      -2.131  -0.689   1.236  0.00  0.00    -0.047 A 
ATOM      9  C9  IND d   1      -1.850  -0.314   2.556  0.00  0.00    -0.096 A 
ATOM     10  HN1 IND d   1      -3.401  -2.108   0.609  0.00  0.00     0.298 HD
ENDROOT
TORSDOF 0
ENDMDL
