MODEL 1
REMARK minimizedAffinity -2.63305736
REMARK minimizedRMSD -1
REMARK  0 active torsions:
REMARK  status: ('A' for Active; 'I' for Inactive)
ROOT
ATOM      1  N1  IND d   1      -1.834   0.820   2.105  0.00  0.00    -0.196 N 
ATOM      2  C2  IND d   1      -1.044   1.336   3.094  0.00  0.00     0.054 A 
ATOM      3  C3  IND d   1       0.259   1.264   2.740  0.00  0.00    -0.031 A 
ATOM      4  C4  IND d   1       1.314   0.431   0.545  0.00  0.00     0.051 A 
ATOM      5  C5  IND d   1       0.999  -0.168  -0.643  0.00  0.00    -0.031 A 
ATOM      6  C6  IND d   1      -0.303  -0.472  -0.983  0.00  0.00     0.015 A 
ATOM      7  C7  IND d   1      -1.345  -0.176  -0.149  0.00  0.00    -0.016 A 
ATOM      8  C8  IND d   1      -1.028   0.426   1.060  0.00  0.00    -0.047 A 
ATOM      9  C9  IND d   1       0.296   0.698   1.429  0.00  0.00    -0.096 A 
ATOM     10  HN1 IND d   1      -2.691   0.753   2.131  0.00  0.00     0.298 HD
ENDROOT
TORSDOF 0
ENDMDL
