MODEL 1
REMARK minimizedAffinity -4.44899559
REMARK minimizedRMSD -1
REMARK  0 active torsions:
REMARK  status: ('A' for Active; 'I' for Inactive)
ROOT
ATOM      1  N1  IND d   1       2.209   1.693  -2.949  0.00  0.00    -0.196 N 
ATOM      2  C2  IND d   1       1.561   1.635  -4.151  0.00  0.00     0.054 A 
ATOM      3  C3  IND d   1       0.291   1.203  -3.979  0.00  0.00    -0.031 A 
ATOM      4  C4  IND d   1      -0.963   0.632  -1.804  0.00  0.00     0.051 A 
ATOM      5  C5  IND d   1      -0.777   0.499  -0.457  0.00  0.00    -0.031 A 
ATOM      6  C6  IND d   1       0.438   0.765   0.141  0.00  0.00     0.015 A 
ATOM      7  C7  IND d   1       1.514   1.188  -0.588  0.00  0.00    -0.016 A 
ATOM      8  C8  IND d   1       1.330   1.317  -1.957  0.00  0.00    -0.047 A 
ATOM      9  C9  IND d   1       0.112   1.007  -2.575  0.00  0.00    -0.096 A 
ATOM     10  HN1 IND d   1       3.029   1.926  -2.832  0.00  0.00     0.298 HD
ENDROOT
TORSDOF 0
ENDMDL
