MODEL 1
REMARK minimizedAffinity -0.536743879
REMARK minimizedRMSD -1
REMARK  0 active torsions:
REMARK  status: ('A' for Active; 'I' for Inactive)
ROOT
ATOM      1  N1  IND d   1       1.014  -1.041  -1.121  0.00  0.00    -0.196 N 
ATOM      2  C2  IND d   1      -0.105  -0.730  -1.842  0.00  0.00     0.054 A 
ATOM      3  C3  IND d   1      -0.912   0.087  -1.129  0.00  0.00    -0.031 A 
ATOM      4  C4  IND d   1      -0.546   1.123   1.199  0.00  0.00     0.051 A 
ATOM      5  C5  IND d   1       0.311   1.105   2.264  0.00  0.00    -0.031 A 
ATOM      6  C6  IND d   1       1.471   0.358   2.253  0.00  0.00     0.015 A 
ATOM      7  C7  IND d   1       1.825  -0.394   1.168  0.00  0.00    -0.016 A 
ATOM      8  C8  IND d   1       0.953  -0.383   0.088  0.00  0.00    -0.047 A 
ATOM      9  C9  IND d   1      -0.247   0.340   0.110  0.00  0.00    -0.096 A 
ATOM     10  HN1 IND d   1       1.650  -1.559  -1.379  0.00  0.00     0.298 HD
ENDROOT
TORSDOF 0
ENDMDL
