MODEL 1
REMARK minimizedAffinity -2.76684165
REMARK minimizedRMSD -1
REMARK  0 active torsions:
REMARK  status: ('A' for Active; 'I' for Inactive)
ROOT
ATOM      1  N1  IND d   1       1.425   1.158   1.912  0.00  0.00    -0.196 N 
ATOM      2  C2  IND d   1       0.448   1.812   2.608  0.00  0.00     0.054 A 
ATOM      3  C3  IND d   1      -0.761   1.591   2.044  0.00  0.00    -0.031 A 
ATOM      4  C4  IND d   1      -1.381   0.106   0.035  0.00  0.00     0.051 A 
ATOM      5  C5  IND d   1      -0.824  -0.663  -0.948  0.00  0.00    -0.031 A 
ATOM      6  C6  IND d   1       0.537  -0.872  -1.028  0.00  0.00     0.015 A 
ATOM      7  C7  IND d   1       1.396  -0.325  -0.117  0.00  0.00    -0.016 A 
ATOM      8  C8  IND d   1       0.836   0.463   0.878  0.00  0.00    -0.047 A 
ATOM      9  C9  IND d   1      -0.541   0.712   0.940  0.00  0.00    -0.096 A 
ATOM     10  HN1 IND d   1       2.266   1.177   2.089  0.00  0.00     0.298 HD
ENDROOT
TORSDOF 0
ENDMDL
