MODEL 1
REMARK minimizedAffinity -3.25856805
REMARK minimizedRMSD -1
REMARK  0 active torsions:
REMARK  status: ('A' for Active; 'I' for Inactive)
ROOT
ATOM      1  N1  IND d   1       1.406  -0.470  -0.484  0.00  0.00    -0.196 N 
ATOM      2  C2  IND d   1       0.782  -1.144  -1.497  0.00  0.00     0.054 A 
ATOM      3  C3  IND d   1      -0.558  -1.126  -1.319  0.00  0.00    -0.031 A 
ATOM      4  C4  IND d   1      -1.949   0.037   0.509  0.00  0.00     0.051 A 
ATOM      5  C5  IND d   1      -1.824   0.744   1.672  0.00  0.00    -0.031 A 
ATOM      6  C6  IND d   1      -0.591   1.092   2.184  0.00  0.00     0.015 A 
ATOM      7  C7  IND d   1       0.568   0.754   1.544  0.00  0.00    -0.016 A 
ATOM      8  C8  IND d   1       0.445   0.030   0.367  0.00  0.00    -0.047 A 
ATOM      9  C9  IND d   1      -0.802  -0.363  -0.136  0.00  0.00    -0.096 A 
ATOM     10  HN1 IND d   1       2.256  -0.374  -0.394  0.00  0.00     0.298 HD
ENDROOT
TORSDOF 0
ENDMDL
