MODEL 1
REMARK minimizedAffinity -4.92025614
REMARK minimizedRMSD -1
REMARK  0 active torsions:
REMARK  status: ('A' for Active; 'I' for Inactive)
ROOT
ATOM      1  C2' OXE d   1       0.368   1.051  -0.073  0.00  0.00     0.078 C 
ATOM      2  C1' OXE d   1       1.136  -1.625   0.282  0.00  0.00     0.078 C 
ATOM      3  C1  OXE d   1      -0.069  -1.132   1.044  0.00  0.00    -0.078 A 
ATOM      4  C2  OXE d   1      -0.410   0.191   0.900  0.00  0.00    -0.078 A 
ATOM      5  C3  OXE d   1      -1.545   0.684   1.537  0.00  0.00     0.003 A 
ATOM      6  C4  OXE d   1      -2.253  -0.116   2.443  0.00  0.00    -0.002 A 
ATOM      7  C5  OXE d   1      -1.899  -1.455   2.634  0.00  0.00    -0.002 A 
ATOM      8  C6  OXE d   1      -0.838  -1.990   1.912  0.00  0.00     0.003 A 
ENDROOT
TORSDOF 0
ENDMDL
