MODEL 1
REMARK minimizedAffinity -2.81539559
REMARK minimizedRMSD -1
REMARK  0 active torsions:
REMARK  status: ('A' for Active; 'I' for Inactive)
ROOT
ATOM      1  C2' OXE d   1      -0.960   1.784   0.931  0.00  0.00     0.078 C 
ATOM      2  C1' OXE d   1       0.593   1.083  -1.300  0.00  0.00     0.078 C 
ATOM      3  C1  OXE d   1       0.164  -0.021  -0.367  0.00  0.00    -0.078 A 
ATOM      4  C2  OXE d   1      -0.556   0.337   0.748  0.00  0.00    -0.078 A 
ATOM      5  C3  OXE d   1      -1.023  -0.648   1.613  0.00  0.00     0.003 A 
ATOM      6  C4  OXE d   1      -0.637  -1.983   1.442  0.00  0.00    -0.002 A 
ATOM      7  C5  OXE d   1       0.130  -2.364   0.335  0.00  0.00    -0.002 A 
ATOM      8  C6  OXE d   1       0.501  -1.404  -0.600  0.00  0.00     0.003 A 
ENDROOT
TORSDOF 0
ENDMDL
