MODEL 1
REMARK minimizedAffinity -5.09071589
REMARK minimizedRMSD -1
REMARK  0 active torsions:
REMARK  status: ('A' for Active; 'I' for Inactive)
ROOT
ATOM      1  C2' OXE d   1       0.971  -1.825   0.062  0.00  0.00     0.078 C 
ATOM      2  C1' OXE d   1       0.226   0.843  -0.392  0.00  0.00     0.078 C 
ATOM      3  C1  OXE d   1      -0.664   0.005   0.490  0.00  0.00    -0.078 A 
ATOM      4  C2  OXE d   1      -0.317  -1.313   0.670  0.00  0.00    -0.078 A 
ATOM      5  C3  OXE d   1      -1.074  -2.116   1.518  0.00  0.00     0.003 A 
ATOM      6  C4  OXE d   1      -2.269  -1.637   2.068  0.00  0.00    -0.002 A 
ATOM      7  C5  OXE d   1      -2.662  -0.310   1.865  0.00  0.00    -0.002 A 
ATOM      8  C6  OXE d   1      -1.851   0.535   1.116  0.00  0.00     0.003 A 
ENDROOT
TORSDOF 0
ENDMDL
