MODEL 1
REMARK minimizedAffinity -4.92547417
REMARK minimizedRMSD -1
REMARK  0 active torsions:
REMARK  status: ('A' for Active; 'I' for Inactive)
ROOT
ATOM      1  C2' OXE d   1      -0.350   1.533   0.315  0.00  0.00     0.078 C 
ATOM      2  C1' OXE d   1      -2.715   0.760   1.616  0.00  0.00     0.078 C 
ATOM      3  C1  OXE d   1      -1.816  -0.329   1.085  0.00  0.00    -0.078 A 
ATOM      4  C2  OXE d   1      -0.684   0.060   0.409  0.00  0.00    -0.078 A 
ATOM      5  C3  OXE d   1       0.207  -0.904  -0.054  0.00  0.00     0.003 A 
ATOM      6  C4  OXE d   1      -0.114  -2.264   0.027  0.00  0.00    -0.002 A 
ATOM      7  C5  OXE d   1      -1.281  -2.680   0.677  0.00  0.00    -0.002 A 
ATOM      8  C6  OXE d   1      -2.120  -1.729   1.247  0.00  0.00     0.003 A 
ENDROOT
TORSDOF 0
ENDMDL
