MODEL 1
REMARK minimizedAffinity -0.356798947
REMARK minimizedRMSD -1
REMARK  0 active torsions:
REMARK  status: ('A' for Active; 'I' for Inactive)
ROOT
ATOM      1  C2' OXE d   1       0.579  -0.334   0.436  0.00  0.00     0.078 C 
ATOM      2  C1' OXE d   1       0.754   2.466   0.356  0.00  0.00     0.078 C 
ATOM      3  C1  OXE d   1       0.622   1.732  -0.955  0.00  0.00    -0.078 A 
ATOM      4  C2  OXE d   1       0.584   0.359  -0.909  0.00  0.00    -0.078 A 
ATOM      5  C3  OXE d   1       0.408  -0.365  -2.085  0.00  0.00     0.003 A 
ATOM      6  C4  OXE d   1       0.425   0.283  -3.326  0.00  0.00    -0.002 A 
ATOM      7  C5  OXE d   1       0.503   1.678  -3.397  0.00  0.00    -0.002 A 
ATOM      8  C6  OXE d   1       0.559   2.418  -2.221  0.00  0.00     0.003 A 
ENDROOT
TORSDOF 0
ENDMDL
