MODEL 1
REMARK minimizedAffinity -1.93884182
REMARK minimizedRMSD -1
REMARK  0 active torsions:
REMARK  status: ('A' for Active; 'I' for Inactive)
ROOT
ATOM      1  C2' OXE d   1       1.531  -1.766  -0.327  0.00  0.00     0.078 C 
ATOM      2  C1' OXE d   1       0.742   0.923  -0.490  0.00  0.00     0.078 C 
ATOM      3  C1  OXE d   1      -0.043   0.014   0.421  0.00  0.00    -0.078 A 
ATOM      4  C2  OXE d   1       0.321  -1.311   0.459  0.00  0.00    -0.078 A 
ATOM      5  C3  OXE d   1      -0.336  -2.181   1.325  0.00  0.00     0.003 A 
ATOM      6  C4  OXE d   1      -1.461  -1.755   2.041  0.00  0.00    -0.002 A 
ATOM      7  C5  OXE d   1      -1.873  -0.419   1.986  0.00  0.00    -0.002 A 
ATOM      8  C6  OXE d   1      -1.151   0.486   1.215  0.00  0.00     0.003 A 
ENDROOT
TORSDOF 0
ENDMDL
