MODEL 1
REMARK minimizedAffinity -1.91464925
REMARK minimizedRMSD -1
REMARK  0 active torsions:
REMARK  status: ('A' for Active; 'I' for Inactive)
ROOT
ATOM      1  C2' OXE d   1      -0.031   3.085  -3.032  0.00  0.00     0.078 C 
ATOM      2  C1' OXE d   1       1.713   1.068  -3.910  0.00  0.00     0.078 C 
ATOM      3  C1  OXE d   1       1.233   1.010  -2.482  0.00  0.00    -0.078 A 
ATOM      4  C2  OXE d   1       0.417   2.027  -2.047  0.00  0.00    -0.078 A 
ATOM      5  C3  OXE d   1      -0.099   1.993  -0.754  0.00  0.00     0.003 A 
ATOM      6  C4  OXE d   1       0.328   1.016   0.153  0.00  0.00    -0.002 A 
ATOM      7  C5  OXE d   1       1.190  -0.007  -0.257  0.00  0.00    -0.002 A 
ATOM      8  C6  OXE d   1       1.617  -0.048  -1.580  0.00  0.00     0.003 A 
ENDROOT
TORSDOF 0
ENDMDL
