MODEL 1
REMARK minimizedAffinity -5.30734491
REMARK minimizedRMSD -1
REMARK  0 active torsions:
REMARK  status: ('A' for Active; 'I' for Inactive)
ROOT
ATOM      1  C2' OXE d   1       1.147  -1.495   0.039  0.00  0.00     0.078 C 
ATOM      2  C1' OXE d   1       0.162   1.129   0.196  0.00  0.00     0.078 C 
ATOM      3  C1  OXE d   1      -0.603   0.047   0.915  0.00  0.00    -0.078 A 
ATOM      4  C2  OXE d   1      -0.140  -1.241   0.795  0.00  0.00    -0.078 A 
ATOM      5  C3  OXE d   1      -0.777  -2.270   1.483  0.00  0.00     0.003 A 
ATOM      6  C4  OXE d   1      -1.972  -2.029   2.172  0.00  0.00    -0.002 A 
ATOM      7  C5  OXE d   1      -2.482  -0.730   2.274  0.00  0.00    -0.002 A 
ATOM      8  C6  OXE d   1      -1.789   0.323   1.689  0.00  0.00     0.003 A 
ENDROOT
TORSDOF 0
ENDMDL
