MODEL 1
REMARK minimizedAffinity -1.92759311
REMARK minimizedRMSD -1
REMARK  0 active torsions:
REMARK  status: ('A' for Active; 'I' for Inactive)
ROOT
ATOM      1  C2' OXE d   1       2.193  -1.793  -0.225  0.00  0.00     0.078 C 
ATOM      2  C1' OXE d   1      -0.006  -2.269   1.453  0.00  0.00     0.078 C 
ATOM      3  C1  OXE d   1       0.101  -0.913   0.801  0.00  0.00    -0.078 A 
ATOM      4  C2  OXE d   1       1.205  -0.673   0.019  0.00  0.00    -0.078 A 
ATOM      5  C3  OXE d   1       1.325   0.542  -0.650  0.00  0.00     0.003 A 
ATOM      6  C4  OXE d   1       0.412   1.576  -0.412  0.00  0.00    -0.002 A 
ATOM      7  C5  OXE d   1      -0.698   1.366   0.413  0.00  0.00    -0.002 A 
ATOM      8  C6  OXE d   1      -0.891   0.116   0.992  0.00  0.00     0.003 A 
ENDROOT
TORSDOF 0
ENDMDL
