MODEL 1
REMARK minimizedAffinity 12.137599
REMARK minimizedRMSD -1
REMARK  0 active torsions:
REMARK  status: ('A' for Active; 'I' for Inactive)
ROOT
ATOM      1  C2' OXE d   1      -3.723  -2.303  -5.988  0.00  0.00     0.078 C 
ATOM      2  C1' OXE d   1      -4.985  -4.805  -5.836  0.00  0.00     0.078 C 
ATOM      3  C1  OXE d   1      -3.477  -4.778  -5.849  0.00  0.00    -0.078 A 
ATOM      4  C2  OXE d   1      -2.869  -3.552  -5.971  0.00  0.00    -0.078 A 
ATOM      5  C3  OXE d   1      -1.480  -3.465  -5.933  0.00  0.00     0.003 A 
ATOM      6  C4  OXE d   1      -0.697  -4.625  -5.928  0.00  0.00    -0.002 A 
ATOM      7  C5  OXE d   1      -1.297  -5.886  -5.844  0.00  0.00    -0.002 A 
ATOM      8  C6  OXE d   1      -2.682  -5.977  -5.761  0.00  0.00     0.003 A 
ENDROOT
TORSDOF 0
ENDMDL
