MODEL 1
REMARK minimizedAffinity -1.04216373
REMARK minimizedRMSD -1
REMARK  0 active torsions:
REMARK  status: ('A' for Active; 'I' for Inactive)
ROOT
ATOM      1  C2' OXE d   1       1.353   3.153  -2.789  0.00  0.00     0.078 C 
ATOM      2  C1' OXE d   1       0.442   0.858  -4.126  0.00  0.00     0.078 C 
ATOM      3  C1  OXE d   1       0.442   0.841  -2.617  0.00  0.00    -0.078 A 
ATOM      4  C2  OXE d   1       0.933   1.950  -1.972  0.00  0.00    -0.078 A 
ATOM      5  C3  OXE d   1       0.904   2.008  -0.582  0.00  0.00     0.003 A 
ATOM      6  C4  OXE d   1       0.523   0.888   0.167  0.00  0.00    -0.002 A 
ATOM      7  C5  OXE d   1       0.057  -0.267  -0.471  0.00  0.00    -0.002 A 
ATOM      8  C6  OXE d   1      -0.030  -0.291  -1.859  0.00  0.00     0.003 A 
ENDROOT
TORSDOF 0
ENDMDL
