MODEL 1
REMARK minimizedAffinity -1.77806509
REMARK minimizedRMSD -1
REMARK  0 active torsions:
REMARK  status: ('A' for Active; 'I' for Inactive)
ROOT
ATOM      1  C2' OXE d   1      -0.036   1.819   0.349  0.00  0.00     0.078 C 
ATOM      2  C1' OXE d   1      -2.265   0.701   1.640  0.00  0.00     0.078 C 
ATOM      3  C1  OXE d   1      -1.113  -0.213   1.306  0.00  0.00    -0.078 A 
ATOM      4  C2  OXE d   1      -0.047   0.333   0.633  0.00  0.00    -0.078 A 
ATOM      5  C3  OXE d   1       1.065  -0.455   0.348  0.00  0.00     0.003 A 
ATOM      6  C4  OXE d   1       1.044  -1.831   0.605  0.00  0.00    -0.002 A 
ATOM      7  C5  OXE d   1      -0.049  -2.415   1.254  0.00  0.00    -0.002 A 
ATOM      8  C6  OXE d   1      -1.115  -1.614   1.649  0.00  0.00     0.003 A 
ENDROOT
TORSDOF 0
ENDMDL
