MODEL 1
REMARK minimizedAffinity -0.924657166
REMARK minimizedRMSD -1
REMARK  0 active torsions:
REMARK  status: ('A' for Active; 'I' for Inactive)
ROOT
ATOM      1  C2' OXE d   1       2.103  -2.239   0.099  0.00  0.00     0.078 C 
ATOM      2  C1' OXE d   1      -0.418  -2.306   1.332  0.00  0.00     0.078 C 
ATOM      3  C1  OXE d   1       0.044  -0.995   0.747  0.00  0.00    -0.078 A 
ATOM      4  C2  OXE d   1       1.299  -0.960   0.188  0.00  0.00    -0.078 A 
ATOM      5  C3  OXE d   1       1.752   0.210  -0.415  0.00  0.00     0.003 A 
ATOM      6  C4  OXE d   1       1.006   1.392  -0.320  0.00  0.00    -0.002 A 
ATOM      7  C5  OXE d   1      -0.257   1.387   0.281  0.00  0.00    -0.002 A 
ATOM      8  C6  OXE d   1      -0.770   0.195   0.781  0.00  0.00     0.003 A 
ENDROOT
TORSDOF 0
ENDMDL
