MODEL 1
REMARK minimizedAffinity -3.51609278
REMARK minimizedRMSD -1
REMARK  0 active torsions:
REMARK  status: ('A' for Active; 'I' for Inactive)
ROOT
ATOM      1  C2' OXE d   1       1.055  -1.924   0.028  0.00  0.00     0.078 C 
ATOM      2  C1' OXE d   1       0.223   0.745  -0.230  0.00  0.00     0.078 C 
ATOM      3  C1  OXE d   1      -0.581  -0.159   0.672  0.00  0.00    -0.078 A 
ATOM      4  C2  OXE d   1      -0.194  -1.475   0.755  0.00  0.00    -0.078 A 
ATOM      5  C3  OXE d   1      -0.868  -2.338   1.615  0.00  0.00     0.003 A 
ATOM      6  C4  OXE d   1      -2.028  -1.917   2.276  0.00  0.00    -0.002 A 
ATOM      7  C5  OXE d   1      -2.462  -0.591   2.173  0.00  0.00    -0.002 A 
ATOM      8  C6  OXE d   1      -1.727   0.310   1.410  0.00  0.00     0.003 A 
ENDROOT
TORSDOF 0
ENDMDL
