MODEL 1
REMARK minimizedAffinity -3.84480429
REMARK minimizedRMSD -1
REMARK  0 active torsions:
REMARK  status: ('A' for Active; 'I' for Inactive)
ROOT
ATOM      1  C2' OXE d   1       0.256  -2.500   0.456  0.00  0.00     0.078 C 
ATOM      2  C1' OXE d   1       0.255   0.110  -0.576  0.00  0.00     0.078 C 
ATOM      3  C1  OXE d   1      -0.682  -0.195   0.565  0.00  0.00    -0.078 A 
ATOM      4  C2  OXE d   1      -0.709  -1.487   1.033  0.00  0.00    -0.078 A 
ATOM      5  C3  OXE d   1      -1.515  -1.810   2.120  0.00  0.00     0.003 A 
ATOM      6  C4  OXE d   1      -2.412  -0.870   2.642  0.00  0.00    -0.002 A 
ATOM      7  C5  OXE d   1      -2.430   0.441   2.154  0.00  0.00    -0.002 A 
ATOM      8  C6  OXE d   1      -1.543   0.805   1.146  0.00  0.00     0.003 A 
ENDROOT
TORSDOF 0
ENDMDL
