MODEL 1
REMARK minimizedAffinity -4.23467016
REMARK minimizedRMSD -1
REMARK  0 active torsions:
REMARK  status: ('A' for Active; 'I' for Inactive)
ROOT
ATOM      1  C2' OXE d   1       0.314   2.803   0.468  0.00  0.00     0.078 C 
ATOM      2  C1' OXE d   1       0.933   0.115  -0.054  0.00  0.00     0.078 C 
ATOM      3  C1  OXE d   1       0.709   1.026  -1.234  0.00  0.00    -0.078 A 
ATOM      4  C2  OXE d   1       0.361   2.329  -0.969  0.00  0.00    -0.078 A 
ATOM      5  C3  OXE d   1       0.196   3.226  -2.021  0.00  0.00     0.003 A 
ATOM      6  C4  OXE d   1       0.231   2.778  -3.347  0.00  0.00    -0.002 A 
ATOM      7  C5  OXE d   1       0.545   1.446  -3.638  0.00  0.00    -0.002 A 
ATOM      8  C6  OXE d   1       0.828   0.569  -2.596  0.00  0.00     0.003 A 
ENDROOT
TORSDOF 0
ENDMDL
