MODEL 1
REMARK minimizedAffinity -3.06144071
REMARK minimizedRMSD -1
REMARK  0 active torsions:
REMARK  status: ('A' for Active; 'I' for Inactive)
ROOT
ATOM      1  C2' OXE d   1       0.726   1.249  -0.640  0.00  0.00     0.078 C 
ATOM      2  C1' OXE d   1      -1.580   1.545   0.934  0.00  0.00     0.078 C 
ATOM      3  C1  OXE d   1      -0.891   0.204   0.941  0.00  0.00    -0.078 A 
ATOM      4  C2  OXE d   1       0.210   0.053   0.132  0.00  0.00    -0.078 A 
ATOM      5  C3  OXE d   1       0.914  -1.147   0.142  0.00  0.00     0.003 A 
ATOM      6  C4  OXE d   1       0.425  -2.250   0.852  0.00  0.00    -0.002 A 
ATOM      7  C5  OXE d   1      -0.717  -2.131   1.651  0.00  0.00    -0.002 A 
ATOM      8  C6  OXE d   1      -1.361  -0.901   1.740  0.00  0.00     0.003 A 
ENDROOT
TORSDOF 0
ENDMDL
