MODEL 1
REMARK minimizedAffinity -1.64038241
REMARK minimizedRMSD -1
REMARK  0 active torsions:
REMARK  status: ('A' for Active; 'I' for Inactive)
ROOT
ATOM      1  C2' OXE d   1       0.605  -0.340  -0.252  0.00  0.00     0.078 C 
ATOM      2  C1' OXE d   1       0.704   2.442   0.112  0.00  0.00     0.078 C 
ATOM      3  C1  OXE d   1       1.138   1.891  -1.223  0.00  0.00    -0.078 A 
ATOM      4  C2  OXE d   1       1.131   0.525  -1.376  0.00  0.00    -0.078 A 
ATOM      5  C3  OXE d   1       1.470  -0.032  -2.606  0.00  0.00     0.003 A 
ATOM      6  C4  OXE d   1       1.965   0.775  -3.638  0.00  0.00    -0.002 A 
ATOM      7  C5  OXE d   1       2.018   2.165  -3.489  0.00  0.00    -0.002 A 
ATOM      8  C6  OXE d   1       1.570   2.741  -2.306  0.00  0.00     0.003 A 
ENDROOT
TORSDOF 0
ENDMDL
