MODEL 1
REMARK minimizedAffinity 0.214825243
REMARK minimizedRMSD -1
REMARK  0 active torsions:
REMARK  status: ('A' for Active; 'I' for Inactive)
ROOT
ATOM      1  C2' OXE d   1       0.144   2.380  -3.517  0.00  0.00     0.078 C 
ATOM      2  C1' OXE d   1       2.770   1.548  -2.975  0.00  0.00     0.078 C 
ATOM      3  C1  OXE d   1       1.705   1.223  -1.957  0.00  0.00    -0.078 A 
ATOM      4  C2  OXE d   1       0.432   1.675  -2.209  0.00  0.00    -0.078 A 
ATOM      5  C3  OXE d   1      -0.599   1.355  -1.330  0.00  0.00     0.003 A 
ATOM      6  C4  OXE d   1      -0.323   0.712  -0.118  0.00  0.00    -0.002 A 
ATOM      7  C5  OXE d   1       0.974   0.278   0.177  0.00  0.00    -0.002 A 
ATOM      8  C6  OXE d   1       1.989   0.488  -0.750  0.00  0.00     0.003 A 
ENDROOT
TORSDOF 0
ENDMDL
