MODEL 1
REMARK minimizedAffinity 10.8646832
REMARK minimizedRMSD -1
REMARK  1 active torsions:
REMARK  status: ('A' for Active; 'I' for Inactive)
REMARK    1  A    between atoms: N_2  and  C1_3 
ROOT
ATOM      1  C1  UNL d   1       1.716   1.120   1.916  0.00  0.00     0.143 A 
ATOM      2  C2  UNL d   1       2.909   0.399   2.034  0.00  0.00    -0.057 A 
ATOM      3  C3  UNL d   1       3.749   0.199   0.932  0.00  0.00     0.033 A 
ATOM      4  C4  UNL d   1       3.395   0.694  -0.318  0.00  0.00    -0.042 A 
ATOM      5  C5  UNL d   1       2.202   1.393  -0.465  0.00  0.00     0.033 A 
ATOM      6  C6  UNL d   1       1.371   1.595   0.641  0.00  0.00    -0.057 A 
ENDROOT
BRANCH   1   7
ATOM      7  N   UNL d   1       0.791   1.269   2.952  0.00  0.00    -0.732 N 
ATOM      8  C   UNL d   1       0.992   0.603   4.221  0.00  0.00     0.284 C 
ATOM      9  H3  UNL d   1       0.448   2.224   3.033  0.00  0.00     0.395 HD
ENDBRANCH   1   7
TORSDOF 1
ENDMDL
