MODEL 1
REMARK minimizedAffinity 10.5729027
REMARK minimizedRMSD -1
REMARK  1 active torsions:
REMARK  status: ('A' for Active; 'I' for Inactive)
REMARK    1  A    between atoms: N_2  and  C1_3 
ROOT
ATOM      1  C1  UNL d   1       3.474  -0.146   1.629  0.00  0.00     0.143 A 
ATOM      2  C2  UNL d   1       3.583  -0.360   0.251  0.00  0.00    -0.057 A 
ATOM      3  C3  UNL d   1       4.831  -0.516  -0.364  0.00  0.00     0.033 A 
ATOM      4  C4  UNL d   1       5.999  -0.431   0.388  0.00  0.00    -0.042 A 
ATOM      5  C5  UNL d   1       5.916  -0.194   1.755  0.00  0.00     0.033 A 
ATOM      6  C6  UNL d   1       4.666  -0.046   2.364  0.00  0.00    -0.057 A 
ENDROOT
BRANCH   1   7
ATOM      7  N   UNL d   1       2.268   0.115   2.283  0.00  0.00    -0.732 N 
ATOM      8  C   UNL d   1       1.366   1.132   1.787  0.00  0.00     0.284 C 
ATOM      9  H3  UNL d   1       1.804  -0.735   2.596  0.00  0.00     0.395 HD
ENDBRANCH   1   7
TORSDOF 1
ENDMDL
