MODEL 1
REMARK minimizedAffinity 7.77575159
REMARK minimizedRMSD -1
REMARK  1 active torsions:
REMARK  status: ('A' for Active; 'I' for Inactive)
REMARK    1  A    between atoms: N_2  and  C1_3 
ROOT
ATOM      1  C1  UNL d   1       1.728   0.819   1.476  0.00  0.00     0.143 A 
ATOM      2  C2  UNL d   1       2.515  -0.217   0.961  0.00  0.00    -0.057 A 
ATOM      3  C3  UNL d   1       3.240  -0.056  -0.226  0.00  0.00     0.033 A 
ATOM      4  C4  UNL d   1       3.167   1.137  -0.937  0.00  0.00    -0.042 A 
ATOM      5  C5  UNL d   1       2.371   2.171  -0.457  0.00  0.00     0.033 A 
ATOM      6  C6  UNL d   1       1.655   2.007   0.732  0.00  0.00    -0.057 A 
ENDROOT
BRANCH   1   7
ATOM      7  N   UNL d   1       0.906   0.688   2.598  0.00  0.00    -0.732 N 
ATOM      8  C   UNL d   1       0.885  -0.545   3.356  0.00  0.00     0.284 C 
ATOM      9  H3  UNL d   1       0.894   1.528   3.171  0.00  0.00     0.395 HD
ENDBRANCH   1   7
TORSDOF 1
ENDMDL
