MODEL 1
REMARK minimizedAffinity 13.9642
REMARK minimizedRMSD -1
REMARK  1 active torsions:
REMARK  status: ('A' for Active; 'I' for Inactive)
REMARK    1  A    between atoms: N_2  and  C1_3 
ROOT
ATOM      1  C1  UNL d   1      -2.927  -3.025  -3.869  0.00  0.00     0.143 A 
ATOM      2  C2  UNL d   1      -3.756  -2.988  -2.742  0.00  0.00    -0.057 A 
ATOM      3  C3  UNL d   1      -3.824  -4.070  -1.856  0.00  0.00     0.033 A 
ATOM      4  C4  UNL d   1      -3.085  -5.223  -2.098  0.00  0.00    -0.042 A 
ATOM      5  C5  UNL d   1      -2.274  -5.291  -3.225  0.00  0.00     0.033 A 
ATOM      6  C6  UNL d   1      -2.205  -4.205  -4.103  0.00  0.00    -0.057 A 
ENDROOT
BRANCH   1   7
ATOM      7  N   UNL d   1      -2.890  -2.021  -4.840  0.00  0.00    -0.732 N 
ATOM      8  C   UNL d   1      -2.026  -2.144  -5.994  0.00  0.00     0.284 C 
ATOM      9  H3  UNL d   1      -3.814  -1.649  -5.050  0.00  0.00     0.395 HD
ENDBRANCH   1   7
TORSDOF 1
ENDMDL
