MODEL 1
REMARK minimizedAffinity 9.16107368
REMARK minimizedRMSD -1
REMARK  1 active torsions:
REMARK  status: ('A' for Active; 'I' for Inactive)
REMARK    1  A    between atoms: N_2  and  C1_3 
ROOT
ATOM      1  C1  UNL d   1      -3.280  -5.149   1.889  0.00  0.00     0.143 A 
ATOM      2  C2  UNL d   1      -3.287  -3.798   1.525  0.00  0.00    -0.057 A 
ATOM      3  C3  UNL d   1      -2.190  -2.970   1.790  0.00  0.00     0.033 A 
ATOM      4  C4  UNL d   1      -1.074  -3.473   2.452  0.00  0.00    -0.042 A 
ATOM      5  C5  UNL d   1      -1.056  -4.806   2.845  0.00  0.00     0.033 A 
ATOM      6  C6  UNL d   1      -2.152  -5.630   2.571  0.00  0.00    -0.057 A 
ENDROOT
BRANCH   1   7
ATOM      7  N   UNL d   1      -4.379  -5.999   1.741  0.00  0.00    -0.732 N 
ATOM      8  C   UNL d   1      -5.456  -5.987   2.708  0.00  0.00     0.284 C 
ATOM      9  H3  UNL d   1      -4.689  -6.069   0.775  0.00  0.00     0.395 HD
ENDBRANCH   1   7
TORSDOF 1
ENDMDL
