MODEL 1
REMARK minimizedAffinity 11.5111856
REMARK minimizedRMSD -1
REMARK  1 active torsions:
REMARK  status: ('A' for Active; 'I' for Inactive)
REMARK    1  A    between atoms: N_2  and  C1_3 
ROOT
ATOM      1  C1  UNL d   1      -2.496  -3.791   0.152  0.00  0.00     0.143 A 
ATOM      2  C2  UNL d   1      -3.279  -4.950   0.161  0.00  0.00    -0.057 A 
ATOM      3  C3  UNL d   1      -3.014  -5.999   1.050  0.00  0.00     0.033 A 
ATOM      4  C4  UNL d   1      -1.939  -5.918   1.929  0.00  0.00    -0.042 A 
ATOM      5  C5  UNL d   1      -1.132  -4.786   1.921  0.00  0.00     0.033 A 
ATOM      6  C6  UNL d   1      -1.406  -3.739   1.035  0.00  0.00    -0.057 A 
ENDROOT
BRANCH   1   7
ATOM      7  N   UNL d   1      -2.648  -2.757  -0.775  0.00  0.00    -0.732 N 
ATOM      8  C   UNL d   1      -3.047  -3.040  -2.137  0.00  0.00     0.284 C 
ATOM      9  H3  UNL d   1      -3.097  -1.937  -0.372  0.00  0.00     0.395 HD
ENDBRANCH   1   7
TORSDOF 1
ENDMDL
