MODEL 1
REMARK minimizedAffinity 17.0819359
REMARK minimizedRMSD -1
REMARK  1 active torsions:
REMARK  status: ('A' for Active; 'I' for Inactive)
REMARK    1  A    between atoms: N_2  and  C1_3 
ROOT
ATOM      1  C1  UNL d   1      -4.991   1.129   4.935  0.00  0.00     0.143 A 
ATOM      2  C2  UNL d   1      -3.851   1.917   5.125  0.00  0.00    -0.057 A 
ATOM      3  C3  UNL d   1      -3.097   2.378   4.039  0.00  0.00     0.033 A 
ATOM      4  C4  UNL d   1      -3.455   2.032   2.740  0.00  0.00    -0.042 A 
ATOM      5  C5  UNL d   1      -4.570   1.229   2.528  0.00  0.00     0.033 A 
ATOM      6  C6  UNL d   1      -5.322   0.777   3.617  0.00  0.00    -0.057 A 
ENDROOT
BRANCH   1   7
ATOM      7  N   UNL d   1      -5.725   0.558   5.978  0.00  0.00    -0.732 N 
ATOM      8  C   UNL d   1      -5.994  -0.863   5.998  0.00  0.00     0.284 C 
ATOM      9  H3  UNL d   1      -5.478   0.948   6.885  0.00  0.00     0.395 HD
ENDBRANCH   1   7
TORSDOF 1
ENDMDL
