MODEL 1
REMARK minimizedAffinity 11.0909109
REMARK minimizedRMSD -1
REMARK  1 active torsions:
REMARK  status: ('A' for Active; 'I' for Inactive)
REMARK    1  A    between atoms: N_2  and  C1_3 
ROOT
ATOM      1  C1  UNL d   1       3.300   0.990  -1.444  0.00  0.00     0.143 A 
ATOM      2  C2  UNL d   1       3.959   0.029  -0.669  0.00  0.00    -0.057 A 
ATOM      3  C3  UNL d   1       3.454  -0.371   0.574  0.00  0.00     0.033 A 
ATOM      4  C4  UNL d   1       2.293   0.206   1.079  0.00  0.00    -0.042 A 
ATOM      5  C5  UNL d   1       1.636   1.182   0.337  0.00  0.00     0.033 A 
ATOM      6  C6  UNL d   1       2.141   1.572  -0.907  0.00  0.00    -0.057 A 
ENDROOT
BRANCH   1   7
ATOM      7  N   UNL d   1       3.804   1.501  -2.643  0.00  0.00    -0.732 N 
ATOM      8  C   UNL d   1       4.557   2.737  -2.658  0.00  0.00     0.284 C 
ATOM      9  H3  UNL d   1       4.185   0.775  -3.245  0.00  0.00     0.395 HD
ENDBRANCH   1   7
TORSDOF 1
ENDMDL
