MODEL 1
REMARK minimizedAffinity 13.9127684
REMARK minimizedRMSD -1
REMARK  1 active torsions:
REMARK  status: ('A' for Active; 'I' for Inactive)
REMARK    1  A    between atoms: N_2  and  C1_3 
ROOT
ATOM      1  C1  UNL d   1       2.475   1.108  -0.959  0.00  0.00     0.143 A 
ATOM      2  C2  UNL d   1       1.651   2.135  -0.485  0.00  0.00    -0.057 A 
ATOM      3  C3  UNL d   1       0.999   2.032   0.749  0.00  0.00     0.033 A 
ATOM      4  C4  UNL d   1       1.136   0.883   1.521  0.00  0.00    -0.042 A 
ATOM      5  C5  UNL d   1       1.930  -0.161   1.059  0.00  0.00     0.033 A 
ATOM      6  C6  UNL d   1       2.584  -0.049  -0.171  0.00  0.00    -0.057 A 
ENDROOT
BRANCH   1   7
ATOM      7  N   UNL d   1       3.072   1.110  -2.222  0.00  0.00    -0.732 N 
ATOM      8  C   UNL d   1       3.155   2.329  -2.996  0.00  0.00     0.284 C 
ATOM      9  H3  UNL d   1       3.914   0.538  -2.254  0.00  0.00     0.395 HD
ENDBRANCH   1   7
TORSDOF 1
ENDMDL
