MODEL 1
REMARK minimizedAffinity 12.0747557
REMARK minimizedRMSD -1
REMARK  1 active torsions:
REMARK  status: ('A' for Active; 'I' for Inactive)
REMARK    1  A    between atoms: N_2  and  C1_3 
ROOT
ATOM      1  C1  UNL d   1      -4.126   3.501   4.709  0.00  0.00     0.143 A 
ATOM      2  C2  UNL d   1      -4.110   4.322   5.842  0.00  0.00    -0.057 A 
ATOM      3  C3  UNL d   1      -5.038   5.358   6.000  0.00  0.00     0.033 A 
ATOM      4  C4  UNL d   1      -5.982   5.612   5.010  0.00  0.00    -0.042 A 
ATOM      5  C5  UNL d   1      -6.000   4.824   3.864  0.00  0.00     0.033 A 
ATOM      6  C6  UNL d   1      -5.075   3.786   3.716  0.00  0.00    -0.057 A 
ENDROOT
BRANCH   1   7
ATOM      7  N   UNL d   1      -3.168   2.517   4.448  0.00  0.00    -0.732 N 
ATOM      8  C   UNL d   1      -1.956   2.841   3.727  0.00  0.00     0.284 C 
ATOM      9  H3  UNL d   1      -3.027   1.893   5.240  0.00  0.00     0.395 HD
ENDBRANCH   1   7
TORSDOF 1
ENDMDL
