MODEL 1
REMARK minimizedAffinity 7.38472223
REMARK minimizedRMSD -1
REMARK  1 active torsions:
REMARK  status: ('A' for Active; 'I' for Inactive)
REMARK    1  A    between atoms: N_2  and  C1_3 
ROOT
ATOM      1  C1  UNL d   1      -3.901   4.033   4.641  0.00  0.00     0.143 A 
ATOM      2  C2  UNL d   1      -4.775   4.295   3.581  0.00  0.00    -0.057 A 
ATOM      3  C3  UNL d   1      -5.801   5.240   3.702  0.00  0.00     0.033 A 
ATOM      4  C4  UNL d   1      -5.988   5.922   4.900  0.00  0.00    -0.042 A 
ATOM      5  C5  UNL d   1      -5.147   5.660   5.975  0.00  0.00     0.033 A 
ATOM      6  C6  UNL d   1      -4.120   4.720   5.845  0.00  0.00    -0.057 A 
ENDROOT
BRANCH   1   7
ATOM      7  N   UNL d   1      -2.924   3.035   4.615  0.00  0.00    -0.732 N 
ATOM      8  C   UNL d   1      -3.233   1.714   4.111  0.00  0.00     0.284 C 
ATOM      9  H3  UNL d   1      -2.015   3.388   4.325  0.00  0.00     0.395 HD
ENDBRANCH   1   7
TORSDOF 1
ENDMDL
