MODEL 1
REMARK minimizedAffinity -4.76114321
REMARK minimizedRMSD -1
REMARK  1 active torsions:
REMARK  status: ('A' for Active; 'I' for Inactive)
REMARK    1  A    between atoms: C1_2  and  C2_3 
ROOT
ATOM      1  C2  UNL d   1       1.362  -0.286   0.483  0.00  0.00    -0.073 A 
ATOM      2  C3  UNL d   1       2.039   0.939   0.476  0.00  0.00    -0.002 A 
ATOM      3  C4  UNL d   1       1.390   2.099   0.052  0.00  0.00     0.004 A 
ATOM      4  C5  UNL d   1       0.059   2.049  -0.363  0.00  0.00    -0.004 A 
ATOM      5  C6  UNL d   1      -0.637   0.836  -0.351  0.00  0.00    -0.075 A 
ATOM      6  C7  UNL d   1      -2.068   0.764  -0.796  0.00  0.00     0.076 C 
ATOM      7  C8  UNL d   1       0.022  -0.326   0.074  0.00  0.00     0.001 A 
ENDROOT
BRANCH   1   8
ATOM      8  C1  UNL d   1       2.056  -1.541   0.947  0.00  0.00     0.053 C 
ATOM      9  C   UNL d   1       3.535  -1.309   1.214  0.00  0.00     0.018 C 
ENDBRANCH   1   8
TORSDOF 1
ENDMDL
