MODEL 1
REMARK minimizedAffinity -0.882661879
REMARK minimizedRMSD -1
REMARK  1 active torsions:
REMARK  status: ('A' for Active; 'I' for Inactive)
REMARK    1  A    between atoms: C1_2  and  C2_3 
ROOT
ATOM      1  C2  UNL d   1       0.471  -1.535  -0.818  0.00  0.00    -0.073 A 
ATOM      2  C3  UNL d   1       1.574  -2.377  -0.640  0.00  0.00    -0.002 A 
ATOM      3  C4  UNL d   1       2.532  -2.088   0.332  0.00  0.00     0.004 A 
ATOM      4  C5  UNL d   1       2.394  -0.960   1.141  0.00  0.00    -0.004 A 
ATOM      5  C6  UNL d   1       1.292  -0.113   0.987  0.00  0.00    -0.075 A 
ATOM      6  C7  UNL d   1       1.129   1.106   1.847  0.00  0.00     0.076 C 
ATOM      7  C8  UNL d   1       0.335  -0.408   0.006  0.00  0.00     0.001 A 
ENDROOT
BRANCH   1   8
ATOM      8  C1  UNL d   1      -0.569  -1.847  -1.863  0.00  0.00     0.053 C 
ATOM      9  C   UNL d   1      -1.430  -0.636  -2.189  0.00  0.00     0.018 C 
ENDBRANCH   1   8
TORSDOF 1
ENDMDL
