MODEL 1
REMARK minimizedAffinity -4.15076351
REMARK minimizedRMSD -1
REMARK  1 active torsions:
REMARK  status: ('A' for Active; 'I' for Inactive)
REMARK    1  A    between atoms: C1_2  and  C2_3 
ROOT
ATOM      1  C2  UNL d   1      -1.644   0.463   0.007  0.00  0.00    -0.073 A 
ATOM      2  C3  UNL d   1      -1.363  -0.784  -0.562  0.00  0.00    -0.002 A 
ATOM      3  C4  UNL d   1      -0.064  -1.293  -0.540  0.00  0.00     0.004 A 
ATOM      4  C5  UNL d   1       0.965  -0.565   0.057  0.00  0.00    -0.004 A 
ATOM      5  C6  UNL d   1       0.702   0.678   0.642  0.00  0.00    -0.075 A 
ATOM      6  C7  UNL d   1       1.799   1.475   1.287  0.00  0.00     0.076 C 
ATOM      7  C8  UNL d   1      -0.604   1.183   0.613  0.00  0.00     0.001 A 
ENDROOT
BRANCH   1   8
ATOM      8  C1  UNL d   1      -3.046   1.014  -0.009  0.00  0.00     0.053 C 
ATOM      9  C   UNL d   1      -3.473   1.526   1.358  0.00  0.00     0.018 C 
ENDBRANCH   1   8
TORSDOF 1
ENDMDL
