MODEL 1
REMARK minimizedAffinity -1.53763509
REMARK minimizedRMSD -1
REMARK  0 active torsions:
REMARK  status: ('A' for Active; 'I' for Inactive)
ROOT
ATOM      1  C   UNL d   1       3.864  -5.947  -1.664  0.00  0.00     0.077 C 
ATOM      2  C1  UNL d   1       3.871  -5.957  -3.163  0.00  0.00    -0.074 A 
ATOM      3  C2  UNL d   1       5.073  -5.981  -3.877  0.00  0.00    -0.005 A 
ATOM      4  C3  UNL d   1       5.063  -6.000  -5.272  0.00  0.00     0.006 A 
ATOM      5  C4  UNL d   1       3.853  -5.995  -5.966  0.00  0.00    -0.005 A 
ATOM      6  C5  UNL d   1       2.640  -5.972  -5.269  0.00  0.00    -0.074 A 
ATOM      7  C6  UNL d   1       1.330  -5.976  -6.000  0.00  0.00     0.077 C 
ATOM      8  C7  UNL d   1       2.659  -5.960  -3.868  0.00  0.00    -0.001 A 
ENDROOT
TORSDOF 0
ENDMDL
