MODEL 1
REMARK minimizedAffinity -1.62856865
REMARK minimizedRMSD -1
REMARK  0 active torsions:
REMARK  status: ('A' for Active; 'I' for Inactive)
ROOT
ATOM      1  C   UNL d   1       3.507  -4.882  -1.670  0.00  0.00     0.077 C 
ATOM      2  C1  UNL d   1       3.494  -5.278  -3.116  0.00  0.00    -0.074 A 
ATOM      3  C2  UNL d   1       2.294  -5.590  -3.765  0.00  0.00    -0.005 A 
ATOM      4  C3  UNL d   1       2.296  -5.948  -5.113  0.00  0.00     0.006 A 
ATOM      5  C4  UNL d   1       3.495  -5.998  -5.825  0.00  0.00    -0.005 A 
ATOM      6  C5  UNL d   1       4.704  -5.689  -5.194  0.00  0.00    -0.074 A 
ATOM      7  C6  UNL d   1       6.000  -5.728  -5.947  0.00  0.00     0.077 C 
ATOM      8  C7  UNL d   1       4.693  -5.323  -3.841  0.00  0.00    -0.001 A 
ENDROOT
TORSDOF 0
ENDMDL
