MODEL 1
REMARK minimizedAffinity -0.647354245
REMARK minimizedRMSD -1
REMARK  0 active torsions:
REMARK  status: ('A' for Active; 'I' for Inactive)
ROOT
ATOM      1  C   UNL d   1       4.312  -5.997  -1.687  0.00  0.00     0.077 C 
ATOM      2  C1  UNL d   1       4.279  -5.985  -3.187  0.00  0.00    -0.074 A 
ATOM      3  C2  UNL d   1       5.463  -5.980  -3.932  0.00  0.00    -0.005 A 
ATOM      4  C3  UNL d   1       5.417  -5.979  -5.326  0.00  0.00     0.006 A 
ATOM      5  C4  UNL d   1       4.189  -5.982  -5.988  0.00  0.00    -0.005 A 
ATOM      6  C5  UNL d   1       2.994  -5.987  -5.260  0.00  0.00    -0.074 A 
ATOM      7  C6  UNL d   1       1.666  -6.000  -5.956  0.00  0.00     0.077 C 
ATOM      8  C7  UNL d   1       3.049  -5.995  -3.860  0.00  0.00    -0.001 A 
ENDROOT
TORSDOF 0
ENDMDL
