MODEL 1
REMARK minimizedAffinity -1.34069431
REMARK minimizedRMSD -1
REMARK  0 active torsions:
REMARK  status: ('A' for Active; 'I' for Inactive)
ROOT
ATOM      1  C   UNL d   1       3.034  -4.553  -1.890  0.00  0.00     0.077 C 
ATOM      2  C1  UNL d   1       3.263  -4.941  -3.321  0.00  0.00    -0.074 A 
ATOM      3  C2  UNL d   1       2.296  -5.654  -4.036  0.00  0.00    -0.005 A 
ATOM      4  C3  UNL d   1       2.519  -6.000  -5.368  0.00  0.00     0.006 A 
ATOM      5  C4  UNL d   1       3.709  -5.635  -5.999  0.00  0.00    -0.005 A 
ATOM      6  C5  UNL d   1       4.687  -4.921  -5.300  0.00  0.00    -0.074 A 
ATOM      7  C6  UNL d   1       5.968  -4.513  -5.966  0.00  0.00     0.077 C 
ATOM      8  C7  UNL d   1       4.453  -4.572  -3.963  0.00  0.00    -0.001 A 
ENDROOT
TORSDOF 0
ENDMDL
