MODEL 1
REMARK minimizedAffinity -4.31494331
REMARK minimizedRMSD -1
REMARK  0 active torsions:
REMARK  status: ('A' for Active; 'I' for Inactive)
ROOT
ATOM      1  C   UNL d   1       3.096  -5.990  -1.560  0.00  0.00     0.077 C 
ATOM      2  C1  UNL d   1       3.264  -5.780  -3.035  0.00  0.00    -0.074 A 
ATOM      3  C2  UNL d   1       2.202  -6.000  -3.918  0.00  0.00    -0.005 A 
ATOM      4  C3  UNL d   1       2.370  -5.792  -5.287  0.00  0.00     0.006 A 
ATOM      5  C4  UNL d   1       3.600  -5.362  -5.786  0.00  0.00    -0.005 A 
ATOM      6  C5  UNL d   1       4.674  -5.137  -4.919  0.00  0.00    -0.074 A 
ATOM      7  C6  UNL d   1       6.000  -4.666  -5.438  0.00  0.00     0.077 C 
ATOM      8  C7  UNL d   1       4.495  -5.341  -3.544  0.00  0.00    -0.001 A 
ENDROOT
TORSDOF 0
ENDMDL
