MODEL 1
REMARK minimizedAffinity -3.42688155
REMARK minimizedRMSD -1
REMARK  0 active torsions:
REMARK  status: ('A' for Active; 'I' for Inactive)
ROOT
ATOM      1  C   UNL d   1       2.418  -5.878  -5.955  0.00  0.00     0.077 C 
ATOM      2  C1  UNL d   1       3.494  -5.885  -4.911  0.00  0.00    -0.074 A 
ATOM      3  C2  UNL d   1       4.842  -6.000  -5.268  0.00  0.00    -0.005 A 
ATOM      4  C3  UNL d   1       5.833  -5.996  -4.287  0.00  0.00     0.006 A 
ATOM      5  C4  UNL d   1       5.487  -5.877  -2.940  0.00  0.00    -0.005 A 
ATOM      6  C5  UNL d   1       4.145  -5.761  -2.563  0.00  0.00    -0.074 A 
ATOM      7  C6  UNL d   1       3.757  -5.623  -1.121  0.00  0.00     0.077 C 
ATOM      8  C7  UNL d   1       3.156  -5.759  -3.556  0.00  0.00    -0.001 A 
ENDROOT
TORSDOF 0
ENDMDL
