MODEL 1
REMARK minimizedAffinity -0.912960231
REMARK minimizedRMSD -1
REMARK  0 active torsions:
REMARK  status: ('A' for Active; 'I' for Inactive)
ROOT
ATOM      1  C   UNL d   1       3.295  -5.125  -1.775  0.00  0.00     0.077 C 
ATOM      2  C1  UNL d   1       3.349  -5.409  -3.247  0.00  0.00    -0.074 A 
ATOM      3  C2  UNL d   1       2.175  -5.566  -3.992  0.00  0.00    -0.005 A 
ATOM      4  C3  UNL d   1       2.241  -5.820  -5.362  0.00  0.00     0.006 A 
ATOM      5  C4  UNL d   1       3.478  -5.920  -5.999  0.00  0.00    -0.005 A 
ATOM      6  C5  UNL d   1       4.662  -5.765  -5.271  0.00  0.00    -0.074 A 
ATOM      7  C6  UNL d   1       6.000  -5.859  -5.943  0.00  0.00     0.077 C 
ATOM      8  C7  UNL d   1       4.588  -5.503  -3.896  0.00  0.00    -0.001 A 
ENDROOT
TORSDOF 0
ENDMDL
