MODEL 1
REMARK minimizedAffinity -2.7335794
REMARK minimizedRMSD -1
REMARK  0 active torsions:
REMARK  status: ('A' for Active; 'I' for Inactive)
ROOT
ATOM      1  C   UNL d   1       3.209  -4.952  -1.698  0.00  0.00     0.077 C 
ATOM      2  C1  UNL d   1       3.303  -5.303  -3.153  0.00  0.00    -0.074 A 
ATOM      3  C2  UNL d   1       2.166  -5.679  -3.877  0.00  0.00    -0.005 A 
ATOM      4  C3  UNL d   1       2.268  -5.995  -5.232  0.00  0.00     0.006 A 
ATOM      5  C4  UNL d   1       3.504  -5.937  -5.876  0.00  0.00    -0.005 A 
ATOM      6  C5  UNL d   1       4.651  -5.563  -5.169  0.00  0.00    -0.074 A 
ATOM      7  C6  UNL d   1       5.986  -5.486  -5.848  0.00  0.00     0.077 C 
ATOM      8  C7  UNL d   1       4.540  -5.241  -3.809  0.00  0.00    -0.001 A 
ENDROOT
TORSDOF 0
ENDMDL
