MODEL 1
REMARK minimizedAffinity -3.33768511
REMARK minimizedRMSD -1
REMARK  0 active torsions:
REMARK  status: ('A' for Active; 'I' for Inactive)
ROOT
ATOM      1  C   UNL d   1       5.037   4.536   3.687  0.00  0.00     0.077 C 
ATOM      2  C1  UNL d   1       4.486   3.366   2.929  0.00  0.00    -0.074 A 
ATOM      3  C2  UNL d   1       5.114   2.117   2.979  0.00  0.00    -0.005 A 
ATOM      4  C3  UNL d   1       4.585   1.035   2.276  0.00  0.00     0.006 A 
ATOM      5  C4  UNL d   1       3.425   1.190   1.516  0.00  0.00    -0.005 A 
ATOM      6  C5  UNL d   1       2.783   2.431   1.455  0.00  0.00    -0.074 A 
ATOM      7  C6  UNL d   1       1.530   2.612   0.651  0.00  0.00     0.077 C 
ATOM      8  C7  UNL d   1       3.317   3.511   2.170  0.00  0.00    -0.001 A 
ENDROOT
TORSDOF 0
ENDMDL
