MODEL 1
REMARK minimizedAffinity -2.85931492
REMARK minimizedRMSD -1
REMARK  0 active torsions:
REMARK  status: ('A' for Active; 'I' for Inactive)
ROOT
ATOM      1  C   UNL d   1       1.621   2.260   1.118  0.00  0.00     0.077 C 
ATOM      2  C1  UNL d   1       2.995   2.581   1.625  0.00  0.00    -0.074 A 
ATOM      3  C2  UNL d   1       3.454   3.901   1.674  0.00  0.00    -0.005 A 
ATOM      4  C3  UNL d   1       4.731   4.184   2.157  0.00  0.00     0.006 A 
ATOM      5  C4  UNL d   1       5.562   3.152   2.595  0.00  0.00    -0.005 A 
ATOM      6  C5  UNL d   1       5.120   1.826   2.554  0.00  0.00    -0.074 A 
ATOM      7  C6  UNL d   1       5.997   0.706   3.030  0.00  0.00     0.077 C 
ATOM      8  C7  UNL d   1       3.833   1.550   2.074  0.00  0.00    -0.001 A 
ENDROOT
TORSDOF 0
ENDMDL
