MODEL 1
REMARK minimizedAffinity -3.07020044
REMARK minimizedRMSD -1
REMARK  0 active torsions:
REMARK  status: ('A' for Active; 'I' for Inactive)
ROOT
ATOM      1  C   UNL d   1       1.684  -5.977  -3.089  0.00  0.00     0.077 C 
ATOM      2  C1  UNL d   1       3.179  -5.965  -3.217  0.00  0.00    -0.074 A 
ATOM      3  C2  UNL d   1       3.997  -5.950  -2.083  0.00  0.00    -0.005 A 
ATOM      4  C3  UNL d   1       5.385  -5.949  -2.217  0.00  0.00     0.006 A 
ATOM      5  C4  UNL d   1       5.969  -5.961  -3.485  0.00  0.00    -0.005 A 
ATOM      6  C5  UNL d   1       5.166  -5.976  -4.630  0.00  0.00    -0.074 A 
ATOM      7  C6  UNL d   1       5.777  -6.000  -6.000  0.00  0.00     0.077 C 
ATOM      8  C7  UNL d   1       3.772  -5.985  -4.487  0.00  0.00    -0.001 A 
ENDROOT
TORSDOF 0
ENDMDL
