MODEL 1
REMARK minimizedAffinity -3.19984603
REMARK minimizedRMSD -1
REMARK  0 active torsions:
REMARK  status: ('A' for Active; 'I' for Inactive)
ROOT
ATOM      1  C   UNL d   1       3.125  -5.679  -1.871  0.00  0.00     0.077 C 
ATOM      2  C1  UNL d   1       3.450  -5.426  -3.314  0.00  0.00    -0.074 A 
ATOM      3  C2  UNL d   1       2.685  -5.998  -4.334  0.00  0.00    -0.005 A 
ATOM      4  C3  UNL d   1       2.994  -5.746  -5.671  0.00  0.00     0.006 A 
ATOM      5  C4  UNL d   1       4.069  -4.920  -6.000  0.00  0.00    -0.005 A 
ATOM      6  C5  UNL d   1       4.845  -4.337  -4.992  0.00  0.00    -0.074 A 
ATOM      7  C6  UNL d   1       5.998  -3.439  -5.328  0.00  0.00     0.077 C 
ATOM      8  C7  UNL d   1       4.524  -4.590  -3.652  0.00  0.00    -0.001 A 
ENDROOT
TORSDOF 0
ENDMDL
