MODEL 1
REMARK minimizedAffinity -3.64789033
REMARK minimizedRMSD -1
REMARK  0 active torsions:
REMARK  status: ('A' for Active; 'I' for Inactive)
ROOT
ATOM      1  C   UNL d   1       1.922   2.624   1.489  0.00  0.00     0.077 C 
ATOM      2  C1  UNL d   1       3.272   2.883   2.089  0.00  0.00    -0.074 A 
ATOM      3  C2  UNL d   1       4.273   1.906   2.057  0.00  0.00    -0.005 A 
ATOM      4  C3  UNL d   1       5.526   2.165   2.611  0.00  0.00     0.006 A 
ATOM      5  C4  UNL d   1       5.793   3.401   3.200  0.00  0.00    -0.005 A 
ATOM      6  C5  UNL d   1       4.805   4.391   3.240  0.00  0.00    -0.074 A 
ATOM      7  C6  UNL d   1       5.078   5.729   3.861  0.00  0.00     0.077 C 
ATOM      8  C7  UNL d   1       3.550   4.126   2.676  0.00  0.00    -0.001 A 
ENDROOT
TORSDOF 0
ENDMDL
