MODEL 1
REMARK minimizedAffinity -1.82496154
REMARK minimizedRMSD -1
REMARK  0 active torsions:
REMARK  status: ('A' for Active; 'I' for Inactive)
ROOT
ATOM      1  C   UNL d   1       3.415  -5.968  -1.681  0.00  0.00     0.077 C 
ATOM      2  C1  UNL d   1       3.420  -5.975  -3.181  0.00  0.00    -0.074 A 
ATOM      3  C2  UNL d   1       2.222  -5.997  -3.903  0.00  0.00    -0.005 A 
ATOM      4  C3  UNL d   1       2.242  -5.994  -5.298  0.00  0.00     0.006 A 
ATOM      5  C4  UNL d   1       3.457  -5.969  -5.983  0.00  0.00    -0.005 A 
ATOM      6  C5  UNL d   1       4.664  -5.946  -5.278  0.00  0.00    -0.074 A 
ATOM      7  C6  UNL d   1       5.979  -5.909  -6.000  0.00  0.00     0.077 C 
ATOM      8  C7  UNL d   1       4.636  -5.942  -3.877  0.00  0.00    -0.001 A 
ENDROOT
TORSDOF 0
ENDMDL
