MODEL 1
REMARK minimizedAffinity -3.3366971
REMARK minimizedRMSD -1
REMARK  0 active torsions:
REMARK  status: ('A' for Active; 'I' for Inactive)
ROOT
ATOM      1  C   UNL d   1       1.525  -5.994  -4.878  0.00  0.00     0.077 C 
ATOM      2  C1  UNL d   1       3.009  -5.783  -4.840  0.00  0.00    -0.074 A 
ATOM      3  C2  UNL d   1       3.795  -6.000  -5.977  0.00  0.00    -0.005 A 
ATOM      4  C3  UNL d   1       5.173  -5.790  -5.930  0.00  0.00     0.006 A 
ATOM      5  C4  UNL d   1       5.779  -5.362  -4.748  0.00  0.00    -0.005 A 
ATOM      6  C5  UNL d   1       5.009  -5.139  -3.602  0.00  0.00    -0.074 A 
ATOM      7  C6  UNL d   1       5.643  -4.669  -2.326  0.00  0.00     0.077 C 
ATOM      8  C7  UNL d   1       3.624  -5.345  -3.659  0.00  0.00    -0.001 A 
ENDROOT
TORSDOF 0
ENDMDL
