MODEL 1
REMARK minimizedAffinity -1.96359444
REMARK minimizedRMSD -1
REMARK  0 active torsions:
REMARK  status: ('A' for Active; 'I' for Inactive)
ROOT
ATOM      1  C   UNL d   1       4.647  -6.000  -6.000  0.00  0.00     0.077 C 
ATOM      2  C1  UNL d   1       4.630  -5.475  -4.595  0.00  0.00    -0.074 A 
ATOM      3  C2  UNL d   1       5.815  -5.109  -3.950  0.00  0.00    -0.005 A 
ATOM      4  C3  UNL d   1       5.782  -4.613  -2.646  0.00  0.00     0.006 A 
ATOM      5  C4  UNL d   1       4.565  -4.478  -1.976  0.00  0.00    -0.005 A 
ATOM      6  C5  UNL d   1       3.370  -4.838  -2.606  0.00  0.00    -0.074 A 
ATOM      7  C6  UNL d   1       2.053  -4.691  -1.904  0.00  0.00     0.077 C 
ATOM      8  C7  UNL d   1       3.411  -5.329  -3.918  0.00  0.00    -0.001 A 
ENDROOT
TORSDOF 0
ENDMDL
