MODEL 1
REMARK minimizedAffinity -3.79034805
REMARK minimizedRMSD -1
REMARK  0 active torsions:
REMARK  status: ('A' for Active; 'I' for Inactive)
ROOT
ATOM      1  C   UNL d   1       6.000  -5.110  -2.202  0.00  0.00     0.077 C 
ATOM      2  C1  UNL d   1       5.282  -5.411  -3.484  0.00  0.00    -0.074 A 
ATOM      3  C2  UNL d   1       5.986  -5.563  -4.683  0.00  0.00    -0.005 A 
ATOM      4  C3  UNL d   1       5.306  -5.852  -5.866  0.00  0.00     0.006 A 
ATOM      5  C4  UNL d   1       3.917  -5.991  -5.862  0.00  0.00    -0.005 A 
ATOM      6  C5  UNL d   1       3.197  -5.843  -4.673  0.00  0.00    -0.074 A 
ATOM      7  C6  UNL d   1       1.705  -6.000  -4.649  0.00  0.00     0.077 C 
ATOM      8  C7  UNL d   1       3.888  -5.560  -3.487  0.00  0.00    -0.001 A 
ENDROOT
TORSDOF 0
ENDMDL
