MODEL 1
REMARK minimizedAffinity -2.40887237
REMARK minimizedRMSD -1
REMARK  0 active torsions:
REMARK  status: ('A' for Active; 'I' for Inactive)
ROOT
ATOM      1  C   UNL d   1       4.935  -5.999  -5.999  0.00  0.00     0.077 C 
ATOM      2  C1  UNL d   1       4.835  -5.577  -4.564  0.00  0.00    -0.074 A 
ATOM      3  C2  UNL d   1       5.968  -5.167  -3.854  0.00  0.00    -0.005 A 
ATOM      4  C3  UNL d   1       5.858  -4.768  -2.522  0.00  0.00     0.006 A 
ATOM      5  C4  UNL d   1       4.616  -4.776  -1.887  0.00  0.00    -0.005 A 
ATOM      6  C5  UNL d   1       3.471  -5.182  -2.581  0.00  0.00    -0.074 A 
ATOM      7  C6  UNL d   1       2.127  -5.187  -1.916  0.00  0.00     0.077 C 
ATOM      8  C7  UNL d   1       3.589  -5.574  -3.921  0.00  0.00    -0.001 A 
ENDROOT
TORSDOF 0
ENDMDL
