MODEL 1
REMARK minimizedAffinity -2.61664224
REMARK minimizedRMSD -1
REMARK  0 active torsions:
REMARK  status: ('A' for Active; 'I' for Inactive)
ROOT
ATOM      1  C   UNL d   1       6.000  -5.370  -5.987  0.00  0.00     0.077 C 
ATOM      2  C1  UNL d   1       4.723  -5.428  -5.202  0.00  0.00    -0.074 A 
ATOM      3  C2  UNL d   1       3.553  -5.944  -5.769  0.00  0.00    -0.005 A 
ATOM      4  C3  UNL d   1       2.376  -6.000  -5.024  0.00  0.00     0.006 A 
ATOM      5  C4  UNL d   1       2.356  -5.541  -3.707  0.00  0.00    -0.005 A 
ATOM      6  C5  UNL d   1       3.516  -5.022  -3.122  0.00  0.00    -0.074 A 
ATOM      7  C6  UNL d   1       3.514  -4.534  -1.704  0.00  0.00     0.077 C 
ATOM      8  C7  UNL d   1       4.697  -4.976  -3.875  0.00  0.00    -0.001 A 
ENDROOT
TORSDOF 0
ENDMDL
