MODEL 1
REMARK minimizedAffinity 16.3346195
REMARK minimizedRMSD -1
REMARK  0 active torsions:
REMARK  status: ('A' for Active; 'I' for Inactive)
ROOT
ATOM      1  C   UNL d   1       5.418  -0.667  -2.697  0.00  0.00     0.077 C 
ATOM      2  C1  UNL d   1       4.377   0.162  -2.005  0.00  0.00    -0.074 A 
ATOM      3  C2  UNL d   1       3.081  -0.327  -1.809  0.00  0.00    -0.005 A 
ATOM      4  C3  UNL d   1       2.127   0.453  -1.156  0.00  0.00     0.006 A 
ATOM      5  C4  UNL d   1       2.458   1.727  -0.693  0.00  0.00    -0.005 A 
ATOM      6  C5  UNL d   1       3.748   2.232  -0.879  0.00  0.00    -0.074 A 
ATOM      7  C6  UNL d   1       4.123   3.595  -0.378  0.00  0.00     0.077 C 
ATOM      8  C7  UNL d   1       4.704   1.440  -1.530  0.00  0.00    -0.001 A 
ENDROOT
TORSDOF 0
ENDMDL
