MODEL 1
REMARK minimizedAffinity 19.2949791
REMARK minimizedRMSD -1
REMARK  0 active torsions:
REMARK  status: ('A' for Active; 'I' for Inactive)
ROOT
ATOM      1  C   UNL d   1      -2.412  -1.222   0.510  0.00  0.00     0.077 C 
ATOM      2  C1  UNL d   1      -3.654  -1.951   0.930  0.00  0.00    -0.074 A 
ATOM      3  C2  UNL d   1      -4.815  -1.252   1.276  0.00  0.00    -0.005 A 
ATOM      4  C3  UNL d   1      -5.965  -1.944   1.656  0.00  0.00     0.006 A 
ATOM      5  C4  UNL d   1      -5.966  -3.339   1.693  0.00  0.00    -0.005 A 
ATOM      6  C5  UNL d   1      -4.814  -4.055   1.350  0.00  0.00    -0.074 A 
ATOM      7  C6  UNL d   1      -4.801  -5.554   1.376  0.00  0.00     0.077 C 
ATOM      8  C7  UNL d   1      -3.665  -3.352   0.963  0.00  0.00    -0.001 A 
ENDROOT
TORSDOF 0
ENDMDL
