MODEL 1
REMARK minimizedAffinity 6.2468524
REMARK minimizedRMSD -1
REMARK  0 active torsions:
REMARK  status: ('A' for Active; 'I' for Inactive)
ROOT
ATOM      1  C   UNL d   1       2.191   6.000   5.998  0.00  0.00     0.077 C 
ATOM      2  C1  UNL d   1       3.510   5.286   5.988  0.00  0.00    -0.074 A 
ATOM      3  C2  UNL d   1       4.713   5.999   5.990  0.00  0.00    -0.005 A 
ATOM      4  C3  UNL d   1       5.933   5.322   5.991  0.00  0.00     0.006 A 
ATOM      5  C4  UNL d   1       5.961   3.927   5.991  0.00  0.00    -0.005 A 
ATOM      6  C5  UNL d   1       4.768   3.197   5.990  0.00  0.00    -0.074 A 
ATOM      7  C6  UNL d   1       4.781   1.697   5.999  0.00  0.00     0.077 C 
ATOM      8  C7  UNL d   1       3.547   3.885   5.996  0.00  0.00    -0.001 A 
ENDROOT
TORSDOF 0
ENDMDL
