MODEL 1
REMARK minimizedAffinity 15.3641291
REMARK minimizedRMSD -1
REMARK  0 active torsions:
REMARK  status: ('A' for Active; 'I' for Inactive)
ROOT
ATOM      1  C   UNL d   1      -0.725  -6.000   3.052  0.00  0.00     0.077 C 
ATOM      2  C1  UNL d   1      -1.268  -4.936   3.959  0.00  0.00    -0.074 A 
ATOM      3  C2  UNL d   1      -1.899  -5.269   5.162  0.00  0.00    -0.005 A 
ATOM      4  C3  UNL d   1      -2.390  -4.269   6.000  0.00  0.00     0.006 A 
ATOM      5  C4  UNL d   1      -2.256  -2.926   5.644  0.00  0.00    -0.005 A 
ATOM      6  C5  UNL d   1      -1.627  -2.573   4.446  0.00  0.00    -0.074 A 
ATOM      7  C6  UNL d   1      -1.465  -1.134   4.054  0.00  0.00     0.077 C 
ATOM      8  C7  UNL d   1      -1.129  -3.584   3.613  0.00  0.00    -0.001 A 
ENDROOT
TORSDOF 0
ENDMDL
