MODEL 1
REMARK minimizedAffinity 10.0843172
REMARK minimizedRMSD -1
REMARK  0 active torsions:
REMARK  status: ('A' for Active; 'I' for Inactive)
ROOT
ATOM      1  C   UNL d   1      -1.931  -2.453  -2.663  0.00  0.00     0.077 C 
ATOM      2  C1  UNL d   1      -1.903  -2.208  -1.184  0.00  0.00    -0.074 A 
ATOM      3  C2  UNL d   1      -2.620  -1.149  -0.617  0.00  0.00    -0.005 A 
ATOM      4  C3  UNL d   1      -2.593  -0.939   0.761  0.00  0.00     0.006 A 
ATOM      5  C4  UNL d   1      -1.850  -1.785   1.586  0.00  0.00    -0.005 A 
ATOM      6  C5  UNL d   1      -1.127  -2.849   1.038  0.00  0.00    -0.074 A 
ATOM      7  C6  UNL d   1      -0.332  -3.773   1.911  0.00  0.00     0.077 C 
ATOM      8  C7  UNL d   1      -1.166  -3.058  -0.348  0.00  0.00    -0.001 A 
ENDROOT
TORSDOF 0
ENDMDL
