MODEL 1
REMARK minimizedAffinity 9.28993607
REMARK minimizedRMSD -1
REMARK  0 active torsions:
REMARK  status: ('A' for Active; 'I' for Inactive)
ROOT
ATOM      1  C   UNL d   1       4.411   1.659   5.961  0.00  0.00     0.077 C 
ATOM      2  C1  UNL d   1       4.420   3.159   5.980  0.00  0.00    -0.074 A 
ATOM      3  C2  UNL d   1       5.624   3.870   5.981  0.00  0.00    -0.005 A 
ATOM      4  C3  UNL d   1       5.617   5.265   5.990  0.00  0.00     0.006 A 
ATOM      5  C4  UNL d   1       4.408   5.961   5.998  0.00  0.00    -0.005 A 
ATOM      6  C5  UNL d   1       3.194   5.267   5.997  0.00  0.00    -0.074 A 
ATOM      7  C6  UNL d   1       1.886   6.000   5.996  0.00  0.00     0.077 C 
ATOM      8  C7  UNL d   1       3.210   3.866   5.981  0.00  0.00    -0.001 A 
ENDROOT
TORSDOF 0
ENDMDL
