MODEL 1
REMARK minimizedAffinity 14.8841114
REMARK minimizedRMSD -1
REMARK  0 active torsions:
REMARK  status: ('A' for Active; 'I' for Inactive)
ROOT
ATOM      1  C   UNL d   1      -0.417  -1.129  -3.738  0.00  0.00     0.077 C 
ATOM      2  C1  UNL d   1      -1.150  -1.780  -2.602  0.00  0.00    -0.074 A 
ATOM      3  C2  UNL d   1      -2.090  -1.067  -1.851  0.00  0.00    -0.005 A 
ATOM      4  C3  UNL d   1      -2.771  -1.689  -0.804  0.00  0.00     0.006 A 
ATOM      5  C4  UNL d   1      -2.518  -3.027  -0.498  0.00  0.00    -0.005 A 
ATOM      6  C5  UNL d   1      -1.582  -3.755  -1.239  0.00  0.00    -0.074 A 
ATOM      7  C6  UNL d   1      -1.307  -5.197  -0.930  0.00  0.00     0.077 C 
ATOM      8  C7  UNL d   1      -0.908  -3.126  -2.294  0.00  0.00    -0.001 A 
ENDROOT
TORSDOF 0
ENDMDL
