MODEL 1
REMARK minimizedAffinity 15.9757433
REMARK minimizedRMSD -1
REMARK  0 active torsions:
REMARK  status: ('A' for Active; 'I' for Inactive)
ROOT
ATOM      1  C   UNL d   1      -1.776  -0.012  -3.283  0.00  0.00     0.077 C 
ATOM      2  C1  UNL d   1      -1.790   1.208  -4.155  0.00  0.00    -0.074 A 
ATOM      3  C2  UNL d   1      -0.602   1.864  -4.493  0.00  0.00    -0.005 A 
ATOM      4  C3  UNL d   1      -0.630   2.992  -5.313  0.00  0.00     0.006 A 
ATOM      5  C4  UNL d   1      -1.845   3.475  -5.802  0.00  0.00    -0.005 A 
ATOM      6  C5  UNL d   1      -3.043   2.832  -5.475  0.00  0.00    -0.074 A 
ATOM      7  C6  UNL d   1      -4.356   3.333  -6.000  0.00  0.00     0.077 C 
ATOM      8  C7  UNL d   1      -3.006   1.695  -4.656  0.00  0.00    -0.001 A 
ENDROOT
TORSDOF 0
ENDMDL
