MODEL 1
REMARK minimizedAffinity 20.5922604
REMARK minimizedRMSD -1
REMARK  0 active torsions:
REMARK  status: ('A' for Active; 'I' for Inactive)
ROOT
ATOM      1  C   UNL d   1       2.369   1.782   5.991  0.00  0.00     0.077 C 
ATOM      2  C1  UNL d   1       2.774   3.226   5.970  0.00  0.00    -0.074 A 
ATOM      3  C2  UNL d   1       1.813   4.242   5.992  0.00  0.00    -0.005 A 
ATOM      4  C3  UNL d   1       2.205   5.580   5.982  0.00  0.00     0.006 A 
ATOM      5  C4  UNL d   1       3.560   5.916   5.950  0.00  0.00    -0.005 A 
ATOM      6  C5  UNL d   1       4.534   4.913   5.929  0.00  0.00    -0.074 A 
ATOM      7  C6  UNL d   1       5.994   5.256   5.905  0.00  0.00     0.077 C 
ATOM      8  C7  UNL d   1       4.132   3.570   5.946  0.00  0.00    -0.001 A 
ENDROOT
TORSDOF 0
ENDMDL
