MODEL 1
REMARK minimizedAffinity 20.494194
REMARK minimizedRMSD -1
REMARK  0 active torsions:
REMARK  status: ('A' for Active; 'I' for Inactive)
ROOT
ATOM      1  C   UNL d   1      -4.934  -1.840   5.999  0.00  0.00     0.077 C 
ATOM      2  C1  UNL d   1      -3.589  -2.269   5.493  0.00  0.00    -0.074 A 
ATOM      3  C2  UNL d   1      -2.965  -3.416   5.994  0.00  0.00    -0.005 A 
ATOM      4  C3  UNL d   1      -1.718  -3.808   5.506  0.00  0.00     0.006 A 
ATOM      5  C4  UNL d   1      -1.084  -3.059   4.515  0.00  0.00    -0.005 A 
ATOM      6  C5  UNL d   1      -1.693  -1.909   4.002  0.00  0.00    -0.074 A 
ATOM      7  C6  UNL d   1      -1.029  -1.098   2.929  0.00  0.00     0.077 C 
ATOM      8  C7  UNL d   1      -2.949  -1.526   4.492  0.00  0.00    -0.001 A 
ENDROOT
TORSDOF 0
ENDMDL
