MODEL 1
REMARK minimizedAffinity 12.7145939
REMARK minimizedRMSD -1
REMARK  0 active torsions:
REMARK  status: ('A' for Active; 'I' for Inactive)
ROOT
ATOM      1  C   UNL d   1       5.961   5.993   5.994  0.00  0.00     0.077 C 
ATOM      2  C1  UNL d   1       5.278   4.746   5.519  0.00  0.00    -0.074 A 
ATOM      3  C2  UNL d   1       4.010   4.395   5.995  0.00  0.00    -0.005 A 
ATOM      4  C3  UNL d   1       3.383   3.236   5.537  0.00  0.00     0.006 A 
ATOM      5  C4  UNL d   1       4.016   2.419   4.599  0.00  0.00    -0.005 A 
ATOM      6  C5  UNL d   1       5.282   2.754   4.111  0.00  0.00    -0.074 A 
ATOM      7  C6  UNL d   1       5.972   1.892   3.096  0.00  0.00     0.077 C 
ATOM      8  C7  UNL d   1       5.903   3.924   4.571  0.00  0.00    -0.001 A 
ENDROOT
TORSDOF 0
ENDMDL
