MODEL 1
REMARK minimizedAffinity 13.2693243
REMARK minimizedRMSD -1
REMARK  0 active torsions:
REMARK  status: ('A' for Active; 'I' for Inactive)
ROOT
ATOM      1  C   UNL d   1       2.623   1.876  -0.672  0.00  0.00     0.077 C 
ATOM      2  C1  UNL d   1       3.075   0.879  -1.698  0.00  0.00    -0.074 A 
ATOM      3  C2  UNL d   1       2.309  -0.255  -1.985  0.00  0.00    -0.005 A 
ATOM      4  C3  UNL d   1       2.738  -1.168  -2.948  0.00  0.00     0.006 A 
ATOM      5  C4  UNL d   1       3.936  -0.957  -3.632  0.00  0.00    -0.005 A 
ATOM      6  C5  UNL d   1       4.715   0.172  -3.359  0.00  0.00    -0.074 A 
ATOM      7  C6  UNL d   1       6.000   0.418  -4.092  0.00  0.00     0.077 C 
ATOM      8  C7  UNL d   1       4.274   1.088  -2.395  0.00  0.00    -0.001 A 
ENDROOT
TORSDOF 0
ENDMDL
