MODEL 1
REMARK minimizedAffinity 16.6255493
REMARK minimizedRMSD -1
REMARK  0 active torsions:
REMARK  status: ('A' for Active; 'I' for Inactive)
ROOT
ATOM      1  C   UNL d   1       5.981   5.930   5.731  0.00  0.00     0.077 C 
ATOM      2  C1  UNL d   1       4.685   5.175   5.730  0.00  0.00    -0.074 A 
ATOM      3  C2  UNL d   1       4.668   3.777   5.755  0.00  0.00    -0.005 A 
ATOM      4  C3  UNL d   1       3.455   3.089   5.764  0.00  0.00     0.006 A 
ATOM      5  C4  UNL d   1       2.249   3.791   5.748  0.00  0.00    -0.005 A 
ATOM      6  C5  UNL d   1       2.246   5.189   5.724  0.00  0.00    -0.074 A 
ATOM      7  C6  UNL d   1       0.959   5.959   5.717  0.00  0.00     0.077 C 
ATOM      8  C7  UNL d   1       3.469   5.873   5.723  0.00  0.00    -0.001 A 
ENDROOT
TORSDOF 0
ENDMDL
