MODEL 1
REMARK minimizedAffinity 12.7640915
REMARK minimizedRMSD -1
REMARK  0 active torsions:
REMARK  status: ('A' for Active; 'I' for Inactive)
ROOT
ATOM      1  C   UNL d   1       6.000   2.260  -4.115  0.00  0.00     0.077 C 
ATOM      2  C1  UNL d   1       5.055   2.121  -2.958  0.00  0.00    -0.074 A 
ATOM      3  C2  UNL d   1       5.166   2.948  -1.836  0.00  0.00    -0.005 A 
ATOM      4  C3  UNL d   1       4.274   2.813  -0.772  0.00  0.00     0.006 A 
ATOM      5  C4  UNL d   1       3.265   1.850  -0.819  0.00  0.00    -0.005 A 
ATOM      6  C5  UNL d   1       3.138   1.015  -1.933  0.00  0.00    -0.074 A 
ATOM      7  C6  UNL d   1       2.053  -0.018  -2.004  0.00  0.00     0.077 C 
ATOM      8  C7  UNL d   1       4.034   1.161  -3.001  0.00  0.00    -0.001 A 
ENDROOT
TORSDOF 0
ENDMDL
