MODEL 1
REMARK minimizedAffinity 9.94985294
REMARK minimizedRMSD -1
REMARK  0 active torsions:
REMARK  status: ('A' for Active; 'I' for Inactive)
ROOT
ATOM      1  C   UNL d   1       5.704   2.690   3.730  0.00  0.00     0.077 C 
ATOM      2  C1  UNL d   1       5.169   3.844   4.525  0.00  0.00    -0.074 A 
ATOM      3  C2  UNL d   1       6.000   4.905   4.900  0.00  0.00    -0.005 A 
ATOM      4  C3  UNL d   1       5.486   5.976   5.630  0.00  0.00     0.006 A 
ATOM      5  C4  UNL d   1       4.139   5.997   5.993  0.00  0.00    -0.005 A 
ATOM      6  C5  UNL d   1       3.293   4.946   5.626  0.00  0.00    -0.074 A 
ATOM      7  C6  UNL d   1       1.840   4.958   5.999  0.00  0.00     0.077 C 
ATOM      8  C7  UNL d   1       3.815   3.877   4.886  0.00  0.00    -0.001 A 
ENDROOT
TORSDOF 0
ENDMDL
