MODEL 1
REMARK minimizedAffinity 6.41463614
REMARK minimizedRMSD -1
REMARK  0 active torsions:
REMARK  status: ('A' for Active; 'I' for Inactive)
ROOT
ATOM      1  C   UNL d   1       1.878   6.000   5.992  0.00  0.00     0.077 C 
ATOM      2  C1  UNL d   1       3.067   5.085   5.984  0.00  0.00    -0.074 A 
ATOM      3  C2  UNL d   1       4.368   5.598   5.995  0.00  0.00    -0.005 A 
ATOM      4  C3  UNL d   1       5.464   4.734   5.998  0.00  0.00     0.006 A 
ATOM      5  C4  UNL d   1       5.270   3.353   5.989  0.00  0.00    -0.005 A 
ATOM      6  C5  UNL d   1       3.976   2.822   5.979  0.00  0.00    -0.074 A 
ATOM      7  C6  UNL d   1       3.750   1.339   5.979  0.00  0.00     0.077 C 
ATOM      8  C7  UNL d   1       2.880   3.696   5.983  0.00  0.00    -0.001 A 
ENDROOT
TORSDOF 0
ENDMDL
