MODEL 1
REMARK minimizedAffinity 21.1269245
REMARK minimizedRMSD -1
REMARK  0 active torsions:
REMARK  status: ('A' for Active; 'I' for Inactive)
ROOT
ATOM      1  C   UNL d   1       0.706   2.106  -6.000  0.00  0.00     0.077 C 
ATOM      2  C1  UNL d   1      -0.247   1.682  -4.923  0.00  0.00    -0.074 A 
ATOM      3  C2  UNL d   1      -1.328   2.491  -4.560  0.00  0.00    -0.005 A 
ATOM      4  C3  UNL d   1      -2.212   2.079  -3.563  0.00  0.00     0.006 A 
ATOM      5  C4  UNL d   1      -2.024   0.855  -2.920  0.00  0.00    -0.005 A 
ATOM      6  C5  UNL d   1      -0.950   0.031  -3.270  0.00  0.00    -0.074 A 
ATOM      7  C6  UNL d   1      -0.739  -1.292  -2.596  0.00  0.00     0.077 C 
ATOM      8  C7  UNL d   1      -0.070   0.450  -4.278  0.00  0.00    -0.001 A 
ENDROOT
TORSDOF 0
ENDMDL
