MODEL 1
REMARK minimizedAffinity 6.96901798
REMARK minimizedRMSD -1
REMARK  0 active torsions:
REMARK  status: ('A' for Active; 'I' for Inactive)
ROOT
ATOM      1  C4' PXY d   1       1.485   2.153  -0.054  0.00  0.00     0.077 C 
ATOM      2  C1' PXY d   1       1.799  -3.369   1.626  0.00  0.00     0.077 C 
ATOM      3  C1  PXY d   1       1.727  -1.918   1.193  0.00  0.00    -0.082 A 
ATOM      4  C2  PXY d   1       0.574  -1.414   0.783  0.00  0.00     0.003 A 
ATOM      5  C3  PXY d   1       0.499  -0.112   0.357  0.00  0.00     0.003 A 
ATOM      6  C4  PXY d   1       1.602   0.696   0.401  0.00  0.00    -0.082 A 
ATOM      7  C5  PXY d   1       2.780   0.193   0.829  0.00  0.00     0.003 A 
ATOM      8  C6  PXY d   1       2.845  -1.142   1.217  0.00  0.00     0.003 A 
ENDROOT
TORSDOF 0
ENDMDL
