MODEL 1
REMARK minimizedAffinity 2.21772695
REMARK minimizedRMSD -1
REMARK  0 active torsions:
REMARK  status: ('A' for Active; 'I' for Inactive)
ROOT
ATOM      1  C4' PXY d   1       4.134  -3.756  -6.000  0.00  0.00     0.077 C 
ATOM      2  C1' PXY d   1      -0.709  -5.986  -3.767  0.00  0.00     0.077 C 
ATOM      3  C1  PXY d   1       0.564  -5.413  -4.358  0.00  0.00    -0.082 A 
ATOM      4  C2  PXY d   1       1.119  -4.345  -3.806  0.00  0.00     0.003 A 
ATOM      5  C3  PXY d   1       2.252  -3.795  -4.347  0.00  0.00     0.003 A 
ATOM      6  C4  PXY d   1       2.854  -4.374  -5.432  0.00  0.00    -0.082 A 
ATOM      7  C5  PXY d   1       2.300  -5.470  -5.994  0.00  0.00     0.003 A 
ATOM      8  C6  PXY d   1       1.127  -5.988  -5.455  0.00  0.00     0.003 A 
ENDROOT
TORSDOF 0
ENDMDL
