MODEL 1
REMARK minimizedAffinity 8.95956516
REMARK minimizedRMSD -1
REMARK  0 active torsions:
REMARK  status: ('A' for Active; 'I' for Inactive)
ROOT
ATOM      1  C4' PXY d   1       4.088  -1.256  -3.910  0.00  0.00     0.077 C 
ATOM      2  C1' PXY d   1       1.359  -5.972  -5.842  0.00  0.00     0.077 C 
ATOM      3  C1  PXY d   1       2.064  -4.731  -5.329  0.00  0.00    -0.082 A 
ATOM      4  C2  PXY d   1       3.111  -4.257  -5.984  0.00  0.00     0.003 A 
ATOM      5  C3  PXY d   1       3.780  -3.155  -5.516  0.00  0.00     0.003 A 
ATOM      6  C4  PXY d   1       3.340  -2.501  -4.397  0.00  0.00    -0.082 A 
ATOM      7  C5  PXY d   1       2.266  -2.972  -3.729  0.00  0.00     0.003 A 
ATOM      8  C6  PXY d   1       1.625  -4.116  -4.197  0.00  0.00     0.003 A 
ENDROOT
TORSDOF 0
ENDMDL
