MODEL 1
REMARK minimizedAffinity 21.7035847
REMARK minimizedRMSD -1
REMARK  0 active torsions:
REMARK  status: ('A' for Active; 'I' for Inactive)
ROOT
ATOM      1  C4' PXY d   1       4.296   0.577   2.745  0.00  0.00     0.077 C 
ATOM      2  C1' PXY d   1      -1.309  -0.636   3.470  0.00  0.00     0.077 C 
ATOM      3  C1  PXY d   1       0.161  -0.311   3.290  0.00  0.00    -0.082 A 
ATOM      4  C2  PXY d   1       0.702  -0.375   2.085  0.00  0.00     0.003 A 
ATOM      5  C3  PXY d   1       2.037  -0.115   1.910  0.00  0.00     0.003 A 
ATOM      6  C4  PXY d   1       2.814   0.266   2.971  0.00  0.00    -0.082 A 
ATOM      7  C5  PXY d   1       2.266   0.344   4.202  0.00  0.00     0.003 A 
ATOM      8  C6  PXY d   1       0.919   0.036   4.366  0.00  0.00     0.003 A 
ENDROOT
TORSDOF 0
ENDMDL
