MODEL 1
REMARK minimizedAffinity 20.4611568
REMARK minimizedRMSD -1
REMARK  0 active torsions:
REMARK  status: ('A' for Active; 'I' for Inactive)
ROOT
ATOM      1  C4' PXY d   1       0.906  -3.793   1.902  0.00  0.00     0.077 C 
ATOM      2  C1' PXY d   1       2.804   1.527   0.674  0.00  0.00     0.077 C 
ATOM      3  C1  PXY d   1       2.297   0.137   1.003  0.00  0.00    -0.082 A 
ATOM      4  C2  PXY d   1       3.135  -0.886   0.986  0.00  0.00     0.003 A 
ATOM      5  C3  PXY d   1       2.686  -2.155   1.249  0.00  0.00     0.003 A 
ATOM      6  C4  PXY d   1       1.377  -2.371   1.586  0.00  0.00    -0.082 A 
ATOM      7  C5  PXY d   1       0.517  -1.330   1.615  0.00  0.00     0.003 A 
ATOM      8  C6  PXY d   1       0.984  -0.056   1.304  0.00  0.00     0.003 A 
ENDROOT
TORSDOF 0
ENDMDL
