MODEL 1
REMARK minimizedAffinity 9.6133337
REMARK minimizedRMSD -1
REMARK  0 active torsions:
REMARK  status: ('A' for Active; 'I' for Inactive)
ROOT
ATOM      1  C4' PXY d   1      -5.998  -2.944   6.000  0.00  0.00     0.077 C 
ATOM      2  C1' PXY d   1      -2.336  -2.703   1.534  0.00  0.00     0.077 C 
ATOM      3  C1  PXY d   1      -3.288  -2.773   2.712  0.00  0.00    -0.082 A 
ATOM      4  C2  PXY d   1      -4.591  -2.666   2.508  0.00  0.00     0.003 A 
ATOM      5  C3  PXY d   1      -5.463  -2.695   3.565  0.00  0.00     0.003 A 
ATOM      6  C4  PXY d   1      -5.001  -2.889   4.839  0.00  0.00    -0.082 A 
ATOM      7  C5  PXY d   1      -3.674  -3.010   5.055  0.00  0.00     0.003 A 
ATOM      8  C6  PXY d   1      -2.802  -2.936   3.972  0.00  0.00     0.003 A 
ENDROOT
TORSDOF 0
ENDMDL
