MODEL 1
REMARK minimizedAffinity 7.69241047
REMARK minimizedRMSD -1
REMARK  0 active torsions:
REMARK  status: ('A' for Active; 'I' for Inactive)
ROOT
ATOM      1  C4' PXY d   1       4.538  -3.441  -5.853  0.00  0.00     0.077 C 
ATOM      2  C1' PXY d   1      -0.506  -5.998  -4.653  0.00  0.00     0.077 C 
ATOM      3  C1  PXY d   1       0.823  -5.339  -4.969  0.00  0.00    -0.082 A 
ATOM      4  C2  PXY d   1       1.070  -4.118  -4.524  0.00  0.00     0.003 A 
ATOM      5  C3  PXY d   1       2.253  -3.495  -4.827  0.00  0.00     0.003 A 
ATOM      6  C4  PXY d   1       3.214  -4.149  -5.550  0.00  0.00    -0.082 A 
ATOM      7  C5  PXY d   1       2.974  -5.399  -5.999  0.00  0.00     0.003 A 
ATOM      8  C6  PXY d   1       1.751  -5.998  -5.715  0.00  0.00     0.003 A 
ENDROOT
TORSDOF 0
ENDMDL
