MODEL 1
REMARK minimizedAffinity 16.8212662
REMARK minimizedRMSD -1
REMARK  0 active torsions:
REMARK  status: ('A' for Active; 'I' for Inactive)
ROOT
ATOM      1  C4' PXY d   1       2.000  -6.000  -6.000  0.00  0.00     0.077 C 
ATOM      2  C1' PXY d   1      -0.490  -3.225  -1.582  0.00  0.00     0.077 C 
ATOM      3  C1  PXY d   1       0.166  -3.963  -2.733  0.00  0.00    -0.082 A 
ATOM      4  C2  PXY d   1       0.647  -3.280  -3.759  0.00  0.00     0.003 A 
ATOM      5  C3  PXY d   1       1.215  -3.933  -4.822  0.00  0.00     0.003 A 
ATOM      6  C4  PXY d   1       1.339  -5.296  -4.812  0.00  0.00    -0.082 A 
ATOM      7  C5  PXY d   1       0.859  -6.000  -3.764  0.00  0.00     0.003 A 
ATOM      8  C6  PXY d   1       0.250  -5.321  -2.713  0.00  0.00     0.003 A 
ENDROOT
TORSDOF 0
ENDMDL
