MODEL 1
REMARK minimizedAffinity 17.8135376
REMARK minimizedRMSD -1
REMARK  0 active torsions:
REMARK  status: ('A' for Active; 'I' for Inactive)
ROOT
ATOM      1  C4' PXY d   1       2.127  -0.748   1.479  0.00  0.00     0.077 C 
ATOM      2  C1' PXY d   1      -0.291  -5.998   1.436  0.00  0.00     0.077 C 
ATOM      3  C1  PXY d   1       0.333  -4.616   1.442  0.00  0.00    -0.082 A 
ATOM      4  C2  PXY d   1       1.649  -4.492   1.410  0.00  0.00     0.003 A 
ATOM      5  C3  PXY d   1       2.230  -3.251   1.448  0.00  0.00     0.003 A 
ATOM      6  C4  PXY d   1       1.454  -2.123   1.465  0.00  0.00    -0.082 A 
ATOM      7  C5  PXY d   1       0.110  -2.241   1.487  0.00  0.00     0.003 A 
ATOM      8  C6  PXY d   1      -0.460  -3.511   1.490  0.00  0.00     0.003 A 
ENDROOT
TORSDOF 0
ENDMDL
