MODEL 1
REMARK minimizedAffinity 19.4259319
REMARK minimizedRMSD -1
REMARK  0 active torsions:
REMARK  status: ('A' for Active; 'I' for Inactive)
ROOT
ATOM      1  C4' PXY d   1       3.366   0.894   1.379  0.00  0.00     0.077 C 
ATOM      2  C1' PXY d   1       5.420  -1.530  -3.450  0.00  0.00     0.077 C 
ATOM      3  C1  PXY d   1       4.875  -0.905  -2.181  0.00  0.00    -0.082 A 
ATOM      4  C2  PXY d   1       4.761   0.410  -2.096  0.00  0.00     0.003 A 
ATOM      5  C3  PXY d   1       4.300   0.994  -0.944  0.00  0.00     0.003 A 
ATOM      6  C4  PXY d   1       3.902   0.220   0.113  0.00  0.00    -0.082 A 
ATOM      7  C5  PXY d   1       4.006  -1.124   0.030  0.00  0.00     0.003 A 
ATOM      8  C6  PXY d   1       4.514  -1.694  -1.133  0.00  0.00     0.003 A 
ENDROOT
TORSDOF 0
ENDMDL
