MODEL 1
REMARK minimizedAffinity 16.9950752
REMARK minimizedRMSD -1
REMARK  0 active torsions:
REMARK  status: ('A' for Active; 'I' for Inactive)
ROOT
ATOM      1  C4' PXY d   1       3.194  -6.000   1.878  0.00  0.00     0.077 C 
ATOM      2  C1' PXY d   1      -1.082  -2.926  -0.506  0.00  0.00     0.077 C 
ATOM      3  C1  PXY d   1       0.043  -3.736   0.108  0.00  0.00    -0.082 A 
ATOM      4  C2  PXY d   1      -0.028  -4.097   1.379  0.00  0.00     0.003 A 
ATOM      5  C3  PXY d   1       0.994  -4.803   1.958  0.00  0.00     0.003 A 
ATOM      6  C4  PXY d   1       2.077  -5.189   1.215  0.00  0.00    -0.082 A 
ATOM      7  C5  PXY d   1       2.153  -4.834  -0.086  0.00  0.00     0.003 A 
ATOM      8  C6  PXY d   1       1.123  -4.082  -0.644  0.00  0.00     0.003 A 
ENDROOT
TORSDOF 0
ENDMDL
