MODEL 1
REMARK minimizedAffinity 12.89221
REMARK minimizedRMSD -1
REMARK  0 active torsions:
REMARK  status: ('A' for Active; 'I' for Inactive)
ROOT
ATOM      1  C4' PXY d   1      -3.165   3.345  -1.655  0.00  0.00     0.077 C 
ATOM      2  C1' PXY d   1      -0.419   5.999  -5.995  0.00  0.00     0.077 C 
ATOM      3  C1  PXY d   1      -1.134   5.311  -4.849  0.00  0.00    -0.082 A 
ATOM      4  C2  PXY d   1      -1.490   4.043  -4.966  0.00  0.00     0.003 A 
ATOM      5  C3  PXY d   1      -2.166   3.415  -3.952  0.00  0.00     0.003 A 
ATOM      6  C4  PXY d   1      -2.433   4.077  -2.784  0.00  0.00    -0.082 A 
ATOM      7  C5  PXY d   1      -2.063   5.369  -2.652  0.00  0.00     0.003 A 
ATOM      8  C6  PXY d   1      -1.415   6.000  -3.709  0.00  0.00     0.003 A 
ENDROOT
TORSDOF 0
ENDMDL
