MODEL 1
REMARK minimizedAffinity 9.01099777
REMARK minimizedRMSD -1
REMARK  0 active torsions:
REMARK  status: ('A' for Active; 'I' for Inactive)
ROOT
ATOM      1  C4' PXY d   1       4.548  -3.396  -5.975  0.00  0.00     0.077 C 
ATOM      2  C1' PXY d   1      -0.311  -5.998  -4.233  0.00  0.00     0.077 C 
ATOM      3  C1  PXY d   1       0.959  -5.304  -4.686  0.00  0.00    -0.082 A 
ATOM      4  C2  PXY d   1       1.725  -5.875  -5.601  0.00  0.00     0.003 A 
ATOM      5  C3  PXY d   1       2.892  -5.276  -5.999  0.00  0.00     0.003 A 
ATOM      6  C4  PXY d   1       3.253  -4.056  -5.494  0.00  0.00    -0.082 A 
ATOM      7  C5  PXY d   1       2.471  -3.462  -4.567  0.00  0.00     0.003 A 
ATOM      8  C6  PXY d   1       1.311  -4.106  -4.146  0.00  0.00     0.003 A 
ENDROOT
TORSDOF 0
ENDMDL
