MODEL 1
REMARK minimizedAffinity 12.4051199
REMARK minimizedRMSD -1
REMARK  0 active torsions:
REMARK  status: ('A' for Active; 'I' for Inactive)
ROOT
ATOM      1  C4' PXY d   1      -2.366   3.027  -2.968  0.00  0.00     0.077 C 
ATOM      2  C1' PXY d   1       2.392   1.726   0.048  0.00  0.00     0.077 C 
ATOM      3  C1  PXY d   1       1.151   2.072  -0.752  0.00  0.00    -0.082 A 
ATOM      4  C2  PXY d   1      -0.013   2.191  -0.135  0.00  0.00     0.003 A 
ATOM      5  C3  PXY d   1      -1.150   2.472  -0.848  0.00  0.00     0.003 A 
ATOM      6  C4  PXY d   1      -1.086   2.687  -2.199  0.00  0.00    -0.082 A 
ATOM      7  C5  PXY d   1       0.100   2.579  -2.834  0.00  0.00     0.003 A 
ATOM      8  C6  PXY d   1       1.236   2.252  -2.099  0.00  0.00     0.003 A 
ENDROOT
TORSDOF 0
ENDMDL
