MODEL 1
REMARK minimizedAffinity 9.84840298
REMARK minimizedRMSD -1
REMARK  0 active torsions:
REMARK  status: ('A' for Active; 'I' for Inactive)
ROOT
ATOM      1  C4' PXY d   1      -0.713  -3.325  -1.395  0.00  0.00     0.077 C 
ATOM      2  C1' PXY d   1       2.324  -5.999  -5.524  0.00  0.00     0.077 C 
ATOM      3  C1  PXY d   1       1.523  -5.309  -4.437  0.00  0.00    -0.082 A 
ATOM      4  C2  PXY d   1       1.204  -4.032  -4.570  0.00  0.00     0.003 A 
ATOM      5  C3  PXY d   1       0.507  -3.385  -3.583  0.00  0.00     0.003 A 
ATOM      6  C4  PXY d   1       0.087  -4.065  -2.471  0.00  0.00    -0.082 A 
ATOM      7  C5  PXY d   1       0.399  -5.371  -2.333  0.00  0.00     0.003 A 
ATOM      8  C6  PXY d   1       1.142  -5.999  -3.328  0.00  0.00     0.003 A 
ENDROOT
TORSDOF 0
ENDMDL
