MODEL 1
REMARK minimizedAffinity 9.6837492
REMARK minimizedRMSD -1
REMARK  0 active torsions:
REMARK  status: ('A' for Active; 'I' for Inactive)
ROOT
ATOM      1  C4' PXY d   1       0.597   2.352  -0.429  0.00  0.00     0.077 C 
ATOM      2  C1' PXY d   1       4.910  -0.314   2.346  0.00  0.00     0.077 C 
ATOM      3  C1  PXY d   1       3.774   0.373   1.614  0.00  0.00    -0.082 A 
ATOM      4  C2  PXY d   1       3.922   1.622   1.203  0.00  0.00     0.003 A 
ATOM      5  C3  PXY d   1       2.894   2.270   0.568  0.00  0.00     0.003 A 
ATOM      6  C4  PXY d   1       1.720   1.615   0.305  0.00  0.00    -0.082 A 
ATOM      7  C5  PXY d   1       1.565   0.338   0.713  0.00  0.00     0.003 A 
ATOM      8  C6  PXY d   1       2.606  -0.289   1.392  0.00  0.00     0.003 A 
ENDROOT
TORSDOF 0
ENDMDL
