MODEL 1
REMARK minimizedAffinity 5.28732252
REMARK minimizedRMSD -1
REMARK  0 active torsions:
REMARK  status: ('A' for Active; 'I' for Inactive)
ROOT
ATOM      1  C4' PXY d   1      -0.736  -0.740   6.000  0.00  0.00     0.077 C 
ATOM      2  C1' PXY d   1       1.930  -0.721   0.871  0.00  0.00     0.077 C 
ATOM      3  C1  PXY d   1       1.242  -0.732   2.222  0.00  0.00    -0.082 A 
ATOM      4  C2  PXY d   1      -0.080  -0.728   2.282  0.00  0.00     0.003 A 
ATOM      5  C3  PXY d   1      -0.719  -0.705   3.495  0.00  0.00     0.003 A 
ATOM      6  C4  PXY d   1       0.002  -0.739   4.658  0.00  0.00    -0.082 A 
ATOM      7  C5  PXY d   1       1.350  -0.754   4.605  0.00  0.00     0.003 A 
ATOM      8  C6  PXY d   1       1.980  -0.735   3.364  0.00  0.00     0.003 A 
ENDROOT
TORSDOF 0
ENDMDL
