MODEL 1
REMARK minimizedAffinity 7.95235395
REMARK minimizedRMSD -1
REMARK  0 active torsions:
REMARK  status: ('A' for Active; 'I' for Inactive)
ROOT
ATOM      1  C4' PXY d   1      -4.845  -6.000  -1.856  0.00  0.00     0.077 C 
ATOM      2  C1' PXY d   1      -4.506  -3.471   3.331  0.00  0.00     0.077 C 
ATOM      3  C1  PXY d   1      -4.596  -4.146   1.977  0.00  0.00    -0.082 A 
ATOM      4  C2  PXY d   1      -4.120  -3.530   0.906  0.00  0.00     0.003 A 
ATOM      5  C3  PXY d   1      -4.221  -4.112  -0.331  0.00  0.00     0.003 A 
ATOM      6  C4  PXY d   1      -4.768  -5.361  -0.467  0.00  0.00    -0.082 A 
ATOM      7  C5  PXY d   1      -5.245  -6.000   0.622  0.00  0.00     0.003 A 
ATOM      8  C6  PXY d   1      -5.170  -5.374   1.863  0.00  0.00     0.003 A 
ENDROOT
TORSDOF 0
ENDMDL
