MODEL 1
REMARK minimizedAffinity -0.276898772
REMARK minimizedRMSD -1
REMARK  0 active torsions:
REMARK  status: ('A' for Active; 'I' for Inactive)
ROOT
ATOM      1  C4' PXY d   1      -4.522  -3.378   6.000  0.00  0.00     0.077 C 
ATOM      2  C1' PXY d   1      -5.679  -6.000   0.979  0.00  0.00     0.077 C 
ATOM      3  C1  PXY d   1      -5.384  -5.320   2.302  0.00  0.00    -0.082 A 
ATOM      4  C2  PXY d   1      -4.914  -4.083   2.311  0.00  0.00     0.003 A 
ATOM      5  C3  PXY d   1      -4.612  -3.465   3.497  0.00  0.00     0.003 A 
ATOM      6  C4  PXY d   1      -4.843  -4.100   4.688  0.00  0.00    -0.082 A 
ATOM      7  C5  PXY d   1      -5.332  -5.358   4.687  0.00  0.00     0.003 A 
ATOM      8  C6  PXY d   1      -5.594  -5.983   3.472  0.00  0.00     0.003 A 
ENDROOT
TORSDOF 0
ENDMDL
