MODEL 1
REMARK minimizedAffinity 10.9997683
REMARK minimizedRMSD -1
REMARK  0 active torsions:
REMARK  status: ('A' for Active; 'I' for Inactive)
ROOT
ATOM      1  C2' OXE d   1      -2.213  -3.514   4.477  0.00  0.00     0.078 C 
ATOM      2  C1' OXE d   1      -0.580  -1.519   5.588  0.00  0.00     0.078 C 
ATOM      3  C1  OXE d   1      -2.062  -1.251   5.507  0.00  0.00    -0.078 A 
ATOM      4  C2  OXE d   1      -2.848  -2.213   4.919  0.00  0.00    -0.078 A 
ATOM      5  C3  OXE d   1      -4.228  -2.040   4.869  0.00  0.00     0.003 A 
ATOM      6  C4  OXE d   1      -4.806  -0.830   5.271  0.00  0.00    -0.002 A 
ATOM      7  C5  OXE d   1      -4.019   0.179   5.836  0.00  0.00    -0.002 A 
ATOM      8  C6  OXE d   1      -2.654  -0.032   6.000  0.00  0.00     0.003 A 
ENDROOT
TORSDOF 0
ENDMDL
