MODEL 1
REMARK minimizedAffinity 12.8390884
REMARK minimizedRMSD -1
REMARK  0 active torsions:
REMARK  status: ('A' for Active; 'I' for Inactive)
ROOT
ATOM      1  C2' OXE d   1       6.000   5.262  -0.793  0.00  0.00     0.078 C 
ATOM      2  C1' OXE d   1       4.605   5.474   1.633  0.00  0.00     0.078 C 
ATOM      3  C1  OXE d   1       4.304   4.289   0.750  0.00  0.00    -0.078 A 
ATOM      4  C2  OXE d   1       4.957   4.218  -0.457  0.00  0.00    -0.078 A 
ATOM      5  C3  OXE d   1       4.757   3.117  -1.285  0.00  0.00     0.003 A 
ATOM      6  C4  OXE d   1       3.783   2.162  -0.971  0.00  0.00    -0.002 A 
ATOM      7  C5  OXE d   1       3.077   2.236   0.234  0.00  0.00    -0.002 A 
ATOM      8  C6  OXE d   1       3.356   3.268   1.124  0.00  0.00     0.003 A 
ENDROOT
TORSDOF 0
ENDMDL
