MODEL 1
REMARK minimizedAffinity 11.8753691
REMARK minimizedRMSD -1
REMARK  0 active torsions:
REMARK  status: ('A' for Active; 'I' for Inactive)
ROOT
ATOM      1  C2' OXE d   1       2.369   2.378  -1.313  0.00  0.00     0.078 C 
ATOM      2  C1' OXE d   1       1.067   3.113  -3.689  0.00  0.00     0.078 C 
ATOM      3  C1  OXE d   1       0.823   1.724  -3.154  0.00  0.00    -0.078 A 
ATOM      4  C2  OXE d   1       1.501   1.357  -2.016  0.00  0.00    -0.078 A 
ATOM      5  C3  OXE d   1       1.270   0.107  -1.450  0.00  0.00     0.003 A 
ATOM      6  C4  OXE d   1       0.474  -0.835  -2.112  0.00  0.00    -0.002 A 
ATOM      7  C5  OXE d   1      -0.194  -0.495  -3.293  0.00  0.00    -0.002 A 
ATOM      8  C6  OXE d   1      -0.064   0.791  -3.803  0.00  0.00     0.003 A 
ENDROOT
TORSDOF 0
ENDMDL
