MODEL 1
REMARK minimizedAffinity 8.98118877
REMARK minimizedRMSD -1
REMARK  0 active torsions:
REMARK  status: ('A' for Active; 'I' for Inactive)
ROOT
ATOM      1  C2' OXE d   1      -5.919   1.051   6.000  0.00  0.00     0.078 C 
ATOM      2  C1' OXE d   1      -3.452   2.390   6.000  0.00  0.00     0.078 C 
ATOM      3  C1  OXE d   1      -3.456   0.923   5.649  0.00  0.00    -0.078 A 
ATOM      4  C2  OXE d   1      -4.661   0.265   5.697  0.00  0.00    -0.078 A 
ATOM      5  C3  OXE d   1      -4.730  -1.076   5.330  0.00  0.00     0.003 A 
ATOM      6  C4  OXE d   1      -3.560  -1.798   5.062  0.00  0.00    -0.002 A 
ATOM      7  C5  OXE d   1      -2.317  -1.156   5.046  0.00  0.00    -0.002 A 
ATOM      8  C6  OXE d   1      -2.253   0.211   5.296  0.00  0.00     0.003 A 
ENDROOT
TORSDOF 0
ENDMDL
