MODEL 1
REMARK minimizedAffinity 13.8997326
REMARK minimizedRMSD -1
REMARK  0 active torsions:
REMARK  status: ('A' for Active; 'I' for Inactive)
ROOT
ATOM      1  C2' OXE d   1       2.743   1.412  -1.750  0.00  0.00     0.078 C 
ATOM      2  C1' OXE d   1       3.724  -0.907  -2.990  0.00  0.00     0.078 C 
ATOM      3  C1  OXE d   1       2.231  -0.775  -2.827  0.00  0.00    -0.078 A 
ATOM      4  C2  OXE d   1       1.762   0.341  -2.177  0.00  0.00    -0.078 A 
ATOM      5  C3  OXE d   1       0.390   0.539  -2.049  0.00  0.00     0.003 A 
ATOM      6  C4  OXE d   1      -0.510  -0.460  -2.438  0.00  0.00    -0.002 A 
ATOM      7  C5  OXE d   1      -0.051  -1.623  -3.066  0.00  0.00    -0.002 A 
ATOM      8  C6  OXE d   1       1.310  -1.777  -3.305  0.00  0.00     0.003 A 
ENDROOT
TORSDOF 0
ENDMDL
