MODEL 1
REMARK minimizedAffinity 7.13169336
REMARK minimizedRMSD -1
REMARK  0 active torsions:
REMARK  status: ('A' for Active; 'I' for Inactive)
ROOT
ATOM      1  C2' OXE d   1       4.433   3.980  -0.891  0.00  0.00     0.078 C 
ATOM      2  C1' OXE d   1       3.248   2.750   1.337  0.00  0.00     0.078 C 
ATOM      3  C1  OXE d   1       3.065   2.094  -0.009  0.00  0.00    -0.078 A 
ATOM      4  C2  OXE d   1       3.609   2.728  -1.101  0.00  0.00    -0.078 A 
ATOM      5  C3  OXE d   1       3.517   2.137  -2.358  0.00  0.00     0.003 A 
ATOM      6  C4  OXE d   1       2.744   0.984  -2.544  0.00  0.00    -0.002 A 
ATOM      7  C5  OXE d   1       2.149   0.344  -1.452  0.00  0.00    -0.002 A 
ATOM      8  C6  OXE d   1       2.335   0.862  -0.175  0.00  0.00     0.003 A 
ENDROOT
TORSDOF 0
ENDMDL
