MODEL 1
REMARK minimizedAffinity 10.4376564
REMARK minimizedRMSD -1
REMARK  0 active torsions:
REMARK  status: ('A' for Active; 'I' for Inactive)
ROOT
ATOM      1  C2' OXE d   1      -5.998   1.767   5.942  0.00  0.00     0.078 C 
ATOM      2  C1' OXE d   1      -3.293   2.516   5.998  0.00  0.00     0.078 C 
ATOM      3  C1  OXE d   1      -3.625   1.109   5.568  0.00  0.00    -0.078 A 
ATOM      4  C2  OXE d   1      -4.948   0.737   5.589  0.00  0.00    -0.078 A 
ATOM      5  C3  OXE d   1      -5.314  -0.533   5.150  0.00  0.00     0.003 A 
ATOM      6  C4  OXE d   1      -4.335  -1.483   4.835  0.00  0.00    -0.002 A 
ATOM      7  C5  OXE d   1      -2.980  -1.137   4.846  0.00  0.00    -0.002 A 
ATOM      8  C6  OXE d   1      -2.611   0.165   5.168  0.00  0.00     0.003 A 
ENDROOT
TORSDOF 0
ENDMDL
