MODEL 1
REMARK minimizedAffinity 2.25746989
REMARK minimizedRMSD -1
REMARK  0 active torsions:
REMARK  status: ('A' for Active; 'I' for Inactive)
ROOT
ATOM      1  C2' OXE d   1      -2.935   3.058   1.077  0.00  0.00     0.078 C 
ATOM      2  C1' OXE d   1      -5.610   3.302   1.892  0.00  0.00     0.078 C 
ATOM      3  C1  OXE d   1      -5.131   4.196   0.776  0.00  0.00    -0.078 A 
ATOM      4  C2  OXE d   1      -3.808   4.102   0.415  0.00  0.00    -0.078 A 
ATOM      5  C3  OXE d   1      -3.327   4.864  -0.646  0.00  0.00     0.003 A 
ATOM      6  C4  OXE d   1      -4.138   5.835  -1.246  0.00  0.00    -0.002 A 
ATOM      7  C5  OXE d   1      -5.478   5.974  -0.867  0.00  0.00    -0.002 A 
ATOM      8  C6  OXE d   1      -6.000   5.135   0.111  0.00  0.00     0.003 A 
ENDROOT
TORSDOF 0
ENDMDL
