MODEL 1
REMARK minimizedAffinity 15.5517311
REMARK minimizedRMSD -1
REMARK  0 active torsions:
REMARK  status: ('A' for Active; 'I' for Inactive)
ROOT
ATOM      1  C2' OXE d   1      -4.882  -2.654   1.563  0.00  0.00     0.078 C 
ATOM      2  C1' OXE d   1      -2.741  -3.373   3.230  0.00  0.00     0.078 C 
ATOM      3  C1  OXE d   1      -2.415  -2.798   1.874  0.00  0.00    -0.078 A 
ATOM      4  C2  OXE d   1      -3.468  -2.493   1.047  0.00  0.00    -0.078 A 
ATOM      5  C3  OXE d   1      -3.225  -1.909  -0.193  0.00  0.00     0.003 A 
ATOM      6  C4  OXE d   1      -1.914  -1.773  -0.667  0.00  0.00    -0.002 A 
ATOM      7  C5  OXE d   1      -0.827  -2.115   0.143  0.00  0.00    -0.002 A 
ATOM      8  C6  OXE d   1      -1.059  -2.588   1.430  0.00  0.00     0.003 A 
ENDROOT
TORSDOF 0
ENDMDL
