MODEL 1
REMARK minimizedAffinity 7.93353844
REMARK minimizedRMSD -1
REMARK  0 active torsions:
REMARK  status: ('A' for Active; 'I' for Inactive)
ROOT
ATOM      1  C2' OXE d   1       5.625   1.736  -4.425  0.00  0.00     0.078 C 
ATOM      2  C1' OXE d   1       6.000  -0.985  -3.846  0.00  0.00     0.078 C 
ATOM      3  C1  OXE d   1       4.738  -0.326  -3.346  0.00  0.00    -0.078 A 
ATOM      4  C2  OXE d   1       4.585   1.017  -3.594  0.00  0.00    -0.078 A 
ATOM      5  C3  OXE d   1       3.415   1.661  -3.203  0.00  0.00     0.003 A 
ATOM      6  C4  OXE d   1       2.462   0.990  -2.426  0.00  0.00    -0.002 A 
ATOM      7  C5  OXE d   1       2.618  -0.368  -2.128  0.00  0.00    -0.002 A 
ATOM      8  C6  OXE d   1       3.727  -1.050  -2.616  0.00  0.00     0.003 A 
ENDROOT
TORSDOF 0
ENDMDL
