MODEL 1
REMARK minimizedAffinity 13.4861107
REMARK minimizedRMSD -1
REMARK  0 active torsions:
REMARK  status: ('A' for Active; 'I' for Inactive)
ROOT
ATOM      1  C2' OXE d   1       6.000   1.877  -4.492  0.00  0.00     0.078 C 
ATOM      2  C1' OXE d   1       5.998  -0.930  -4.467  0.00  0.00     0.078 C 
ATOM      3  C1  OXE d   1       4.930  -0.219  -3.674  0.00  0.00    -0.078 A 
ATOM      4  C2  OXE d   1       4.967   1.155  -3.654  0.00  0.00    -0.078 A 
ATOM      5  C3  OXE d   1       3.972   1.861  -2.983  0.00  0.00     0.003 A 
ATOM      6  C4  OXE d   1       3.027   1.185  -2.203  0.00  0.00    -0.002 A 
ATOM      7  C5  OXE d   1       2.996  -0.213  -2.177  0.00  0.00    -0.002 A 
ATOM      8  C6  OXE d   1       3.912  -0.929  -2.940  0.00  0.00     0.003 A 
ENDROOT
TORSDOF 0
ENDMDL
