MODEL 1
REMARK minimizedAffinity 5.73850393
REMARK minimizedRMSD -1
REMARK  0 active torsions:
REMARK  status: ('A' for Active; 'I' for Inactive)
ROOT
ATOM      1  C2' OXE d   1      -0.585  -2.147  -0.443  0.00  0.00     0.078 C 
ATOM      2  C1' OXE d   1      -0.030  -4.740   0.477  0.00  0.00     0.078 C 
ATOM      3  C1  OXE d   1      -0.889  -3.855   1.345  0.00  0.00    -0.078 A 
ATOM      4  C2  OXE d   1      -1.117  -2.572   0.909  0.00  0.00    -0.078 A 
ATOM      5  C3  OXE d   1      -1.948  -1.731   1.644  0.00  0.00     0.003 A 
ATOM      6  C4  OXE d   1      -2.428  -2.129   2.898  0.00  0.00    -0.002 A 
ATOM      7  C5  OXE d   1      -2.174  -3.417   3.379  0.00  0.00    -0.002 A 
ATOM      8  C6  OXE d   1      -1.444  -4.305   2.597  0.00  0.00     0.003 A 
ENDROOT
TORSDOF 0
ENDMDL
