MODEL 1
REMARK minimizedAffinity 11.4140139
REMARK minimizedRMSD -1
REMARK  0 active torsions:
REMARK  status: ('A' for Active; 'I' for Inactive)
ROOT
ATOM      1  C2' OXE d   1      -3.201   5.482   5.972  0.00  0.00     0.078 C 
ATOM      2  C1' OXE d   1      -5.979   5.469   5.567  0.00  0.00     0.078 C 
ATOM      3  C1  OXE d   1      -5.278   4.138   5.678  0.00  0.00    -0.078 A 
ATOM      4  C2  OXE d   1      -3.912   4.154   5.830  0.00  0.00    -0.078 A 
ATOM      5  C3  OXE d   1      -3.223   2.956   5.992  0.00  0.00     0.003 A 
ATOM      6  C4  OXE d   1      -3.886   1.731   5.849  0.00  0.00    -0.002 A 
ATOM      7  C5  OXE d   1      -5.271   1.692   5.655  0.00  0.00    -0.002 A 
ATOM      8  C6  OXE d   1      -5.986   2.884   5.610  0.00  0.00     0.003 A 
ENDROOT
TORSDOF 0
ENDMDL
