MODEL 1
REMARK minimizedAffinity 10.6983109
REMARK minimizedRMSD -1
REMARK  0 active torsions:
REMARK  status: ('A' for Active; 'I' for Inactive)
ROOT
ATOM      1  C2' OXE d   1      -0.408  -1.552  -2.742  0.00  0.00     0.078 C 
ATOM      2  C1' OXE d   1      -0.578  -2.822  -0.245  0.00  0.00     0.078 C 
ATOM      3  C1  OXE d   1      -1.726  -1.939  -0.664  0.00  0.00    -0.078 A 
ATOM      4  C2  OXE d   1      -1.614  -1.284  -1.868  0.00  0.00    -0.078 A 
ATOM      5  C3  OXE d   1      -2.668  -0.501  -2.327  0.00  0.00     0.003 A 
ATOM      6  C4  OXE d   1      -3.775  -0.250  -1.508  0.00  0.00    -0.002 A 
ATOM      7  C5  OXE d   1      -3.892  -0.875  -0.262  0.00  0.00    -0.002 A 
ATOM      8  C6  OXE d   1      -2.898  -1.754   0.156  0.00  0.00     0.003 A 
ENDROOT
TORSDOF 0
ENDMDL
