MODEL 1
REMARK minimizedAffinity 14.860116
REMARK minimizedRMSD -1
REMARK  0 active torsions:
REMARK  status: ('A' for Active; 'I' for Inactive)
ROOT
ATOM      1  C2' OXE d   1      -1.574  -0.080   5.438  0.00  0.00     0.078 C 
ATOM      2  C1' OXE d   1      -3.299  -2.036   4.400  0.00  0.00     0.078 C 
ATOM      3  C1  OXE d   1      -3.915  -0.769   4.938  0.00  0.00    -0.078 A 
ATOM      4  C2  OXE d   1      -3.067   0.163   5.486  0.00  0.00    -0.078 A 
ATOM      5  C3  OXE d   1      -3.577   1.373   5.947  0.00  0.00     0.003 A 
ATOM      6  C4  OXE d   1      -4.960   1.586   5.997  0.00  0.00    -0.002 A 
ATOM      7  C5  OXE d   1      -5.844   0.633   5.480  0.00  0.00    -0.002 A 
ATOM      8  C6  OXE d   1      -5.337  -0.529   4.909  0.00  0.00     0.003 A 
ENDROOT
TORSDOF 0
ENDMDL
