MODEL 1
REMARK minimizedAffinity 11.8844185
REMARK minimizedRMSD -1
REMARK  0 active torsions:
REMARK  status: ('A' for Active; 'I' for Inactive)
ROOT
ATOM      1  C2' OXE d   1      -0.041  -3.570  -3.557  0.00  0.00     0.078 C 
ATOM      2  C1' OXE d   1      -0.231  -1.542  -1.625  0.00  0.00     0.078 C 
ATOM      3  C1  OXE d   1      -0.125  -2.966  -1.141  0.00  0.00    -0.078 A 
ATOM      4  C2  OXE d   1      -0.080  -3.956  -2.094  0.00  0.00    -0.078 A 
ATOM      5  C3  OXE d   1       0.073  -5.283  -1.703  0.00  0.00     0.003 A 
ATOM      6  C4  OXE d   1       0.026  -5.632  -0.348  0.00  0.00    -0.002 A 
ATOM      7  C5  OXE d   1      -0.060  -4.643   0.638  0.00  0.00    -0.002 A 
ATOM      8  C6  OXE d   1      -0.094  -3.306   0.260  0.00  0.00     0.003 A 
ENDROOT
TORSDOF 0
ENDMDL
