MODEL 1
REMARK minimizedAffinity 8.7839613
REMARK minimizedRMSD -1
REMARK  0 active torsions:
REMARK  status: ('A' for Active; 'I' for Inactive)
ROOT
ATOM      1  C2' OXE d   1      -2.551  -3.384   2.650  0.00  0.00     0.078 C 
ATOM      2  C1' OXE d   1      -0.675  -4.630   0.974  0.00  0.00     0.078 C 
ATOM      3  C1  OXE d   1      -1.250  -3.309   0.527  0.00  0.00    -0.078 A 
ATOM      4  C2  OXE d   1      -2.201  -2.729   1.331  0.00  0.00    -0.078 A 
ATOM      5  C3  OXE d   1      -2.723  -1.484   0.993  0.00  0.00     0.003 A 
ATOM      6  C4  OXE d   1      -2.403  -0.889  -0.233  0.00  0.00    -0.002 A 
ATOM      7  C5  OXE d   1      -1.465  -1.483  -1.086  0.00  0.00    -0.002 A 
ATOM      8  C6  OXE d   1      -0.849  -2.668  -0.701  0.00  0.00     0.003 A 
ENDROOT
TORSDOF 0
ENDMDL
