MODEL 1
REMARK minimizedAffinity -3.64444804
REMARK minimizedRMSD -1
REMARK  2 active torsions:
REMARK  status: ('A' for Active; 'I' for Inactive)
REMARK    1  A    between atoms: C1_2  and  C2_3 
REMARK    2  A    between atoms: C2_3  and  C3_4 
ROOT
ATOM      1  C3  UNL d   1      -0.393  -0.248   0.015  0.00  0.00    -0.075 A 
ATOM      2  C4  UNL d   1      -1.159   0.128   1.128  0.00  0.00     0.002 A 
ATOM      3  C5  UNL d   1      -0.811   1.249   1.882  0.00  0.00     0.002 A 
ATOM      4  C6  UNL d   1       0.311   2.002   1.540  0.00  0.00    -0.004 A 
ATOM      5  C7  UNL d   1       1.089   1.628   0.446  0.00  0.00     0.002 A 
ATOM      6  C8  UNL d   1       0.740   0.509  -0.312  0.00  0.00     0.002 A 
ENDROOT
BRANCH   1   7
ATOM      7  C2  UNL d   1      -0.781  -1.443  -0.822  0.00  0.00     0.056 C 
BRANCH   7   8
ATOM      8  C1  UNL d   1      -1.329  -1.082  -2.207  0.00  0.00     0.007 C 
ATOM      9  C   UNL d   1      -2.569  -1.881  -2.588  0.00  0.00     0.009 C 
ENDBRANCH   7   8
ENDBRANCH   1   7
TORSDOF 2
ENDMDL
