MODEL 1
REMARK minimizedAffinity -2.01209784
REMARK minimizedRMSD -1
REMARK  2 active torsions:
REMARK  status: ('A' for Active; 'I' for Inactive)
REMARK    1  A    between atoms: C1_2  and  C2_3 
REMARK    2  A    between atoms: C2_3  and  C3_4 
ROOT
ATOM      1  C3  UNL d   1      -1.011  -0.781  -1.379  0.00  0.00    -0.075 A 
ATOM      2  C4  UNL d   1      -0.596  -0.402  -2.664  0.00  0.00     0.002 A 
ATOM      3  C5  UNL d   1      -1.401  -0.661  -3.774  0.00  0.00     0.002 A 
ATOM      4  C6  UNL d   1      -2.623  -1.311  -3.615  0.00  0.00    -0.004 A 
ATOM      5  C7  UNL d   1      -3.037  -1.707  -2.346  0.00  0.00     0.002 A 
ATOM      6  C8  UNL d   1      -2.236  -1.445  -1.233  0.00  0.00     0.002 A 
ENDROOT
BRANCH   1   7
ATOM      7  C2  UNL d   1      -0.158  -0.477  -0.171  0.00  0.00     0.056 C 
BRANCH   7   8
ATOM      8  C1  UNL d   1       0.829   0.676  -0.378  0.00  0.00     0.007 C 
ATOM      9  C   UNL d   1       0.595   1.845   0.570  0.00  0.00     0.009 C 
ENDBRANCH   7   8
ENDBRANCH   1   7
TORSDOF 2
ENDMDL
