MODEL 1
REMARK minimizedAffinity -3.81926775
REMARK minimizedRMSD -1
REMARK  2 active torsions:
REMARK  status: ('A' for Active; 'I' for Inactive)
REMARK    1  A    between atoms: C1_2  and  C2_3 
REMARK    2  A    between atoms: C2_3  and  C3_4 
ROOT
ATOM      1  C3  UNL d   1       0.528   0.503   0.381  0.00  0.00    -0.075 A 
ATOM      2  C4  UNL d   1       0.713   1.687   1.110  0.00  0.00     0.002 A 
ATOM      3  C5  UNL d   1       1.904   2.405   1.002  0.00  0.00     0.002 A 
ATOM      4  C6  UNL d   1       2.926   1.946   0.175  0.00  0.00    -0.004 A 
ATOM      5  C7  UNL d   1       2.759   0.762  -0.541  0.00  0.00     0.002 A 
ATOM      6  C8  UNL d   1       1.567   0.043  -0.438  0.00  0.00     0.002 A 
ENDROOT
BRANCH   1   7
ATOM      7  C2  UNL d   1      -0.770  -0.264   0.471  0.00  0.00     0.056 C 
BRANCH   7   8
ATOM      8  C1  UNL d   1      -0.750  -1.407   1.492  0.00  0.00     0.007 C 
ATOM      9  C   UNL d   1      -1.642  -1.149   2.699  0.00  0.00     0.009 C 
ENDBRANCH   7   8
ENDBRANCH   1   7
TORSDOF 2
ENDMDL
