MODEL 1
REMARK minimizedAffinity -0.871132791
REMARK minimizedRMSD -1
REMARK  2 active torsions:
REMARK  status: ('A' for Active; 'I' for Inactive)
REMARK    1  A    between atoms: C1_2  and  C2_3 
REMARK    2  A    between atoms: C2_3  and  C3_4 
ROOT
ATOM      1  C3  UNL d   1       2.518   3.028  -3.396  0.00  0.00    -0.075 A 
ATOM      2  C4  UNL d   1       3.822   2.562  -3.623  0.00  0.00     0.002 A 
ATOM      3  C5  UNL d   1       4.355   2.549  -4.912  0.00  0.00     0.002 A 
ATOM      4  C6  UNL d   1       3.590   2.991  -5.990  0.00  0.00    -0.004 A 
ATOM      5  C7  UNL d   1       2.289   3.441  -5.778  0.00  0.00     0.002 A 
ATOM      6  C8  UNL d   1       1.754   3.459  -4.489  0.00  0.00     0.002 A 
ENDROOT
BRANCH   1   7
ATOM      7  C2  UNL d   1       1.946   3.072  -1.999  0.00  0.00     0.056 C 
BRANCH   7   8
ATOM      8  C1  UNL d   1       1.238   1.781  -1.574  0.00  0.00     0.007 C 
ATOM      9  C   UNL d   1       1.870   1.123  -0.355  0.00  0.00     0.009 C 
ENDBRANCH   7   8
ENDBRANCH   1   7
TORSDOF 2
ENDMDL
