MODEL 1
REMARK minimizedAffinity -3.90913725
REMARK minimizedRMSD -1
REMARK  2 active torsions:
REMARK  status: ('A' for Active; 'I' for Inactive)
REMARK    1  A    between atoms: C1_2  and  C2_3 
REMARK    2  A    between atoms: C2_3  and  C3_4 
ROOT
ATOM      1  C3  UNL d   1      -0.051   0.546  -0.555  0.00  0.00    -0.075 A 
ATOM      2  C4  UNL d   1      -0.536  -0.052   0.617  0.00  0.00     0.002 A 
ATOM      3  C5  UNL d   1      -0.271   0.516   1.864  0.00  0.00     0.002 A 
ATOM      4  C6  UNL d   1       0.489   1.680   1.955  0.00  0.00    -0.004 A 
ATOM      5  C7  UNL d   1       0.989   2.274   0.798  0.00  0.00     0.002 A 
ATOM      6  C8  UNL d   1       0.722   1.710  -0.451  0.00  0.00     0.002 A 
ENDROOT
BRANCH   1   7
ATOM      7  C2  UNL d   1      -0.359  -0.047  -1.909  0.00  0.00     0.056 C 
BRANCH   7   8
ATOM      8  C1  UNL d   1      -1.826  -0.449  -2.095  0.00  0.00     0.007 C 
ATOM      9  C   UNL d   1      -2.249  -0.520  -3.557  0.00  0.00     0.009 C 
ENDBRANCH   7   8
ENDBRANCH   1   7
TORSDOF 2
ENDMDL
