MODEL 1
REMARK minimizedAffinity -3.13316631
REMARK minimizedRMSD -1
REMARK  2 active torsions:
REMARK  status: ('A' for Active; 'I' for Inactive)
REMARK    1  A    between atoms: C1_2  and  C2_3 
REMARK    2  A    between atoms: C2_3  and  C3_4 
ROOT
ATOM      1  C3  UNL d   1      -0.363   0.294  -0.005  0.00  0.00    -0.075 A 
ATOM      2  C4  UNL d   1      -0.386   0.239   1.396  0.00  0.00     0.002 A 
ATOM      3  C5  UNL d   1       0.158   1.275   2.155  0.00  0.00     0.002 A 
ATOM      4  C6  UNL d   1       0.740   2.373   1.525  0.00  0.00    -0.004 A 
ATOM      5  C7  UNL d   1       0.783   2.431   0.134  0.00  0.00     0.002 A 
ATOM      6  C8  UNL d   1       0.236   1.397  -0.628  0.00  0.00     0.002 A 
ENDROOT
BRANCH   1   7
ATOM      7  C2  UNL d   1      -0.976  -0.810  -0.832  0.00  0.00     0.056 C 
BRANCH   7   8
ATOM      8  C1  UNL d   1      -2.224  -0.385  -1.613  0.00  0.00     0.007 C 
ATOM      9  C   UNL d   1      -2.326  -1.039  -2.985  0.00  0.00     0.009 C 
ENDBRANCH   7   8
ENDBRANCH   1   7
TORSDOF 2
ENDMDL
