MODEL 1
REMARK minimizedAffinity -6.25168085
REMARK minimizedRMSD -1
REMARK  2 active torsions:
REMARK  status: ('A' for Active; 'I' for Inactive)
REMARK    1  A    between atoms: C1_2  and  C2_3 
REMARK    2  A    between atoms: C2_3  and  C3_4 
ROOT
ATOM      1  C3  UNL d   1       0.293  -0.021  -0.208  0.00  0.00    -0.075 A 
ATOM      2  C4  UNL d   1      -0.493   0.345   0.894  0.00  0.00     0.002 A 
ATOM      3  C5  UNL d   1      -0.154   1.455   1.669  0.00  0.00     0.002 A 
ATOM      4  C6  UNL d   1       0.978   2.205   1.359  0.00  0.00    -0.004 A 
ATOM      5  C7  UNL d   1       1.776   1.841   0.276  0.00  0.00     0.002 A 
ATOM      6  C8  UNL d   1       1.437   0.734  -0.503  0.00  0.00     0.002 A 
ENDROOT
BRANCH   1   7
ATOM      7  C2  UNL d   1      -0.084  -1.203  -1.068  0.00  0.00     0.056 C 
BRANCH   7   8
ATOM      8  C1  UNL d   1      -1.539  -1.185  -1.549  0.00  0.00     0.007 C 
ATOM      9  C   UNL d   1      -1.669  -1.151  -3.066  0.00  0.00     0.009 C 
ENDBRANCH   7   8
ENDBRANCH   1   7
TORSDOF 2
ENDMDL
