MODEL 1
REMARK minimizedAffinity -4.07222033
REMARK minimizedRMSD -1
REMARK  2 active torsions:
REMARK  status: ('A' for Active; 'I' for Inactive)
REMARK    1  A    between atoms: C1_2  and  C2_3 
REMARK    2  A    between atoms: C2_3  and  C3_4 
ROOT
ATOM      1  C3  UNL d   1      -0.515  -0.244   0.312  0.00  0.00    -0.075 A 
ATOM      2  C4  UNL d   1      -0.930   0.217   1.570  0.00  0.00     0.002 A 
ATOM      3  C5  UNL d   1      -0.157   1.138   2.277  0.00  0.00     0.002 A 
ATOM      4  C6  UNL d   1       1.043   1.602   1.742  0.00  0.00    -0.004 A 
ATOM      5  C7  UNL d   1       1.473   1.138   0.501  0.00  0.00     0.002 A 
ATOM      6  C8  UNL d   1       0.700   0.220  -0.211  0.00  0.00     0.002 A 
ENDROOT
BRANCH   1   7
ATOM      7  C2  UNL d   1      -1.361  -1.218  -0.472  0.00  0.00     0.056 C 
BRANCH   7   8
ATOM      8  C1  UNL d   1      -1.684  -0.758  -1.898  0.00  0.00     0.007 C 
ATOM      9  C   UNL d   1      -2.885  -1.472  -2.502  0.00  0.00     0.009 C 
ENDBRANCH   7   8
ENDBRANCH   1   7
TORSDOF 2
ENDMDL
