MODEL 1
REMARK minimizedAffinity -4.97653723
REMARK minimizedRMSD -1
REMARK  2 active torsions:
REMARK  status: ('A' for Active; 'I' for Inactive)
REMARK    1  A    between atoms: C1_2  and  C2_3 
REMARK    2  A    between atoms: C2_3  and  C3_4 
ROOT
ATOM      1  C3  UNL d   1       0.264   0.127   0.665  0.00  0.00    -0.075 A 
ATOM      2  C4  UNL d   1       1.050   1.094   0.021  0.00  0.00     0.002 A 
ATOM      3  C5  UNL d   1       1.420   2.263   0.684  0.00  0.00     0.002 A 
ATOM      4  C6  UNL d   1       1.002   2.487   1.995  0.00  0.00    -0.004 A 
ATOM      5  C7  UNL d   1       0.207   1.541   2.639  0.00  0.00     0.002 A 
ATOM      6  C8  UNL d   1      -0.161   0.368   1.979  0.00  0.00     0.002 A 
ENDROOT
BRANCH   1   7
ATOM      7  C2  UNL d   1      -0.116  -1.154  -0.038  0.00  0.00     0.056 C 
BRANCH   7   8
ATOM      8  C1  UNL d   1      -1.159  -0.973  -1.145  0.00  0.00     0.007 C 
ATOM      9  C   UNL d   1      -2.221  -2.064  -1.155  0.00  0.00     0.009 C 
ENDBRANCH   7   8
ENDBRANCH   1   7
TORSDOF 2
ENDMDL
