MODEL 1
REMARK minimizedAffinity -4.52776051
REMARK minimizedRMSD -1
REMARK  2 active torsions:
REMARK  status: ('A' for Active; 'I' for Inactive)
REMARK    1  A    between atoms: C1_2  and  C2_3 
REMARK    2  A    between atoms: C2_3  and  C3_4 
ROOT
ATOM      1  C3  UNL d   1       0.964   0.357   0.208  0.00  0.00    -0.075 A 
ATOM      2  C4  UNL d   1       1.122   1.405   1.127  0.00  0.00     0.002 A 
ATOM      3  C5  UNL d   1       2.395   1.875   1.452  0.00  0.00     0.002 A 
ATOM      4  C6  UNL d   1       3.523   1.299   0.873  0.00  0.00    -0.004 A 
ATOM      5  C7  UNL d   1       3.378   0.247  -0.028  0.00  0.00     0.002 A 
ATOM      6  C8  UNL d   1       2.106  -0.223  -0.359  0.00  0.00     0.002 A 
ENDROOT
BRANCH   1   7
ATOM      7  C2  UNL d   1      -0.412  -0.137  -0.170  0.00  0.00     0.056 C 
BRANCH   7   8
ATOM      8  C1  UNL d   1      -0.489  -1.650  -0.403  0.00  0.00     0.007 C 
ATOM      9  C   UNL d   1      -1.772  -2.085  -1.099  0.00  0.00     0.009 C 
ENDBRANCH   7   8
ENDBRANCH   1   7
TORSDOF 2
ENDMDL
