MODEL 1
REMARK minimizedAffinity -4.85224056
REMARK minimizedRMSD -1
REMARK  2 active torsions:
REMARK  status: ('A' for Active; 'I' for Inactive)
REMARK    1  A    between atoms: C1_2  and  C2_3 
REMARK    2  A    between atoms: C2_3  and  C3_4 
ROOT
ATOM      1  C3  UNL d   1      -3.870  -2.024  -1.675  0.00  0.00    -0.075 A 
ATOM      2  C4  UNL d   1      -3.794  -1.560  -2.996  0.00  0.00     0.002 A 
ATOM      3  C5  UNL d   1      -2.570  -1.173  -3.542  0.00  0.00     0.002 A 
ATOM      4  C6  UNL d   1      -1.410  -1.235  -2.773  0.00  0.00    -0.004 A 
ATOM      5  C7  UNL d   1      -1.476  -1.679  -1.454  0.00  0.00     0.002 A 
ATOM      6  C8  UNL d   1      -2.699  -2.071  -0.907  0.00  0.00     0.002 A 
ENDROOT
BRANCH   1   7
ATOM      7  C2  UNL d   1      -5.187  -2.473  -1.088  0.00  0.00     0.056 C 
BRANCH   7   8
ATOM      8  C1  UNL d   1      -5.047  -3.450   0.084  0.00  0.00     0.007 C 
ATOM      9  C   UNL d   1      -5.026  -4.909  -0.351  0.00  0.00     0.009 C 
ENDBRANCH   7   8
ENDBRANCH   1   7
TORSDOF 2
ENDMDL
