MODEL 1
REMARK minimizedAffinity -2.1776855
REMARK minimizedRMSD -1
REMARK  2 active torsions:
REMARK  status: ('A' for Active; 'I' for Inactive)
REMARK    1  A    between atoms: C1_2  and  C2_3 
REMARK    2  A    between atoms: C2_3  and  C3_4 
ROOT
ATOM      1  C3  UNL d   1      -0.635  -1.524  -1.458  0.00  0.00    -0.075 A 
ATOM      2  C4  UNL d   1      -1.908  -2.078  -1.262  0.00  0.00     0.002 A 
ATOM      3  C5  UNL d   1      -2.752  -2.316  -2.347  0.00  0.00     0.002 A 
ATOM      4  C6  UNL d   1      -2.339  -1.995  -3.638  0.00  0.00    -0.004 A 
ATOM      5  C7  UNL d   1      -1.082  -1.429  -3.843  0.00  0.00     0.002 A 
ATOM      6  C8  UNL d   1      -0.234  -1.194  -2.759  0.00  0.00     0.002 A 
ENDROOT
BRANCH   1   7
ATOM      7  C2  UNL d   1       0.294  -1.292  -0.291  0.00  0.00     0.056 C 
BRANCH   7   8
ATOM      8  C1  UNL d   1      -0.393  -0.703   0.946  0.00  0.00     0.007 C 
ATOM      9  C   UNL d   1       0.005   0.741   1.223  0.00  0.00     0.009 C 
ENDBRANCH   7   8
ENDBRANCH   1   7
TORSDOF 2
ENDMDL
