MODEL 1
REMARK minimizedAffinity -3.93530369
REMARK minimizedRMSD -1
REMARK  2 active torsions:
REMARK  status: ('A' for Active; 'I' for Inactive)
REMARK    1  A    between atoms: C1_2  and  C2_3 
REMARK    2  A    between atoms: C2_3  and  C3_4 
ROOT
ATOM      1  C3  UNL d   1       0.015  -0.690  -0.226  0.00  0.00    -0.075 A 
ATOM      2  C4  UNL d   1      -0.800  -0.184   0.796  0.00  0.00     0.002 A 
ATOM      3  C5  UNL d   1      -0.414   0.948   1.515  0.00  0.00     0.002 A 
ATOM      4  C6  UNL d   1       0.794   1.580   1.229  0.00  0.00    -0.004 A 
ATOM      5  C7  UNL d   1       1.620   1.076   0.226  0.00  0.00     0.002 A 
ATOM      6  C8  UNL d   1       1.234  -0.054  -0.498  0.00  0.00     0.002 A 
ENDROOT
BRANCH   1   7
ATOM      7  C2  UNL d   1      -0.411  -1.897  -1.028  0.00  0.00     0.056 C 
BRANCH   7   8
ATOM      8  C1  UNL d   1      -1.894  -1.897  -1.414  0.00  0.00     0.007 C 
ATOM      9  C   UNL d   1      -2.123  -1.983  -2.917  0.00  0.00     0.009 C 
ENDBRANCH   7   8
ENDBRANCH   1   7
TORSDOF 2
ENDMDL
