MODEL 1
REMARK minimizedAffinity -4.9399395
REMARK minimizedRMSD -1
REMARK  2 active torsions:
REMARK  status: ('A' for Active; 'I' for Inactive)
REMARK    1  A    between atoms: C1_2  and  C2_3 
REMARK    2  A    between atoms: C2_3  and  C3_4 
ROOT
ATOM      1  C3  UNL d   1       0.071   0.146   0.200  0.00  0.00    -0.075 A 
ATOM      2  C4  UNL d   1      -0.477   0.683   1.374  0.00  0.00     0.002 A 
ATOM      3  C5  UNL d   1       0.065   1.834   1.946  0.00  0.00     0.002 A 
ATOM      4  C6  UNL d   1       1.164   2.457   1.359  0.00  0.00    -0.004 A 
ATOM      5  C7  UNL d   1       1.727   1.922   0.202  0.00  0.00     0.002 A 
ATOM      6  C8  UNL d   1       1.184   0.773  -0.375  0.00  0.00     0.002 A 
ENDROOT
BRANCH   1   7
ATOM      7  C2  UNL d   1      -0.529  -1.083  -0.441  0.00  0.00     0.056 C 
BRANCH   7   8
ATOM      8  C1  UNL d   1      -1.053  -0.853  -1.862  0.00  0.00     0.007 C 
ATOM      9  C   UNL d   1      -2.262  -1.714  -2.202  0.00  0.00     0.009 C 
ENDBRANCH   7   8
ENDBRANCH   1   7
TORSDOF 2
ENDMDL
