MODEL 1
REMARK minimizedAffinity -2.80061507
REMARK minimizedRMSD -1
REMARK  2 active torsions:
REMARK  status: ('A' for Active; 'I' for Inactive)
REMARK    1  A    between atoms: C1_2  and  C2_3 
REMARK    2  A    between atoms: C2_3  and  C3_4 
ROOT
ATOM      1  C3  UNL d   1      -0.205  -0.019  -0.126  0.00  0.00    -0.075 A 
ATOM      2  C4  UNL d   1      -0.685  -0.495   1.103  0.00  0.00     0.002 A 
ATOM      3  C5  UNL d   1      -0.500   0.246   2.271  0.00  0.00     0.002 A 
ATOM      4  C6  UNL d   1       0.175   1.464   2.227  0.00  0.00    -0.004 A 
ATOM      5  C7  UNL d   1       0.671   1.939   1.014  0.00  0.00     0.002 A 
ATOM      6  C8  UNL d   1       0.483   1.201  -0.156  0.00  0.00     0.002 A 
ENDROOT
BRANCH   1   7
ATOM      7  C2  UNL d   1      -0.428  -0.802  -1.398  0.00  0.00     0.056 C 
BRANCH   7   8
ATOM      8  C1  UNL d   1      -1.793  -1.492  -1.474  0.00  0.00     0.007 C 
ATOM      9  C   UNL d   1      -2.448  -1.379  -2.845  0.00  0.00     0.009 C 
ENDBRANCH   7   8
ENDBRANCH   1   7
TORSDOF 2
ENDMDL
