MODEL 1
REMARK minimizedAffinity -3.31487894
REMARK minimizedRMSD -1
REMARK  2 active torsions:
REMARK  status: ('A' for Active; 'I' for Inactive)
REMARK    1  A    between atoms: C1_2  and  C2_3 
REMARK    2  A    between atoms: C2_3  and  C3_4 
ROOT
ATOM      1  C3  UNL d   1       0.348  -0.324  -0.002  0.00  0.00    -0.075 A 
ATOM      2  C4  UNL d   1      -0.336   0.184   1.111  0.00  0.00     0.002 A 
ATOM      3  C5  UNL d   1       0.107   1.346   1.745  0.00  0.00     0.002 A 
ATOM      4  C6  UNL d   1       1.242   2.006   1.281  0.00  0.00    -0.004 A 
ATOM      5  C7  UNL d   1       1.939   1.501   0.186  0.00  0.00     0.002 A 
ATOM      6  C8  UNL d   1       1.496   0.342  -0.453  0.00  0.00     0.002 A 
ENDROOT
BRANCH   1   7
ATOM      7  C2  UNL d   1      -0.143  -1.564  -0.711  0.00  0.00     0.056 C 
BRANCH   7   8
ATOM      8  C1  UNL d   1      -1.658  -1.594  -0.938  0.00  0.00     0.007 C 
ATOM      9  C   UNL d   1      -2.043  -1.639  -2.411  0.00  0.00     0.009 C 
ENDBRANCH   7   8
ENDBRANCH   1   7
TORSDOF 2
ENDMDL
