MODEL 1
REMARK minimizedAffinity -0.601901412
REMARK minimizedRMSD -1
REMARK  2 active torsions:
REMARK  status: ('A' for Active; 'I' for Inactive)
REMARK    1  A    between atoms: C1_2  and  C2_3 
REMARK    2  A    between atoms: C2_3  and  C3_4 
ROOT
ATOM      1  C3  UNL d   1       2.304   0.559   2.328  0.00  0.00    -0.075 A 
ATOM      2  C4  UNL d   1       2.167  -0.529   3.201  0.00  0.00     0.002 A 
ATOM      3  C5  UNL d   1       0.903  -1.014   3.536  0.00  0.00     0.002 A 
ATOM      4  C6  UNL d   1      -0.239  -0.411   3.012  0.00  0.00    -0.004 A 
ATOM      5  C7  UNL d   1      -0.115   0.682   2.157  0.00  0.00     0.002 A 
ATOM      6  C8  UNL d   1       1.149   1.166   1.816  0.00  0.00     0.002 A 
ENDROOT
BRANCH   1   7
ATOM      7  C2  UNL d   1       3.671   1.070   1.938  0.00  0.00     0.056 C 
BRANCH   7   8
ATOM      8  C1  UNL d   1       4.714  -0.034   1.735  0.00  0.00     0.007 C 
ATOM      9  C   UNL d   1       5.636   0.221   0.550  0.00  0.00     0.009 C 
ENDBRANCH   7   8
ENDBRANCH   1   7
TORSDOF 2
ENDMDL
