MODEL 1
REMARK minimizedAffinity 13.914567
REMARK minimizedRMSD -1
REMARK  2 active torsions:
REMARK  status: ('A' for Active; 'I' for Inactive)
REMARK    1  A    between atoms: C1_2  and  C2_3 
REMARK    2  A    between atoms: C2_3  and  C3_4 
ROOT
ATOM      1  C3  UNL d   1       4.350   0.728   1.333  0.00  0.00    -0.075 A 
ATOM      2  C4  UNL d   1       5.680   0.363   1.591  0.00  0.00     0.002 A 
ATOM      3  C5  UNL d   1       5.999  -0.406   2.711  0.00  0.00     0.002 A 
ATOM      4  C6  UNL d   1       4.997  -0.811   3.590  0.00  0.00    -0.004 A 
ATOM      5  C7  UNL d   1       3.675  -0.440   3.353  0.00  0.00     0.002 A 
ATOM      6  C8  UNL d   1       3.352   0.326   2.231  0.00  0.00     0.002 A 
ENDROOT
BRANCH   1   7
ATOM      7  C2  UNL d   1       3.995   1.535   0.108  0.00  0.00     0.056 C 
BRANCH   7   8
ATOM      8  C1  UNL d   1       2.799   2.473   0.304  0.00  0.00     0.007 C 
ATOM      9  C   UNL d   1       2.325   3.121  -0.990  0.00  0.00     0.009 C 
ENDBRANCH   7   8
ENDBRANCH   1   7
TORSDOF 2
ENDMDL
