MODEL 1
REMARK minimizedAffinity -1.2797991
REMARK minimizedRMSD -1
REMARK  2 active torsions:
REMARK  status: ('A' for Active; 'I' for Inactive)
REMARK    1  A    between atoms: C1_2  and  C2_3 
REMARK    2  A    between atoms: C2_3  and  C3_4 
ROOT
ATOM      1  C3  UNL d   1      -5.983  -3.383  -0.508  0.00  0.00    -0.075 A 
ATOM      2  C4  UNL d   1      -5.978  -2.881   0.801  0.00  0.00     0.002 A 
ATOM      3  C5  UNL d   1      -5.991  -1.505   1.032  0.00  0.00     0.002 A 
ATOM      4  C6  UNL d   1      -5.999  -0.616  -0.041  0.00  0.00    -0.004 A 
ATOM      5  C7  UNL d   1      -5.988  -1.103  -1.346  0.00  0.00     0.002 A 
ATOM      6  C8  UNL d   1      -5.979  -2.480  -1.579  0.00  0.00     0.002 A 
ENDROOT
BRANCH   1   7
ATOM      7  C2  UNL d   1      -5.998  -4.871  -0.765  0.00  0.00     0.056 C 
BRANCH   7   8
ATOM      8  C1  UNL d   1      -5.490  -5.712   0.411  0.00  0.00     0.007 C 
ATOM      9  C   UNL d   1      -3.980  -5.909   0.399  0.00  0.00     0.009 C 
ENDBRANCH   7   8
ENDBRANCH   1   7
TORSDOF 2
ENDMDL
