MODEL 1
REMARK minimizedAffinity 11.2721891
REMARK minimizedRMSD -1
REMARK  2 active torsions:
REMARK  status: ('A' for Active; 'I' for Inactive)
REMARK    1  A    between atoms: C1_2  and  C2_3 
REMARK    2  A    between atoms: C2_3  and  C3_4 
ROOT
ATOM      1  C3  UNL d   1       0.362  -0.962  -3.781  0.00  0.00    -0.075 A 
ATOM      2  C4  UNL d   1      -0.324  -0.099  -4.648  0.00  0.00     0.002 A 
ATOM      3  C5  UNL d   1      -1.262  -0.600  -5.551  0.00  0.00     0.002 A 
ATOM      4  C6  UNL d   1      -1.518  -1.969  -5.607  0.00  0.00    -0.004 A 
ATOM      5  C7  UNL d   1      -0.830  -2.837  -4.762  0.00  0.00     0.002 A 
ATOM      6  C8  UNL d   1       0.106  -2.338  -3.854  0.00  0.00     0.002 A 
ENDROOT
BRANCH   1   7
ATOM      7  C2  UNL d   1       1.357  -0.422  -2.781  0.00  0.00     0.056 C 
BRANCH   7   8
ATOM      8  C1  UNL d   1       0.718   0.339  -1.615  0.00  0.00     0.007 C 
ATOM      9  C   UNL d   1       1.275   1.745  -1.438  0.00  0.00     0.009 C 
ENDBRANCH   7   8
ENDBRANCH   1   7
TORSDOF 2
ENDMDL
