MODEL 1
REMARK minimizedAffinity 3.16272926
REMARK minimizedRMSD -1
REMARK  2 active torsions:
REMARK  status: ('A' for Active; 'I' for Inactive)
REMARK    1  A    between atoms: C1_2  and  C2_3 
REMARK    2  A    between atoms: C2_3  and  C3_4 
ROOT
ATOM      1  C3  UNL d   1       3.331   4.208  -4.884  0.00  0.00    -0.075 A 
ATOM      2  C4  UNL d   1       4.651   4.615  -4.642  0.00  0.00     0.002 A 
ATOM      3  C5  UNL d   1       5.723   3.840  -5.085  0.00  0.00     0.002 A 
ATOM      4  C6  UNL d   1       5.491   2.647  -5.765  0.00  0.00    -0.004 A 
ATOM      5  C7  UNL d   1       4.184   2.225  -5.997  0.00  0.00     0.002 A 
ATOM      6  C8  UNL d   1       3.109   3.000  -5.559  0.00  0.00     0.002 A 
ENDROOT
BRANCH   1   7
ATOM      7  C2  UNL d   1       2.166   5.056  -4.433  0.00  0.00     0.056 C 
BRANCH   7   8
ATOM      8  C1  UNL d   1       1.101   4.285  -3.645  0.00  0.00     0.007 C 
ATOM      9  C   UNL d   1       1.691   3.335  -2.611  0.00  0.00     0.009 C 
ENDBRANCH   7   8
ENDBRANCH   1   7
TORSDOF 2
ENDMDL
