MODEL 1
REMARK minimizedAffinity 6.42567301
REMARK minimizedRMSD -1
REMARK  2 active torsions:
REMARK  status: ('A' for Active; 'I' for Inactive)
REMARK    1  A    between atoms: C1_2  and  C2_3 
REMARK    2  A    between atoms: C2_3  and  C3_4 
ROOT
ATOM      1  C3  UNL d   1      -0.773  -0.465   3.961  0.00  0.00    -0.075 A 
ATOM      2  C4  UNL d   1      -0.751   0.820   3.401  0.00  0.00     0.002 A 
ATOM      3  C5  UNL d   1       0.459   1.420   3.050  0.00  0.00     0.002 A 
ATOM      4  C6  UNL d   1       1.660   0.747   3.263  0.00  0.00    -0.004 A 
ATOM      5  C7  UNL d   1       1.651  -0.524   3.833  0.00  0.00     0.002 A 
ATOM      6  C8  UNL d   1       0.442  -1.128   4.181  0.00  0.00     0.002 A 
ENDROOT
BRANCH   1   7
ATOM      7  C2  UNL d   1      -2.081  -1.131   4.316  0.00  0.00     0.056 C 
BRANCH   7   8
ATOM      8  C1  UNL d   1      -2.502  -0.940   5.776  0.00  0.00     0.007 C 
ATOM      9  C   UNL d   1      -3.376   0.288   5.993  0.00  0.00     0.009 C 
ENDBRANCH   7   8
ENDBRANCH   1   7
TORSDOF 2
ENDMDL
