MODEL 1
REMARK minimizedAffinity 14.5645885
REMARK minimizedRMSD -1
REMARK  2 active torsions:
REMARK  status: ('A' for Active; 'I' for Inactive)
REMARK    1  A    between atoms: C1_2  and  C2_3 
REMARK    2  A    between atoms: C2_3  and  C3_4 
ROOT
ATOM      1  C3  UNL d   1      -0.388  -0.801  -5.292  0.00  0.00    -0.075 A 
ATOM      2  C4  UNL d   1      -1.579  -0.154  -5.653  0.00  0.00     0.002 A 
ATOM      3  C5  UNL d   1      -2.710  -0.894  -6.000  0.00  0.00     0.002 A 
ATOM      4  C6  UNL d   1      -2.663  -2.286  -6.000  0.00  0.00    -0.004 A 
ATOM      5  C7  UNL d   1      -1.480  -2.939  -5.659  0.00  0.00     0.002 A 
ATOM      6  C8  UNL d   1      -0.348  -2.202  -5.308  0.00  0.00     0.002 A 
ENDROOT
BRANCH   1   7
ATOM      7  C2  UNL d   1       0.831  -0.007  -4.888  0.00  0.00     0.056 C 
BRANCH   7   8
ATOM      8  C1  UNL d   1       1.690  -0.687  -3.816  0.00  0.00     0.007 C 
ATOM      9  C   UNL d   1       1.929   0.190  -2.594  0.00  0.00     0.009 C 
ENDBRANCH   7   8
ENDBRANCH   1   7
TORSDOF 2
ENDMDL
