MODEL 1
REMARK minimizedAffinity 8.97071075
REMARK minimizedRMSD -1
REMARK  2 active torsions:
REMARK  status: ('A' for Active; 'I' for Inactive)
REMARK    1  A    between atoms: C1_2  and  C2_3 
REMARK    2  A    between atoms: C2_3  and  C3_4 
ROOT
ATOM      1  C3  UNL d   1       2.115   0.388  -2.524  0.00  0.00    -0.075 A 
ATOM      2  C4  UNL d   1       1.026   0.266  -1.649  0.00  0.00     0.002 A 
ATOM      3  C5  UNL d   1       0.939   1.069  -0.512  0.00  0.00     0.002 A 
ATOM      4  C6  UNL d   1       1.941   1.995  -0.230  0.00  0.00    -0.004 A 
ATOM      5  C7  UNL d   1       3.035   2.113  -1.083  0.00  0.00     0.002 A 
ATOM      6  C8  UNL d   1       3.124   1.313  -2.225  0.00  0.00     0.002 A 
ENDROOT
BRANCH   1   7
ATOM      7  C2  UNL d   1       2.201  -0.457  -3.773  0.00  0.00     0.056 C 
BRANCH   7   8
ATOM      8  C1  UNL d   1       2.702   0.301  -5.006  0.00  0.00     0.007 C 
ATOM      9  C   UNL d   1       3.684  -0.503  -5.848  0.00  0.00     0.009 C 
ENDBRANCH   7   8
ENDBRANCH   1   7
TORSDOF 2
ENDMDL
