MODEL 1
REMARK minimizedAffinity 9.46588135
REMARK minimizedRMSD -1
REMARK  2 active torsions:
REMARK  status: ('A' for Active; 'I' for Inactive)
REMARK    1  A    between atoms: C1_2  and  C2_3 
REMARK    2  A    between atoms: C2_3  and  C3_4 
ROOT
ATOM      1  C3  UNL d   1      -0.216  -0.136  -0.293  0.00  0.00    -0.075 A 
ATOM      2  C4  UNL d   1      -0.589   0.916   0.556  0.00  0.00     0.002 A 
ATOM      3  C5  UNL d   1      -1.273   0.658   1.744  0.00  0.00     0.002 A 
ATOM      4  C6  UNL d   1      -1.601  -0.650   2.093  0.00  0.00    -0.004 A 
ATOM      5  C7  UNL d   1      -1.250  -1.701   1.249  0.00  0.00     0.002 A 
ATOM      6  C8  UNL d   1      -0.561  -1.447   0.062  0.00  0.00     0.002 A 
ENDROOT
BRANCH   1   7
ATOM      7  C2  UNL d   1       0.551   0.133  -1.566  0.00  0.00     0.056 C 
BRANCH   7   8
ATOM      8  C1  UNL d   1       0.847  -1.122  -2.393  0.00  0.00     0.007 C 
ATOM      9  C   UNL d   1       1.359  -0.811  -3.794  0.00  0.00     0.009 C 
ENDBRANCH   7   8
ENDBRANCH   1   7
TORSDOF 2
ENDMDL
