MODEL 1
REMARK minimizedAffinity 8.46296787
REMARK minimizedRMSD -1
REMARK  2 active torsions:
REMARK  status: ('A' for Active; 'I' for Inactive)
REMARK    1  A    between atoms: C1_2  and  C2_3 
REMARK    2  A    between atoms: C2_3  and  C3_4 
ROOT
ATOM      1  C3  UNL d   1       1.499   0.646  -1.755  0.00  0.00    -0.075 A 
ATOM      2  C4  UNL d   1       2.407   0.797  -2.813  0.00  0.00     0.002 A 
ATOM      3  C5  UNL d   1       2.545  -0.204  -3.775  0.00  0.00     0.002 A 
ATOM      4  C6  UNL d   1       1.787  -1.370  -3.686  0.00  0.00    -0.004 A 
ATOM      5  C7  UNL d   1       0.895  -1.537  -2.630  0.00  0.00     0.002 A 
ATOM      6  C8  UNL d   1       0.751  -0.535  -1.668  0.00  0.00     0.002 A 
ENDROOT
BRANCH   1   7
ATOM      7  C2  UNL d   1       1.324   1.738  -0.727  0.00  0.00     0.056 C 
BRANCH   7   8
ATOM      8  C1  UNL d   1       2.383   2.843  -0.803  0.00  0.00     0.007 C 
ATOM      9  C   UNL d   1       2.034   3.942  -1.797  0.00  0.00     0.009 C 
ENDBRANCH   7   8
ENDBRANCH   1   7
TORSDOF 2
ENDMDL
