MODEL 1
REMARK minimizedAffinity 10.3916206
REMARK minimizedRMSD -1
REMARK  2 active torsions:
REMARK  status: ('A' for Active; 'I' for Inactive)
REMARK    1  A    between atoms: C1_2  and  C2_3 
REMARK    2  A    between atoms: C2_3  and  C3_4 
ROOT
ATOM      1  C3  UNL d   1      -5.551  -3.511  -2.694  0.00  0.00    -0.075 A 
ATOM      2  C4  UNL d   1      -4.799  -3.586  -1.512  0.00  0.00     0.002 A 
ATOM      3  C5  UNL d   1      -4.438  -4.824  -0.980  0.00  0.00     0.002 A 
ATOM      4  C6  UNL d   1      -4.831  -6.000  -1.615  0.00  0.00    -0.004 A 
ATOM      5  C7  UNL d   1      -5.592  -5.938  -2.780  0.00  0.00     0.002 A 
ATOM      6  C8  UNL d   1      -5.951  -4.701  -3.317  0.00  0.00     0.002 A 
ENDROOT
BRANCH   1   7
ATOM      7  C2  UNL d   1      -5.920  -2.174  -3.291  0.00  0.00     0.056 C 
BRANCH   7   8
ATOM      8  C1  UNL d   1      -5.708  -0.988  -2.345  0.00  0.00     0.007 C 
ATOM      9  C   UNL d   1      -4.697   0.023  -2.868  0.00  0.00     0.009 C 
ENDBRANCH   7   8
ENDBRANCH   1   7
TORSDOF 2
ENDMDL
