MODEL 1
REMARK minimizedAffinity 10.0172367
REMARK minimizedRMSD -1
REMARK  2 active torsions:
REMARK  status: ('A' for Active; 'I' for Inactive)
REMARK    1  A    between atoms: C1_2  and  C2_3 
REMARK    2  A    between atoms: C2_3  and  C3_4 
ROOT
ATOM      1  C3  UNL d   1       2.284   0.649  -2.357  0.00  0.00    -0.075 A 
ATOM      2  C4  UNL d   1       1.076   0.071  -1.940  0.00  0.00     0.002 A 
ATOM      3  C5  UNL d   1       0.495  -0.963  -2.674  0.00  0.00     0.002 A 
ATOM      4  C6  UNL d   1       1.106  -1.424  -3.838  0.00  0.00    -0.004 A 
ATOM      5  C7  UNL d   1       2.298  -0.846  -4.271  0.00  0.00     0.002 A 
ATOM      6  C8  UNL d   1       2.884   0.186  -3.535  0.00  0.00     0.002 A 
ENDROOT
BRANCH   1   7
ATOM      7  C2  UNL d   1       2.933   1.748  -1.550  0.00  0.00     0.056 C 
BRANCH   7   8
ATOM      8  C1  UNL d   1       2.016   2.945  -1.275  0.00  0.00     0.007 C 
ATOM      9  C   UNL d   1       2.324   4.152  -2.150  0.00  0.00     0.009 C 
ENDBRANCH   7   8
ENDBRANCH   1   7
TORSDOF 2
ENDMDL
