MODEL 1
REMARK minimizedAffinity 1.02946949
REMARK minimizedRMSD -1
REMARK  1 active torsions:
REMARK  status: ('A' for Active; 'I' for Inactive)
REMARK    1  A    between atoms: C1_2  and  C2_3 
ROOT
ATOM      1  C2  UNL d   1      -0.249   0.441   2.440  0.00  0.00    -0.076 A 
ATOM      2  C3  UNL d   1       1.085   0.204   2.815  0.00  0.00     0.004 A 
ATOM      3  C4  UNL d   1       1.999  -0.337   1.913  0.00  0.00    -0.003 A 
ATOM      4  C5  UNL d   1       1.593  -0.651   0.620  0.00  0.00     0.000 A 
ATOM      5  C6  UNL d   1       0.278  -0.407   0.226  0.00  0.00     0.000 A 
ATOM      6  C7  UNL d   1      -0.651   0.154   1.118  0.00  0.00    -0.073 A 
ATOM      7  C8  UNL d   1      -2.058   0.390   0.641  0.00  0.00     0.078 C 
ENDROOT
BRANCH   1   8
ATOM      8  C1  UNL d   1      -1.202   1.004   3.470  0.00  0.00     0.053 C 
ATOM      9  C   UNL d   1      -2.238  -0.012   3.923  0.00  0.00     0.018 C 
ENDBRANCH   1   8
TORSDOF 1
ENDMDL
