MODEL 1
REMARK minimizedAffinity -2.1338594
REMARK minimizedRMSD -1
REMARK  1 active torsions:
REMARK  status: ('A' for Active; 'I' for Inactive)
REMARK    1  A    between atoms: C1_2  and  C2_3 
ROOT
ATOM      1  C2  UNL d   1      -5.260   4.406  -0.794  0.00  0.00    -0.076 A 
ATOM      2  C3  UNL d   1      -5.998   3.216  -0.923  0.00  0.00     0.004 A 
ATOM      3  C4  UNL d   1      -5.371   2.014  -1.245  0.00  0.00    -0.003 A 
ATOM      4  C5  UNL d   1      -3.995   1.982  -1.444  0.00  0.00     0.000 A 
ATOM      5  C6  UNL d   1      -3.245   3.149  -1.303  0.00  0.00     0.000 A 
ATOM      6  C7  UNL d   1      -3.859   4.366  -0.962  0.00  0.00    -0.073 A 
ATOM      7  C8  UNL d   1      -3.003   5.595  -0.829  0.00  0.00     0.078 C 
ENDROOT
BRANCH   1   8
ATOM      8  C1  UNL d   1      -5.999   5.685  -0.469  0.00  0.00     0.053 C 
ATOM      9  C   UNL d   1      -5.994   5.998   1.019  0.00  0.00     0.018 C 
ENDBRANCH   1   8
TORSDOF 1
ENDMDL
