MODEL 1
REMARK minimizedAffinity 14.231822
REMARK minimizedRMSD -1
REMARK  1 active torsions:
REMARK  status: ('A' for Active; 'I' for Inactive)
REMARK    1  A    between atoms: C1_2  and  C2_3 
ROOT
ATOM      1  C2  UNL d   1      -2.818   0.810   1.078  0.00  0.00    -0.076 A 
ATOM      2  C3  UNL d   1      -3.020  -0.571   0.905  0.00  0.00     0.004 A 
ATOM      3  C4  UNL d   1      -2.117  -1.498   1.421  0.00  0.00    -0.003 A 
ATOM      4  C5  UNL d   1      -0.997  -1.060   2.119  0.00  0.00     0.000 A 
ATOM      5  C6  UNL d   1      -0.790   0.305   2.315  0.00  0.00     0.000 A 
ATOM      6  C7  UNL d   1      -1.699   1.252   1.815  0.00  0.00    -0.073 A 
ATOM      7  C8  UNL d   1      -1.424   2.712   2.051  0.00  0.00     0.078 C 
ENDROOT
BRANCH   1   8
ATOM      8  C1  UNL d   1      -3.817   1.769   0.472  0.00  0.00     0.053 C 
ATOM      9  C   UNL d   1      -4.522   1.186  -0.743  0.00  0.00     0.018 C 
ENDBRANCH   1   8
TORSDOF 1
ENDMDL
