MODEL 1
REMARK minimizedAffinity 1.66538262
REMARK minimizedRMSD -1
REMARK  1 active torsions:
REMARK  status: ('A' for Active; 'I' for Inactive)
REMARK    1  A    between atoms: C1_2  and  C2_3 
ROOT
ATOM      1  C2  UNL d   1       0.152  -0.060   2.062  0.00  0.00    -0.076 A 
ATOM      2  C3  UNL d   1       0.263  -0.214   0.669  0.00  0.00     0.004 A 
ATOM      3  C4  UNL d   1       1.458  -0.632   0.086  0.00  0.00    -0.003 A 
ATOM      4  C5  UNL d   1       2.562  -0.903   0.887  0.00  0.00     0.000 A 
ATOM      5  C6  UNL d   1       2.465  -0.772   2.272  0.00  0.00     0.000 A 
ATOM      6  C7  UNL d   1       1.263  -0.367   2.877  0.00  0.00    -0.073 A 
ATOM      7  C8  UNL d   1       1.216  -0.237   4.375  0.00  0.00     0.078 C 
ENDROOT
BRANCH   1   8
ATOM      8  C1  UNL d   1      -1.161   0.422   2.635  0.00  0.00     0.053 C 
ATOM      9  C   UNL d   1      -2.069   1.032   1.578  0.00  0.00     0.018 C 
ENDBRANCH   1   8
TORSDOF 1
ENDMDL
