MODEL 1
REMARK minimizedAffinity 5.9807272
REMARK minimizedRMSD -1
REMARK  1 active torsions:
REMARK  status: ('A' for Active; 'I' for Inactive)
REMARK    1  A    between atoms: C1_2  and  C2_3 
ROOT
ATOM      1  C2  UNL d   1      -0.058  -1.935  -0.528  0.00  0.00    -0.076 A 
ATOM      2  C3  UNL d   1      -1.315  -1.653   0.034  0.00  0.00     0.004 A 
ATOM      3  C4  UNL d   1      -1.445  -0.744   1.083  0.00  0.00    -0.003 A 
ATOM      4  C5  UNL d   1      -0.320  -0.101   1.586  0.00  0.00     0.000 A 
ATOM      5  C6  UNL d   1       0.933  -0.354   1.028  0.00  0.00     0.000 A 
ATOM      6  C7  UNL d   1       1.079  -1.256  -0.040  0.00  0.00    -0.073 A 
ATOM      7  C8  UNL d   1       2.455  -1.496  -0.599  0.00  0.00     0.078 C 
ENDROOT
BRANCH   1   8
ATOM      8  C1  UNL d   1       0.025  -2.950  -1.645  0.00  0.00     0.053 C 
ATOM      9  C   UNL d   1      -0.261  -2.341  -3.009  0.00  0.00     0.018 C 
ENDBRANCH   1   8
TORSDOF 1
ENDMDL
