MODEL 1
REMARK minimizedAffinity 4.22200251
REMARK minimizedRMSD -1
REMARK  1 active torsions:
REMARK  status: ('A' for Active; 'I' for Inactive)
REMARK    1  A    between atoms: C1_2  and  C2_3 
ROOT
ATOM      1  C2  UNL d   1       1.489   0.446   1.185  0.00  0.00    -0.076 A 
ATOM      2  C3  UNL d   1       0.197   1.001   1.195  0.00  0.00     0.004 A 
ATOM      3  C4  UNL d   1      -0.529   1.107   2.380  0.00  0.00    -0.003 A 
ATOM      4  C5  UNL d   1       0.026   0.661   3.575  0.00  0.00     0.000 A 
ATOM      5  C6  UNL d   1       1.313   0.124   3.586  0.00  0.00     0.000 A 
ATOM      6  C7  UNL d   1       2.065   0.025   2.402  0.00  0.00    -0.073 A 
ATOM      7  C8  UNL d   1       3.445  -0.567   2.472  0.00  0.00     0.078 C 
ENDROOT
BRANCH   1   8
ATOM      8  C1  UNL d   1       2.218   0.332  -0.135  0.00  0.00     0.053 C 
ATOM      9  C   UNL d   1       2.498   1.688  -0.765  0.00  0.00     0.018 C 
ENDBRANCH   1   8
TORSDOF 1
ENDMDL
