MODEL 1
REMARK minimizedAffinity 11.8040056
REMARK minimizedRMSD -1
REMARK  1 active torsions:
REMARK  status: ('A' for Active; 'I' for Inactive)
REMARK    1  A    between atoms: C1_2  and  C2_3 
ROOT
ATOM      1  C2  UNL d   1      -2.762   0.488   0.752  0.00  0.00    -0.076 A 
ATOM      2  C3  UNL d   1      -2.674   1.661   1.523  0.00  0.00     0.004 A 
ATOM      3  C4  UNL d   1      -1.767   1.761   2.576  0.00  0.00    -0.003 A 
ATOM      4  C5  UNL d   1      -0.933   0.690   2.877  0.00  0.00     0.000 A 
ATOM      5  C6  UNL d   1      -0.994  -0.474   2.112  0.00  0.00     0.000 A 
ATOM      6  C7  UNL d   1      -1.891  -0.586   1.036  0.00  0.00    -0.073 A 
ATOM      7  C8  UNL d   1      -1.919  -1.867   0.249  0.00  0.00     0.078 C 
ENDROOT
BRANCH   1   8
ATOM      8  C1  UNL d   1      -3.783   0.428  -0.361  0.00  0.00     0.053 C 
ATOM      9  C   UNL d   1      -4.606   1.702  -0.467  0.00  0.00     0.018 C 
ENDBRANCH   1   8
TORSDOF 1
ENDMDL
