MODEL 1
REMARK minimizedAffinity 11.8096323
REMARK minimizedRMSD -1
REMARK  0 active torsions:
REMARK  status: ('A' for Active; 'I' for Inactive)
ROOT
ATOM      1  C   UNL d   1       5.993   5.443  -3.120  0.00  0.00     0.020 A 
ATOM      2  C1  UNL d   1       5.998   5.813  -1.776  0.00  0.00     0.020 A 
ATOM      3  C2  UNL d   1       6.000   4.832  -0.782  0.00  0.00     0.034 A 
ATOM      4  C3  UNL d   1       5.995   3.477  -1.130  0.00  0.00     0.017 A 
ATOM      5  C4  UNL d   1       5.990   3.106  -2.480  0.00  0.00     0.017 A 
ATOM      6  C5  UNL d   1       5.988   4.092  -3.471  0.00  0.00     0.034 A 
ATOM      7 Cl   UNL d   1       5.984   1.454  -2.987  0.00  0.00    -0.070 Cl
ATOM      8 Cl1  UNL d   1       5.998   2.318   0.151  0.00  0.00    -0.070 Cl
ENDROOT
TORSDOF 0
ENDMDL
