MODEL 1
REMARK minimizedAffinity 8.25878716
REMARK minimizedRMSD -1
REMARK  0 active torsions:
REMARK  status: ('A' for Active; 'I' for Inactive)
ROOT
ATOM      1  C   UNL d   1       5.050   2.115  -2.938  0.00  0.00     0.020 A 
ATOM      2  C1  UNL d   1       5.998   2.943  -2.338  0.00  0.00     0.020 A 
ATOM      3  C2  UNL d   1       5.966   3.155  -0.959  0.00  0.00     0.034 A 
ATOM      4  C3  UNL d   1       4.984   2.539  -0.174  0.00  0.00     0.017 A 
ATOM      5  C4  UNL d   1       4.033   1.709  -0.777  0.00  0.00     0.017 A 
ATOM      6  C5  UNL d   1       4.069   1.499  -2.159  0.00  0.00     0.034 A 
ATOM      7 Cl   UNL d   1       2.791   0.915   0.125  0.00  0.00    -0.070 Cl
ATOM      8 Cl1  UNL d   1       5.005   2.847   1.526  0.00  0.00    -0.070 Cl
ENDROOT
TORSDOF 0
ENDMDL
