MODEL 1
REMARK minimizedAffinity 9.43731117
REMARK minimizedRMSD -1
REMARK  0 active torsions:
REMARK  status: ('A' for Active; 'I' for Inactive)
ROOT
ATOM      1  C   UNL d   1      -2.233  -2.989  -4.214  0.00  0.00     0.020 A 
ATOM      2  C1  UNL d   1      -2.930  -1.889  -4.710  0.00  0.00     0.020 A 
ATOM      3  C2  UNL d   1      -2.759  -0.632  -4.125  0.00  0.00     0.034 A 
ATOM      4  C3  UNL d   1      -1.888  -0.473  -3.041  0.00  0.00     0.017 A 
ATOM      5  C4  UNL d   1      -1.189  -1.579  -2.544  0.00  0.00     0.017 A 
ATOM      6  C5  UNL d   1      -1.364  -2.835  -3.133  0.00  0.00     0.034 A 
ATOM      7 Cl   UNL d   1      -0.097  -1.461  -1.209  0.00  0.00    -0.070 Cl
ATOM      8 Cl1  UNL d   1      -1.725   1.109  -2.367  0.00  0.00    -0.070 Cl
ENDROOT
TORSDOF 0
ENDMDL
