MODEL 1
REMARK minimizedAffinity 19.8939762
REMARK minimizedRMSD -1
REMARK  0 active torsions:
REMARK  status: ('A' for Active; 'I' for Inactive)
ROOT
ATOM      1  C   UNL d   1      -6.000  -0.503  -1.104  0.00  0.00     0.020 A 
ATOM      2  C1  UNL d   1      -5.279  -0.884  -2.235  0.00  0.00     0.020 A 
ATOM      3  C2  UNL d   1      -3.937  -0.520  -2.363  0.00  0.00     0.034 A 
ATOM      4  C3  UNL d   1      -3.311   0.227  -1.358  0.00  0.00     0.017 A 
ATOM      5  C4  UNL d   1      -4.036   0.608  -0.223  0.00  0.00     0.017 A 
ATOM      6  C5  UNL d   1      -5.379   0.241  -0.100  0.00  0.00     0.034 A 
ATOM      7 Cl   UNL d   1      -3.332   1.530   1.059  0.00  0.00    -0.070 Cl
ATOM      8 Cl1  UNL d   1      -1.649   0.641  -1.582  0.00  0.00    -0.070 Cl
ENDROOT
TORSDOF 0
ENDMDL
