MODEL 1
REMARK minimizedAffinity 2.59824491
REMARK minimizedRMSD -1
REMARK  0 active torsions:
REMARK  status: ('A' for Active; 'I' for Inactive)
ROOT
ATOM      1  C   UNL d   1       5.998  -1.098   4.551  0.00  0.00     0.020 A 
ATOM      2  C1  UNL d   1       5.482  -0.869   5.826  0.00  0.00     0.020 A 
ATOM      3  C2  UNL d   1       4.113  -0.652   5.996  0.00  0.00     0.034 A 
ATOM      4  C3  UNL d   1       3.256  -0.663   4.890  0.00  0.00     0.017 A 
ATOM      5  C4  UNL d   1       3.775  -0.893   3.611  0.00  0.00     0.017 A 
ATOM      6  C5  UNL d   1       5.146  -1.110   3.446  0.00  0.00     0.034 A 
ATOM      7 Cl   UNL d   1       2.779  -0.921   2.198  0.00  0.00    -0.070 Cl
ATOM      8 Cl1  UNL d   1       1.574  -0.387   5.175  0.00  0.00    -0.070 Cl
ENDROOT
TORSDOF 0
ENDMDL
