MODEL 1
REMARK minimizedAffinity 8.10807705
REMARK minimizedRMSD -1
REMARK  0 active torsions:
REMARK  status: ('A' for Active; 'I' for Inactive)
ROOT
ATOM      1  C   UNL d   1       2.830   1.351  -0.765  0.00  0.00     0.020 A 
ATOM      2  C1  UNL d   1       2.829   1.343   0.629  0.00  0.00     0.020 A 
ATOM      3  C2  UNL d   1       3.817   2.036   1.332  0.00  0.00     0.034 A 
ATOM      4  C3  UNL d   1       4.809   2.742   0.641  0.00  0.00     0.017 A 
ATOM      5  C4  UNL d   1       4.809   2.750  -0.759  0.00  0.00     0.017 A 
ATOM      6  C5  UNL d   1       3.818   2.053  -1.457  0.00  0.00     0.034 A 
ATOM      7 Cl   UNL d   1       6.000   3.597  -1.681  0.00  0.00    -0.070 Cl
ATOM      8 Cl1  UNL d   1       5.998   3.577   1.575  0.00  0.00    -0.070 Cl
ENDROOT
TORSDOF 0
ENDMDL
