MODEL 1
REMARK minimizedAffinity 6.50113583
REMARK minimizedRMSD -1
REMARK  0 active torsions:
REMARK  status: ('A' for Active; 'I' for Inactive)
ROOT
ATOM      1  C   UNL d   1       2.666   0.557   0.252  0.00  0.00     0.020 A 
ATOM      2  C1  UNL d   1       2.869   0.574  -1.128  0.00  0.00     0.020 A 
ATOM      3  C2  UNL d   1       3.864   1.384  -1.678  0.00  0.00     0.034 A 
ATOM      4  C3  UNL d   1       4.660   2.182  -0.848  0.00  0.00     0.017 A 
ATOM      5  C4  UNL d   1       4.456   2.165   0.536  0.00  0.00     0.017 A 
ATOM      6  C5  UNL d   1       3.458   1.351   1.082  0.00  0.00     0.034 A 
ATOM      7 Cl   UNL d   1       5.399   3.121   1.624  0.00  0.00    -0.070 Cl
ATOM      8 Cl1  UNL d   1       5.872   3.160  -1.597  0.00  0.00    -0.070 Cl
ENDROOT
TORSDOF 0
ENDMDL
