MODEL 1
REMARK minimizedAffinity 0.144208863
REMARK minimizedRMSD -1
REMARK  0 active torsions:
REMARK  status: ('A' for Active; 'I' for Inactive)
ROOT
ATOM      1  C   UNL d   1       2.969   1.165   0.259  0.00  0.00     0.020 A 
ATOM      2  C1  UNL d   1       3.910   2.073   0.743  0.00  0.00     0.020 A 
ATOM      3  C2  UNL d   1       4.836   2.650  -0.128  0.00  0.00     0.034 A 
ATOM      4  C3  UNL d   1       4.823   2.321  -1.488  0.00  0.00     0.017 A 
ATOM      5  C4  UNL d   1       3.878   1.410  -1.973  0.00  0.00     0.017 A 
ATOM      6  C5  UNL d   1       2.953   0.835  -1.097  0.00  0.00     0.034 A 
ATOM      7 Cl   UNL d   1       3.800   0.954  -3.639  0.00  0.00    -0.070 Cl
ATOM      8 Cl1  UNL d   1       5.998   3.073  -2.508  0.00  0.00    -0.070 Cl
ENDROOT
TORSDOF 0
ENDMDL
