MODEL 1
REMARK minimizedAffinity 7.40619087
REMARK minimizedRMSD -1
REMARK  0 active torsions:
REMARK  status: ('A' for Active; 'I' for Inactive)
ROOT
ATOM      1  C   UNL d   1       6.000   3.279  -1.545  0.00  0.00     0.020 A 
ATOM      2  C1  UNL d   1       5.486   3.109  -0.260  0.00  0.00     0.020 A 
ATOM      3  C2  UNL d   1       4.453   2.195  -0.036  0.00  0.00     0.034 A 
ATOM      4  C3  UNL d   1       3.932   1.448  -1.098  0.00  0.00     0.017 A 
ATOM      5  C4  UNL d   1       4.449   1.619  -2.388  0.00  0.00     0.017 A 
ATOM      6  C5  UNL d   1       5.482   2.535  -2.606  0.00  0.00     0.034 A 
ATOM      7 Cl   UNL d   1       3.857   0.733  -3.748  0.00  0.00    -0.070 Cl
ATOM      8 Cl1  UNL d   1       2.657   0.336  -0.749  0.00  0.00    -0.070 Cl
ENDROOT
TORSDOF 0
ENDMDL
