MODEL 1
REMARK minimizedAffinity -3.95933723
REMARK minimizedRMSD -1
REMARK  3 active torsions:
REMARK  status: ('A' for Active; 'I' for Inactive)
REMARK    1  A    between atoms: C3'_2  and  C2'_3 
REMARK    2  A    between atoms: C2'_3  and  C1'_4 
REMARK    3  A    between atoms: C1'_4  and  C1_5 
ROOT
ATOM      1  C1  N4B d   1       0.213  -0.496   0.212  0.00  0.00    -0.075 A 
ATOM      2  C2  N4B d   1      -0.115  -1.304   1.322  0.00  0.00     0.002 A 
ATOM      3  C3  N4B d   1      -0.292  -2.656   1.159  0.00  0.00     0.002 A 
ATOM      4  C4  N4B d   1      -0.165  -3.217  -0.103  0.00  0.00    -0.004 A 
ATOM      5  C5  N4B d   1       0.177  -2.433  -1.166  0.00  0.00     0.002 A 
ATOM      6  C6  N4B d   1       0.362  -1.073  -1.016  0.00  0.00     0.002 A 
ENDROOT
BRANCH   1   7
ATOM      7  C1' N4B d   1       0.332   1.000   0.325  0.00  0.00     0.057 C 
BRANCH   7   8
ATOM      8  C2' N4B d   1       1.804   1.376   0.461  0.00  0.00     0.009 C 
BRANCH   8   9
ATOM      9  C3' N4B d   1       2.021   2.875   0.339  0.00  0.00     0.004 C 
ATOM     10  C4' N4B d   1       2.477   3.502   1.623  0.00  0.00     0.003 C 
ENDBRANCH   8   9
ENDBRANCH   7   8
ENDBRANCH   1   7
TORSDOF 3
ENDMDL
