MODEL 1
REMARK minimizedAffinity 0.0672484711
REMARK minimizedRMSD -1
REMARK  3 active torsions:
REMARK  status: ('A' for Active; 'I' for Inactive)
REMARK    1  A    between atoms: C3'_2  and  C2'_3 
REMARK    2  A    between atoms: C2'_3  and  C1'_4 
REMARK    3  A    between atoms: C1'_4  and  C1_5 
ROOT
ATOM      1  C1  N4B d   1       0.362  -0.370   0.371  0.00  0.00    -0.075 A 
ATOM      2  C2  N4B d   1       0.176  -1.496  -0.461  0.00  0.00     0.002 A 
ATOM      3  C3  N4B d   1      -0.744  -2.457  -0.121  0.00  0.00     0.002 A 
ATOM      4  C4  N4B d   1      -1.472  -2.324   1.052  0.00  0.00    -0.004 A 
ATOM      5  C5  N4B d   1      -1.305  -1.221   1.837  0.00  0.00     0.002 A 
ATOM      6  C6  N4B d   1      -0.387  -0.245   1.505  0.00  0.00     0.002 A 
ENDROOT
BRANCH   1   7
ATOM      7  C1' N4B d   1       1.416   0.664   0.084  0.00  0.00     0.057 C 
BRANCH   7   8
ATOM      8  C2' N4B d   1       1.329   1.771   1.130  0.00  0.00     0.009 C 
BRANCH   8   9
ATOM      9  C3' N4B d   1       2.632   2.543   1.251  0.00  0.00     0.004 C 
ATOM     10  C4' N4B d   1       2.803   3.567   0.170  0.00  0.00     0.003 C 
ENDBRANCH   8   9
ENDBRANCH   7   8
ENDBRANCH   1   7
TORSDOF 3
ENDMDL
