MODEL 1
REMARK minimizedAffinity -5.2433486
REMARK minimizedRMSD -1
REMARK  3 active torsions:
REMARK  status: ('A' for Active; 'I' for Inactive)
REMARK    1  A    between atoms: C3'_2  and  C2'_3 
REMARK    2  A    between atoms: C2'_3  and  C1'_4 
REMARK    3  A    between atoms: C1'_4  and  C1_5 
ROOT
ATOM      1  C1  N4B d   1      -0.154  -0.107   0.220  0.00  0.00    -0.075 A 
ATOM      2  C2  N4B d   1       0.609  -0.999  -0.565  0.00  0.00     0.002 A 
ATOM      3  C3  N4B d   1       0.611  -2.341  -0.273  0.00  0.00     0.002 A 
ATOM      4  C4  N4B d   1      -0.126  -2.810   0.804  0.00  0.00    -0.004 A 
ATOM      5  C5  N4B d   1      -0.881  -1.945   1.542  0.00  0.00     0.002 A 
ATOM      6  C6  N4B d   1      -0.895  -0.595   1.258  0.00  0.00     0.002 A 
ENDROOT
BRANCH   1   7
ATOM      7  C1' N4B d   1      -0.120   1.379  -0.007  0.00  0.00     0.057 C 
BRANCH   7   8
ATOM      8  C2' N4B d   1       1.325   1.864   0.070  0.00  0.00     0.009 C 
BRANCH   8   9
ATOM      9  C3' N4B d   1       1.436   3.214   0.758  0.00  0.00     0.004 C 
ATOM     10  C4' N4B d   1       2.837   3.535   1.184  0.00  0.00     0.003 C 
ENDBRANCH   8   9
ENDBRANCH   7   8
ENDBRANCH   1   7
TORSDOF 3
ENDMDL
