MODEL 1
REMARK minimizedAffinity -5.29742432
REMARK minimizedRMSD -1
REMARK  3 active torsions:
REMARK  status: ('A' for Active; 'I' for Inactive)
REMARK    1  A    between atoms: C3'_2  and  C2'_3 
REMARK    2  A    between atoms: C2'_3  and  C1'_4 
REMARK    3  A    between atoms: C1'_4  and  C1_5 
ROOT
ATOM      1  C1  N4B d   1      -0.119  -0.819  -0.147  0.00  0.00    -0.075 A 
ATOM      2  C2  N4B d   1      -0.015  -1.601  -1.318  0.00  0.00     0.002 A 
ATOM      3  C3  N4B d   1       0.255  -2.944  -1.226  0.00  0.00     0.002 A 
ATOM      4  C4  N4B d   1       0.441  -3.522   0.021  0.00  0.00    -0.004 A 
ATOM      5  C5  N4B d   1       0.313  -2.765   1.149  0.00  0.00     0.002 A 
ATOM      6  C6  N4B d   1       0.039  -1.414   1.071  0.00  0.00     0.002 A 
ENDROOT
BRANCH   1   7
ATOM      7  C1' N4B d   1      -0.327   0.670  -0.202  0.00  0.00     0.057 C 
BRANCH   7   8
ATOM      8  C2' N4B d   1       0.472   1.328   0.919  0.00  0.00     0.009 C 
BRANCH   8   9
ATOM      9  C3' N4B d   1       1.328   2.475   0.408  0.00  0.00     0.004 C 
ATOM     10  C4' N4B d   1       1.965   3.262   1.514  0.00  0.00     0.003 C 
ENDBRANCH   8   9
ENDBRANCH   7   8
ENDBRANCH   1   7
TORSDOF 3
ENDMDL
