MODEL 1
REMARK minimizedAffinity -6.25667334
REMARK minimizedRMSD -1
REMARK  3 active torsions:
REMARK  status: ('A' for Active; 'I' for Inactive)
REMARK    1  A    between atoms: C3'_2  and  C2'_3 
REMARK    2  A    between atoms: C2'_3  and  C1'_4 
REMARK    3  A    between atoms: C1'_4  and  C1_5 
ROOT
ATOM      1  C1  N4B d   1      -0.030  -0.893   0.163  0.00  0.00    -0.075 A 
ATOM      2  C2  N4B d   1      -0.397  -2.111   0.777  0.00  0.00     0.002 A 
ATOM      3  C3  N4B d   1      -0.297  -3.289   0.079  0.00  0.00     0.002 A 
ATOM      4  C4  N4B d   1       0.148  -3.273  -1.234  0.00  0.00    -0.004 A 
ATOM      5  C5  N4B d   1       0.524  -2.096  -1.812  0.00  0.00     0.002 A 
ATOM      6  C6  N4B d   1       0.433  -0.904  -1.121  0.00  0.00     0.002 A 
ENDROOT
BRANCH   1   7
ATOM      7  C1' N4B d   1      -0.203   0.430   0.857  0.00  0.00     0.057 C 
BRANCH   7   8
ATOM      8  C2' N4B d   1       0.330   1.541  -0.043  0.00  0.00     0.009 C 
BRANCH   8   9
ATOM      9  C3' N4B d   1       0.377   2.880   0.674  0.00  0.00     0.004 C 
ATOM     10  C4' N4B d   1       1.774   3.395   0.851  0.00  0.00     0.003 C 
ENDBRANCH   8   9
ENDBRANCH   7   8
ENDBRANCH   1   7
TORSDOF 3
ENDMDL
