MODEL 1
REMARK minimizedAffinity -4.57240248
REMARK minimizedRMSD -1
REMARK  3 active torsions:
REMARK  status: ('A' for Active; 'I' for Inactive)
REMARK    1  A    between atoms: C3'_2  and  C2'_3 
REMARK    2  A    between atoms: C2'_3  and  C1'_4 
REMARK    3  A    between atoms: C1'_4  and  C1_5 
ROOT
ATOM      1  C1  N4B d   1       0.689   1.565  -0.002  0.00  0.00    -0.075 A 
ATOM      2  C2  N4B d   1       0.099   2.648   0.687  0.00  0.00     0.002 A 
ATOM      3  C3  N4B d   1       0.886   3.666   1.168  0.00  0.00     0.002 A 
ATOM      4  C4  N4B d   1       2.260   3.614   0.988  0.00  0.00    -0.004 A 
ATOM      5  C5  N4B d   1       2.819   2.578   0.299  0.00  0.00     0.002 A 
ATOM      6  C6  N4B d   1       2.040   1.550  -0.194  0.00  0.00     0.002 A 
ENDROOT
BRANCH   1   7
ATOM      7  C1' N4B d   1      -0.121   0.387  -0.471  0.00  0.00     0.057 C 
BRANCH   7   8
ATOM      8  C2' N4B d   1      -1.182   0.061   0.575  0.00  0.00     0.009 C 
BRANCH   8   9
ATOM      9  C3' N4B d   1      -0.842  -1.196   1.357  0.00  0.00     0.004 C 
ATOM     10  C4' N4B d   1      -1.422  -2.436   0.744  0.00  0.00     0.003 C 
ENDBRANCH   8   9
ENDBRANCH   7   8
ENDBRANCH   1   7
TORSDOF 3
ENDMDL
