MODEL 1
REMARK minimizedAffinity -6.04344893
REMARK minimizedRMSD -1
REMARK  3 active torsions:
REMARK  status: ('A' for Active; 'I' for Inactive)
REMARK    1  A    between atoms: C3'_2  and  C2'_3 
REMARK    2  A    between atoms: C2'_3  and  C1'_4 
REMARK    3  A    between atoms: C1'_4  and  C1_5 
ROOT
ATOM      1  C1  N4B d   1      -0.107  -0.213  -0.338  0.00  0.00    -0.075 A 
ATOM      2  C2  N4B d   1      -0.743  -0.455   0.899  0.00  0.00     0.002 A 
ATOM      3  C3  N4B d   1      -1.084  -1.737   1.257  0.00  0.00     0.002 A 
ATOM      4  C4  N4B d   1      -0.818  -2.785   0.389  0.00  0.00    -0.004 A 
ATOM      5  C5  N4B d   1      -0.180  -2.546  -0.794  0.00  0.00     0.002 A 
ATOM      6  C6  N4B d   1       0.172  -1.263  -1.164  0.00  0.00     0.002 A 
ENDROOT
BRANCH   1   7
ATOM      7  C1' N4B d   1       0.207   1.180  -0.810  0.00  0.00     0.057 C 
BRANCH   7   8
ATOM      8  C2' N4B d   1       0.342   2.100   0.399  0.00  0.00     0.009 C 
BRANCH   8   9
ATOM      9  C3' N4B d   1       1.604   2.942   0.335  0.00  0.00     0.004 C 
ATOM     10  C4' N4B d   1       1.967   3.547   1.658  0.00  0.00     0.003 C 
ENDBRANCH   8   9
ENDBRANCH   7   8
ENDBRANCH   1   7
TORSDOF 3
ENDMDL
