MODEL 1
REMARK minimizedAffinity -4.67762089
REMARK minimizedRMSD -1
REMARK  3 active torsions:
REMARK  status: ('A' for Active; 'I' for Inactive)
REMARK    1  A    between atoms: C3'_2  and  C2'_3 
REMARK    2  A    between atoms: C2'_3  and  C1'_4 
REMARK    3  A    between atoms: C1'_4  and  C1_5 
ROOT
ATOM      1  C1  N4B d   1       0.823   1.354  -0.215  0.00  0.00    -0.075 A 
ATOM      2  C2  N4B d   1       0.310   2.513   0.408  0.00  0.00     0.002 A 
ATOM      3  C3  N4B d   1       1.131   3.590   0.636  0.00  0.00     0.002 A 
ATOM      4  C4  N4B d   1       2.467   3.525   0.270  0.00  0.00    -0.004 A 
ATOM      5  C5  N4B d   1       2.949   2.411  -0.354  0.00  0.00     0.002 A 
ATOM      6  C6  N4B d   1       2.134   1.322  -0.593  0.00  0.00     0.002 A 
ENDROOT
BRANCH   1   7
ATOM      7  C1' N4B d   1      -0.014   0.119  -0.407  0.00  0.00     0.057 C 
BRANCH   7   8
ATOM      8  C2' N4B d   1      -0.981  -0.018   0.765  0.00  0.00     0.009 C 
BRANCH   8   9
ATOM      9  C3' N4B d   1      -0.811  -1.343   1.489  0.00  0.00     0.004 C 
ATOM     10  C4' N4B d   1      -1.284  -2.513   0.679  0.00  0.00     0.003 C 
ENDBRANCH   8   9
ENDBRANCH   7   8
ENDBRANCH   1   7
TORSDOF 3
ENDMDL
