MODEL 1
REMARK minimizedAffinity -4.06911469
REMARK minimizedRMSD -1
REMARK  3 active torsions:
REMARK  status: ('A' for Active; 'I' for Inactive)
REMARK    1  A    between atoms: C3'_2  and  C2'_3 
REMARK    2  A    between atoms: C2'_3  and  C1'_4 
REMARK    3  A    between atoms: C1'_4  and  C1_5 
ROOT
ATOM      1  C1  N4B d   1      -0.113   0.560  -0.101  0.00  0.00    -0.075 A 
ATOM      2  C2  N4B d   1      -0.376  -0.462  -1.040  0.00  0.00     0.002 A 
ATOM      3  C3  N4B d   1      -0.925  -1.651  -0.625  0.00  0.00     0.002 A 
ATOM      4  C4  N4B d   1      -1.201  -1.846   0.720  0.00  0.00    -0.004 A 
ATOM      5  C5  N4B d   1      -0.968  -0.845   1.616  0.00  0.00     0.002 A 
ATOM      6  C6  N4B d   1      -0.420   0.356   1.213  0.00  0.00     0.002 A 
ENDROOT
BRANCH   1   7
ATOM      7  C1' N4B d   1       0.566   1.844  -0.494  0.00  0.00     0.057 C 
BRANCH   7   8
ATOM      8  C2' N4B d   1       0.368   2.874   0.614  0.00  0.00     0.009 C 
BRANCH   8   9
ATOM      9  C3' N4B d   1       1.690   3.345   1.195  0.00  0.00     0.004 C 
ATOM     10  C4' N4B d   1       2.847   3.107   0.272  0.00  0.00     0.003 C 
ENDBRANCH   8   9
ENDBRANCH   7   8
ENDBRANCH   1   7
TORSDOF 3
ENDMDL
