MODEL 1
REMARK minimizedAffinity 0.547822535
REMARK minimizedRMSD -1
REMARK  1 active torsions:
REMARK  status: ('A' for Active; 'I' for Inactive)
REMARK    1  A    between atoms: C3_4  and  O_7 
ROOT
ATOM      1  C   UNL d   1       0.548   3.829   0.297  0.00  0.00    -0.033 A 
ATOM      2  C1  UNL d   1       0.747   2.471   0.043  0.00  0.00     0.039 A 
ATOM      3  C2  UNL d   1      -0.097   1.520   0.621  0.00  0.00    -0.080 A 
ATOM      4  C3  UNL d   1      -1.135   1.941   1.448  0.00  0.00     0.150 A 
ATOM      5  C4  UNL d   1      -1.341   3.293   1.702  0.00  0.00    -0.007 A 
ATOM      6  C5  UNL d   1      -0.497   4.240   1.125  0.00  0.00     0.039 A 
ENDROOT
BRANCH   4   7
ATOM      7  O   UNL d   1      -1.982   1.050   2.038  0.00  0.00    -0.526 OA
ATOM      8  H5  UNL d   1      -1.701   0.152   1.796  0.00  0.00     0.418 HD
ENDBRANCH   4   7
TORSDOF 1
ENDMDL
