MODEL 1
REMARK minimizedAffinity 0.998123825
REMARK minimizedRMSD -1
REMARK  1 active torsions:
REMARK  status: ('A' for Active; 'I' for Inactive)
REMARK    1  A    between atoms: C3_4  and  O_7 
ROOT
ATOM      1  C   UNL d   1       2.344  -2.054  -0.106  0.00  0.00    -0.033 A 
ATOM      2  C1  UNL d   1       1.728  -3.070   0.627  0.00  0.00     0.039 A 
ATOM      3  C2  UNL d   1       0.434  -3.483   0.301  0.00  0.00    -0.080 A 
ATOM      4  C3  UNL d   1      -0.231  -2.873  -0.760  0.00  0.00     0.150 A 
ATOM      5  C4  UNL d   1       0.379  -1.862  -1.496  0.00  0.00    -0.007 A 
ATOM      6  C5  UNL d   1       1.670  -1.451  -1.168  0.00  0.00     0.039 A 
ENDROOT
BRANCH   4   7
ATOM      7  O   UNL d   1      -1.496  -3.238  -1.112  0.00  0.00    -0.526 OA
ATOM      8  H5  UNL d   1      -1.800  -3.927  -0.498  0.00  0.00     0.418 HD
ENDBRANCH   4   7
TORSDOF 1
ENDMDL
