MODEL 1
REMARK minimizedAffinity 1.58691645
REMARK minimizedRMSD -1
REMARK  1 active torsions:
REMARK  status: ('A' for Active; 'I' for Inactive)
REMARK    1  A    between atoms: C3_4  and  O_7 
ROOT
ATOM      1  C   UNL d   1       1.436   1.434   1.838  0.00  0.00    -0.033 A 
ATOM      2  C1  UNL d   1       2.205   2.198   0.958  0.00  0.00     0.039 A 
ATOM      3  C2  UNL d   1       3.328   2.884   1.425  0.00  0.00    -0.080 A 
ATOM      4  C3  UNL d   1       3.672   2.796   2.771  0.00  0.00     0.150 A 
ATOM      5  C4  UNL d   1       2.913   2.033   3.652  0.00  0.00    -0.007 A 
ATOM      6  C5  UNL d   1       1.791   1.350   3.185  0.00  0.00     0.039 A 
ENDROOT
BRANCH   4   7
ATOM      7  O   UNL d   1       4.757   3.450   3.273  0.00  0.00    -0.526 OA
ATOM      8  H5  UNL d   1       5.169   3.960   2.555  0.00  0.00     0.418 HD
ENDBRANCH   4   7
TORSDOF 1
ENDMDL
