MODEL 1
REMARK minimizedAffinity 2.57665348
REMARK minimizedRMSD -1
REMARK  1 active torsions:
REMARK  status: ('A' for Active; 'I' for Inactive)
REMARK    1  A    between atoms: C3_4  and  O_7 
ROOT
ATOM      1  C   UNL d   1      -1.455   1.338   3.236  0.00  0.00    -0.033 A 
ATOM      2  C1  UNL d   1      -0.081   1.098   3.175  0.00  0.00     0.039 A 
ATOM      3  C2  UNL d   1       0.631   1.394   2.011  0.00  0.00    -0.080 A 
ATOM      4  C3  UNL d   1      -0.042   1.930   0.917  0.00  0.00     0.150 A 
ATOM      5  C4  UNL d   1      -1.410   2.175   0.971  0.00  0.00    -0.007 A 
ATOM      6  C5  UNL d   1      -2.119   1.878   2.134  0.00  0.00     0.039 A 
ENDROOT
BRANCH   4   7
ATOM      7  O   UNL d   1       0.609   2.231  -0.243  0.00  0.00    -0.526 OA
ATOM      8  H5  UNL d   1       1.543   1.982  -0.144  0.00  0.00     0.418 HD
ENDBRANCH   4   7
TORSDOF 1
ENDMDL
