MODEL 1
REMARK minimizedAffinity -1.19035184
REMARK minimizedRMSD -1
REMARK  1 active torsions:
REMARK  status: ('A' for Active; 'I' for Inactive)
REMARK    1  A    between atoms: C3_4  and  O_7 
ROOT
ATOM      1  C   UNL d   1      -4.957   1.869  -4.469  0.00  0.00    -0.033 A 
ATOM      2  C1  UNL d   1      -4.117   0.782  -4.216  0.00  0.00     0.039 A 
ATOM      3  C2  UNL d   1      -4.102   0.189  -2.952  0.00  0.00    -0.080 A 
ATOM      4  C3  UNL d   1      -4.931   0.690  -1.952  0.00  0.00     0.150 A 
ATOM      5  C4  UNL d   1      -5.772   1.770  -2.198  0.00  0.00    -0.007 A 
ATOM      6  C5  UNL d   1      -5.785   2.362  -3.460  0.00  0.00     0.039 A 
ENDROOT
BRANCH   4   7
ATOM      7  O   UNL d   1      -4.947   0.147  -0.702  0.00  0.00    -0.526 OA
ATOM      8  H5  UNL d   1      -4.295  -0.573  -0.670  0.00  0.00     0.418 HD
ENDBRANCH   4   7
TORSDOF 1
ENDMDL
