MODEL 1
REMARK minimizedAffinity 2.57804322
REMARK minimizedRMSD -1
REMARK  1 active torsions:
REMARK  status: ('A' for Active; 'I' for Inactive)
REMARK    1  A    between atoms: C3_4  and  O_7 
ROOT
ATOM      1  C   UNL d   1       0.616   2.495   1.558  0.00  0.00    -0.033 A 
ATOM      2  C1  UNL d   1      -0.172   3.364   0.800  0.00  0.00     0.039 A 
ATOM      3  C2  UNL d   1      -1.549   3.434   1.023  0.00  0.00    -0.080 A 
ATOM      4  C3  UNL d   1      -2.124   2.634   2.006  0.00  0.00     0.150 A 
ATOM      5  C4  UNL d   1      -1.344   1.769   2.767  0.00  0.00    -0.007 A 
ATOM      6  C5  UNL d   1       0.030   1.699   2.542  0.00  0.00     0.039 A 
ENDROOT
BRANCH   4   7
ATOM      7  O   UNL d   1      -3.463   2.664   2.256  0.00  0.00    -0.526 OA
ATOM      8  H5  UNL d   1      -3.878   3.286   1.635  0.00  0.00     0.418 HD
ENDBRANCH   4   7
TORSDOF 1
ENDMDL
