MODEL 1
REMARK minimizedAffinity 1.7297461
REMARK minimizedRMSD -1
REMARK  1 active torsions:
REMARK  status: ('A' for Active; 'I' for Inactive)
REMARK    1  A    between atoms: C3_4  and  O_7 
ROOT
ATOM      1  C   UNL d   1       0.300   2.274   1.289  0.00  0.00    -0.033 A 
ATOM      2  C1  UNL d   1      -0.377   2.249   0.068  0.00  0.00     0.039 A 
ATOM      3  C2  UNL d   1      -1.769   2.350   0.036  0.00  0.00    -0.080 A 
ATOM      4  C3  UNL d   1      -2.472   2.477   1.231  0.00  0.00     0.150 A 
ATOM      5  C4  UNL d   1      -1.804   2.506   2.451  0.00  0.00    -0.007 A 
ATOM      6  C5  UNL d   1      -0.414   2.404   2.481  0.00  0.00     0.039 A 
ENDROOT
BRANCH   4   7
ATOM      7  O   UNL d   1      -3.831   2.575   1.251  0.00  0.00    -0.526 OA
ATOM      8  H5  UNL d   1      -4.158   2.511   0.338  0.00  0.00     0.418 HD
ENDBRANCH   4   7
TORSDOF 1
ENDMDL
