MODEL 1
REMARK minimizedAffinity 1.61723614
REMARK minimizedRMSD -1
REMARK  1 active torsions:
REMARK  status: ('A' for Active; 'I' for Inactive)
REMARK    1  A    between atoms: C3_4  and  O_7 
ROOT
ATOM      1  C   UNL d   1       0.496   1.233  -0.512  0.00  0.00    -0.033 A 
ATOM      2  C1  UNL d   1      -0.522   1.733   0.301  0.00  0.00     0.039 A 
ATOM      3  C2  UNL d   1      -0.494   1.504   1.678  0.00  0.00    -0.080 A 
ATOM      4  C3  UNL d   1       0.557   0.775   2.229  0.00  0.00     0.150 A 
ATOM      5  C4  UNL d   1       1.577   0.278   1.424  0.00  0.00    -0.007 A 
ATOM      6  C5  UNL d   1       1.547   0.507   0.049  0.00  0.00     0.039 A 
ENDROOT
BRANCH   4   7
ATOM      7  O   UNL d   1       0.626   0.522   3.566  0.00  0.00    -0.526 OA
ATOM      8  H5  UNL d   1      -0.161   0.902   3.992  0.00  0.00     0.418 HD
ENDBRANCH   4   7
TORSDOF 1
ENDMDL
