MODEL 1
REMARK minimizedAffinity -0.707637131
REMARK minimizedRMSD -1
REMARK  1 active torsions:
REMARK  status: ('A' for Active; 'I' for Inactive)
REMARK    1  A    between atoms: C1_2  and  C2_3 
ROOT
ATOM      1  C2  UNL d   1      -0.231   0.668   2.617  0.00  0.00    -0.077 A 
ATOM      2  C3  UNL d   1       0.924  -0.027   2.232  0.00  0.00     0.002 A 
ATOM      3  C4  UNL d   1       2.184   0.554   2.390  0.00  0.00     0.002 A 
ATOM      4  C5  UNL d   1       2.301   1.830   2.938  0.00  0.00    -0.004 A 
ATOM      5  C6  UNL d   1       1.158   2.530   3.323  0.00  0.00     0.002 A 
ATOM      6  C7  UNL d   1      -0.102   1.951   3.164  0.00  0.00     0.002 A 
ENDROOT
BRANCH   1   7
ATOM      7  C1  UNL d   1      -1.587   0.024   2.493  0.00  0.00     0.055 C 
ATOM      8  C   UNL d   1      -2.264   0.407   1.185  0.00  0.00     0.019 C 
ENDBRANCH   1   7
TORSDOF 1
ENDMDL
