MODEL 1
REMARK minimizedAffinity -3.09214544
REMARK minimizedRMSD -1
REMARK  1 active torsions:
REMARK  status: ('A' for Active; 'I' for Inactive)
REMARK    1  A    between atoms: C1_2  and  C2_3 
ROOT
ATOM      1  C2  UNL d   1      -4.484   3.202  -0.996  0.00  0.00    -0.077 A 
ATOM      2  C3  UNL d   1      -3.351   4.023  -1.091  0.00  0.00     0.002 A 
ATOM      3  C4  UNL d   1      -3.486   5.412  -1.106  0.00  0.00     0.002 A 
ATOM      4  C5  UNL d   1      -4.750   5.993  -1.024  0.00  0.00    -0.004 A 
ATOM      5  C6  UNL d   1      -5.882   5.185  -0.932  0.00  0.00     0.002 A 
ATOM      6  C7  UNL d   1      -5.750   3.795  -0.917  0.00  0.00     0.002 A 
ENDROOT
BRANCH   1   7
ATOM      7  C1  UNL d   1      -4.337   1.704  -0.930  0.00  0.00     0.055 C 
ATOM      8  C   UNL d   1      -3.143   1.302  -0.077  0.00  0.00     0.019 C 
ENDBRANCH   1   7
TORSDOF 1
ENDMDL
