MODEL 1
REMARK minimizedAffinity 6.39785957
REMARK minimizedRMSD -1
REMARK  1 active torsions:
REMARK  status: ('A' for Active; 'I' for Inactive)
REMARK    1  A    between atoms: C1_2  and  C2_3 
ROOT
ATOM      1  C2  UNL d   1       0.623   0.322   2.469  0.00  0.00    -0.077 A 
ATOM      2  C3  UNL d   1      -0.416  -0.524   2.882  0.00  0.00     0.002 A 
ATOM      3  C4  UNL d   1      -1.685  -0.006   3.146  0.00  0.00     0.002 A 
ATOM      4  C5  UNL d   1      -1.928   1.358   2.997  0.00  0.00    -0.004 A 
ATOM      5  C6  UNL d   1      -0.901   2.208   2.588  0.00  0.00     0.002 A 
ATOM      6  C7  UNL d   1       0.369   1.692   2.324  0.00  0.00     0.002 A 
ENDROOT
BRANCH   1   7
ATOM      7  C1  UNL d   1       1.980  -0.241   2.135  0.00  0.00     0.055 C 
ATOM      8  C   UNL d   1       2.579  -0.980   3.323  0.00  0.00     0.019 C 
ENDBRANCH   1   7
TORSDOF 1
ENDMDL
