MODEL 1
REMARK minimizedAffinity 2.86781859
REMARK minimizedRMSD -1
REMARK  1 active torsions:
REMARK  status: ('A' for Active; 'I' for Inactive)
REMARK    1  A    between atoms: C1_2  and  C2_3 
ROOT
ATOM      1  C2  UNL d   1      -5.835   3.389  -0.677  0.00  0.00    -0.077 A 
ATOM      2  C3  UNL d   1      -5.837   4.550  -1.463  0.00  0.00     0.002 A 
ATOM      3  C4  UNL d   1      -5.910   5.809  -0.864  0.00  0.00     0.002 A 
ATOM      4  C5  UNL d   1      -5.976   5.919   0.523  0.00  0.00    -0.004 A 
ATOM      5  C6  UNL d   1      -5.977   4.771   1.314  0.00  0.00     0.002 A 
ATOM      6  C7  UNL d   1      -5.906   3.511   0.717  0.00  0.00     0.002 A 
ENDROOT
BRANCH   1   7
ATOM      7  C1  UNL d   1      -5.708   2.032  -1.319  0.00  0.00     0.055 C 
ATOM      8  C   UNL d   1      -4.390   1.367  -0.949  0.00  0.00     0.019 C 
ENDBRANCH   1   7
TORSDOF 1
ENDMDL
