MODEL 1
REMARK minimizedAffinity -2.24987531
REMARK minimizedRMSD -1
REMARK  1 active torsions:
REMARK  status: ('A' for Active; 'I' for Inactive)
REMARK    1  A    between atoms: C1_2  and  C2_3 
ROOT
ATOM      1  C2  UNL d   1      -4.490   4.887  -1.041  0.00  0.00    -0.077 A 
ATOM      2  C3  UNL d   1      -4.317   3.530  -1.352  0.00  0.00     0.002 A 
ATOM      3  C4  UNL d   1      -4.980   2.547  -0.614  0.00  0.00     0.002 A 
ATOM      4  C5  UNL d   1      -5.822   2.910   0.435  0.00  0.00    -0.004 A 
ATOM      5  C6  UNL d   1      -5.998   4.256   0.753  0.00  0.00     0.002 A 
ATOM      6  C7  UNL d   1      -5.336   5.240   0.018  0.00  0.00     0.002 A 
ENDROOT
BRANCH   1   7
ATOM      7  C1  UNL d   1      -3.815   5.951  -1.867  0.00  0.00     0.055 C 
ATOM      8  C   UNL d   1      -2.318   5.997  -1.594  0.00  0.00     0.019 C 
ENDBRANCH   1   7
TORSDOF 1
ENDMDL
