MODEL 1
REMARK minimizedAffinity 3.27754378
REMARK minimizedRMSD -1
REMARK  1 active torsions:
REMARK  status: ('A' for Active; 'I' for Inactive)
REMARK    1  A    between atoms: C1_2  and  C2_3 
ROOT
ATOM      1  C2  UNL d   1      -1.527  -1.463   0.482  0.00  0.00    -0.077 A 
ATOM      2  C3  UNL d   1      -1.126  -0.245   1.048  0.00  0.00     0.002 A 
ATOM      3  C4  UNL d   1      -1.746   0.236   2.202  0.00  0.00     0.002 A 
ATOM      4  C5  UNL d   1      -2.769  -0.496   2.803  0.00  0.00    -0.004 A 
ATOM      5  C6  UNL d   1      -3.176  -1.708   2.246  0.00  0.00     0.002 A 
ATOM      6  C7  UNL d   1      -2.558  -2.190   1.092  0.00  0.00     0.002 A 
ENDROOT
BRANCH   1   7
ATOM      7  C1  UNL d   1      -0.825  -2.008  -0.734  0.00  0.00     0.055 C 
ATOM      8  C   UNL d   1      -1.724  -1.955  -1.962  0.00  0.00     0.019 C 
ENDBRANCH   1   7
TORSDOF 1
ENDMDL
