MODEL 1
REMARK minimizedAffinity 0.684161603
REMARK minimizedRMSD -1
REMARK  1 active torsions:
REMARK  status: ('A' for Active; 'I' for Inactive)
REMARK    1  A    between atoms: C1_2  and  C2_3 
ROOT
ATOM      1  C2  UNL d   1      -2.982   1.018   0.621  0.00  0.00    -0.077 A 
ATOM      2  C3  UNL d   1      -2.520  -0.305   0.658  0.00  0.00     0.002 A 
ATOM      3  C4  UNL d   1      -1.474  -0.665   1.511  0.00  0.00     0.002 A 
ATOM      4  C5  UNL d   1      -0.885   0.291   2.335  0.00  0.00    -0.004 A 
ATOM      5  C6  UNL d   1      -1.336   1.610   2.304  0.00  0.00     0.002 A 
ATOM      6  C7  UNL d   1      -2.380   1.972   1.452  0.00  0.00     0.002 A 
ENDROOT
BRANCH   1   7
ATOM      7  C1  UNL d   1      -4.142   1.397  -0.261  0.00  0.00     0.055 C 
ATOM      8  C   UNL d   1      -4.407   0.332  -1.315  0.00  0.00     0.019 C 
ENDBRANCH   1   7
TORSDOF 1
ENDMDL
