MODEL 1
REMARK minimizedAffinity 2.33863592
REMARK minimizedRMSD -1
REMARK  1 active torsions:
REMARK  status: ('A' for Active; 'I' for Inactive)
REMARK    1  A    between atoms: C1_2  and  C2_3 
ROOT
ATOM      1  C2  UNL d   1       0.583  -0.005   2.424  0.00  0.00    -0.077 A 
ATOM      2  C3  UNL d   1      -0.223  -0.314   3.528  0.00  0.00     0.002 A 
ATOM      3  C4  UNL d   1      -1.612  -0.204   3.441  0.00  0.00     0.002 A 
ATOM      4  C5  UNL d   1      -2.207   0.210   2.251  0.00  0.00    -0.004 A 
ATOM      5  C6  UNL d   1      -1.413   0.521   1.147  0.00  0.00     0.002 A 
ATOM      6  C7  UNL d   1      -0.025   0.414   1.233  0.00  0.00     0.002 A 
ENDROOT
BRANCH   1   7
ATOM      7  C1  UNL d   1       2.079  -0.170   2.500  0.00  0.00     0.055 C 
ATOM      8  C   UNL d   1       2.642  -0.726   1.201  0.00  0.00     0.019 C 
ENDBRANCH   1   7
TORSDOF 1
ENDMDL
