MODEL 1
REMARK minimizedAffinity 2.01947975
REMARK minimizedRMSD -1
REMARK  1 active torsions:
REMARK  status: ('A' for Active; 'I' for Inactive)
REMARK    1  A    between atoms: C1_2  and  C2_3 
ROOT
ATOM      1  C2  UNL d   1       0.096  -0.497   1.797  0.00  0.00    -0.077 A 
ATOM      2  C3  UNL d   1      -0.896  -0.992   0.939  0.00  0.00     0.002 A 
ATOM      3  C4  UNL d   1      -0.544  -1.649  -0.242  0.00  0.00     0.002 A 
ATOM      4  C5  UNL d   1       0.798  -1.820  -0.572  0.00  0.00    -0.004 A 
ATOM      5  C6  UNL d   1       1.792  -1.330   0.274  0.00  0.00     0.002 A 
ATOM      6  C7  UNL d   1       1.442  -0.672   1.454  0.00  0.00     0.002 A 
ENDROOT
BRANCH   1   7
ATOM      7  C1  UNL d   1      -0.281   0.169   3.096  0.00  0.00     0.055 C 
ATOM      8  C   UNL d   1      -1.433   1.145   2.904  0.00  0.00     0.019 C 
ENDBRANCH   1   7
TORSDOF 1
ENDMDL
