MODEL 1
REMARK minimizedAffinity 10.7048216
REMARK minimizedRMSD -1
REMARK  0 active torsions:
REMARK  status: ('A' for Active; 'I' for Inactive)
ROOT
ATOM      1  C   UNL d   1      -2.417   0.735  -3.726  0.00  0.00     0.124 A 
ATOM      2  C1  UNL d   1      -2.250   1.666  -2.710  0.00  0.00     0.062 A 
ATOM      3  C2  UNL d   1      -3.269   2.564  -2.408  0.00  0.00     0.162 A 
ATOM      4  C3  UNL d   1      -4.466   2.536  -3.124  0.00  0.00    -0.034 A 
ATOM      5  C4  UNL d   1      -4.627   1.598  -4.145  0.00  0.00     0.162 A 
ATOM      6  C5  UNL d   1      -3.605   0.703  -4.443  0.00  0.00     0.062 A 
ATOM      7  F   UNL d   1      -3.769  -0.195  -5.425  0.00  0.00    -0.097 F 
ATOM      8  F1  UNL d   1      -5.765   1.544  -4.853  0.00  0.00    -0.096 F 
ATOM      9  I   UNL d   1      -5.993   3.878  -2.676  0.00  0.00    -0.060 I 
ATOM     10  F2  UNL d   1      -3.080   3.452  -1.421  0.00  0.00    -0.096 F 
ATOM     11  F3  UNL d   1      -1.103   1.700  -2.017  0.00  0.00    -0.097 F 
ATOM     12  F4  UNL d   1      -1.434  -0.127  -4.015  0.00  0.00    -0.092 F 
ENDROOT
TORSDOF 0
ENDMDL
