MODEL 1
REMARK minimizedAffinity 12.8969679
REMARK minimizedRMSD -1
REMARK  0 active torsions:
REMARK  status: ('A' for Active; 'I' for Inactive)
ROOT
ATOM      1  C   UNL d   1      -0.143   2.781  -1.161  0.00  0.00     0.124 A 
ATOM      2  C1  UNL d   1       0.163   2.222  -2.395  0.00  0.00     0.062 A 
ATOM      3  C2  UNL d   1      -0.850   1.724  -3.209  0.00  0.00     0.162 A 
ATOM      4  C3  UNL d   1      -2.180   1.782  -2.792  0.00  0.00    -0.034 A 
ATOM      5  C4  UNL d   1      -2.480   2.344  -1.550  0.00  0.00     0.162 A 
ATOM      6  C5  UNL d   1      -1.464   2.841  -0.740  0.00  0.00     0.062 A 
ATOM      7  F   UNL d   1      -1.763   3.380   0.451  0.00  0.00    -0.097 F 
ATOM      8  F1  UNL d   1      -3.748   2.415  -1.119  0.00  0.00    -0.096 F 
ATOM      9  I   UNL d   1      -3.697   1.037  -4.006  0.00  0.00    -0.060 I 
ATOM     10  F2  UNL d   1      -0.524   1.190  -4.395  0.00  0.00    -0.096 F 
ATOM     11  F3  UNL d   1       1.439   2.162  -2.803  0.00  0.00    -0.097 F 
ATOM     12  F4  UNL d   1       0.833   3.259  -0.380  0.00  0.00    -0.092 F 
ENDROOT
TORSDOF 0
ENDMDL
