MODEL 1
REMARK minimizedAffinity 20.2477379
REMARK minimizedRMSD -1
REMARK  0 active torsions:
REMARK  status: ('A' for Active; 'I' for Inactive)
ROOT
ATOM      1  C   UNL d   1      -1.814   0.004  -2.593  0.00  0.00     0.124 A 
ATOM      2  C1  UNL d   1      -3.175  -0.025  -2.864  0.00  0.00     0.062 A 
ATOM      3  C2  UNL d   1      -3.864   1.158  -3.112  0.00  0.00     0.162 A 
ATOM      4  C3  UNL d   1      -3.194   2.381  -3.091  0.00  0.00    -0.034 A 
ATOM      5  C4  UNL d   1      -1.825   2.402  -2.816  0.00  0.00     0.162 A 
ATOM      6  C5  UNL d   1      -1.140   1.217  -2.570  0.00  0.00     0.062 A 
ATOM      7  F   UNL d   1       0.175   1.246  -2.308  0.00  0.00    -0.097 F 
ATOM      8  F1  UNL d   1      -1.149   3.560  -2.788  0.00  0.00    -0.096 F 
ATOM      9  I   UNL d   1      -4.221   4.153  -3.461  0.00  0.00    -0.060 I 
ATOM     10  F2  UNL d   1      -5.179   1.101  -3.371  0.00  0.00    -0.096 F 
ATOM     11  F3  UNL d   1      -3.828  -1.196  -2.887  0.00  0.00    -0.097 F 
ATOM     12  F4  UNL d   1      -1.153  -1.137  -2.354  0.00  0.00    -0.092 F 
ENDROOT
TORSDOF 0
ENDMDL
