MODEL 1
REMARK minimizedAffinity 10.6821804
REMARK minimizedRMSD -1
REMARK  0 active torsions:
REMARK  status: ('A' for Active; 'I' for Inactive)
ROOT
ATOM      1  C   UNL d   1       2.663  -2.488  -4.025  0.00  0.00     0.124 A 
ATOM      2  C1  UNL d   1       3.879  -1.976  -4.456  0.00  0.00     0.062 A 
ATOM      3  C2  UNL d   1       4.833  -2.818  -5.019  0.00  0.00     0.162 A 
ATOM      4  C3  UNL d   1       4.575  -4.182  -5.155  0.00  0.00    -0.034 A 
ATOM      5  C4  UNL d   1       3.350  -4.690  -4.718  0.00  0.00     0.162 A 
ATOM      6  C5  UNL d   1       2.400  -3.844  -4.156  0.00  0.00     0.062 A 
ATOM      7  F   UNL d   1       1.226  -4.341  -3.740  0.00  0.00    -0.097 F 
ATOM      8  F1  UNL d   1       3.070  -5.997  -4.834  0.00  0.00    -0.096 F 
ATOM      9  I   UNL d   1       5.999  -5.445  -5.996  0.00  0.00    -0.060 I 
ATOM     10  F2  UNL d   1       5.999  -2.296  -5.428  0.00  0.00    -0.096 F 
ATOM     11  F3  UNL d   1       4.135  -0.666  -4.330  0.00  0.00    -0.097 F 
ATOM     12  F4  UNL d   1       1.747  -1.675  -3.483  0.00  0.00    -0.092 F 
ENDROOT
TORSDOF 0
ENDMDL
