MODEL 1
REMARK minimizedAffinity 24.4962578
REMARK minimizedRMSD -1
REMARK  0 active torsions:
REMARK  status: ('A' for Active; 'I' for Inactive)
ROOT
ATOM      1  C   UNL d   1      -3.292   3.134  -4.078  0.00  0.00     0.124 A 
ATOM      2  C1  UNL d   1      -4.343   3.761  -3.423  0.00  0.00     0.062 A 
ATOM      3  C2  UNL d   1      -4.987   3.125  -2.365  0.00  0.00     0.162 A 
ATOM      4  C3  UNL d   1      -4.582   1.855  -1.955  0.00  0.00    -0.034 A 
ATOM      5  C4  UNL d   1      -3.525   1.231  -2.620  0.00  0.00     0.162 A 
ATOM      6  C5  UNL d   1      -2.884   1.870  -3.676  0.00  0.00     0.062 A 
ATOM      7  F   UNL d   1      -1.869   1.263  -4.308  0.00  0.00    -0.097 F 
ATOM      8  F1  UNL d   1      -3.109   0.010  -2.251  0.00  0.00    -0.096 F 
ATOM      9  I   UNL d   1      -5.543   0.901  -0.374  0.00  0.00    -0.060 I 
ATOM     10  F2  UNL d   1      -6.000   3.755  -1.750  0.00  0.00    -0.096 F 
ATOM     11  F3  UNL d   1      -4.740   4.982  -3.810  0.00  0.00    -0.097 F 
ATOM     12  F4  UNL d   1      -2.675   3.747  -5.096  0.00  0.00    -0.092 F 
ENDROOT
TORSDOF 0
ENDMDL
