MODEL 1
REMARK minimizedAffinity 14.499753
REMARK minimizedRMSD -1
REMARK  0 active torsions:
REMARK  status: ('A' for Active; 'I' for Inactive)
ROOT
ATOM      1  C   UNL d   1      -4.551   1.960  -4.212  0.00  0.00     0.124 A 
ATOM      2  C1  UNL d   1      -4.732   2.990  -3.300  0.00  0.00     0.062 A 
ATOM      3  C2  UNL d   1      -3.864   3.131  -2.221  0.00  0.00     0.162 A 
ATOM      4  C3  UNL d   1      -2.805   2.239  -2.049  0.00  0.00    -0.034 A 
ATOM      5  C4  UNL d   1      -2.629   1.205  -2.970  0.00  0.00     0.162 A 
ATOM      6  C5  UNL d   1      -3.500   1.069  -4.047  0.00  0.00     0.062 A 
ATOM      7  F   UNL d   1      -3.323   0.073  -4.927  0.00  0.00    -0.097 F 
ATOM      8  F1  UNL d   1      -1.622   0.330  -2.835  0.00  0.00    -0.096 F 
ATOM      9  I   UNL d   1      -1.504   2.447  -0.438  0.00  0.00    -0.060 I 
ATOM     10  F2  UNL d   1      -4.063   4.136  -1.355  0.00  0.00    -0.096 F 
ATOM     11  F3  UNL d   1      -5.747   3.852  -3.457  0.00  0.00    -0.097 F 
ATOM     12  F4  UNL d   1      -5.388   1.826  -5.249  0.00  0.00    -0.092 F 
ENDROOT
TORSDOF 0
ENDMDL
