MODEL 1
REMARK minimizedAffinity 23.648777
REMARK minimizedRMSD -1
REMARK  0 active torsions:
REMARK  status: ('A' for Active; 'I' for Inactive)
ROOT
ATOM      1  C   UNL d   1      -1.156   0.956  -0.195  0.00  0.00     0.124 A 
ATOM      2  C1  UNL d   1      -1.531   0.223  -1.313  0.00  0.00     0.062 A 
ATOM      3  C2  UNL d   1      -2.347   0.795  -2.284  0.00  0.00     0.162 A 
ATOM      4  C3  UNL d   1      -2.793   2.109  -2.143  0.00  0.00    -0.034 A 
ATOM      5  C4  UNL d   1      -2.413   2.840  -1.016  0.00  0.00     0.162 A 
ATOM      6  C5  UNL d   1      -1.597   2.263  -0.048  0.00  0.00     0.062 A 
ATOM      7  F   UNL d   1      -1.236   2.973   1.031  0.00  0.00    -0.097 F 
ATOM      8  F1  UNL d   1      -2.824   4.106  -0.848  0.00  0.00    -0.096 F 
ATOM      9  I   UNL d   1      -4.014   2.969  -3.593  0.00  0.00    -0.060 I 
ATOM     10  F2  UNL d   1      -2.694   0.064  -3.353  0.00  0.00    -0.096 F 
ATOM     11  F3  UNL d   1      -1.107  -1.041  -1.457  0.00  0.00    -0.097 F 
ATOM     12  F4  UNL d   1      -0.372   0.402   0.738  0.00  0.00    -0.092 F 
ENDROOT
TORSDOF 0
ENDMDL
