MODEL 1
REMARK minimizedAffinity -5.39789581
REMARK minimizedRMSD -1
REMARK  2 active torsions:
REMARK  status: ('A' for Active; 'I' for Inactive)
REMARK    1  A    between atoms: C1_2  and  C2_3 
REMARK    2  A    between atoms: C2_3  and  C3_4 
ROOT
ATOM      1  C3  UNL d   1       0.178  -0.048  -0.280  0.00  0.00    -0.075 A 
ATOM      2  C4  UNL d   1      -0.674   0.258  -1.352  0.00  0.00     0.002 A 
ATOM      3  C5  UNL d   1      -1.965  -0.270  -1.404  0.00  0.00     0.002 A 
ATOM      4  C6  UNL d   1      -2.415  -1.117  -0.394  0.00  0.00    -0.004 A 
ATOM      5  C7  UNL d   1      -1.572  -1.442   0.666  0.00  0.00     0.002 A 
ATOM      6  C8  UNL d   1      -0.282  -0.911   0.723  0.00  0.00     0.002 A 
ENDROOT
BRANCH   1   7
ATOM      7  C2  UNL d   1       1.565   0.543  -0.203  0.00  0.00     0.056 C 
BRANCH   7   8
ATOM      8  C1  UNL d   1       1.676   1.751   0.733  0.00  0.00     0.007 C 
ATOM      9  C   UNL d   1       2.859   2.654   0.409  0.00  0.00     0.009 C 
ENDBRANCH   7   8
ENDBRANCH   1   7
TORSDOF 2
ENDMDL
