MODEL 1
REMARK minimizedAffinity -3.00730777
REMARK minimizedRMSD -1
REMARK  2 active torsions:
REMARK  status: ('A' for Active; 'I' for Inactive)
REMARK    1  A    between atoms: C1_2  and  C2_3 
REMARK    2  A    between atoms: C2_3  and  C3_4 
ROOT
ATOM      1  C3  UNL d   1      -0.559  -0.096  -0.538  0.00  0.00    -0.075 A 
ATOM      2  C4  UNL d   1      -0.902  -0.199   0.818  0.00  0.00     0.002 A 
ATOM      3  C5  UNL d   1      -2.170  -0.641   1.196  0.00  0.00     0.002 A 
ATOM      4  C6  UNL d   1      -3.113  -0.974   0.226  0.00  0.00    -0.004 A 
ATOM      5  C7  UNL d   1      -2.789  -0.859  -1.124  0.00  0.00     0.002 A 
ATOM      6  C8  UNL d   1      -1.519  -0.422  -1.505  0.00  0.00     0.002 A 
ENDROOT
BRANCH   1   7
ATOM      7  C2  UNL d   1       0.821   0.353  -0.953  0.00  0.00     0.056 C 
BRANCH   7   8
ATOM      8  C1  UNL d   1       1.916   0.032   0.069  0.00  0.00     0.007 C 
ATOM      9  C   UNL d   1       2.823   1.217   0.371  0.00  0.00     0.009 C 
ENDBRANCH   7   8
ENDBRANCH   1   7
TORSDOF 2
ENDMDL
