MODEL 1
REMARK minimizedAffinity -4.12784576
REMARK minimizedRMSD -1
REMARK  2 active torsions:
REMARK  status: ('A' for Active; 'I' for Inactive)
REMARK    1  A    between atoms: C1_2  and  C2_3 
REMARK    2  A    between atoms: C2_3  and  C3_4 
ROOT
ATOM      1  C3  UNL d   1       1.927   1.363   0.009  0.00  0.00    -0.075 A 
ATOM      2  C4  UNL d   1       2.875   1.929  -0.855  0.00  0.00     0.002 A 
ATOM      3  C5  UNL d   1       3.606   3.052  -0.467  0.00  0.00     0.002 A 
ATOM      4  C6  UNL d   1       3.392   3.628   0.783  0.00  0.00    -0.004 A 
ATOM      5  C7  UNL d   1       2.441   3.085   1.643  0.00  0.00     0.002 A 
ATOM      6  C8  UNL d   1       1.711   1.958   1.259  0.00  0.00     0.002 A 
ENDROOT
BRANCH   1   7
ATOM      7  C2  UNL d   1       1.153   0.130  -0.393  0.00  0.00     0.056 C 
BRANCH   7   8
ATOM      8  C1  UNL d   1      -0.253   0.052   0.211  0.00  0.00     0.007 C 
ATOM      9  C   UNL d   1      -1.359   0.087  -0.835  0.00  0.00     0.009 C 
ENDBRANCH   7   8
ENDBRANCH   1   7
TORSDOF 2
ENDMDL
