MODEL 1
REMARK minimizedAffinity -4.20585585
REMARK minimizedRMSD -1
REMARK  2 active torsions:
REMARK  status: ('A' for Active; 'I' for Inactive)
REMARK    1  A    between atoms: C1_2  and  C2_3 
REMARK    2  A    between atoms: C2_3  and  C3_4 
ROOT
ATOM      1  C3  UNL d   1       0.411   0.101  -0.203  0.00  0.00    -0.075 A 
ATOM      2  C4  UNL d   1       0.047   0.284  -1.545  0.00  0.00     0.002 A 
ATOM      3  C5  UNL d   1      -1.269   0.073  -1.957  0.00  0.00     0.002 A 
ATOM      4  C6  UNL d   1      -2.234  -0.331  -1.038  0.00  0.00    -0.004 A 
ATOM      5  C7  UNL d   1      -1.880  -0.532   0.295  0.00  0.00     0.002 A 
ATOM      6  C8  UNL d   1      -0.565  -0.318   0.711  0.00  0.00     0.002 A 
ENDROOT
BRANCH   1   7
ATOM      7  C2  UNL d   1       1.827   0.355   0.255  0.00  0.00     0.056 C 
BRANCH   7   8
ATOM      8  C1  UNL d   1       1.987   1.609   1.121  0.00  0.00     0.007 C 
ATOM      9  C   UNL d   1       2.953   2.627   0.530  0.00  0.00     0.009 C 
ENDBRANCH   7   8
ENDBRANCH   1   7
TORSDOF 2
ENDMDL
