MODEL 1
REMARK minimizedAffinity -5.23300171
REMARK minimizedRMSD -1
REMARK  2 active torsions:
REMARK  status: ('A' for Active; 'I' for Inactive)
REMARK    1  A    between atoms: C1_2  and  C2_3 
REMARK    2  A    between atoms: C2_3  and  C3_4 
ROOT
ATOM      1  C3  UNL d   1       3.316   2.999  -0.093  0.00  0.00    -0.075 A 
ATOM      2  C4  UNL d   1       3.434   3.425   1.238  0.00  0.00     0.002 A 
ATOM      3  C5  UNL d   1       2.980   2.619   2.283  0.00  0.00     0.002 A 
ATOM      4  C6  UNL d   1       2.394   1.385   2.010  0.00  0.00    -0.004 A 
ATOM      5  C7  UNL d   1       2.256   0.959   0.691  0.00  0.00     0.002 A 
ATOM      6  C8  UNL d   1       2.714   1.761  -0.356  0.00  0.00     0.002 A 
ENDROOT
BRANCH   1   7
ATOM      7  C2  UNL d   1       3.832   3.853  -1.226  0.00  0.00     0.056 C 
BRANCH   7   8
ATOM      8  C1  UNL d   1       4.208   3.061  -2.483  0.00  0.00     0.007 C 
ATOM      9  C   UNL d   1       5.350   3.690  -3.270  0.00  0.00     0.009 C 
ENDBRANCH   7   8
ENDBRANCH   1   7
TORSDOF 2
ENDMDL
