MODEL 1
REMARK minimizedAffinity -1.72441983
REMARK minimizedRMSD -1
REMARK  2 active torsions:
REMARK  status: ('A' for Active; 'I' for Inactive)
REMARK    1  A    between atoms: C1_2  and  C2_3 
REMARK    2  A    between atoms: C2_3  and  C3_4 
ROOT
ATOM      1  C3  UNL d   1       0.453   0.241   0.671  0.00  0.00    -0.075 A 
ATOM      2  C4  UNL d   1      -0.934   0.448   0.712  0.00  0.00     0.002 A 
ATOM      3  C5  UNL d   1      -1.789  -0.565   1.148  0.00  0.00     0.002 A 
ATOM      4  C6  UNL d   1      -1.270  -1.798   1.539  0.00  0.00    -0.004 A 
ATOM      5  C7  UNL d   1       0.104  -2.020   1.487  0.00  0.00     0.002 A 
ATOM      6  C8  UNL d   1       0.962  -1.007   1.055  0.00  0.00     0.002 A 
ENDROOT
BRANCH   1   7
ATOM      7  C2  UNL d   1       1.385   1.343   0.228  0.00  0.00     0.056 C 
BRANCH   7   8
ATOM      8  C1  UNL d   1       1.898   2.224   1.372  0.00  0.00     0.007 C 
ATOM      9  C   UNL d   1       2.545   3.516   0.891  0.00  0.00     0.009 C 
ENDBRANCH   7   8
ENDBRANCH   1   7
TORSDOF 2
ENDMDL
