MODEL 1
REMARK minimizedAffinity -4.8622551
REMARK minimizedRMSD -1
REMARK  2 active torsions:
REMARK  status: ('A' for Active; 'I' for Inactive)
REMARK    1  A    between atoms: C1_2  and  C2_3 
REMARK    2  A    between atoms: C2_3  and  C3_4 
ROOT
ATOM      1  C3  UNL d   1       0.408   0.101  -0.094  0.00  0.00    -0.075 A 
ATOM      2  C4  UNL d   1      -0.579  -0.614   0.601  0.00  0.00     0.002 A 
ATOM      3  C5  UNL d   1      -1.873  -0.715   0.089  0.00  0.00     0.002 A 
ATOM      4  C6  UNL d   1      -2.199  -0.097  -1.116  0.00  0.00    -0.004 A 
ATOM      5  C7  UNL d   1      -1.232   0.630  -1.806  0.00  0.00     0.002 A 
ATOM      6  C8  UNL d   1       0.065   0.729  -1.299  0.00  0.00     0.002 A 
ENDROOT
BRANCH   1   7
ATOM      7  C2  UNL d   1       1.818   0.190   0.439  0.00  0.00     0.056 C 
BRANCH   7   8
ATOM      8  C1  UNL d   1       2.560   1.466   0.030  0.00  0.00     0.007 C 
ATOM      9  C   UNL d   1       3.078   2.266   1.218  0.00  0.00     0.009 C 
ENDBRANCH   7   8
ENDBRANCH   1   7
TORSDOF 2
ENDMDL
