MODEL 1
REMARK minimizedAffinity -2.49753928
REMARK minimizedRMSD -1
REMARK  2 active torsions:
REMARK  status: ('A' for Active; 'I' for Inactive)
REMARK    1  A    between atoms: C1_2  and  C2_3 
REMARK    2  A    between atoms: C2_3  and  C3_4 
ROOT
ATOM      1  C3  UNL d   1       0.929   0.490  -0.315  0.00  0.00    -0.075 A 
ATOM      2  C4  UNL d   1       0.364   0.464  -1.598  0.00  0.00     0.002 A 
ATOM      3  C5  UNL d   1      -0.883  -0.123  -1.811  0.00  0.00     0.002 A 
ATOM      4  C6  UNL d   1      -1.576  -0.700  -0.748  0.00  0.00    -0.004 A 
ATOM      5  C7  UNL d   1      -1.016  -0.694   0.528  0.00  0.00     0.002 A 
ATOM      6  C8  UNL d   1       0.230  -0.103   0.744  0.00  0.00     0.002 A 
ENDROOT
BRANCH   1   7
ATOM      7  C2  UNL d   1       2.266   1.150  -0.073  0.00  0.00     0.056 C 
BRANCH   7   8
ATOM      8  C1  UNL d   1       2.323   1.993   1.206  0.00  0.00     0.007 C 
ATOM      9  C   UNL d   1       3.047   3.319   1.018  0.00  0.00     0.009 C 
ENDBRANCH   7   8
ENDBRANCH   1   7
TORSDOF 2
ENDMDL
