MODEL 1
REMARK minimizedAffinity -5.96419239
REMARK minimizedRMSD -1
REMARK  2 active torsions:
REMARK  status: ('A' for Active; 'I' for Inactive)
REMARK    1  A    between atoms: C1_2  and  C2_3 
REMARK    2  A    between atoms: C2_3  and  C3_4 
ROOT
ATOM      1  C3  UNL d   1       0.190  -0.134   0.206  0.00  0.00    -0.075 A 
ATOM      2  C4  UNL d   1      -0.805  -0.696   1.018  0.00  0.00     0.002 A 
ATOM      3  C5  UNL d   1      -2.100  -0.874   0.531  0.00  0.00     0.002 A 
ATOM      4  C6  UNL d   1      -2.419  -0.485  -0.768  0.00  0.00    -0.004 A 
ATOM      5  C7  UNL d   1      -1.442   0.090  -1.579  0.00  0.00     0.002 A 
ATOM      6  C8  UNL d   1      -0.144   0.266  -1.095  0.00  0.00     0.002 A 
ENDROOT
BRANCH   1   7
ATOM      7  C2  UNL d   1       1.601   0.035   0.717  0.00  0.00     0.056 C 
BRANCH   7   8
ATOM      8  C1  UNL d   1       2.125   1.473   0.639  0.00  0.00     0.007 C 
ATOM      9  C   UNL d   1       2.287   2.128   2.004  0.00  0.00     0.009 C 
ENDBRANCH   7   8
ENDBRANCH   1   7
TORSDOF 2
ENDMDL
