MODEL 1
REMARK minimizedAffinity -4.76490211
REMARK minimizedRMSD -1
REMARK  2 active torsions:
REMARK  status: ('A' for Active; 'I' for Inactive)
REMARK    1  A    between atoms: C1_2  and  C2_3 
REMARK    2  A    between atoms: C2_3  and  C3_4 
ROOT
ATOM      1  C3  UNL d   1       0.326   0.228  -0.026  0.00  0.00    -0.075 A 
ATOM      2  C4  UNL d   1      -0.118   0.404  -1.345  0.00  0.00     0.002 A 
ATOM      3  C5  UNL d   1      -1.418   0.052  -1.707  0.00  0.00     0.002 A 
ATOM      4  C6  UNL d   1      -2.286  -0.489  -0.761  0.00  0.00    -0.004 A 
ATOM      5  C7  UNL d   1      -1.850  -0.683   0.548  0.00  0.00     0.002 A 
ATOM      6  C8  UNL d   1      -0.551  -0.328   0.915  0.00  0.00     0.002 A 
ENDROOT
BRANCH   1   7
ATOM      7  C2  UNL d   1       1.723   0.635   0.379  0.00  0.00     0.056 C 
BRANCH   7   8
ATOM      8  C1  UNL d   1       1.777   1.890   1.256  0.00  0.00     0.007 C 
ATOM      9  C   UNL d   1       2.862   2.872   0.833  0.00  0.00     0.009 C 
ENDBRANCH   7   8
ENDBRANCH   1   7
TORSDOF 2
ENDMDL
