MODEL 1
REMARK minimizedAffinity -5.06442976
REMARK minimizedRMSD -1
REMARK  2 active torsions:
REMARK  status: ('A' for Active; 'I' for Inactive)
REMARK    1  A    between atoms: C1_2  and  C2_3 
REMARK    2  A    between atoms: C2_3  and  C3_4 
ROOT
ATOM      1  C3  UNL d   1       0.405  -0.124   0.056  0.00  0.00    -0.075 A 
ATOM      2  C4  UNL d   1       0.141   0.462  -1.190  0.00  0.00     0.002 A 
ATOM      3  C5  UNL d   1      -1.126   0.361  -1.767  0.00  0.00     0.002 A 
ATOM      4  C6  UNL d   1      -2.139  -0.335  -1.111  0.00  0.00    -0.004 A 
ATOM      5  C7  UNL d   1      -1.884  -0.935   0.120  0.00  0.00     0.002 A 
ATOM      6  C8  UNL d   1      -0.619  -0.832   0.701  0.00  0.00     0.002 A 
ENDROOT
BRANCH   1   7
ATOM      7  C2  UNL d   1       1.765   0.007   0.699  0.00  0.00     0.056 C 
BRANCH   7   8
ATOM      8  C1  UNL d   1       2.496   1.308   0.352  0.00  0.00     0.007 C 
ATOM      9  C   UNL d   1       2.922   2.103   1.579  0.00  0.00     0.009 C 
ENDBRANCH   7   8
ENDBRANCH   1   7
TORSDOF 2
ENDMDL
