MODEL 1
REMARK minimizedAffinity -2.20680952
REMARK minimizedRMSD -1
REMARK  2 active torsions:
REMARK  status: ('A' for Active; 'I' for Inactive)
REMARK    1  A    between atoms: C1_2  and  C2_3 
REMARK    2  A    between atoms: C2_3  and  C3_4 
ROOT
ATOM      1  C3  UNL d   1      -0.211   0.024  -0.274  0.00  0.00    -0.075 A 
ATOM      2  C4  UNL d   1      -0.876  -0.043  -1.507  0.00  0.00     0.002 A 
ATOM      3  C5  UNL d   1      -2.227  -0.387  -1.565  0.00  0.00     0.002 A 
ATOM      4  C6  UNL d   1      -2.925  -0.679  -0.396  0.00  0.00    -0.004 A 
ATOM      5  C7  UNL d   1      -2.270  -0.633   0.833  0.00  0.00     0.002 A 
ATOM      6  C8  UNL d   1      -0.920  -0.284   0.895  0.00  0.00     0.002 A 
ENDROOT
BRANCH   1   7
ATOM      7  C2  UNL d   1       1.243   0.425  -0.202  0.00  0.00     0.056 C 
BRANCH   7   8
ATOM      8  C1  UNL d   1       1.533   1.539   0.808  0.00  0.00     0.007 C 
ATOM      9  C   UNL d   1       2.727   2.403   0.423  0.00  0.00     0.009 C 
ENDBRANCH   7   8
ENDBRANCH   1   7
TORSDOF 2
ENDMDL
