MODEL 1
REMARK minimizedAffinity 2.01313257
REMARK minimizedRMSD -1
REMARK  0 active torsions:
REMARK  status: ('A' for Active; 'I' for Inactive)
ROOT
ATOM      1  C   UNL d   1      -5.103   4.714   3.369  0.00  0.00     0.077 C 
ATOM      2  C1  UNL d   1      -3.667   4.782   2.941  0.00  0.00    -0.074 A 
ATOM      3  C2  UNL d   1      -2.794   5.722   3.498  0.00  0.00    -0.005 A 
ATOM      4  C3  UNL d   1      -1.459   5.767   3.097  0.00  0.00     0.006 A 
ATOM      5  C4  UNL d   1      -0.984   4.873   2.137  0.00  0.00    -0.005 A 
ATOM      6  C5  UNL d   1      -1.841   3.926   1.569  0.00  0.00    -0.074 A 
ATOM      7  C6  UNL d   1      -1.344   2.951   0.543  0.00  0.00     0.077 C 
ATOM      8  C7  UNL d   1      -3.180   3.882   1.983  0.00  0.00    -0.001 A 
ENDROOT
TORSDOF 0
ENDMDL
