MODEL 1
REMARK minimizedAffinity 3.72278023
REMARK minimizedRMSD -1
REMARK  0 active torsions:
REMARK  status: ('A' for Active; 'I' for Inactive)
ROOT
ATOM      1  C   UNL d   1       2.252  -0.458  -0.739  0.00  0.00     0.077 C 
ATOM      2  C1  UNL d   1       3.562   0.270  -0.692  0.00  0.00    -0.074 A 
ATOM      3  C2  UNL d   1       4.739  -0.389  -0.322  0.00  0.00    -0.005 A 
ATOM      4  C3  UNL d   1       5.951   0.299  -0.292  0.00  0.00     0.006 A 
ATOM      5  C4  UNL d   1       6.000   1.652  -0.631  0.00  0.00    -0.005 A 
ATOM      6  C5  UNL d   1       4.834   2.328  -1.004  0.00  0.00    -0.074 A 
ATOM      7  C6  UNL d   1       4.870   3.780  -1.380  0.00  0.00     0.077 C 
ATOM      8  C7  UNL d   1       3.620   1.628  -1.039  0.00  0.00    -0.001 A 
ENDROOT
TORSDOF 0
ENDMDL
