MODEL 1
REMARK minimizedAffinity 8.16673279
REMARK minimizedRMSD -1
REMARK  0 active torsions:
REMARK  status: ('A' for Active; 'I' for Inactive)
ROOT
ATOM      1  C   UNL d   1       5.978   0.746  -1.131  0.00  0.00     0.077 C 
ATOM      2  C1  UNL d   1       4.538   0.410  -0.879  0.00  0.00    -0.074 A 
ATOM      3  C2  UNL d   1       3.626   1.399  -0.496  0.00  0.00    -0.005 A 
ATOM      4  C3  UNL d   1       2.288   1.073  -0.275  0.00  0.00     0.006 A 
ATOM      5  C4  UNL d   1       1.849  -0.242  -0.434  0.00  0.00    -0.005 A 
ATOM      6  C5  UNL d   1       2.746  -1.244  -0.817  0.00  0.00    -0.074 A 
ATOM      7  C6  UNL d   1       2.289  -2.660  -1.002  0.00  0.00     0.077 C 
ATOM      8  C7  UNL d   1       4.088  -0.907  -1.045  0.00  0.00    -0.001 A 
ENDROOT
TORSDOF 0
ENDMDL
