MODEL 1
REMARK minimizedAffinity 7.20958948
REMARK minimizedRMSD -1
REMARK  0 active torsions:
REMARK  status: ('A' for Active; 'I' for Inactive)
ROOT
ATOM      1  C   UNL d   1       0.407   5.367   2.490  0.00  0.00     0.077 C 
ATOM      2  C1  UNL d   1       0.363   3.894   2.207  0.00  0.00    -0.074 A 
ATOM      3  C2  UNL d   1       1.368   3.042   2.676  0.00  0.00    -0.005 A 
ATOM      4  C3  UNL d   1       1.308   1.673   2.413  0.00  0.00     0.006 A 
ATOM      5  C4  UNL d   1       0.245   1.144   1.680  0.00  0.00    -0.005 A 
ATOM      6  C5  UNL d   1      -0.769   1.981   1.204  0.00  0.00    -0.074 A 
ATOM      7  C6  UNL d   1      -1.924   1.428   0.423  0.00  0.00     0.077 C 
ATOM      8  C7  UNL d   1      -0.706   3.354   1.478  0.00  0.00    -0.001 A 
ENDROOT
TORSDOF 0
ENDMDL
