MODEL 1
REMARK minimizedAffinity 5.71281481
REMARK minimizedRMSD -1
REMARK  0 active torsions:
REMARK  status: ('A' for Active; 'I' for Inactive)
ROOT
ATOM      1  C   UNL d   1       4.501   2.976  -1.132  0.00  0.00     0.077 C 
ATOM      2  C1  UNL d   1       4.650   1.499  -0.917  0.00  0.00    -0.074 A 
ATOM      3  C2  UNL d   1       5.879   0.949  -0.539  0.00  0.00    -0.005 A 
ATOM      4  C3  UNL d   1       6.000  -0.426  -0.333  0.00  0.00     0.006 A 
ATOM      5  C4  UNL d   1       4.896  -1.262  -0.502  0.00  0.00    -0.005 A 
ATOM      6  C5  UNL d   1       3.659  -0.729  -0.879  0.00  0.00    -0.074 A 
ATOM      7  C6  UNL d   1       2.459  -1.612  -1.057  0.00  0.00     0.077 C 
ATOM      8  C7  UNL d   1       3.543   0.654  -1.078  0.00  0.00    -0.001 A 
ENDROOT
TORSDOF 0
ENDMDL
