MODEL 1
REMARK minimizedAffinity 5.68986845
REMARK minimizedRMSD -1
REMARK  0 active torsions:
REMARK  status: ('A' for Active; 'I' for Inactive)
ROOT
ATOM      1  C   UNL d   1       1.691  -3.204  -0.726  0.00  0.00     0.077 C 
ATOM      2  C1  UNL d   1       2.370  -1.870  -0.630  0.00  0.00    -0.074 A 
ATOM      3  C2  UNL d   1       1.646  -0.682  -0.780  0.00  0.00    -0.005 A 
ATOM      4  C3  UNL d   1       2.290   0.551  -0.679  0.00  0.00     0.006 A 
ATOM      5  C4  UNL d   1       3.661   0.609  -0.429  0.00  0.00    -0.005 A 
ATOM      6  C5  UNL d   1       4.401  -0.568  -0.275  0.00  0.00    -0.074 A 
ATOM      7  C6  UNL d   1       5.874  -0.522   0.004  0.00  0.00     0.077 C 
ATOM      8  C7  UNL d   1       3.746  -1.803  -0.371  0.00  0.00    -0.001 A 
ENDROOT
TORSDOF 0
ENDMDL
