MODEL 1
REMARK minimizedAffinity 8.64080811
REMARK minimizedRMSD -1
REMARK  0 active torsions:
REMARK  status: ('A' for Active; 'I' for Inactive)
ROOT
ATOM      1  C   UNL d   1       4.185   0.907  -1.218  0.00  0.00     0.077 C 
ATOM      2  C1  UNL d   1       4.697   2.199  -0.653  0.00  0.00    -0.074 A 
ATOM      3  C2  UNL d   1       4.901   2.351   0.722  0.00  0.00    -0.005 A 
ATOM      4  C3  UNL d   1       5.386   3.555   1.232  0.00  0.00     0.006 A 
ATOM      5  C4  UNL d   1       5.672   4.617   0.373  0.00  0.00    -0.005 A 
ATOM      6  C5  UNL d   1       5.475   4.483  -1.005  0.00  0.00    -0.074 A 
ATOM      7  C6  UNL d   1       5.787   5.611  -1.943  0.00  0.00     0.077 C 
ATOM      8  C7  UNL d   1       4.994   3.267  -1.510  0.00  0.00    -0.001 A 
ENDROOT
TORSDOF 0
ENDMDL
