MODEL 1
REMARK minimizedAffinity 8.91281509
REMARK minimizedRMSD -1
REMARK  0 active torsions:
REMARK  status: ('A' for Active; 'I' for Inactive)
ROOT
ATOM      1  C   UNL d   1      -3.042  -0.835  -2.576  0.00  0.00     0.077 C 
ATOM      2  C1  UNL d   1      -3.269   0.163  -3.673  0.00  0.00    -0.074 A 
ATOM      3  C2  UNL d   1      -2.753  -0.049  -4.955  0.00  0.00    -0.005 A 
ATOM      4  C3  UNL d   1      -2.980   0.884  -5.967  0.00  0.00     0.006 A 
ATOM      5  C4  UNL d   1      -3.724   2.036  -5.708  0.00  0.00    -0.005 A 
ATOM      6  C5  UNL d   1      -4.249   2.264  -4.431  0.00  0.00    -0.074 A 
ATOM      7  C6  UNL d   1      -5.059   3.492  -4.138  0.00  0.00     0.077 C 
ATOM      8  C7  UNL d   1      -4.022   1.319  -3.422  0.00  0.00    -0.001 A 
ENDROOT
TORSDOF 0
ENDMDL
