MODEL 1
REMARK minimizedAffinity 5.45611668
REMARK minimizedRMSD -1
REMARK  0 active torsions:
REMARK  status: ('A' for Active; 'I' for Inactive)
ROOT
ATOM      1  C   UNL d   1       4.061   0.606  -1.456  0.00  0.00     0.077 C 
ATOM      2  C1  UNL d   1       3.434  -0.670  -0.977  0.00  0.00    -0.074 A 
ATOM      3  C2  UNL d   1       3.865  -1.283   0.204  0.00  0.00    -0.005 A 
ATOM      4  C3  UNL d   1       3.266  -2.464   0.642  0.00  0.00     0.006 A 
ATOM      5  C4  UNL d   1       2.233  -3.043  -0.096  0.00  0.00    -0.005 A 
ATOM      6  C5  UNL d   1       1.788  -2.444  -1.279  0.00  0.00    -0.074 A 
ATOM      7  C6  UNL d   1       0.672  -3.048  -2.078  0.00  0.00     0.077 C 
ATOM      8  C7  UNL d   1       2.390  -1.253  -1.708  0.00  0.00    -0.001 A 
ENDROOT
TORSDOF 0
ENDMDL
