MODEL 1
REMARK minimizedAffinity 5.20048285
REMARK minimizedRMSD -1
REMARK  0 active torsions:
REMARK  status: ('A' for Active; 'I' for Inactive)
ROOT
ATOM      1  C   UNL d   1       5.999   3.995  -0.385  0.00  0.00     0.077 C 
ATOM      2  C1  UNL d   1       5.314   2.720   0.007  0.00  0.00    -0.074 A 
ATOM      3  C2  UNL d   1       5.272   2.308   1.343  0.00  0.00    -0.005 A 
ATOM      4  C3  UNL d   1       4.623   1.125   1.695  0.00  0.00     0.006 A 
ATOM      5  C4  UNL d   1       4.009   0.343   0.716  0.00  0.00    -0.005 A 
ATOM      6  C5  UNL d   1       4.039   0.739  -0.625  0.00  0.00    -0.074 A 
ATOM      7  C6  UNL d   1       3.376  -0.085  -1.689  0.00  0.00     0.077 C 
ATOM      8  C7  UNL d   1       4.688   1.933  -0.970  0.00  0.00    -0.001 A 
ENDROOT
TORSDOF 0
ENDMDL
