MODEL 1
REMARK minimizedAffinity -2.35793257
REMARK minimizedRMSD -1
REMARK  0 active torsions:
REMARK  status: ('A' for Active; 'I' for Inactive)
ROOT
ATOM      1  C   UNL d   1      -5.729   4.604  -4.543  0.00  0.00     0.077 C 
ATOM      2  C1  UNL d   1      -5.318   3.334  -3.859  0.00  0.00    -0.074 A 
ATOM      3  C2  UNL d   1      -5.968   2.899  -2.700  0.00  0.00    -0.005 A 
ATOM      4  C3  UNL d   1      -5.581   1.711  -2.080  0.00  0.00     0.006 A 
ATOM      5  C4  UNL d   1      -4.541   0.948  -2.611  0.00  0.00    -0.005 A 
ATOM      6  C5  UNL d   1      -3.879   1.367  -3.770  0.00  0.00    -0.074 A 
ATOM      7  C6  UNL d   1      -2.766   0.553  -4.360  0.00  0.00     0.077 C 
ATOM      8  C7  UNL d   1      -4.279   2.558  -4.391  0.00  0.00    -0.001 A 
ENDROOT
TORSDOF 0
ENDMDL
