MODEL 1
REMARK minimizedAffinity -5.14766932
REMARK minimizedRMSD -1
REMARK  2 active torsions:
REMARK  status: ('A' for Active; 'I' for Inactive)
REMARK    1  A    between atoms: C1_2  and  C2_3 
REMARK    2  A    between atoms: C2_3  and  C3_4 
ROOT
ATOM      1  C3  UNL d   1      -0.440  -0.488   0.068  0.00  0.00    -0.075 A 
ATOM      2  C4  UNL d   1      -0.999  -1.467   0.901  0.00  0.00     0.002 A 
ATOM      3  C5  UNL d   1      -1.157  -2.777   0.448  0.00  0.00     0.002 A 
ATOM      4  C6  UNL d   1      -0.768  -3.122  -0.845  0.00  0.00    -0.004 A 
ATOM      5  C7  UNL d   1      -0.227  -2.153  -1.687  0.00  0.00     0.002 A 
ATOM      6  C8  UNL d   1      -0.064  -0.842  -1.235  0.00  0.00     0.002 A 
ENDROOT
BRANCH   1   7
ATOM      7  C2  UNL d   1      -0.239   0.925   0.562  0.00  0.00     0.056 C 
BRANCH   7   8
ATOM      8  C1  UNL d   1       0.208   1.909  -0.524  0.00  0.00     0.007 C 
ATOM      9  C   UNL d   1       0.981   3.100   0.025  0.00  0.00     0.009 C 
ENDBRANCH   7   8
ENDBRANCH   1   7
TORSDOF 2
ENDMDL
