MODEL 1
REMARK minimizedAffinity -2.85869837
REMARK minimizedRMSD -1
REMARK  2 active torsions:
REMARK  status: ('A' for Active; 'I' for Inactive)
REMARK    1  A    between atoms: C1_2  and  C2_3 
REMARK    2  A    between atoms: C2_3  and  C3_4 
ROOT
ATOM      1  C3  UNL d   1      -0.053   0.150   0.050  0.00  0.00    -0.075 A 
ATOM      2  C4  UNL d   1       0.091  -1.048  -0.663  0.00  0.00     0.002 A 
ATOM      3  C5  UNL d   1      -0.670  -2.168  -0.327  0.00  0.00     0.002 A 
ATOM      4  C6  UNL d   1      -1.575  -2.108   0.731  0.00  0.00    -0.004 A 
ATOM      5  C7  UNL d   1      -1.714  -0.927   1.457  0.00  0.00     0.002 A 
ATOM      6  C8  UNL d   1      -0.957   0.197   1.120  0.00  0.00     0.002 A 
ENDROOT
BRANCH   1   7
ATOM      7  C2  UNL d   1       0.746   1.375  -0.327  0.00  0.00     0.056 C 
BRANCH   7   8
ATOM      8  C1  UNL d   1       0.741   2.476   0.738  0.00  0.00     0.007 C 
ATOM      9  C   UNL d   1       2.139   2.924   1.146  0.00  0.00     0.009 C 
ENDBRANCH   7   8
ENDBRANCH   1   7
TORSDOF 2
ENDMDL
