MODEL 1
REMARK minimizedAffinity -5.59068727
REMARK minimizedRMSD -1
REMARK  2 active torsions:
REMARK  status: ('A' for Active; 'I' for Inactive)
REMARK    1  A    between atoms: C1_2  and  C2_3 
REMARK    2  A    between atoms: C2_3  and  C3_4 
ROOT
ATOM      1  C3  UNL d   1      -0.648  -0.211   0.650  0.00  0.00    -0.075 A 
ATOM      2  C4  UNL d   1       0.576  -0.803   0.305  0.00  0.00     0.002 A 
ATOM      3  C5  UNL d   1       0.703  -2.192   0.260  0.00  0.00     0.002 A 
ATOM      4  C6  UNL d   1      -0.385  -3.005   0.569  0.00  0.00    -0.004 A 
ATOM      5  C7  UNL d   1      -1.601  -2.428   0.930  0.00  0.00     0.002 A 
ATOM      6  C8  UNL d   1      -1.733  -1.038   0.971  0.00  0.00     0.002 A 
ENDROOT
BRANCH   1   7
ATOM      7  C2  UNL d   1      -0.801   1.291   0.672  0.00  0.00     0.056 C 
BRANCH   7   8
ATOM      8  C1  UNL d   1       0.348   2.044  -0.006  0.00  0.00     0.007 C 
ATOM      9  C   UNL d   1       0.416   3.514   0.386  0.00  0.00     0.009 C 
ENDBRANCH   7   8
ENDBRANCH   1   7
TORSDOF 2
ENDMDL
