MODEL 1
REMARK minimizedAffinity -5.64261198
REMARK minimizedRMSD -1
REMARK  2 active torsions:
REMARK  status: ('A' for Active; 'I' for Inactive)
REMARK    1  A    between atoms: C1_2  and  C2_3 
REMARK    2  A    between atoms: C2_3  and  C3_4 
ROOT
ATOM      1  C3  UNL d   1       0.370   1.047   0.231  0.00  0.00    -0.075 A 
ATOM      2  C4  UNL d   1       1.746   1.113   0.494  0.00  0.00     0.002 A 
ATOM      3  C5  UNL d   1       2.360   2.339   0.751  0.00  0.00     0.002 A 
ATOM      4  C6  UNL d   1       1.611   3.513   0.737  0.00  0.00    -0.004 A 
ATOM      5  C7  UNL d   1       0.247   3.462   0.460  0.00  0.00     0.002 A 
ATOM      6  C8  UNL d   1      -0.372   2.236   0.208  0.00  0.00     0.002 A 
ENDROOT
BRANCH   1   7
ATOM      7  C2  UNL d   1      -0.306  -0.280  -0.018  0.00  0.00     0.056 C 
BRANCH   7   8
ATOM      8  C1  UNL d   1      -1.181  -0.762   1.144  0.00  0.00     0.007 C 
ATOM      9  C   UNL d   1      -1.586  -2.225   1.024  0.00  0.00     0.009 C 
ENDBRANCH   7   8
ENDBRANCH   1   7
TORSDOF 2
ENDMDL
