MODEL 1
REMARK minimizedAffinity -5.30790138
REMARK minimizedRMSD -1
REMARK  2 active torsions:
REMARK  status: ('A' for Active; 'I' for Inactive)
REMARK    1  A    between atoms: C1_2  and  C2_3 
REMARK    2  A    between atoms: C2_3  and  C3_4 
ROOT
ATOM      1  C3  UNL d   1      -0.021  -0.244   0.272  0.00  0.00    -0.075 A 
ATOM      2  C4  UNL d   1       0.689  -0.968  -0.697  0.00  0.00     0.002 A 
ATOM      3  C5  UNL d   1       0.621  -2.361  -0.731  0.00  0.00     0.002 A 
ATOM      4  C6  UNL d   1      -0.147  -3.048   0.206  0.00  0.00    -0.004 A 
ATOM      5  C7  UNL d   1      -0.843  -2.340   1.184  0.00  0.00     0.002 A 
ATOM      6  C8  UNL d   1      -0.781  -0.946   1.218  0.00  0.00     0.002 A 
ENDROOT
BRANCH   1   7
ATOM      7  C2  UNL d   1       0.025   1.265   0.297  0.00  0.00     0.056 C 
BRANCH   7   8
ATOM      8  C1  UNL d   1       1.443   1.845   0.321  0.00  0.00     0.007 C 
ATOM      9  C   UNL d   1       1.558   3.116   1.152  0.00  0.00     0.009 C 
ENDBRANCH   7   8
ENDBRANCH   1   7
TORSDOF 2
ENDMDL
