MODEL 1
REMARK minimizedAffinity -4.84211445
REMARK minimizedRMSD -1
REMARK  2 active torsions:
REMARK  status: ('A' for Active; 'I' for Inactive)
REMARK    1  A    between atoms: C1_2  and  C2_3 
REMARK    2  A    between atoms: C2_3  and  C3_4 
ROOT
ATOM      1  C3  UNL d   1       0.089  -0.437  -0.412  0.00  0.00    -0.075 A 
ATOM      2  C4  UNL d   1       1.051  -1.383  -0.793  0.00  0.00     0.002 A 
ATOM      3  C5  UNL d   1       1.047  -2.662  -0.234  0.00  0.00     0.002 A 
ATOM      4  C6  UNL d   1       0.090  -3.006   0.717  0.00  0.00    -0.004 A 
ATOM      5  C7  UNL d   1      -0.861  -2.069   1.115  0.00  0.00     0.002 A 
ATOM      6  C8  UNL d   1      -0.862  -0.790   0.555  0.00  0.00     0.002 A 
ENDROOT
BRANCH   1   7
ATOM      7  C2  UNL d   1       0.070   0.939  -1.035  0.00  0.00     0.056 C 
BRANCH   7   8
ATOM      8  C1  UNL d   1       0.221   2.082  -0.026  0.00  0.00     0.007 C 
ATOM      9  C   UNL d   1       1.672   2.391   0.319  0.00  0.00     0.009 C 
ENDBRANCH   7   8
ENDBRANCH   1   7
TORSDOF 2
ENDMDL
