MODEL 1
REMARK minimizedAffinity -4.18288565
REMARK minimizedRMSD -1
REMARK  2 active torsions:
REMARK  status: ('A' for Active; 'I' for Inactive)
REMARK    1  A    between atoms: C1_2  and  C2_3 
REMARK    2  A    between atoms: C2_3  and  C3_4 
ROOT
ATOM      1  C3  UNL d   1       0.018   0.205   0.212  0.00  0.00    -0.075 A 
ATOM      2  C4  UNL d   1      -0.722  -0.326   1.278  0.00  0.00     0.002 A 
ATOM      3  C5  UNL d   1      -0.969  -1.697   1.355  0.00  0.00     0.002 A 
ATOM      4  C6  UNL d   1      -0.489  -2.551   0.364  0.00  0.00    -0.004 A 
ATOM      5  C7  UNL d   1       0.232  -2.032  -0.709  0.00  0.00     0.002 A 
ATOM      6  C8  UNL d   1       0.485  -0.661  -0.786  0.00  0.00     0.002 A 
ENDROOT
BRANCH   1   7
ATOM      7  C2  UNL d   1       0.314   1.684   0.138  0.00  0.00     0.056 C 
BRANCH   7   8
ATOM      8  C1  UNL d   1       1.802   2.030   0.261  0.00  0.00     0.007 C 
ATOM      9  C   UNL d   1       2.056   3.340   0.994  0.00  0.00     0.009 C 
ENDBRANCH   7   8
ENDBRANCH   1   7
TORSDOF 2
ENDMDL
