MODEL 1
REMARK minimizedAffinity -4.12893248
REMARK minimizedRMSD -1
REMARK  2 active torsions:
REMARK  status: ('A' for Active; 'I' for Inactive)
REMARK    1  A    between atoms: C1_2  and  C2_3 
REMARK    2  A    between atoms: C2_3  and  C3_4 
ROOT
ATOM      1  C3  UNL d   1       0.496   1.113   0.533  0.00  0.00    -0.075 A 
ATOM      2  C4  UNL d   1      -0.017   1.623  -0.668  0.00  0.00     0.002 A 
ATOM      3  C5  UNL d   1       0.385   2.876  -1.134  0.00  0.00     0.002 A 
ATOM      4  C6  UNL d   1       1.294   3.636  -0.402  0.00  0.00    -0.004 A 
ATOM      5  C7  UNL d   1       1.797   3.146   0.801  0.00  0.00     0.002 A 
ATOM      6  C8  UNL d   1       1.401   1.891   1.268  0.00  0.00     0.002 A 
ENDROOT
BRANCH   1   7
ATOM      7  C2  UNL d   1       0.088  -0.254   1.028  0.00  0.00     0.056 C 
BRANCH   7   8
ATOM      8  C1  UNL d   1      -0.047  -1.304  -0.079  0.00  0.00     0.007 C 
ATOM      9  C   UNL d   1      -0.973  -2.454   0.293  0.00  0.00     0.009 C 
ENDBRANCH   7   8
ENDBRANCH   1   7
TORSDOF 2
ENDMDL
