MODEL 1
REMARK minimizedAffinity -4.64444208
REMARK minimizedRMSD -1
REMARK  2 active torsions:
REMARK  status: ('A' for Active; 'I' for Inactive)
REMARK    1  A    between atoms: C1_2  and  C2_3 
REMARK    2  A    between atoms: C2_3  and  C3_4 
ROOT
ATOM      1  C3  UNL d   1      -0.534  -1.690   0.108  0.00  0.00    -0.075 A 
ATOM      2  C4  UNL d   1      -0.999  -0.770   1.059  0.00  0.00     0.002 A 
ATOM      3  C5  UNL d   1      -0.942   0.601   0.805  0.00  0.00     0.002 A 
ATOM      4  C6  UNL d   1      -0.411   1.069  -0.395  0.00  0.00    -0.004 A 
ATOM      5  C7  UNL d   1       0.069   0.165  -1.340  0.00  0.00     0.002 A 
ATOM      6  C8  UNL d   1       0.009  -1.207  -1.091  0.00  0.00     0.002 A 
ENDROOT
BRANCH   1   7
ATOM      7  C2  UNL d   1      -0.620  -3.175   0.363  0.00  0.00     0.056 C 
BRANCH   7   8
ATOM      8  C1  UNL d   1       0.738  -3.885   0.379  0.00  0.00     0.007 C 
ATOM      9  C   UNL d   1       1.888  -2.973   0.783  0.00  0.00     0.009 C 
ENDBRANCH   7   8
ENDBRANCH   1   7
TORSDOF 2
ENDMDL
