MODEL 1
REMARK minimizedAffinity -5.69677877
REMARK minimizedRMSD -1
REMARK  2 active torsions:
REMARK  status: ('A' for Active; 'I' for Inactive)
REMARK    1  A    between atoms: C1_2  and  C2_3 
REMARK    2  A    between atoms: C2_3  and  C3_4 
ROOT
ATOM      1  C3  UNL d   1       0.116   1.752   0.643  0.00  0.00    -0.075 A 
ATOM      2  C4  UNL d   1       1.213   2.149  -0.135  0.00  0.00     0.002 A 
ATOM      3  C5  UNL d   1       1.814   3.391   0.069  0.00  0.00     0.002 A 
ATOM      4  C6  UNL d   1       1.321   4.255   1.044  0.00  0.00    -0.004 A 
ATOM      5  C7  UNL d   1       0.221   3.878   1.812  0.00  0.00     0.002 A 
ATOM      6  C8  UNL d   1      -0.379   2.634   1.613  0.00  0.00     0.002 A 
ENDROOT
BRANCH   1   7
ATOM      7  C2  UNL d   1      -0.520   0.397   0.447  0.00  0.00     0.056 C 
BRANCH   7   8
ATOM      8  C1  UNL d   1       0.474  -0.714   0.091  0.00  0.00     0.007 C 
ATOM      9  C   UNL d   1      -0.147  -2.104   0.111  0.00  0.00     0.009 C 
ENDBRANCH   7   8
ENDBRANCH   1   7
TORSDOF 2
ENDMDL
