MODEL 1
REMARK minimizedAffinity -3.75893831
REMARK minimizedRMSD -1
REMARK  2 active torsions:
REMARK  status: ('A' for Active; 'I' for Inactive)
REMARK    1  A    between atoms: C1_2  and  C2_3 
REMARK    2  A    between atoms: C2_3  and  C3_4 
ROOT
ATOM      1  C3  UNL d   1       0.159  -0.135   0.554  0.00  0.00    -0.075 A 
ATOM      2  C4  UNL d   1      -1.012  -0.624   1.151  0.00  0.00     0.002 A 
ATOM      3  C5  UNL d   1      -1.241  -1.998   1.239  0.00  0.00     0.002 A 
ATOM      4  C6  UNL d   1      -0.310  -2.897   0.725  0.00  0.00    -0.004 A 
ATOM      5  C7  UNL d   1       0.849  -2.421   0.115  0.00  0.00     0.002 A 
ATOM      6  C8  UNL d   1       1.083  -1.048   0.029  0.00  0.00     0.002 A 
ENDROOT
BRANCH   1   7
ATOM      7  C2  UNL d   1       0.426   1.350   0.482  0.00  0.00     0.056 C 
BRANCH   7   8
ATOM      8  C1  UNL d   1       1.912   1.719   0.542  0.00  0.00     0.007 C 
ATOM      9  C   UNL d   1       2.174   3.039   1.257  0.00  0.00     0.009 C 
ENDBRANCH   7   8
ENDBRANCH   1   7
TORSDOF 2
ENDMDL
