MODEL 1
REMARK minimizedAffinity -2.8547554
REMARK minimizedRMSD -1
REMARK  2 active torsions:
REMARK  status: ('A' for Active; 'I' for Inactive)
REMARK    1  A    between atoms: C1_2  and  C2_3 
REMARK    2  A    between atoms: C2_3  and  C3_4 
ROOT
ATOM      1  C3  UNL d   1       0.475   2.092   0.351  0.00  0.00    -0.075 A 
ATOM      2  C4  UNL d   1       1.764   2.454  -0.065  0.00  0.00     0.002 A 
ATOM      3  C5  UNL d   1       2.569   3.258   0.743  0.00  0.00     0.002 A 
ATOM      4  C6  UNL d   1       2.093   3.717   1.969  0.00  0.00    -0.004 A 
ATOM      5  C7  UNL d   1       0.807   3.376   2.385  0.00  0.00     0.002 A 
ATOM      6  C8  UNL d   1       0.001   2.569   1.581  0.00  0.00     0.002 A 
ENDROOT
BRANCH   1   7
ATOM      7  C2  UNL d   1      -0.390   1.198  -0.505  0.00  0.00     0.056 C 
BRANCH   7   8
ATOM      8  C1  UNL d   1      -0.212  -0.298  -0.224  0.00  0.00     0.007 C 
ATOM      9  C   UNL d   1      -1.247  -0.853   0.746  0.00  0.00     0.009 C 
ENDBRANCH   7   8
ENDBRANCH   1   7
TORSDOF 2
ENDMDL
