MODEL 1
REMARK minimizedAffinity -0.526314259
REMARK minimizedRMSD -1
REMARK  2 active torsions:
REMARK  status: ('A' for Active; 'I' for Inactive)
REMARK    1  A    between atoms: C1_2  and  C2_3 
REMARK    2  A    between atoms: C2_3  and  C3_4 
ROOT
ATOM      1  C3  UNL d   1      -0.834  -1.773   0.735  0.00  0.00    -0.075 A 
ATOM      2  C4  UNL d   1      -1.361  -0.630   1.354  0.00  0.00     0.002 A 
ATOM      3  C5  UNL d   1      -1.024   0.644   0.895  0.00  0.00     0.002 A 
ATOM      4  C6  UNL d   1      -0.150   0.792  -0.180  0.00  0.00    -0.004 A 
ATOM      5  C7  UNL d   1       0.393  -0.336  -0.792  0.00  0.00     0.002 A 
ATOM      6  C8  UNL d   1       0.054  -1.612  -0.337  0.00  0.00     0.002 A 
ENDROOT
BRANCH   1   7
ATOM      7  C2  UNL d   1      -1.217  -3.154   1.208  0.00  0.00     0.056 C 
BRANCH   7   8
ATOM      8  C1  UNL d   1      -2.726  -3.421   1.198  0.00  0.00     0.007 C 
ATOM      9  C   UNL d   1      -3.326  -3.425  -0.202  0.00  0.00     0.009 C 
ENDBRANCH   7   8
ENDBRANCH   1   7
TORSDOF 2
ENDMDL
