MODEL 1
REMARK minimizedAffinity -6.04114914
REMARK minimizedRMSD -1
REMARK  2 active torsions:
REMARK  status: ('A' for Active; 'I' for Inactive)
REMARK    1  A    between atoms: C1_2  and  C2_3 
REMARK    2  A    between atoms: C2_3  and  C3_4 
ROOT
ATOM      1  C3  UNL d   1       0.014  -0.893  -0.374  0.00  0.00    -0.075 A 
ATOM      2  C4  UNL d   1       0.372  -1.018  -1.724  0.00  0.00     0.002 A 
ATOM      3  C5  UNL d   1       0.495  -2.278  -2.311  0.00  0.00     0.002 A 
ATOM      4  C6  UNL d   1       0.272  -3.426  -1.555  0.00  0.00    -0.004 A 
ATOM      5  C7  UNL d   1      -0.068  -3.315  -0.208  0.00  0.00     0.002 A 
ATOM      6  C8  UNL d   1      -0.197  -2.055   0.380  0.00  0.00     0.002 A 
ENDROOT
BRANCH   1   7
ATOM      7  C2  UNL d   1      -0.150   0.468   0.259  0.00  0.00     0.056 C 
BRANCH   7   8
ATOM      8  C1  UNL d   1       0.197   1.635  -0.671  0.00  0.00     0.007 C 
ATOM      9  C   UNL d   1       0.831   2.814   0.055  0.00  0.00     0.009 C 
ENDBRANCH   7   8
ENDBRANCH   1   7
TORSDOF 2
ENDMDL
