MODEL 1
REMARK minimizedAffinity -5.28031111
REMARK minimizedRMSD -1
REMARK  2 active torsions:
REMARK  status: ('A' for Active; 'I' for Inactive)
REMARK    1  A    between atoms: C1_2  and  C2_3 
REMARK    2  A    between atoms: C2_3  and  C3_4 
ROOT
ATOM      1  C3  UNL d   1      -0.499  -0.868  -0.333  0.00  0.00    -0.075 A 
ATOM      2  C4  UNL d   1       0.023  -1.017  -1.626  0.00  0.00     0.002 A 
ATOM      3  C5  UNL d   1       0.183  -2.286  -2.183  0.00  0.00     0.002 A 
ATOM      4  C6  UNL d   1      -0.166  -3.420  -1.453  0.00  0.00    -0.004 A 
ATOM      5  C7  UNL d   1      -0.670  -3.284  -0.161  0.00  0.00     0.002 A 
ATOM      6  C8  UNL d   1      -0.835  -2.016   0.397  0.00  0.00     0.002 A 
ENDROOT
BRANCH   1   7
ATOM      7  C2  UNL d   1      -0.703   0.504   0.265  0.00  0.00     0.056 C 
BRANCH   7   8
ATOM      8  C1  UNL d   1      -0.121   1.644  -0.579  0.00  0.00     0.007 C 
ATOM      9  C   UNL d   1       0.241   2.874   0.243  0.00  0.00     0.009 C 
ENDBRANCH   7   8
ENDBRANCH   1   7
TORSDOF 2
ENDMDL
