MODEL 1
REMARK minimizedAffinity 10.0026751
REMARK minimizedRMSD -1
REMARK  1 active torsions:
REMARK  status: ('A' for Active; 'I' for Inactive)
REMARK    1  A    between atoms: C1_2  and  C2_3 
ROOT
ATOM      1  C2  UNL d   1      -1.847  -0.029   1.178  0.00  0.00    -0.081 A 
ATOM      2  C3  UNL d   1      -1.765   0.018  -0.219  0.00  0.00     0.006 A 
ATOM      3  C4  UNL d   1      -0.523  -0.016  -0.857  0.00  0.00     0.002 A 
ATOM      4  C5  UNL d   1       0.656  -0.105  -0.110  0.00  0.00    -0.080 A 
ATOM      5  C6  UNL d   1       1.995  -0.173  -0.783  0.00  0.00     0.076 C 
ATOM      6  C7  UNL d   1       0.575  -0.134   1.287  0.00  0.00     0.002 A 
ATOM      7  C8  UNL d   1      -0.666  -0.099   1.925  0.00  0.00     0.006 A 
ENDROOT
BRANCH   1   8
ATOM      8  C1  UNL d   1      -3.188  -0.057   1.867  0.00  0.00     0.054 C 
ATOM      9  C   UNL d   1      -3.318  -1.272   2.775  0.00  0.00     0.018 C 
ENDBRANCH   1   8
TORSDOF 1
ENDMDL
