MODEL 1
REMARK minimizedAffinity 2.87707543
REMARK minimizedRMSD -1
REMARK  1 active torsions:
REMARK  status: ('A' for Active; 'I' for Inactive)
REMARK    1  A    between atoms: C1_2  and  C2_3 
ROOT
ATOM      1  C2  UNL d   1      -1.471  -0.606   3.107  0.00  0.00    -0.081 A 
ATOM      2  C3  UNL d   1      -1.802  -0.107   1.841  0.00  0.00     0.006 A 
ATOM      3  C4  UNL d   1      -0.804   0.164   0.902  0.00  0.00     0.002 A 
ATOM      4  C5  UNL d   1       0.541  -0.066   1.211  0.00  0.00    -0.080 A 
ATOM      5  C6  UNL d   1       1.621   0.192   0.202  0.00  0.00     0.076 C 
ATOM      6  C7  UNL d   1       0.874  -0.548   2.482  0.00  0.00     0.002 A 
ATOM      7  C8  UNL d   1      -0.124  -0.818   3.421  0.00  0.00     0.006 A 
ENDROOT
BRANCH   1   8
ATOM      8  C1  UNL d   1      -2.550  -0.960   4.098  0.00  0.00     0.054 C 
ATOM      9  C   UNL d   1      -3.755  -1.581   3.406  0.00  0.00     0.018 C 
ENDBRANCH   1   8
TORSDOF 1
ENDMDL
