MODEL 1
REMARK minimizedAffinity 9.66790295
REMARK minimizedRMSD -1
REMARK  1 active torsions:
REMARK  status: ('A' for Active; 'I' for Inactive)
REMARK    1  A    between atoms: C1_2  and  C2_3 
ROOT
ATOM      1  C2  UNL d   1      -0.683  -0.787   2.971  0.00  0.00    -0.081 A 
ATOM      2  C3  UNL d   1      -2.021  -0.397   3.103  0.00  0.00     0.006 A 
ATOM      3  C4  UNL d   1      -2.708   0.156   2.020  0.00  0.00     0.002 A 
ATOM      4  C5  UNL d   1      -2.072   0.321   0.785  0.00  0.00    -0.080 A 
ATOM      5  C6  UNL d   1      -2.807   0.885  -0.394  0.00  0.00     0.076 C 
ATOM      6  C7  UNL d   1      -0.730  -0.053   0.657  0.00  0.00     0.002 A 
ATOM      7  C8  UNL d   1      -0.042  -0.605   1.740  0.00  0.00     0.006 A 
ENDROOT
BRANCH   1   8
ATOM      8  C1  UNL d   1       0.042  -1.443   4.118  0.00  0.00     0.054 C 
ATOM      9  C   UNL d   1       1.551  -1.315   3.966  0.00  0.00     0.018 C 
ENDBRANCH   1   8
TORSDOF 1
ENDMDL
