MODEL 1
REMARK minimizedAffinity 5.58714437
REMARK minimizedRMSD -1
REMARK  1 active torsions:
REMARK  status: ('A' for Active; 'I' for Inactive)
REMARK    1  A    between atoms: C1_2  and  C2_3 
ROOT
ATOM      1  C2  UNL d   1       0.492  -0.690   2.511  0.00  0.00    -0.081 A 
ATOM      2  C3  UNL d   1      -0.847  -0.400   2.797  0.00  0.00     0.006 A 
ATOM      3  C4  UNL d   1      -1.706   0.045   1.790  0.00  0.00     0.002 A 
ATOM      4  C5  UNL d   1      -1.242   0.200   0.479  0.00  0.00    -0.080 A 
ATOM      5  C6  UNL d   1      -2.161   0.649  -0.618  0.00  0.00     0.076 C 
ATOM      6  C7  UNL d   1       0.100  -0.073   0.197  0.00  0.00     0.002 A 
ATOM      7  C8  UNL d   1       0.960  -0.518   1.204  0.00  0.00     0.006 A 
ENDROOT
BRANCH   1   8
ATOM      8  C1  UNL d   1       1.405  -1.232   3.582  0.00  0.00     0.054 C 
ATOM      9  C   UNL d   1       0.985  -0.750   4.963  0.00  0.00     0.018 C 
ENDBRANCH   1   8
TORSDOF 1
ENDMDL
