MODEL 1
REMARK minimizedAffinity 1.02788353
REMARK minimizedRMSD -1
REMARK  1 active torsions:
REMARK  status: ('A' for Active; 'I' for Inactive)
REMARK    1  A    between atoms: C1_2  and  C2_3 
ROOT
ATOM      1  C2  UNL d   1      -0.455  -0.447   3.254  0.00  0.00    -0.081 A 
ATOM      2  C3  UNL d   1       0.338  -0.419   2.100  0.00  0.00     0.006 A 
ATOM      3  C4  UNL d   1      -0.238  -0.175   0.851  0.00  0.00     0.002 A 
ATOM      4  C5  UNL d   1      -1.614   0.052   0.735  0.00  0.00    -0.080 A 
ATOM      5  C6  UNL d   1      -2.240   0.344  -0.596  0.00  0.00     0.076 C 
ATOM      6  C7  UNL d   1      -2.409   0.006   1.886  0.00  0.00     0.002 A 
ATOM      7  C8  UNL d   1      -1.834  -0.238   3.135  0.00  0.00     0.006 A 
ENDROOT
BRANCH   1   8
ATOM      8  C1  UNL d   1       0.172  -0.645   4.610  0.00  0.00     0.054 C 
ATOM      9  C   UNL d   1       1.425  -1.504   4.520  0.00  0.00     0.018 C 
ENDBRANCH   1   8
TORSDOF 1
ENDMDL
