MODEL 1
REMARK minimizedAffinity 0.992523432
REMARK minimizedRMSD -1
REMARK  1 active torsions:
REMARK  status: ('A' for Active; 'I' for Inactive)
REMARK    1  A    between atoms: C1_2  and  C2_3 
ROOT
ATOM      1  C2  UNL d   1      -0.400  -1.163   3.396  0.00  0.00    -0.081 A 
ATOM      2  C3  UNL d   1      -1.646  -0.557   3.193  0.00  0.00     0.006 A 
ATOM      3  C4  UNL d   1      -2.016  -0.109   1.922  0.00  0.00     0.002 A 
ATOM      4  C5  UNL d   1      -1.152  -0.267   0.834  0.00  0.00    -0.080 A 
ATOM      5  C6  UNL d   1      -1.550   0.182  -0.541  0.00  0.00     0.076 C 
ATOM      6  C7  UNL d   1       0.100  -0.856   1.041  0.00  0.00     0.002 A 
ATOM      7  C8  UNL d   1       0.472  -1.304   2.310  0.00  0.00     0.006 A 
ENDROOT
BRANCH   1   8
ATOM      8  C1  UNL d   1      -0.024  -1.705   4.751  0.00  0.00     0.054 C 
ATOM      9  C   UNL d   1       1.480  -1.633   4.978  0.00  0.00     0.018 C 
ENDBRANCH   1   8
TORSDOF 1
ENDMDL
