MODEL 1
REMARK minimizedAffinity -5.05739832
REMARK minimizedRMSD -1
REMARK  0 active torsions:
REMARK  status: ('A' for Active; 'I' for Inactive)
ROOT
ATOM      1  C1  DEN d   1       1.224  -0.652   2.345  0.00  0.00     0.130 A 
ATOM      2  C2  DEN d   1       1.249   0.086   3.604  0.00  0.00    -0.031 A 
ATOM      3  C3  DEN d   1       0.070   0.974   3.637  0.00  0.00     0.027 A 
ATOM      4  C4  DEN d   1      -1.787   1.270   1.871  0.00  0.00     0.027 A 
ATOM      5  C5  DEN d   1      -2.231   0.867   0.631  0.00  0.00    -0.003 A 
ATOM      6  C6  DEN d   1      -1.543  -0.038  -0.133  0.00  0.00     0.001 A 
ATOM      7  C7  DEN d   1      -0.395  -0.605   0.356  0.00  0.00     0.017 A 
ATOM      8  C8  DEN d   1       0.063  -0.197   1.601  0.00  0.00    -0.094 A 
ATOM      9  C9  DEN d   1      -0.653   0.710   2.363  0.00  0.00    -0.072 A 
ENDROOT
TORSDOF 0
ENDMDL
