MODEL 1
REMARK minimizedAffinity -3.39614797
REMARK minimizedRMSD -1
REMARK  0 active torsions:
REMARK  status: ('A' for Active; 'I' for Inactive)
ROOT
ATOM      1  C1  DEN d   1       0.486  -0.005   2.916  0.00  0.00     0.130 A 
ATOM      2  C2  DEN d   1      -0.775   0.472   3.477  0.00  0.00    -0.031 A 
ATOM      3  C3  DEN d   1      -1.736   0.635   2.368  0.00  0.00     0.027 A 
ATOM      4  C4  DEN d   1      -1.397   0.192  -0.151  0.00  0.00     0.027 A 
ATOM      5  C5  DEN d   1      -0.492  -0.211  -1.107  0.00  0.00    -0.003 A 
ATOM      6  C6  DEN d   1       0.801  -0.539  -0.797  0.00  0.00     0.001 A 
ATOM      7  C7  DEN d   1       1.214  -0.512   0.509  0.00  0.00     0.017 A 
ATOM      8  C8  DEN d   1       0.309  -0.100   1.478  0.00  0.00    -0.094 A 
ATOM      9  C9  DEN d   1      -0.997   0.216   1.146  0.00  0.00    -0.072 A 
ENDROOT
TORSDOF 0
ENDMDL
