MODEL 1
REMARK minimizedAffinity -1.30084252
REMARK minimizedRMSD -1
REMARK  0 active torsions:
REMARK  status: ('A' for Active; 'I' for Inactive)
ROOT
ATOM      1  C1  DEN d   1       1.120  -0.343   3.625  0.00  0.00     0.130 A 
ATOM      2  C2  DEN d   1       2.405  -0.682   3.020  0.00  0.00    -0.031 A 
ATOM      3  C3  DEN d   1       2.257  -0.589   1.554  0.00  0.00     0.027 A 
ATOM      4  C4  DEN d   1       0.176   0.048   0.170  0.00  0.00     0.027 A 
ATOM      5  C5  DEN d   1      -1.152   0.406   0.240  0.00  0.00    -0.003 A 
ATOM      6  C6  DEN d   1      -1.820   0.506   1.432  0.00  0.00     0.001 A 
ATOM      7  C7  DEN d   1      -1.148   0.288   2.606  0.00  0.00     0.017 A 
ATOM      8  C8  DEN d   1       0.189  -0.081   2.543  0.00  0.00    -0.094 A 
ATOM      9  C9  DEN d   1       0.849  -0.164   1.329  0.00  0.00    -0.072 A 
ENDROOT
TORSDOF 0
ENDMDL
