MODEL 1
REMARK minimizedAffinity -2.03678417
REMARK minimizedRMSD -1
REMARK  0 active torsions:
REMARK  status: ('A' for Active; 'I' for Inactive)
ROOT
ATOM      1  C1  DEN d   1       0.702  -0.975  -0.431  0.00  0.00     0.130 A 
ATOM      2  C2  DEN d   1      -0.369  -0.851  -1.416  0.00  0.00    -0.031 A 
ATOM      3  C3  DEN d   1      -1.498  -0.146  -0.777  0.00  0.00     0.027 A 
ATOM      4  C4  DEN d   1      -1.688   0.767   1.628  0.00  0.00     0.027 A 
ATOM      5  C5  DEN d   1      -1.040   0.889   2.837  0.00  0.00    -0.003 A 
ATOM      6  C6  DEN d   1       0.211   0.373   3.050  0.00  0.00     0.001 A 
ATOM      7  C7  DEN d   1       0.872  -0.251   2.025  0.00  0.00     0.017 A 
ATOM      8  C8  DEN d   1       0.221  -0.384   0.805  0.00  0.00    -0.094 A 
ATOM      9  C9  DEN d   1      -1.038   0.155   0.606  0.00  0.00    -0.072 A 
ENDROOT
TORSDOF 0
ENDMDL
