MODEL 1
REMARK minimizedAffinity -0.64212352
REMARK minimizedRMSD -1
REMARK  0 active torsions:
REMARK  status: ('A' for Active; 'I' for Inactive)
ROOT
ATOM      1  C1  DEN d   1      -1.615  -0.077   0.364  0.00  0.00     0.130 A 
ATOM      2  C2  DEN d   1      -1.005  -0.185  -0.958  0.00  0.00    -0.031 A 
ATOM      3  C3  DEN d   1       0.435  -0.460  -0.775  0.00  0.00     0.027 A 
ATOM      4  C4  DEN d   1       1.769  -0.730   1.416  0.00  0.00     0.027 A 
ATOM      5  C5  DEN d   1       1.686  -0.711   2.791  0.00  0.00    -0.003 A 
ATOM      6  C6  DEN d   1       0.513  -0.448   3.448  0.00  0.00     0.001 A 
ATOM      7  C7  DEN d   1      -0.635  -0.237   2.730  0.00  0.00     0.017 A 
ATOM      8  C8  DEN d   1      -0.557  -0.248   1.343  0.00  0.00    -0.094 A 
ATOM      9  C9  DEN d   1       0.635  -0.528   0.698  0.00  0.00    -0.072 A 
ENDROOT
TORSDOF 0
ENDMDL
