MODEL 1
REMARK minimizedAffinity -4.44300413
REMARK minimizedRMSD -1
REMARK  0 active torsions:
REMARK  status: ('A' for Active; 'I' for Inactive)
ROOT
ATOM      1  C1  DEN d   1       0.072   1.599   2.158  0.00  0.00     0.130 A 
ATOM      2  C2  DEN d   1      -0.985   1.239   3.098  0.00  0.00    -0.031 A 
ATOM      3  C3  DEN d   1      -1.730   0.096   2.532  0.00  0.00     0.027 A 
ATOM      4  C4  DEN d   1      -1.348  -1.146   0.304  0.00  0.00     0.027 A 
ATOM      5  C5  DEN d   1      -0.576  -1.194  -0.836  0.00  0.00    -0.003 A 
ATOM      6  C6  DEN d   1       0.435  -0.301  -1.072  0.00  0.00     0.001 A 
ATOM      7  C7  DEN d   1       0.732   0.652  -0.134  0.00  0.00     0.017 A 
ATOM      8  C8  DEN d   1      -0.046   0.712   1.015  0.00  0.00    -0.094 A 
ATOM      9  C9  DEN d   1      -1.056  -0.208   1.241  0.00  0.00    -0.072 A 
ENDROOT
TORSDOF 0
ENDMDL
