MODEL 1
REMARK minimizedAffinity -3.57887936
REMARK minimizedRMSD -1
REMARK  1 active torsions:
REMARK  status: ('A' for Active; 'I' for Inactive)
REMARK    1  A    between atoms: C1_2  and  C2_3 
ROOT
ATOM      1  C2  UNL d   1       2.297   0.008  -0.357  0.00  0.00    -0.073 A 
ATOM      2  C3  UNL d   1       2.464  -1.376  -0.474  0.00  0.00    -0.002 A 
ATOM      3  C4  UNL d   1       1.387  -2.237  -0.259  0.00  0.00     0.004 A 
ATOM      4  C5  UNL d   1       0.132  -1.723   0.068  0.00  0.00    -0.004 A 
ATOM      5  C6  UNL d   1      -0.058  -0.342   0.178  0.00  0.00    -0.075 A 
ATOM      6  C7  UNL d   1      -1.400   0.227   0.532  0.00  0.00     0.076 C 
ATOM      7  C8  UNL d   1       1.030   0.516  -0.036  0.00  0.00     0.001 A 
ENDROOT
BRANCH   1   8
ATOM      8  C1  UNL d   1       3.456   0.942  -0.594  0.00  0.00     0.053 C 
ATOM      9  C   UNL d   1       3.255   2.285   0.089  0.00  0.00     0.018 C 
ENDBRANCH   1   8
TORSDOF 1
ENDMDL
