MODEL 1
REMARK minimizedAffinity -4.44971609
REMARK minimizedRMSD -1
REMARK  1 active torsions:
REMARK  status: ('A' for Active; 'I' for Inactive)
REMARK    1  A    between atoms: C1_2  and  C2_3 
ROOT
ATOM      1  C2  UNL d   1      -0.358  -1.652  -2.404  0.00  0.00    -0.073 A 
ATOM      2  C3  UNL d   1      -0.242  -2.961  -1.924  0.00  0.00    -0.002 A 
ATOM      3  C4  UNL d   1       0.328  -3.205  -0.674  0.00  0.00     0.004 A 
ATOM      4  C5  UNL d   1       0.781  -2.144   0.111  0.00  0.00    -0.004 A 
ATOM      5  C6  UNL d   1       0.663  -0.828  -0.347  0.00  0.00    -0.075 A 
ATOM      6  C7  UNL d   1       1.147   0.324   0.484  0.00  0.00     0.076 C 
ATOM      7  C8  UNL d   1       0.091  -0.591  -1.604  0.00  0.00     0.001 A 
ENDROOT
BRANCH   1   8
ATOM      8  C1  UNL d   1      -0.979  -1.383  -3.751  0.00  0.00     0.053 C 
ATOM      9  C   UNL d   1      -1.089  -2.645  -4.590  0.00  0.00     0.018 C 
ENDBRANCH   1   8
TORSDOF 1
ENDMDL
