MODEL 1
REMARK minimizedAffinity 3.68543506
REMARK minimizedRMSD -1
REMARK  1 active torsions:
REMARK  status: ('A' for Active; 'I' for Inactive)
REMARK    1  A    between atoms: C1_2  and  C2_3 
ROOT
ATOM      1  C2  UNL d   1      -0.776  -2.071  -3.397  0.00  0.00    -0.073 A 
ATOM      2  C3  UNL d   1      -0.780  -3.005  -4.439  0.00  0.00    -0.002 A 
ATOM      3  C4  UNL d   1      -1.128  -2.615  -5.733  0.00  0.00     0.004 A 
ATOM      4  C5  UNL d   1      -1.468  -1.289  -6.000  0.00  0.00    -0.004 A 
ATOM      5  C6  UNL d   1      -1.458  -0.339  -4.974  0.00  0.00    -0.075 A 
ATOM      6  C7  UNL d   1      -1.824   1.091  -5.243  0.00  0.00     0.076 C 
ATOM      7  C8  UNL d   1      -1.110  -0.738  -3.676  0.00  0.00     0.001 A 
ENDROOT
BRANCH   1   8
ATOM      8  C1  UNL d   1      -0.394  -2.486  -1.999  0.00  0.00     0.053 C 
ATOM      9  C   UNL d   1      -0.424  -3.996  -1.825  0.00  0.00     0.018 C 
ENDBRANCH   1   8
TORSDOF 1
ENDMDL
