MODEL 1
REMARK minimizedAffinity -1.95765436
REMARK minimizedRMSD -1
REMARK  1 active torsions:
REMARK  status: ('A' for Active; 'I' for Inactive)
REMARK    1  A    between atoms: C1_2  and  C2_3 
ROOT
ATOM      1  C2  UNL d   1      -0.254   0.242  -0.401  0.00  0.00    -0.073 A 
ATOM      2  C3  UNL d   1      -0.068   1.620  -0.563  0.00  0.00    -0.002 A 
ATOM      3  C4  UNL d   1       1.000   2.266   0.062  0.00  0.00     0.004 A 
ATOM      4  C5  UNL d   1       1.895   1.541   0.848  0.00  0.00    -0.004 A 
ATOM      5  C6  UNL d   1       1.733   0.161   1.013  0.00  0.00    -0.075 A 
ATOM      6  C7  UNL d   1       2.686  -0.632   1.858  0.00  0.00     0.076 C 
ATOM      7  C8  UNL d   1       0.656  -0.479   0.384  0.00  0.00     0.001 A 
ENDROOT
BRANCH   1   8
ATOM      8  C1  UNL d   1      -1.402  -0.460  -1.079  0.00  0.00     0.053 C 
ATOM      9  C   UNL d   1      -1.253  -0.466  -2.592  0.00  0.00     0.018 C 
ENDBRANCH   1   8
TORSDOF 1
ENDMDL
