MODEL 1
REMARK minimizedAffinity 0.27026853
REMARK minimizedRMSD -1
REMARK  1 active torsions:
REMARK  status: ('A' for Active; 'I' for Inactive)
REMARK    1  A    between atoms: C1_2  and  C2_3 
ROOT
ATOM      1  C2  UNL d   1      -0.177  -1.331  -1.373  0.00  0.00    -0.073 A 
ATOM      2  C3  UNL d   1      -0.864  -0.384  -0.606  0.00  0.00    -0.002 A 
ATOM      3  C4  UNL d   1      -0.253   0.201   0.504  0.00  0.00     0.004 A 
ATOM      4  C5  UNL d   1       1.051  -0.149   0.854  0.00  0.00    -0.004 A 
ATOM      5  C6  UNL d   1       1.758  -1.085   0.092  0.00  0.00    -0.075 A 
ATOM      6  C7  UNL d   1       3.161  -1.474   0.456  0.00  0.00     0.076 C 
ATOM      7  C8  UNL d   1       1.137  -1.670  -1.019  0.00  0.00     0.001 A 
ENDROOT
BRANCH   1   8
ATOM      8  C1  UNL d   1      -0.830  -1.961  -2.576  0.00  0.00     0.053 C 
ATOM      9  C   UNL d   1      -1.557  -0.936  -3.432  0.00  0.00     0.018 C 
ENDBRANCH   1   8
TORSDOF 1
ENDMDL
