MODEL 1
REMARK minimizedAffinity -3.68244958
REMARK minimizedRMSD -1
REMARK  1 active torsions:
REMARK  status: ('A' for Active; 'I' for Inactive)
REMARK    1  A    between atoms: C1_2  and  C2_3 
ROOT
ATOM      1  C2  UNL d   1       0.296  -0.611  -0.786  0.00  0.00    -0.073 A 
ATOM      2  C3  UNL d   1       0.186   0.776  -0.637  0.00  0.00    -0.002 A 
ATOM      3  C4  UNL d   1       1.094   1.473   0.162  0.00  0.00     0.004 A 
ATOM      4  C5  UNL d   1       2.123   0.793   0.813  0.00  0.00    -0.004 A 
ATOM      5  C6  UNL d   1       2.256  -0.591   0.667  0.00  0.00    -0.075 A 
ATOM      6  C7  UNL d   1       3.356  -1.338   1.362  0.00  0.00     0.076 C 
ATOM      7  C8  UNL d   1       1.339  -1.285  -0.135  0.00  0.00     0.001 A 
ENDROOT
BRANCH   1   8
ATOM      8  C1  UNL d   1      -0.677  -1.367  -1.653  0.00  0.00     0.053 C 
ATOM      9  C   UNL d   1      -1.404  -0.452  -2.626  0.00  0.00     0.018 C 
ENDBRANCH   1   8
TORSDOF 1
ENDMDL
