MODEL 1
REMARK minimizedAffinity -3.9800036
REMARK minimizedRMSD -1
REMARK  1 active torsions:
REMARK  status: ('A' for Active; 'I' for Inactive)
REMARK    1  A    between atoms: C1_2  and  C2_3 
ROOT
ATOM      1  C2  UNL d   1      -0.906  -0.297  -1.669  0.00  0.00    -0.073 A 
ATOM      2  C3  UNL d   1      -1.027   0.487  -0.517  0.00  0.00    -0.002 A 
ATOM      3  C4  UNL d   1      -0.073   0.401   0.498  0.00  0.00     0.004 A 
ATOM      4  C5  UNL d   1       1.014  -0.463   0.368  0.00  0.00    -0.004 A 
ATOM      5  C6  UNL d   1       1.159  -1.246  -0.781  0.00  0.00    -0.075 A 
ATOM      6  C7  UNL d   1       2.321  -2.183  -0.935  0.00  0.00     0.076 C 
ATOM      7  C8  UNL d   1       0.196  -1.157  -1.795  0.00  0.00     0.001 A 
ENDROOT
BRANCH   1   8
ATOM      8  C1  UNL d   1      -1.930  -0.203  -2.771  0.00  0.00     0.053 C 
ATOM      9  C   UNL d   1      -1.477  -0.921  -4.033  0.00  0.00     0.018 C 
ENDBRANCH   1   8
TORSDOF 1
ENDMDL
