MODEL 1
REMARK minimizedAffinity -3.63426781
REMARK minimizedRMSD -1
REMARK  1 active torsions:
REMARK  status: ('A' for Active; 'I' for Inactive)
REMARK    1  A    between atoms: C1_2  and  C2_3 
ROOT
ATOM      1  C2  UNL d   1      -0.140  -0.160  -1.355  0.00  0.00    -0.073 A 
ATOM      2  C3  UNL d   1       0.406  -1.447  -1.293  0.00  0.00    -0.002 A 
ATOM      3  C4  UNL d   1       1.512  -1.705  -0.482  0.00  0.00     0.004 A 
ATOM      4  C5  UNL d   1       2.078  -0.683   0.279  0.00  0.00    -0.004 A 
ATOM      5  C6  UNL d   1       1.539   0.607   0.239  0.00  0.00    -0.075 A 
ATOM      6  C7  UNL d   1       2.138   1.719   1.050  0.00  0.00     0.076 C 
ATOM      7  C8  UNL d   1       0.430   0.859  -0.579  0.00  0.00     0.001 A 
ENDROOT
BRANCH   1   8
ATOM      8  C1  UNL d   1      -1.338   0.122  -2.224  0.00  0.00     0.053 C 
ATOM      9  C   UNL d   1      -1.194  -0.488  -3.610  0.00  0.00     0.018 C 
ENDBRANCH   1   8
TORSDOF 1
ENDMDL
