MODEL 1
REMARK minimizedAffinity -3.41085601
REMARK minimizedRMSD -1
REMARK  0 active torsions:
REMARK  status: ('A' for Active; 'I' for Inactive)
ROOT
ATOM      1  O1  BZF d   1       0.388   1.192  -0.133  0.00  0.00    -0.204 OA
ATOM      2  C2  BZF d   1      -0.987   1.194  -0.261  0.00  0.00     0.174 A 
ATOM      3  C3  BZF d   1      -1.481  -0.055  -0.141  0.00  0.00    -0.012 A 
ATOM      4  C3A BZF d   1      -0.353  -0.878   0.168  0.00  0.00    -0.107 A 
ATOM      5  C4  BZF d   1      -0.204  -2.212   0.419  0.00  0.00     0.055 A 
ATOM      6  C5  BZF d   1       1.044  -2.712   0.614  0.00  0.00    -0.016 A 
ATOM      7  C6  BZF d   1       2.165  -1.909   0.560  0.00  0.00     0.022 A 
ATOM      8  C7  BZF d   1       2.067  -0.579   0.319  0.00  0.00     0.029 A 
ATOM      9  C7A BZF d   1       0.804  -0.065   0.155  0.00  0.00     0.058 A 
ENDROOT
TORSDOF 0
ENDMDL
