MODEL 1
REMARK minimizedAffinity -4.31193876
REMARK minimizedRMSD -1
REMARK  0 active torsions:
REMARK  status: ('A' for Active; 'I' for Inactive)
ROOT
ATOM      1  O1  BZF d   1      -1.430   0.266   0.544  0.00  0.00    -0.204 OA
ATOM      2  C2  BZF d   1      -1.256   1.599   0.225  0.00  0.00     0.174 A 
ATOM      3  C3  BZF d   1       0.035   1.857  -0.066  0.00  0.00    -0.012 A 
ATOM      4  C3A BZF d   1       0.694   0.588  -0.008  0.00  0.00    -0.107 A 
ATOM      5  C4  BZF d   1       1.983   0.190  -0.217  0.00  0.00     0.055 A 
ATOM      6  C5  BZF d   1       2.314  -1.112  -0.009  0.00  0.00    -0.016 A 
ATOM      7  C6  BZF d   1       1.384  -2.039   0.412  0.00  0.00     0.022 A 
ATOM      8  C7  BZF d   1       0.092  -1.692   0.628  0.00  0.00     0.029 A 
ATOM      9  C7A BZF d   1      -0.253  -0.385   0.387  0.00  0.00     0.058 A 
ENDROOT
TORSDOF 0
ENDMDL
