MODEL 1
REMARK minimizedAffinity -4.62359333
REMARK minimizedRMSD -1
REMARK  0 active torsions:
REMARK  status: ('A' for Active; 'I' for Inactive)
ROOT
ATOM      1  O1  BZF d   1      -0.340  -1.882   1.385  0.00  0.00    -0.204 OA
ATOM      2  C2  BZF d   1       0.837  -2.585   1.217  0.00  0.00     0.174 A 
ATOM      3  C3  BZF d   1       1.756  -1.834   0.577  0.00  0.00    -0.012 A 
ATOM      4  C3A BZF d   1       1.144  -0.551   0.411  0.00  0.00    -0.107 A 
ATOM      5  C4  BZF d   1       1.564   0.625  -0.141  0.00  0.00     0.055 A 
ATOM      6  C5  BZF d   1       0.697   1.669  -0.210  0.00  0.00    -0.016 A 
ATOM      7  C6  BZF d   1      -0.597   1.570   0.258  0.00  0.00     0.022 A 
ATOM      8  C7  BZF d   1      -1.057   0.426   0.819  0.00  0.00     0.029 A 
ATOM      9  C7A BZF d   1      -0.173  -0.621   0.920  0.00  0.00     0.058 A 
ENDROOT
TORSDOF 0
ENDMDL
