MODEL 1
REMARK minimizedAffinity -2.22099948
REMARK minimizedRMSD -1
REMARK  0 active torsions:
REMARK  status: ('A' for Active; 'I' for Inactive)
ROOT
ATOM      1  O1  BZF d   1       0.402  -2.406   1.209  0.00  0.00    -0.204 OA
ATOM      2  C2  BZF d   1       1.660  -2.872   0.879  0.00  0.00     0.174 A 
ATOM      3  C3  BZF d   1       2.273  -2.029   0.024  0.00  0.00    -0.012 A 
ATOM      4  C3A BZF d   1       1.378  -0.924  -0.122  0.00  0.00    -0.107 A 
ATOM      5  C4  BZF d   1       1.433   0.242  -0.831  0.00  0.00     0.055 A 
ATOM      6  C5  BZF d   1       0.360   1.076  -0.816  0.00  0.00    -0.016 A 
ATOM      7  C6  BZF d   1      -0.785   0.773  -0.109  0.00  0.00     0.022 A 
ATOM      8  C7  BZF d   1      -0.885  -0.369   0.613  0.00  0.00     0.029 A 
ATOM      9  C7A BZF d   1       0.210  -1.198   0.627  0.00  0.00     0.058 A 
ENDROOT
TORSDOF 0
ENDMDL
