MODEL 1
REMARK minimizedAffinity -4.96259308
REMARK minimizedRMSD -1
REMARK  0 active torsions:
REMARK  status: ('A' for Active; 'I' for Inactive)
ROOT
ATOM      1  O1  BZF d   1       0.981  -1.312  -0.607  0.00  0.00    -0.204 OA
ATOM      2  C2  BZF d   1       1.188  -2.460   0.133  0.00  0.00     0.174 A 
ATOM      3  C3  BZF d   1       0.505  -2.411   1.294  0.00  0.00    -0.012 A 
ATOM      4  C3A BZF d   1      -0.245  -1.194   1.239  0.00  0.00    -0.107 A 
ATOM      5  C4  BZF d   1      -1.128  -0.595   2.091  0.00  0.00     0.055 A 
ATOM      6  C5  BZF d   1      -1.628   0.628   1.772  0.00  0.00    -0.016 A 
ATOM      7  C6  BZF d   1      -1.265   1.281   0.613  0.00  0.00     0.022 A 
ATOM      8  C7  BZF d   1      -0.396   0.724  -0.267  0.00  0.00     0.029 A 
ATOM      9  C7A BZF d   1       0.086  -0.525   0.037  0.00  0.00     0.058 A 
ENDROOT
TORSDOF 0
ENDMDL
