MODEL 1
REMARK minimizedAffinity -4.81020308
REMARK minimizedRMSD -1
REMARK  0 active torsions:
REMARK  status: ('A' for Active; 'I' for Inactive)
ROOT
ATOM      1  O1  BZF d   1      -0.448  -2.201   1.136  0.00  0.00    -0.204 OA
ATOM      2  C2  BZF d   1       0.600  -3.099   1.197  0.00  0.00     0.174 A 
ATOM      3  C3  BZF d   1       1.703  -2.588   0.611  0.00  0.00    -0.012 A 
ATOM      4  C3A BZF d   1       1.346  -1.254   0.237  0.00  0.00    -0.107 A 
ATOM      5  C4  BZF d   1       2.024  -0.237  -0.371  0.00  0.00     0.055 A 
ATOM      6  C5  BZF d   1       1.366   0.917  -0.659  0.00  0.00    -0.016 A 
ATOM      7  C6  BZF d   1       0.030   1.085  -0.359  0.00  0.00     0.022 A 
ATOM      8  C7  BZF d   1      -0.683   0.106   0.249  0.00  0.00     0.029 A 
ATOM      9  C7A BZF d   1      -0.012  -1.049   0.572  0.00  0.00     0.058 A 
ENDROOT
TORSDOF 0
ENDMDL
