MODEL 1
REMARK minimizedAffinity -3.1471107
REMARK minimizedRMSD -1
REMARK  0 active torsions:
REMARK  status: ('A' for Active; 'I' for Inactive)
ROOT
ATOM      1  O1  BZF d   1      -1.540   0.140   0.150  0.00  0.00    -0.204 OA
ATOM      2  C2  BZF d   1      -1.409   1.419  -0.355  0.00  0.00     0.174 A 
ATOM      3  C3  BZF d   1      -0.109   1.734  -0.529  0.00  0.00    -0.012 A 
ATOM      4  C3A BZF d   1       0.614   0.546  -0.193  0.00  0.00    -0.107 A 
ATOM      5  C4  BZF d   1       1.942   0.227  -0.182  0.00  0.00     0.055 A 
ATOM      6  C5  BZF d   1       2.323  -0.997   0.269  0.00  0.00    -0.016 A 
ATOM      7  C6  BZF d   1       1.406  -1.923   0.720  0.00  0.00     0.022 A 
ATOM      8  C7  BZF d   1       0.077  -1.654   0.724  0.00  0.00     0.029 A 
ATOM      9  C7A BZF d   1      -0.314  -0.430   0.238  0.00  0.00     0.058 A 
ENDROOT
TORSDOF 0
ENDMDL
