MODEL 1
REMARK minimizedAffinity -4.74433804
REMARK minimizedRMSD -1
REMARK  0 active torsions:
REMARK  status: ('A' for Active; 'I' for Inactive)
ROOT
ATOM      1  O1  BZF d   1       0.037   1.645  -0.944  0.00  0.00    -0.204 OA
ATOM      2  C2  BZF d   1      -1.281   1.672  -0.530  0.00  0.00     0.174 A 
ATOM      3  C3  BZF d   1      -1.563   0.599   0.236  0.00  0.00    -0.012 A 
ATOM      4  C3A BZF d   1      -0.322  -0.098   0.382  0.00  0.00    -0.107 A 
ATOM      5  C4  BZF d   1       0.046  -1.233   1.046  0.00  0.00     0.055 A 
ATOM      6  C5  BZF d   1       1.322  -1.684   0.926  0.00  0.00    -0.016 A 
ATOM      7  C6  BZF d   1       2.254  -1.028   0.149  0.00  0.00     0.022 A 
ATOM      8  C7  BZF d   1       1.938   0.104  -0.525  0.00  0.00     0.029 A 
ATOM      9  C7A BZF d   1       0.657   0.581  -0.380  0.00  0.00     0.058 A 
ENDROOT
TORSDOF 0
ENDMDL
