MODEL 1
REMARK minimizedAffinity -3.74385524
REMARK minimizedRMSD -1
REMARK  0 active torsions:
REMARK  status: ('A' for Active; 'I' for Inactive)
ROOT
ATOM      1  O1  BZF d   1       2.361  -1.420   0.446  0.00  0.00    -0.204 OA
ATOM      2  C2  BZF d   1       1.855  -2.539   1.079  0.00  0.00     0.174 A 
ATOM      3  C3  BZF d   1       0.526  -2.419   1.274  0.00  0.00    -0.012 A 
ATOM      4  C3A BZF d   1       0.164  -1.185   0.647  0.00  0.00    -0.107 A 
ATOM      5  C4  BZF d   1      -1.021  -0.523   0.490  0.00  0.00     0.055 A 
ATOM      6  C5  BZF d   1      -1.021   0.697  -0.109  0.00  0.00    -0.016 A 
ATOM      7  C6  BZF d   1       0.143   1.287  -0.556  0.00  0.00     0.022 A 
ATOM      8  C7  BZF d   1       1.341   0.667  -0.427  0.00  0.00     0.029 A 
ATOM      9  C7A BZF d   1       1.341  -0.581   0.147  0.00  0.00     0.058 A 
ENDROOT
TORSDOF 0
ENDMDL
