MODEL 1
REMARK minimizedAffinity -3.7701757
REMARK minimizedRMSD -1
REMARK  0 active torsions:
REMARK  status: ('A' for Active; 'I' for Inactive)
ROOT
ATOM      1  O1  BZF d   1       2.100  -1.892   0.268  0.00  0.00    -0.204 OA
ATOM      2  C2  BZF d   1       1.234  -2.836   0.785  0.00  0.00     0.174 A 
ATOM      3  C3  BZF d   1      -0.006  -2.323   0.924  0.00  0.00    -0.012 A 
ATOM      4  C3A BZF d   1       0.070  -1.002   0.378  0.00  0.00    -0.107 A 
ATOM      5  C4  BZF d   1      -0.842   0.001   0.215  0.00  0.00     0.055 A 
ATOM      6  C5  BZF d   1      -0.429   1.195  -0.285  0.00  0.00    -0.016 A 
ATOM      7  C6  BZF d   1       0.887   1.422  -0.627  0.00  0.00     0.022 A 
ATOM      8  C7  BZF d   1       1.828   0.456  -0.489  0.00  0.00     0.029 A 
ATOM      9  C7A BZF d   1       1.407  -0.762  -0.015  0.00  0.00     0.058 A 
ENDROOT
TORSDOF 0
ENDMDL
