MODEL 1
REMARK minimizedAffinity -4.23391581
REMARK minimizedRMSD -1
REMARK  0 active torsions:
REMARK  status: ('A' for Active; 'I' for Inactive)
ROOT
ATOM      1  O1  BZF d   1       0.284  -2.377   1.100  0.00  0.00    -0.204 OA
ATOM      2  C2  BZF d   1       1.576  -2.781   0.822  0.00  0.00     0.174 A 
ATOM      3  C3  BZF d   1       2.225  -1.844   0.102  0.00  0.00    -0.012 A 
ATOM      4  C3A BZF d   1       1.310  -0.749  -0.003  0.00  0.00    -0.107 A 
ATOM      5  C4  BZF d   1       1.383   0.483  -0.588  0.00  0.00     0.055 A 
ATOM      6  C5  BZF d   1       0.288   1.288  -0.573  0.00  0.00    -0.016 A 
ATOM      7  C6  BZF d   1      -0.896   0.891   0.013  0.00  0.00     0.022 A 
ATOM      8  C7  BZF d   1      -1.015  -0.320   0.611  0.00  0.00     0.029 A 
ATOM      9  C7A BZF d   1       0.100  -1.122   0.626  0.00  0.00     0.058 A 
ENDROOT
TORSDOF 0
ENDMDL
