MODEL 1
REMARK minimizedAffinity -4.94868422
REMARK minimizedRMSD -1
REMARK  0 active torsions:
REMARK  status: ('A' for Active; 'I' for Inactive)
ROOT
ATOM      1  O1  BZF d   1      -1.142  -0.334   1.278  0.00  0.00    -0.204 OA
ATOM      2  C2  BZF d   1      -1.297   0.960   0.819  0.00  0.00     0.174 A 
ATOM      3  C3  BZF d   1      -0.286   1.299  -0.007  0.00  0.00    -0.012 A 
ATOM      4  C3A BZF d   1       0.504   0.113  -0.141  0.00  0.00    -0.107 A 
ATOM      5  C4  BZF d   1       1.635  -0.187  -0.846  0.00  0.00     0.055 A 
ATOM      6  C5  BZF d   1       2.195  -1.416  -0.703  0.00  0.00    -0.016 A 
ATOM      7  C6  BZF d   1       1.654  -2.368   0.137  0.00  0.00     0.022 A 
ATOM      8  C7  BZF d   1       0.531  -2.118   0.852  0.00  0.00     0.029 A 
ATOM      9  C7A BZF d   1      -0.057  -0.888   0.685  0.00  0.00     0.058 A 
ENDROOT
TORSDOF 0
ENDMDL
