MODEL 1
REMARK minimizedAffinity -5.35181427
REMARK minimizedRMSD -1
REMARK  0 active torsions:
REMARK  status: ('A' for Active; 'I' for Inactive)
ROOT
ATOM      1  O1  BZF d   1      -1.378   0.309   0.608  0.00  0.00    -0.204 OA
ATOM      2  C2  BZF d   1      -1.065   1.390  -0.194  0.00  0.00     0.174 A 
ATOM      3  C3  BZF d   1       0.145   1.226  -0.766  0.00  0.00    -0.012 A 
ATOM      4  C3A BZF d   1       0.577  -0.078  -0.365  0.00  0.00    -0.107 A 
ATOM      5  C4  BZF d   1       1.695  -0.818  -0.626  0.00  0.00     0.055 A 
ATOM      6  C5  BZF d   1       1.844  -2.025  -0.021  0.00  0.00    -0.016 A 
ATOM      7  C6  BZF d   1       0.899  -2.521   0.854  0.00  0.00     0.022 A 
ATOM      8  C7  BZF d   1      -0.229  -1.825   1.140  0.00  0.00     0.029 A 
ATOM      9  C7A BZF d   1      -0.398  -0.619   0.504  0.00  0.00     0.058 A 
ENDROOT
TORSDOF 0
ENDMDL
