MODEL 1
REMARK minimizedAffinity -4.57500982
REMARK minimizedRMSD -1
REMARK  0 active torsions:
REMARK  status: ('A' for Active; 'I' for Inactive)
ROOT
ATOM      1  O1  BZF d   1       0.407  -2.844   1.028  0.00  0.00    -0.204 OA
ATOM      2  C2  BZF d   1       1.772  -2.940   1.217  0.00  0.00     0.174 A 
ATOM      3  C3  BZF d   1       2.382  -1.781   0.897  0.00  0.00    -0.012 A 
ATOM      4  C3A BZF d   1       1.323  -0.876   0.570  0.00  0.00    -0.107 A 
ATOM      5  C4  BZF d   1       1.292   0.435   0.188  0.00  0.00     0.055 A 
ATOM      6  C5  BZF d   1       0.099   1.003  -0.127  0.00  0.00    -0.016 A 
ATOM      7  C6  BZF d   1      -1.081   0.290  -0.075  0.00  0.00     0.022 A 
ATOM      8  C7  BZF d   1      -1.102  -1.011   0.303  0.00  0.00     0.029 A 
ATOM      9  C7A BZF d   1       0.099  -1.579   0.653  0.00  0.00     0.058 A 
ENDROOT
TORSDOF 0
ENDMDL
