MODEL 1
REMARK minimizedAffinity 1.08157742
REMARK minimizedRMSD -1
REMARK  0 active torsions:
REMARK  status: ('A' for Active; 'I' for Inactive)
ROOT
ATOM      1  O1  BZF d   1      -1.567   2.512  -1.882  0.00  0.00    -0.204 OA
ATOM      2  C2  BZF d   1      -2.217   1.910  -2.942  0.00  0.00     0.174 A 
ATOM      3  C3  BZF d   1      -1.958   0.587  -2.972  0.00  0.00    -0.012 A 
ATOM      4  C3A BZF d   1      -1.167   0.331  -1.807  0.00  0.00    -0.107 A 
ATOM      5  C4  BZF d   1      -0.612  -0.799  -1.279  0.00  0.00     0.055 A 
ATOM      6  C5  BZF d   1       0.164  -0.696  -0.168  0.00  0.00    -0.016 A 
ATOM      7  C6  BZF d   1       0.412   0.519   0.435  0.00  0.00     0.022 A 
ATOM      8  C7  BZF d   1      -0.120   1.667  -0.050  0.00  0.00     0.029 A 
ATOM      9  C7A BZF d   1      -0.933   1.563  -1.153  0.00  0.00     0.058 A 
ENDROOT
TORSDOF 0
ENDMDL
