MODEL 1
REMARK minimizedAffinity -3.44275022
REMARK minimizedRMSD -1
REMARK  0 active torsions:
REMARK  status: ('A' for Active; 'I' for Inactive)
ROOT
ATOM      1  O1  BZF d   1       2.444  -1.641   0.982  0.00  0.00    -0.204 OA
ATOM      2  C2  BZF d   1       1.624  -2.545   1.629  0.00  0.00     0.174 A 
ATOM      3  C3  BZF d   1       0.325  -2.254   1.413  0.00  0.00    -0.012 A 
ATOM      4  C3A BZF d   1       0.334  -1.149   0.503  0.00  0.00    -0.107 A 
ATOM      5  C4  BZF d   1      -0.651  -0.420  -0.098  0.00  0.00     0.055 A 
ATOM      6  C5  BZF d   1      -0.308   0.640  -0.876  0.00  0.00    -0.016 A 
ATOM      7  C6  BZF d   1       1.009   1.003  -1.068  0.00  0.00     0.022 A 
ATOM      8  C7  BZF d   1       2.022   0.307  -0.497  0.00  0.00     0.029 A 
ATOM      9  C7A BZF d   1       1.679  -0.785   0.262  0.00  0.00     0.058 A 
ENDROOT
TORSDOF 0
ENDMDL
