MODEL 1
REMARK minimizedAffinity -2.49106884
REMARK minimizedRMSD -1
REMARK  0 active torsions:
REMARK  status: ('A' for Active; 'I' for Inactive)
ROOT
ATOM      1  O1  BZF d   1       0.134   1.124  -1.403  0.00  0.00    -0.204 OA
ATOM      2  C2  BZF d   1      -1.038   1.587  -0.836  0.00  0.00     0.174 A 
ATOM      3  C3  BZF d   1      -1.401   0.816   0.209  0.00  0.00    -0.012 A 
ATOM      4  C3A BZF d   1      -0.344  -0.137   0.359  0.00  0.00    -0.107 A 
ATOM      5  C4  BZF d   1      -0.120  -1.160   1.234  0.00  0.00     0.055 A 
ATOM      6  C5  BZF d   1       0.974  -1.948   1.064  0.00  0.00    -0.016 A 
ATOM      7  C6  BZF d   1       1.861  -1.745   0.026  0.00  0.00     0.022 A 
ATOM      8  C7  BZF d   1       1.683  -0.739  -0.865  0.00  0.00     0.029 A 
ATOM      9  C7A BZF d   1       0.596   0.079  -0.675  0.00  0.00     0.058 A 
ENDROOT
TORSDOF 0
ENDMDL
