MODEL 1
REMARK minimizedAffinity -1.48674309
REMARK minimizedRMSD -1
REMARK  0 active torsions:
REMARK  status: ('A' for Active; 'I' for Inactive)
ROOT
ATOM      1  O1  BZF d   1       0.573  -2.182   1.783  0.00  0.00    -0.204 OA
ATOM      2  C2  BZF d   1       1.771  -2.700   1.331  0.00  0.00     0.174 A 
ATOM      3  C3  BZF d   1       2.208  -2.024   0.250  0.00  0.00    -0.012 A 
ATOM      4  C3A BZF d   1       1.268  -0.961   0.066  0.00  0.00    -0.107 A 
ATOM      5  C4  BZF d   1       1.170   0.060  -0.836  0.00  0.00     0.055 A 
ATOM      6  C5  BZF d   1       0.090   0.884  -0.786  0.00  0.00    -0.016 A 
ATOM      7  C6  BZF d   1      -0.911   0.713   0.148  0.00  0.00     0.022 A 
ATOM      8  C7  BZF d   1      -0.855  -0.283   1.066  0.00  0.00     0.029 A 
ATOM      9  C7A BZF d   1       0.251  -1.097   1.039  0.00  0.00     0.058 A 
ENDROOT
TORSDOF 0
ENDMDL
