MODEL 1
REMARK minimizedAffinity 7.13224697
REMARK minimizedRMSD -1
REMARK  1 active torsions:
REMARK  status: ('A' for Active; 'I' for Inactive)
REMARK    1  A    between atoms: C3_4  and  O_7 
ROOT
ATOM      1  C   UNL d   1       5.423  -4.814  -0.599  0.00  0.00    -0.033 A 
ATOM      2  C1  UNL d   1       4.889  -5.963  -1.186  0.00  0.00     0.039 A 
ATOM      3  C2  UNL d   1       4.619  -5.988  -2.556  0.00  0.00    -0.080 A 
ATOM      4  C3  UNL d   1       4.889  -4.861  -3.326  0.00  0.00     0.150 A 
ATOM      5  C4  UNL d   1       5.425  -3.714  -2.749  0.00  0.00    -0.007 A 
ATOM      6  C5  UNL d   1       5.692  -3.690  -1.381  0.00  0.00     0.039 A 
ENDROOT
BRANCH   4   7
ATOM      7  O   UNL d   1       4.638  -4.837  -4.666  0.00  0.00    -0.526 OA
ATOM      8  H5  UNL d   1       4.243  -5.687  -4.920  0.00  0.00     0.418 HD
ENDBRANCH   4   7
TORSDOF 1
ENDMDL
