MODEL 1
REMARK minimizedAffinity 2.08744907
REMARK minimizedRMSD -1
REMARK  1 active torsions:
REMARK  status: ('A' for Active; 'I' for Inactive)
REMARK    1  A    between atoms: C3_4  and  O_7 
ROOT
ATOM      1  C   UNL d   1      -0.571   5.384  -2.680  0.00  0.00    -0.033 A 
ATOM      2  C1  UNL d   1       0.689   5.138  -2.131  0.00  0.00     0.039 A 
ATOM      3  C2  UNL d   1       0.803   4.446  -0.924  0.00  0.00    -0.080 A 
ATOM      4  C3  UNL d   1      -0.348   4.004  -0.278  0.00  0.00     0.150 A 
ATOM      5  C4  UNL d   1      -1.606   4.242  -0.821  0.00  0.00    -0.007 A 
ATOM      6  C5  UNL d   1      -1.719   4.935  -2.026  0.00  0.00     0.039 A 
ENDROOT
BRANCH   4   7
ATOM      7  O   UNL d   1      -0.287   3.329   0.905  0.00  0.00    -0.526 OA
ATOM      8  H5  UNL d   1       0.645   3.263   1.174  0.00  0.00     0.418 HD
ENDBRANCH   4   7
TORSDOF 1
ENDMDL
