MODEL 1
REMARK minimizedAffinity -1.28352332
REMARK minimizedRMSD -1
REMARK  1 active torsions:
REMARK  status: ('A' for Active; 'I' for Inactive)
REMARK    1  A    between atoms: C3_4  and  O_7 
ROOT
ATOM      1  C   UNL d   1      -0.477   2.980  -1.026  0.00  0.00    -0.033 A 
ATOM      2  C1  UNL d   1      -0.902   4.159  -1.641  0.00  0.00     0.039 A 
ATOM      3  C2  UNL d   1      -1.549   5.145  -0.893  0.00  0.00    -0.080 A 
ATOM      4  C3  UNL d   1      -1.765   4.939   0.467  0.00  0.00     0.150 A 
ATOM      5  C4  UNL d   1      -1.342   3.767   1.086  0.00  0.00    -0.007 A 
ATOM      6  C5  UNL d   1      -0.696   2.784   0.338  0.00  0.00     0.039 A 
ENDROOT
BRANCH   4   7
ATOM      7  O   UNL d   1      -2.397   5.869   1.237  0.00  0.00    -0.526 OA
ATOM      8  H5  UNL d   1      -2.658   6.613   0.669  0.00  0.00     0.418 HD
ENDBRANCH   4   7
TORSDOF 1
ENDMDL
