MODEL 1
REMARK minimizedAffinity 7.59915733
REMARK minimizedRMSD -1
REMARK  1 active torsions:
REMARK  status: ('A' for Active; 'I' for Inactive)
REMARK    1  A    between atoms: C3_4  and  O_7 
ROOT
ATOM      1  C   UNL d   1       4.899  -4.847  -0.748  0.00  0.00    -0.033 A 
ATOM      2  C1  UNL d   1       4.204  -3.695  -0.373  0.00  0.00     0.039 A 
ATOM      3  C2  UNL d   1       2.808  -3.693  -0.359  0.00  0.00    -0.080 A 
ATOM      4  C3  UNL d   1       2.119  -4.847  -0.720  0.00  0.00     0.150 A 
ATOM      5  C4  UNL d   1       2.805  -6.000  -1.091  0.00  0.00    -0.007 A 
ATOM      6  C5  UNL d   1       4.199  -5.999  -1.106  0.00  0.00     0.039 A 
ENDROOT
BRANCH   4   7
ATOM      7  O   UNL d   1       0.757  -4.892  -0.726  0.00  0.00    -0.526 OA
ATOM      8  H5  UNL d   1       0.419  -4.016  -0.475  0.00  0.00     0.418 HD
ENDBRANCH   4   7
TORSDOF 1
ENDMDL
