MODEL 1
REMARK minimizedAffinity 2.34177017
REMARK minimizedRMSD -1
REMARK  1 active torsions:
REMARK  status: ('A' for Active; 'I' for Inactive)
REMARK    1  A    between atoms: C3_4  and  O_7 
ROOT
ATOM      1  C   UNL d   1       1.962   4.445  -0.605  0.00  0.00    -0.033 A 
ATOM      2  C1  UNL d   1       0.882   3.628  -0.265  0.00  0.00     0.039 A 
ATOM      3  C2  UNL d   1      -0.384   3.885  -0.794  0.00  0.00    -0.080 A 
ATOM      4  C3  UNL d   1      -0.557   4.960  -1.662  0.00  0.00     0.150 A 
ATOM      5  C4  UNL d   1       0.515   5.775  -2.008  0.00  0.00    -0.007 A 
ATOM      6  C5  UNL d   1       1.779   5.518  -1.478  0.00  0.00     0.039 A 
ENDROOT
BRANCH   4   7
ATOM      7  O   UNL d   1      -1.775   5.253  -2.200  0.00  0.00    -0.526 OA
ATOM      8  H5  UNL d   1      -2.426   4.623  -1.849  0.00  0.00     0.418 HD
ENDBRANCH   4   7
TORSDOF 1
ENDMDL
