MODEL 1
REMARK minimizedAffinity 1.88805592
REMARK minimizedRMSD -1
REMARK  1 active torsions:
REMARK  status: ('A' for Active; 'I' for Inactive)
REMARK    1  A    between atoms: C3_4  and  O_7 
ROOT
ATOM      1  C   UNL d   1       0.675   1.711   2.631  0.00  0.00    -0.033 A 
ATOM      2  C1  UNL d   1       1.871   1.001   2.505  0.00  0.00     0.039 A 
ATOM      3  C2  UNL d   1       2.044  -0.204   3.188  0.00  0.00    -0.080 A 
ATOM      4  C3  UNL d   1       1.015  -0.689   3.990  0.00  0.00     0.150 A 
ATOM      5  C4  UNL d   1      -0.181   0.011   4.117  0.00  0.00    -0.007 A 
ATOM      6  C5  UNL d   1      -0.351   1.216   3.436  0.00  0.00     0.039 A 
ENDROOT
BRANCH   4   7
ATOM      7  O   UNL d   1       1.139  -1.859   4.679  0.00  0.00    -0.526 OA
ATOM      8  H5  UNL d   1       2.028  -2.217   4.519  0.00  0.00     0.418 HD
ENDBRANCH   4   7
TORSDOF 1
ENDMDL
