MODEL 1
REMARK minimizedAffinity 6.24206114
REMARK minimizedRMSD -1
REMARK  1 active torsions:
REMARK  status: ('A' for Active; 'I' for Inactive)
REMARK    1  A    between atoms: C3_4  and  O_7 
ROOT
ATOM      1  C   UNL d   1      -0.140   3.991  -0.693  0.00  0.00    -0.033 A 
ATOM      2  C1  UNL d   1      -0.792   2.942  -0.042  0.00  0.00     0.039 A 
ATOM      3  C2  UNL d   1      -0.292   2.449   1.164  0.00  0.00    -0.080 A 
ATOM      4  C3  UNL d   1       0.858   3.013   1.709  0.00  0.00     0.150 A 
ATOM      5  C4  UNL d   1       1.511   4.061   1.068  0.00  0.00    -0.007 A 
ATOM      6  C5  UNL d   1       1.010   4.552  -0.137  0.00  0.00     0.039 A 
ENDROOT
BRANCH   4   7
ATOM      7  O   UNL d   1       1.387   2.562   2.882  0.00  0.00    -0.526 OA
ATOM      8  H5  UNL d   1       0.847   1.817   3.196  0.00  0.00     0.418 HD
ENDBRANCH   4   7
TORSDOF 1
ENDMDL
