MODEL 1
REMARK minimizedAffinity 8.89009094
REMARK minimizedRMSD -1
REMARK  1 active torsions:
REMARK  status: ('A' for Active; 'I' for Inactive)
REMARK    1  A    between atoms: C3_4  and  O_7 
ROOT
ATOM      1  C   UNL d   1       4.861  -3.979  -2.462  0.00  0.00    -0.033 A 
ATOM      2  C1  UNL d   1       5.617  -3.316  -1.494  0.00  0.00     0.039 A 
ATOM      3  C2  UNL d   1       6.000  -3.982  -0.328  0.00  0.00    -0.080 A 
ATOM      4  C3  UNL d   1       5.622  -5.309  -0.144  0.00  0.00     0.150 A 
ATOM      5  C4  UNL d   1       4.872  -5.977  -1.106  0.00  0.00    -0.007 A 
ATOM      6  C5  UNL d   1       4.490  -5.310  -2.269  0.00  0.00     0.039 A 
ENDROOT
BRANCH   4   7
ATOM      7  O   UNL d   1       5.968  -5.999   0.980  0.00  0.00    -0.526 OA
ATOM      8  H5  UNL d   1       6.460  -5.402   1.569  0.00  0.00     0.418 HD
ENDBRANCH   4   7
TORSDOF 1
ENDMDL
