MODEL 1
REMARK minimizedAffinity 9.85567665
REMARK minimizedRMSD -1
REMARK  1 active torsions:
REMARK  status: ('A' for Active; 'I' for Inactive)
REMARK    1  A    between atoms: C3_4  and  O_7 
ROOT
ATOM      1  C   UNL d   1      -0.426   4.144  -0.394  0.00  0.00    -0.033 A 
ATOM      2  C1  UNL d   1      -0.115   3.505  -1.597  0.00  0.00     0.039 A 
ATOM      3  C2  UNL d   1      -0.036   2.112  -1.649  0.00  0.00    -0.080 A 
ATOM      4  C3  UNL d   1      -0.271   1.370  -0.494  0.00  0.00     0.150 A 
ATOM      5  C4  UNL d   1      -0.585   2.000   0.706  0.00  0.00    -0.007 A 
ATOM      6  C5  UNL d   1      -0.662   3.391   0.756  0.00  0.00     0.039 A 
ENDROOT
BRANCH   4   7
ATOM      7  O   UNL d   1      -0.201   0.009  -0.495  0.00  0.00    -0.526 OA
ATOM      8  H5  UNL d   1       0.053  -0.286  -1.385  0.00  0.00     0.418 HD
ENDBRANCH   4   7
TORSDOF 1
ENDMDL
