MODEL 1
REMARK minimizedAffinity 8.26151943
REMARK minimizedRMSD -1
REMARK  0 active torsions:
REMARK  status: ('A' for Active; 'I' for Inactive)
ROOT
ATOM      1  C4' PXY d   1       1.046   4.758   3.008  0.00  0.00     0.077 C 
ATOM      2  C1' PXY d   1       0.807  -0.847   4.398  0.00  0.00     0.077 C 
ATOM      3  C1  PXY d   1       0.881   0.621   4.027  0.00  0.00    -0.082 A 
ATOM      4  C2  PXY d   1       0.262   1.517   4.778  0.00  0.00     0.003 A 
ATOM      5  C3  PXY d   1       0.292   2.845   4.439  0.00  0.00     0.003 A 
ATOM      6  C4  PXY d   1       1.006   3.266   3.350  0.00  0.00    -0.082 A 
ATOM      7  C5  PXY d   1       1.649   2.359   2.585  0.00  0.00     0.003 A 
ATOM      8  C6  PXY d   1       1.573   1.011   2.922  0.00  0.00     0.003 A 
ENDROOT
TORSDOF 0
ENDMDL
