MODEL 1
REMARK minimizedAffinity 10.2277021
REMARK minimizedRMSD -1
REMARK  0 active torsions:
REMARK  status: ('A' for Active; 'I' for Inactive)
ROOT
ATOM      1  C4' PXY d   1       2.241  -1.264  -0.744  0.00  0.00     0.077 C 
ATOM      2  C1' PXY d   1       6.000   3.101  -1.230  0.00  0.00     0.077 C 
ATOM      3  C1  PXY d   1       5.022   1.950  -1.095  0.00  0.00    -0.082 A 
ATOM      4  C2  PXY d   1       4.120   1.743  -2.040  0.00  0.00     0.003 A 
ATOM      5  C3  PXY d   1       3.208   0.727  -1.918  0.00  0.00     0.003 A 
ATOM      6  C4  PXY d   1       3.254  -0.120  -0.843  0.00  0.00    -0.082 A 
ATOM      7  C5  PXY d   1       4.178   0.078   0.120  0.00  0.00     0.003 A 
ATOM      8  C6  PXY d   1       5.069   1.140  -0.002  0.00  0.00     0.003 A 
ENDROOT
TORSDOF 0
ENDMDL
