MODEL 1
REMARK minimizedAffinity 9.60602379
REMARK minimizedRMSD -1
REMARK  0 active torsions:
REMARK  status: ('A' for Active; 'I' for Inactive)
ROOT
ATOM      1  C4' PXY d   1       5.999   0.970  -0.214  0.00  0.00     0.077 C 
ATOM      2  C1' PXY d   1       0.311  -0.047  -0.058  0.00  0.00     0.077 C 
ATOM      3  C1  PXY d   1       1.800   0.232  -0.105  0.00  0.00    -0.082 A 
ATOM      4  C2  PXY d   1       2.655  -0.778  -0.094  0.00  0.00     0.003 A 
ATOM      5  C3  PXY d   1       4.006  -0.544  -0.103  0.00  0.00     0.003 A 
ATOM      6  C4  PXY d   1       4.487   0.736  -0.178  0.00  0.00    -0.082 A 
ATOM      7  C5  PXY d   1       3.621   1.772  -0.200  0.00  0.00     0.003 A 
ATOM      8  C6  PXY d   1       2.254   1.514  -0.148  0.00  0.00     0.003 A 
ENDROOT
TORSDOF 0
ENDMDL
