MODEL 1
REMARK minimizedAffinity 12.2811518
REMARK minimizedRMSD -1
REMARK  0 active torsions:
REMARK  status: ('A' for Active; 'I' for Inactive)
ROOT
ATOM      1  C4' PXY d   1       0.588   0.123   2.274  0.00  0.00     0.077 C 
ATOM      2  C1' PXY d   1       4.797   1.578  -1.412  0.00  0.00     0.077 C 
ATOM      3  C1  PXY d   1       3.690   1.186  -0.453  0.00  0.00    -0.082 A 
ATOM      4  C2  PXY d   1       3.143   2.106   0.326  0.00  0.00     0.003 A 
ATOM      5  C3  PXY d   1       2.164   1.763   1.222  0.00  0.00     0.003 A 
ATOM      6  C4  PXY d   1       1.702   0.475   1.284  0.00  0.00    -0.082 A 
ATOM      7  C5  PXY d   1       2.247  -0.466   0.485  0.00  0.00     0.003 A 
ATOM      8  C6  PXY d   1       3.269  -0.106  -0.388  0.00  0.00     0.003 A 
ENDROOT
TORSDOF 0
ENDMDL
