MODEL 1
REMARK minimizedAffinity 1.39688826
REMARK minimizedRMSD -1
REMARK  0 active torsions:
REMARK  status: ('A' for Active; 'I' for Inactive)
ROOT
ATOM      1  C4' PXY d   1      -5.990   5.900   5.804  0.00  0.00     0.077 C 
ATOM      2  C1' PXY d   1      -3.339   5.111   0.728  0.00  0.00     0.077 C 
ATOM      3  C1  PXY d   1      -4.023   5.317   2.066  0.00  0.00    -0.082 A 
ATOM      4  C2  PXY d   1      -5.306   5.021   2.197  0.00  0.00     0.003 A 
ATOM      5  C3  PXY d   1      -5.948   5.231   3.390  0.00  0.00     0.003 A 
ATOM      6  C4  PXY d   1      -5.257   5.700   4.475  0.00  0.00    -0.082 A 
ATOM      7  C5  PXY d   1      -3.945   5.994   4.352  0.00  0.00     0.003 A 
ATOM      8  C6  PXY d   1      -3.322   5.812   3.121  0.00  0.00     0.003 A 
ENDROOT
TORSDOF 0
ENDMDL
