MODEL 1
REMARK minimizedAffinity 0.940043867
REMARK minimizedRMSD -1
REMARK  0 active torsions:
REMARK  status: ('A' for Active; 'I' for Inactive)
ROOT
ATOM      1  C4' PXY d   1      -5.026   5.992   5.951  0.00  0.00     0.077 C 
ATOM      2  C1' PXY d   1      -4.591   5.951   0.187  0.00  0.00     0.077 C 
ATOM      3  C1  PXY d   1      -4.693   5.956   1.700  0.00  0.00    -0.082 A 
ATOM      4  C2  PXY d   1      -5.884   5.954   2.275  0.00  0.00     0.003 A 
ATOM      5  C3  PXY d   1      -5.995   5.991   3.641  0.00  0.00     0.003 A 
ATOM      6  C4  PXY d   1      -4.875   5.977   4.428  0.00  0.00    -0.082 A 
ATOM      7  C5  PXY d   1      -3.655   5.969   3.849  0.00  0.00     0.003 A 
ATOM      8  C6  PXY d   1      -3.564   5.973   2.460  0.00  0.00     0.003 A 
ENDROOT
TORSDOF 0
ENDMDL
