MODEL 1
REMARK minimizedAffinity 2.54521751
REMARK minimizedRMSD -1
REMARK  0 active torsions:
REMARK  status: ('A' for Active; 'I' for Inactive)
ROOT
ATOM      1  C4' PXY d   1      -0.584  -5.995   6.000  0.00  0.00     0.077 C 
ATOM      2  C1' PXY d   1       1.230  -0.824   4.157  0.00  0.00     0.077 C 
ATOM      3  C1  PXY d   1       0.766  -2.185   4.638  0.00  0.00    -0.082 A 
ATOM      4  C2  PXY d   1      -0.511  -2.515   4.536  0.00  0.00     0.003 A 
ATOM      5  C3  PXY d   1      -0.953  -3.729   4.996  0.00  0.00     0.003 A 
ATOM      6  C4  PXY d   1      -0.069  -4.635   5.518  0.00  0.00    -0.082 A 
ATOM      7  C5  PXY d   1       1.237  -4.310   5.616  0.00  0.00     0.003 A 
ATOM      8  C6  PXY d   1       1.659  -3.057   5.181  0.00  0.00     0.003 A 
ENDROOT
TORSDOF 0
ENDMDL
