MODEL 1
REMARK minimizedAffinity -0.3411493
REMARK minimizedRMSD -1
REMARK  0 active torsions:
REMARK  status: ('A' for Active; 'I' for Inactive)
ROOT
ATOM      1  C4' PXY d   1      -5.135   5.999   5.779  0.00  0.00     0.077 C 
ATOM      2  C1' PXY d   1      -4.247   5.464   0.092  0.00  0.00     0.077 C 
ATOM      3  C1  PXY d   1      -4.493   5.607   1.581  0.00  0.00    -0.082 A 
ATOM      4  C2  PXY d   1      -3.483   5.897   2.385  0.00  0.00     0.003 A 
ATOM      5  C3  PXY d   1      -3.681   5.999   3.738  0.00  0.00     0.003 A 
ATOM      6  C4  PXY d   1      -4.935   5.854   4.267  0.00  0.00    -0.082 A 
ATOM      7  C5  PXY d   1      -5.973   5.568   3.452  0.00  0.00     0.003 A 
ATOM      8  C6  PXY d   1      -5.743   5.429   2.087  0.00  0.00     0.003 A 
ENDROOT
TORSDOF 0
ENDMDL
