MODEL 1
REMARK minimizedAffinity 5.74590015
REMARK minimizedRMSD -1
REMARK  0 active torsions:
REMARK  status: ('A' for Active; 'I' for Inactive)
ROOT
ATOM      1  C4' PXY d   1      -2.477   5.997   4.475  0.00  0.00     0.077 C 
ATOM      2  C1' PXY d   1      -5.832   5.979  -0.232  0.00  0.00     0.077 C 
ATOM      3  C1  PXY d   1      -4.962   5.989   1.009  0.00  0.00    -0.082 A 
ATOM      4  C2  PXY d   1      -3.645   6.000   0.885  0.00  0.00     0.003 A 
ATOM      5  C3  PXY d   1      -2.843   5.977   1.997  0.00  0.00     0.003 A 
ATOM      6  C4  PXY d   1      -3.395   5.996   3.249  0.00  0.00    -0.082 A 
ATOM      7  C5  PXY d   1      -4.738   5.996   3.385  0.00  0.00     0.003 A 
ATOM      8  C6  PXY d   1      -5.535   5.978   2.244  0.00  0.00     0.003 A 
ENDROOT
TORSDOF 0
ENDMDL
