MODEL 1
REMARK minimizedAffinity 8.31790447
REMARK minimizedRMSD -1
REMARK  0 active torsions:
REMARK  status: ('A' for Active; 'I' for Inactive)
ROOT
ATOM      1  C4' PXY d   1      -5.972   5.994   5.144  0.00  0.00     0.077 C 
ATOM      2  C1' PXY d   1      -3.286   5.405   0.059  0.00  0.00     0.077 C 
ATOM      3  C1  PXY d   1      -3.979   5.557   1.399  0.00  0.00    -0.082 A 
ATOM      4  C2  PXY d   1      -5.292   5.412   1.476  0.00  0.00     0.003 A 
ATOM      5  C3  PXY d   1      -5.939   5.578   2.674  0.00  0.00     0.003 A 
ATOM      6  C4  PXY d   1      -5.229   5.841   3.814  0.00  0.00    -0.082 A 
ATOM      7  C5  PXY d   1      -3.888   5.979   3.746  0.00  0.00     0.003 A 
ATOM      8  C6  PXY d   1      -3.254   5.849   2.513  0.00  0.00     0.003 A 
ENDROOT
TORSDOF 0
ENDMDL
