MODEL 1
REMARK minimizedAffinity 3.21222329
REMARK minimizedRMSD -1
REMARK  0 active torsions:
REMARK  status: ('A' for Active; 'I' for Inactive)
ROOT
ATOM      1  C4' PXY d   1      -3.251   5.812   0.894  0.00  0.00     0.077 C 
ATOM      2  C1' PXY d   1      -5.981   6.000   5.986  0.00  0.00     0.077 C 
ATOM      3  C1  PXY d   1      -5.254   5.956   4.656  0.00  0.00    -0.082 A 
ATOM      4  C2  PXY d   1      -5.950   5.942   3.531  0.00  0.00     0.003 A 
ATOM      5  C3  PXY d   1      -5.310   5.871   2.320  0.00  0.00     0.003 A 
ATOM      6  C4  PXY d   1      -3.942   5.866   2.259  0.00  0.00    -0.082 A 
ATOM      7  C5  PXY d   1      -3.225   5.890   3.402  0.00  0.00     0.003 A 
ATOM      8  C6  PXY d   1      -3.895   5.921   4.622  0.00  0.00     0.003 A 
ENDROOT
TORSDOF 0
ENDMDL
