MODEL 1
REMARK minimizedAffinity -3.51098418
REMARK minimizedRMSD -1
REMARK  0 active torsions:
REMARK  status: ('A' for Active; 'I' for Inactive)
ROOT
ATOM      1  C4' PXY d   1      -4.486   5.976   0.231  0.00  0.00     0.077 C 
ATOM      2  C1' PXY d   1      -4.862   5.999   6.000  0.00  0.00     0.077 C 
ATOM      3  C1  PXY d   1      -4.775   5.988   4.486  0.00  0.00    -0.082 A 
ATOM      4  C2  PXY d   1      -3.590   5.976   3.899  0.00  0.00     0.003 A 
ATOM      5  C3  PXY d   1      -3.493   5.998   2.531  0.00  0.00     0.003 A 
ATOM      6  C4  PXY d   1      -4.621   5.978   1.756  0.00  0.00    -0.082 A 
ATOM      7  C5  PXY d   1      -5.835   5.979   2.348  0.00  0.00     0.003 A 
ATOM      8  C6  PXY d   1      -5.911   5.998   3.738  0.00  0.00     0.003 A 
ENDROOT
TORSDOF 0
ENDMDL
