MODEL 1
REMARK minimizedAffinity 0.825309098
REMARK minimizedRMSD -1
REMARK  0 active torsions:
REMARK  status: ('A' for Active; 'I' for Inactive)
ROOT
ATOM      1  C4' PXY d   1       2.867  -0.995   1.549  0.00  0.00     0.077 C 
ATOM      2  C1' PXY d   1       5.980   2.928  -1.337  0.00  0.00     0.077 C 
ATOM      3  C1  PXY d   1       5.174   1.891  -0.579  0.00  0.00    -0.082 A 
ATOM      4  C2  PXY d   1       3.854   1.890  -0.676  0.00  0.00     0.003 A 
ATOM      5  C3  PXY d   1       3.108   0.980   0.027  0.00  0.00     0.003 A 
ATOM      6  C4  PXY d   1       3.721   0.027   0.795  0.00  0.00    -0.082 A 
ATOM      7  C5  PXY d   1       5.068   0.015   0.891  0.00  0.00     0.003 A 
ATOM      8  C6  PXY d   1       5.805   0.973   0.202  0.00  0.00     0.003 A 
ENDROOT
TORSDOF 0
ENDMDL
