MODEL 1
REMARK minimizedAffinity -5.3414793
REMARK minimizedRMSD -1
REMARK  0 active torsions:
REMARK  status: ('A' for Active; 'I' for Inactive)
ROOT
ATOM      1  C4' PXY d   1       0.808   1.986  -0.167  0.00  0.00     0.077 C 
ATOM      2  C1' PXY d   1       0.010  -3.718   0.334  0.00  0.00     0.077 C 
ATOM      3  C1  PXY d   1       0.209  -2.220   0.210  0.00  0.00    -0.082 A 
ATOM      4  C2  PXY d   1       0.919  -1.735  -0.796  0.00  0.00     0.003 A 
ATOM      5  C3  PXY d   1       1.135  -0.386  -0.906  0.00  0.00     0.003 A 
ATOM      6  C4  PXY d   1       0.574   0.481  -0.007  0.00  0.00    -0.082 A 
ATOM      7  C5  PXY d   1      -0.161  -0.005   1.016  0.00  0.00     0.003 A 
ATOM      8  C6  PXY d   1      -0.334  -1.381   1.133  0.00  0.00     0.003 A 
ENDROOT
TORSDOF 0
ENDMDL
