MODEL 1
REMARK minimizedAffinity -3.33858728
REMARK minimizedRMSD -1
REMARK  0 active torsions:
REMARK  status: ('A' for Active; 'I' for Inactive)
ROOT
ATOM      1  C4' PXY d   1       0.633  -3.300   1.090  0.00  0.00     0.077 C 
ATOM      2  C1' PXY d   1      -0.507   1.528  -1.876  0.00  0.00     0.077 C 
ATOM      3  C1  PXY d   1      -0.213   0.268  -1.087  0.00  0.00    -0.082 A 
ATOM      4  C2  PXY d   1       0.707  -0.578  -1.524  0.00  0.00     0.003 A 
ATOM      5  C3  PXY d   1       0.963  -1.738  -0.841  0.00  0.00     0.003 A 
ATOM      6  C4  PXY d   1       0.310  -2.010   0.331  0.00  0.00    -0.082 A 
ATOM      7  C5  PXY d   1      -0.622  -1.148   0.790  0.00  0.00     0.003 A 
ATOM      8  C6  PXY d   1      -0.897   0.005   0.059  0.00  0.00     0.003 A 
ENDROOT
TORSDOF 0
ENDMDL
