MODEL 1
REMARK minimizedAffinity -2.22370076
REMARK minimizedRMSD -1
REMARK  0 active torsions:
REMARK  status: ('A' for Active; 'I' for Inactive)
ROOT
ATOM      1  C4' PXY d   1       0.230   2.176  -0.027  0.00  0.00     0.077 C 
ATOM      2  C1' PXY d   1       0.212  -3.598   0.247  0.00  0.00     0.077 C 
ATOM      3  C1  PXY d   1       0.228  -2.084   0.169  0.00  0.00    -0.082 A 
ATOM      4  C2  PXY d   1      -0.524  -1.378   0.998  0.00  0.00     0.003 A 
ATOM      5  C3  PXY d   1      -0.546  -0.009   0.920  0.00  0.00     0.003 A 
ATOM      6  C4  PXY d   1       0.252   0.646   0.021  0.00  0.00    -0.082 A 
ATOM      7  C5  PXY d   1       1.031  -0.066  -0.820  0.00  0.00     0.003 A 
ATOM      8  C6  PXY d   1       1.007  -1.456  -0.753  0.00  0.00     0.003 A 
ENDROOT
TORSDOF 0
ENDMDL
