MODEL 1
REMARK minimizedAffinity -3.58840537
REMARK minimizedRMSD -1
REMARK  0 active torsions:
REMARK  status: ('A' for Active; 'I' for Inactive)
ROOT
ATOM      1  C4' PXY d   1       0.118  -3.204   0.208  0.00  0.00     0.077 C 
ATOM      2  C1' PXY d   1      -0.079   2.572   0.292  0.00  0.00     0.077 C 
ATOM      3  C1  PXY d   1      -0.025   1.058   0.257  0.00  0.00    -0.082 A 
ATOM      4  C2  PXY d   1      -0.697   0.358   1.157  0.00  0.00     0.003 A 
ATOM      5  C3  PXY d   1      -0.633  -1.012   1.159  0.00  0.00     0.003 A 
ATOM      6  C4  PXY d   1       0.084  -1.674   0.199  0.00  0.00    -0.082 A 
ATOM      7  C5  PXY d   1       0.765  -0.967  -0.729  0.00  0.00     0.003 A 
ATOM      8  C6  PXY d   1       0.720   0.424  -0.689  0.00  0.00     0.003 A 
ENDROOT
TORSDOF 0
ENDMDL
