MODEL 1
REMARK minimizedAffinity -3.27741814
REMARK minimizedRMSD -1
REMARK  0 active torsions:
REMARK  status: ('A' for Active; 'I' for Inactive)
ROOT
ATOM      1  C4' PXY d   1      -0.087  -3.372   0.387  0.00  0.00     0.077 C 
ATOM      2  C1' PXY d   1       0.404   2.345  -0.309  0.00  0.00     0.077 C 
ATOM      3  C1  PXY d   1       0.273   0.848  -0.113  0.00  0.00    -0.082 A 
ATOM      4  C2  PXY d   1       0.863   0.023  -0.963  0.00  0.00     0.003 A 
ATOM      5  C3  PXY d   1       0.729  -1.334  -0.820  0.00  0.00     0.003 A 
ATOM      6  C4  PXY d   1       0.027  -1.853   0.234  0.00  0.00    -0.082 A 
ATOM      7  C5  PXY d   1      -0.570  -1.018   1.112  0.00  0.00     0.003 A 
ATOM      8  C6  PXY d   1      -0.455   0.356   0.926  0.00  0.00     0.003 A 
ENDROOT
TORSDOF 0
ENDMDL
