MODEL 1
REMARK minimizedAffinity -4.61467123
REMARK minimizedRMSD -1
REMARK  0 active torsions:
REMARK  status: ('A' for Active; 'I' for Inactive)
ROOT
ATOM      1  C4' PXY d   1      -0.133  -4.075  -0.351  0.00  0.00     0.077 C 
ATOM      2  C1' PXY d   1       0.226   1.691  -0.557  0.00  0.00     0.077 C 
ATOM      3  C1  PXY d   1       0.132   0.180  -0.490  0.00  0.00    -0.082 A 
ATOM      4  C2  PXY d   1       0.577  -0.549  -1.501  0.00  0.00     0.003 A 
ATOM      5  C3  PXY d   1       0.470  -1.916  -1.471  0.00  0.00     0.003 A 
ATOM      6  C4  PXY d   1      -0.049  -2.546  -0.371  0.00  0.00    -0.082 A 
ATOM      7  C5  PXY d   1      -0.495  -1.810   0.669  0.00  0.00     0.003 A 
ATOM      8  C6  PXY d   1      -0.415  -0.422   0.601  0.00  0.00     0.003 A 
ENDROOT
TORSDOF 0
ENDMDL
