MODEL 1
REMARK minimizedAffinity -5.58070755
REMARK minimizedRMSD -1
REMARK  0 active torsions:
REMARK  status: ('A' for Active; 'I' for Inactive)
ROOT
ATOM      1  C4' PXY d   1       0.898  -1.724  -1.462  0.00  0.00     0.077 C 
ATOM      2  C1' PXY d   1      -2.323  -0.776   3.244  0.00  0.00     0.077 C 
ATOM      3  C1  PXY d   1      -1.481  -1.013   2.005  0.00  0.00    -0.082 A 
ATOM      4  C2  PXY d   1      -1.293  -2.247   1.568  0.00  0.00     0.003 A 
ATOM      5  C3  PXY d   1      -0.508  -2.481   0.468  0.00  0.00     0.003 A 
ATOM      6  C4  PXY d   1       0.047  -1.437  -0.222  0.00  0.00    -0.082 A 
ATOM      7  C5  PXY d   1      -0.148  -0.174   0.212  0.00  0.00     0.003 A 
ATOM      8  C6  PXY d   1      -0.914   0.040   1.355  0.00  0.00     0.003 A 
ENDROOT
TORSDOF 0
ENDMDL
