MODEL 1
REMARK minimizedAffinity -4.01484823
REMARK minimizedRMSD -1
REMARK  0 active torsions:
REMARK  status: ('A' for Active; 'I' for Inactive)
ROOT
ATOM      1  C4' PXY d   1      -2.440  -3.270   0.368  0.00  0.00     0.077 C 
ATOM      2  C1' PXY d   1       1.146   1.231   0.901  0.00  0.00     0.077 C 
ATOM      3  C1  PXY d   1       0.214   0.045   0.753  0.00  0.00    -0.082 A 
ATOM      4  C2  PXY d   1      -1.087   0.211   0.921  0.00  0.00     0.003 A 
ATOM      5  C3  PXY d   1      -1.941  -0.858   0.823  0.00  0.00     0.003 A 
ATOM      6  C4  PXY d   1      -1.463  -2.099   0.498  0.00  0.00    -0.082 A 
ATOM      7  C5  PXY d   1      -0.137  -2.274   0.315  0.00  0.00     0.003 A 
ATOM      8  C6  PXY d   1       0.717  -1.185   0.459  0.00  0.00     0.003 A 
ENDROOT
TORSDOF 0
ENDMDL
