MODEL 1
REMARK minimizedAffinity -4.57945585
REMARK minimizedRMSD -1
REMARK  0 active torsions:
REMARK  status: ('A' for Active; 'I' for Inactive)
ROOT
ATOM      1  C4' PXY d   1      -0.048  -3.423   0.916  0.00  0.00     0.077 C 
ATOM      2  C1' PXY d   1      -0.070   2.183  -0.491  0.00  0.00     0.077 C 
ATOM      3  C1  PXY d   1      -0.068   0.716  -0.110  0.00  0.00    -0.082 A 
ATOM      4  C2  PXY d   1       0.673  -0.138  -0.798  0.00  0.00     0.003 A 
ATOM      5  C3  PXY d   1       0.662  -1.473  -0.487  0.00  0.00     0.003 A 
ATOM      6  C4  PXY d   1      -0.074  -1.932   0.573  0.00  0.00    -0.082 A 
ATOM      7  C5  PXY d   1      -0.824  -1.065   1.286  0.00  0.00     0.003 A 
ATOM      8  C6  PXY d   1      -0.831   0.280   0.928  0.00  0.00     0.003 A 
ENDROOT
TORSDOF 0
ENDMDL
