MODEL 1
REMARK minimizedAffinity -0.93728286
REMARK minimizedRMSD -1
REMARK  0 active torsions:
REMARK  status: ('A' for Active; 'I' for Inactive)
ROOT
ATOM      1  C4' PXY d   1       0.898  -1.923  -2.429  0.00  0.00     0.077 C 
ATOM      2  C1' PXY d   1       0.890   3.104   0.423  0.00  0.00     0.077 C 
ATOM      3  C1  PXY d   1       0.897   1.780  -0.314  0.00  0.00    -0.082 A 
ATOM      4  C2  PXY d   1       0.997   1.766  -1.633  0.00  0.00     0.003 A 
ATOM      5  C3  PXY d   1       0.972   0.579  -2.319  0.00  0.00     0.003 A 
ATOM      6  C4  PXY d   1       0.897  -0.610  -1.643  0.00  0.00    -0.082 A 
ATOM      7  C5  PXY d   1       0.805  -0.605  -0.296  0.00  0.00     0.003 A 
ATOM      8  C6  PXY d   1       0.791   0.613   0.378  0.00  0.00     0.003 A 
ENDROOT
TORSDOF 0
ENDMDL
