MODEL 1
REMARK minimizedAffinity -1.86119235
REMARK minimizedRMSD -1
REMARK  0 active torsions:
REMARK  status: ('A' for Active; 'I' for Inactive)
ROOT
ATOM      1  C4' PXY d   1       0.453   3.362   0.323  0.00  0.00     0.077 C 
ATOM      2  C1' PXY d   1       0.677  -2.349  -0.541  0.00  0.00     0.077 C 
ATOM      3  C1  PXY d   1       0.623  -0.849  -0.326  0.00  0.00    -0.082 A 
ATOM      4  C2  PXY d   1       0.611  -0.365   0.905  0.00  0.00     0.003 A 
ATOM      5  C3  PXY d   1       0.530   0.988   1.117  0.00  0.00     0.003 A 
ATOM      6  C4  PXY d   1       0.516   1.855   0.058  0.00  0.00    -0.082 A 
ATOM      7  C5  PXY d   1       0.540   1.369  -1.201  0.00  0.00     0.003 A 
ATOM      8  C6  PXY d   1       0.580  -0.008  -1.395  0.00  0.00     0.003 A 
ENDROOT
TORSDOF 0
ENDMDL
