MODEL 1
REMARK minimizedAffinity -4.17665434
REMARK minimizedRMSD -1
REMARK  0 active torsions:
REMARK  status: ('A' for Active; 'I' for Inactive)
ROOT
ATOM      1  C4' PXY d   1       0.069   0.166   0.017  0.00  0.00     0.077 C 
ATOM      2  C1' PXY d   1       2.663   4.987   1.872  0.00  0.00     0.077 C 
ATOM      3  C1  PXY d   1       1.981   3.728   1.374  0.00  0.00    -0.082 A 
ATOM      4  C2  PXY d   1       1.402   2.911   2.239  0.00  0.00     0.003 A 
ATOM      5  C3  PXY d   1       0.809   1.752   1.809  0.00  0.00     0.003 A 
ATOM      6  C4  PXY d   1       0.761   1.453   0.474  0.00  0.00    -0.082 A 
ATOM      7  C5  PXY d   1       1.340   2.286  -0.416  0.00  0.00     0.003 A 
ATOM      8  C6  PXY d   1       1.973   3.437   0.045  0.00  0.00     0.003 A 
ENDROOT
TORSDOF 0
ENDMDL
