MODEL 1
REMARK minimizedAffinity -5.65951157
REMARK minimizedRMSD -1
REMARK  0 active torsions:
REMARK  status: ('A' for Active; 'I' for Inactive)
ROOT
ATOM      1  C4' PXY d   1       0.104  -4.055  -0.844  0.00  0.00     0.077 C 
ATOM      2  C1' PXY d   1       0.149   1.574   0.474  0.00  0.00     0.077 C 
ATOM      3  C1  PXY d   1       0.137   0.101   0.115  0.00  0.00    -0.082 A 
ATOM      4  C2  PXY d   1      -0.304  -0.783   0.996  0.00  0.00     0.003 A 
ATOM      5  C3  PXY d   1      -0.292  -2.122   0.700  0.00  0.00     0.003 A 
ATOM      6  C4  PXY d   1       0.126  -2.556  -0.529  0.00  0.00    -0.082 A 
ATOM      7  C5  PXY d   1       0.567  -1.660  -1.437  0.00  0.00     0.003 A 
ATOM      8  C6  PXY d   1       0.585  -0.309  -1.102  0.00  0.00     0.003 A 
ENDROOT
TORSDOF 0
ENDMDL
