MODEL 1
REMARK minimizedAffinity -3.4711442
REMARK minimizedRMSD -1
REMARK  0 active torsions:
REMARK  status: ('A' for Active; 'I' for Inactive)
ROOT
ATOM      1  C4' PXY d   1       0.444  -2.247  -2.989  0.00  0.00     0.077 C 
ATOM      2  C1' PXY d   1      -1.270  -0.976   2.383  0.00  0.00     0.077 C 
ATOM      3  C1  PXY d   1      -0.822  -1.322   0.977  0.00  0.00    -0.082 A 
ATOM      4  C2  PXY d   1      -0.077  -0.465   0.298  0.00  0.00     0.003 A 
ATOM      5  C3  PXY d   1       0.310  -0.748  -0.986  0.00  0.00     0.003 A 
ATOM      6  C4  PXY d   1      -0.024  -1.944  -1.563  0.00  0.00    -0.082 A 
ATOM      7  C5  PXY d   1      -0.775  -2.829  -0.873  0.00  0.00     0.003 A 
ATOM      8  C6  PXY d   1      -1.192  -2.505   0.414  0.00  0.00     0.003 A 
ENDROOT
TORSDOF 0
ENDMDL
