MODEL 1
REMARK minimizedAffinity -5.42805529
REMARK minimizedRMSD -1
REMARK  0 active torsions:
REMARK  status: ('A' for Active; 'I' for Inactive)
ROOT
ATOM      1  C4' PXY d   1      -1.224  -1.298   2.213  0.00  0.00     0.077 C 
ATOM      2  C1' PXY d   1       0.966  -2.715  -2.945  0.00  0.00     0.077 C 
ATOM      3  C1  PXY d   1       0.398  -2.332  -1.593  0.00  0.00    -0.082 A 
ATOM      4  C2  PXY d   1      -0.034  -3.277  -0.774  0.00  0.00     0.003 A 
ATOM      5  C3  PXY d   1      -0.579  -2.947   0.440  0.00  0.00     0.003 A 
ATOM      6  C4  PXY d   1      -0.635  -1.639   0.842  0.00  0.00    -0.082 A 
ATOM      7  C5  PXY d   1      -0.187  -0.670   0.016  0.00  0.00     0.003 A 
ATOM      8  C6  PXY d   1       0.326  -1.023  -1.229  0.00  0.00     0.003 A 
ENDROOT
TORSDOF 0
ENDMDL
