MODEL 1
REMARK minimizedAffinity -5.85405445
REMARK minimizedRMSD -1
REMARK  0 active torsions:
REMARK  status: ('A' for Active; 'I' for Inactive)
ROOT
ATOM      1  C4' PXY d   1      -1.614  -0.319   2.235  0.00  0.00     0.077 C 
ATOM      2  C1' PXY d   1       1.223  -2.830  -2.131  0.00  0.00     0.077 C 
ATOM      3  C1  PXY d   1       0.489  -2.163  -0.985  0.00  0.00    -0.082 A 
ATOM      4  C2  PXY d   1      -0.364  -2.865  -0.257  0.00  0.00     0.003 A 
ATOM      5  C3  PXY d   1      -1.060  -2.269   0.763  0.00  0.00     0.003 A 
ATOM      6  C4  PXY d   1      -0.843  -0.954   1.074  0.00  0.00    -0.082 A 
ATOM      7  C5  PXY d   1       0.033  -0.233   0.343  0.00  0.00     0.003 A 
ATOM      8  C6  PXY d   1       0.700  -0.846  -0.714  0.00  0.00     0.003 A 
ENDROOT
TORSDOF 0
ENDMDL
