MODEL 1
REMARK minimizedAffinity -4.97407818
REMARK minimizedRMSD -1
REMARK  0 active torsions:
REMARK  status: ('A' for Active; 'I' for Inactive)
ROOT
ATOM      1  C4' PXY d   1      -0.716   1.646  -0.565  0.00  0.00     0.077 C 
ATOM      2  C1' PXY d   1       0.625  -3.907   0.315  0.00  0.00     0.077 C 
ATOM      3  C1  PXY d   1       0.285  -2.449   0.077  0.00  0.00    -0.082 A 
ATOM      4  C2  PXY d   1      -0.541  -1.828   0.904  0.00  0.00     0.003 A 
ATOM      5  C3  PXY d   1      -0.885  -0.518   0.686  0.00  0.00     0.003 A 
ATOM      6  C4  PXY d   1      -0.336   0.177  -0.358  0.00  0.00    -0.082 A 
ATOM      7  C5  PXY d   1       0.515  -0.447  -1.200  0.00  0.00     0.003 A 
ATOM      8  C6  PXY d   1       0.819  -1.788  -0.985  0.00  0.00     0.003 A 
ENDROOT
TORSDOF 0
ENDMDL
