MODEL 1
REMARK minimizedAffinity -4.65366364
REMARK minimizedRMSD -1
REMARK  0 active torsions:
REMARK  status: ('A' for Active; 'I' for Inactive)
ROOT
ATOM      1  C4' PXY d   1       0.217  -3.784   0.424  0.00  0.00     0.077 C 
ATOM      2  C1' PXY d   1      -0.496   1.948   0.183  0.00  0.00     0.077 C 
ATOM      3  C1  PXY d   1      -0.316   0.444   0.258  0.00  0.00    -0.082 A 
ATOM      4  C2  PXY d   1       0.666  -0.131  -0.417  0.00  0.00     0.003 A 
ATOM      5  C3  PXY d   1       0.825  -1.492  -0.386  0.00  0.00     0.003 A 
ATOM      6  C4  PXY d   1       0.002  -2.268   0.386  0.00  0.00    -0.082 A 
ATOM      7  C5  PXY d   1      -0.996  -1.688   1.086  0.00  0.00     0.003 A 
ATOM      8  C6  PXY d   1      -1.165  -0.308   1.009  0.00  0.00     0.003 A 
ENDROOT
TORSDOF 0
ENDMDL
