MODEL 1
REMARK minimizedAffinity -2.75833392
REMARK minimizedRMSD -1
REMARK  0 active torsions:
REMARK  status: ('A' for Active; 'I' for Inactive)
ROOT
ATOM      1  C4' PXY d   1       0.483   2.974  -0.050  0.00  0.00     0.077 C 
ATOM      2  C1' PXY d   1      -1.787  -2.223   1.069  0.00  0.00     0.077 C 
ATOM      3  C1  PXY d   1      -1.186  -0.865   0.765  0.00  0.00    -0.082 A 
ATOM      4  C2  PXY d   1      -0.982  -0.004   1.749  0.00  0.00     0.003 A 
ATOM      5  C3  PXY d   1      -0.470   1.240   1.487  0.00  0.00     0.003 A 
ATOM      6  C4  PXY d   1      -0.113   1.588   0.212  0.00  0.00    -0.082 A 
ATOM      7  C5  PXY d   1      -0.308   0.712  -0.796  0.00  0.00     0.003 A 
ATOM      8  C6  PXY d   1      -0.868  -0.531  -0.515  0.00  0.00     0.003 A 
ENDROOT
TORSDOF 0
ENDMDL
