MODEL 1
REMARK minimizedAffinity -2.75713825
REMARK minimizedRMSD -1
REMARK  0 active torsions:
REMARK  status: ('A' for Active; 'I' for Inactive)
ROOT
ATOM      1  C4' PXY d   1       0.539   2.949   0.375  0.00  0.00     0.077 C 
ATOM      2  C1' PXY d   1      -1.795  -2.280   1.165  0.00  0.00     0.077 C 
ATOM      3  C1  PXY d   1      -1.175  -0.913   0.948  0.00  0.00    -0.082 A 
ATOM      4  C2  PXY d   1      -1.204  -0.020   1.923  0.00  0.00     0.003 A 
ATOM      5  C3  PXY d   1      -0.677   1.232   1.734  0.00  0.00     0.003 A 
ATOM      6  C4  PXY d   1      -0.066   1.554   0.552  0.00  0.00    -0.082 A 
ATOM      7  C5  PXY d   1      -0.022   0.644  -0.444  0.00  0.00     0.003 A 
ATOM      8  C6  PXY d   1      -0.600  -0.607  -0.246  0.00  0.00     0.003 A 
ENDROOT
TORSDOF 0
ENDMDL
