MODEL 1
REMARK minimizedAffinity -2.84170532
REMARK minimizedRMSD -1
REMARK  2 active torsions:
REMARK  status: ('A' for Active; 'I' for Inactive)
REMARK    1  A    between atoms: C2'_3  and  C1'_4 
REMARK    2  A    between atoms: C1'_4  and  C1_5 
ROOT
ATOM      1  C1  I4B d   1       0.435   0.056  -0.079  0.00  0.00    -0.075 A 
ATOM      2  C2  I4B d   1       0.186   0.819  -1.193  0.00  0.00     0.003 A 
ATOM      3  C3  I4B d   1      -0.953   0.561  -1.994  0.00  0.00     0.002 A 
ATOM      4  C4  I4B d   1      -1.783  -0.494  -1.674  0.00  0.00    -0.004 A 
ATOM      5  C5  I4B d   1      -1.542  -1.251  -0.532  0.00  0.00     0.002 A 
ATOM      6  C6  I4B d   1      -0.433  -0.967   0.278  0.00  0.00     0.003 A 
ENDROOT
BRANCH   1   7
ATOM      7  C1' I4B d   1       1.665   0.335   0.725  0.00  0.00     0.060 C 
BRANCH   7   8
ATOM      8  C2' I4B d   1       1.988   1.809   0.588  0.00  0.00    -0.013 C 
ATOM      9  C4' I4B d   1       2.400   2.401   1.910  0.00  0.00     0.013 C 
ATOM     10  C3' I4B d   1       3.078   1.950  -0.432  0.00  0.00     0.013 C 
ENDBRANCH   7   8
ENDBRANCH   1   7
TORSDOF 2
ENDMDL
