MODEL 1
REMARK minimizedAffinity -5.87869596
REMARK minimizedRMSD -1
REMARK  2 active torsions:
REMARK  status: ('A' for Active; 'I' for Inactive)
REMARK    1  A    between atoms: C2'_3  and  C1'_4 
REMARK    2  A    between atoms: C1'_4  and  C1_5 
ROOT
ATOM      1  C1  I4B d   1       0.936   0.868   0.683  0.00  0.00    -0.075 A 
ATOM      2  C2  I4B d   1       2.270   0.978   0.377  0.00  0.00     0.003 A 
ATOM      3  C3  I4B d   1       3.014   2.097   0.824  0.00  0.00     0.002 A 
ATOM      4  C4  I4B d   1       2.378   3.100   1.525  0.00  0.00    -0.004 A 
ATOM      5  C5  I4B d   1       1.031   2.977   1.854  0.00  0.00     0.002 A 
ATOM      6  C6  I4B d   1       0.308   1.848   1.441  0.00  0.00     0.003 A 
ENDROOT
BRANCH   1   7
ATOM      7  C1' I4B d   1       0.173  -0.310   0.168  0.00  0.00     0.060 C 
BRANCH   7   8
ATOM      8  C2' I4B d   1      -1.056   0.208  -0.552  0.00  0.00    -0.013 C 
ATOM      9  C4' I4B d   1      -0.734   0.593  -1.972  0.00  0.00     0.013 C 
ATOM     10  C3' I4B d   1      -2.105  -0.863  -0.505  0.00  0.00     0.013 C 
ENDBRANCH   7   8
ENDBRANCH   1   7
TORSDOF 2
ENDMDL
