MODEL 1
REMARK minimizedAffinity -3.33692312
REMARK minimizedRMSD -1
REMARK  2 active torsions:
REMARK  status: ('A' for Active; 'I' for Inactive)
REMARK    1  A    between atoms: C2'_3  and  C1'_4 
REMARK    2  A    between atoms: C1'_4  and  C1_5 
ROOT
ATOM      1  C1  I4B d   1      -0.737  -0.437   0.017  0.00  0.00    -0.075 A 
ATOM      2  C2  I4B d   1      -0.704  -1.201   1.157  0.00  0.00     0.003 A 
ATOM      3  C3  I4B d   1      -1.668  -2.218   1.361  0.00  0.00     0.002 A 
ATOM      4  C4  I4B d   1      -2.669  -2.402   0.430  0.00  0.00    -0.004 A 
ATOM      5  C5  I4B d   1      -2.687  -1.643  -0.736  0.00  0.00     0.002 A 
ATOM      6  C6  I4B d   1      -1.708  -0.662  -0.950  0.00  0.00     0.003 A 
ENDROOT
BRANCH   1   7
ATOM      7  C1' I4B d   1       0.276   0.650  -0.151  0.00  0.00     0.060 C 
BRANCH   7   8
ATOM      8  C2' I4B d   1       1.415   0.380   0.812  0.00  0.00    -0.013 C 
ATOM      9  C4' I4B d   1       2.081  -0.937   0.513  0.00  0.00     0.013 C 
ATOM     10  C3' I4B d   1       2.389   1.516   0.707  0.00  0.00     0.013 C 
ENDBRANCH   7   8
ENDBRANCH   1   7
TORSDOF 2
ENDMDL
