MODEL 1
REMARK minimizedAffinity -1.10092092
REMARK minimizedRMSD -1
REMARK  2 active torsions:
REMARK  status: ('A' for Active; 'I' for Inactive)
REMARK    1  A    between atoms: C2'_3  and  C1'_4 
REMARK    2  A    between atoms: C1'_4  and  C1_5 
ROOT
ATOM      1  C1  I4B d   1      -1.717  -1.180  -0.615  0.00  0.00    -0.075 A 
ATOM      2  C2  I4B d   1      -2.182  -0.384  -1.632  0.00  0.00     0.003 A 
ATOM      3  C3  I4B d   1      -1.489   0.799  -1.985  0.00  0.00     0.002 A 
ATOM      4  C4  I4B d   1      -0.372   1.172  -1.267  0.00  0.00    -0.004 A 
ATOM      5  C5  I4B d   1       0.111   0.353  -0.251  0.00  0.00     0.002 A 
ATOM      6  C6  I4B d   1      -0.558  -0.837   0.069  0.00  0.00     0.003 A 
ENDROOT
BRANCH   1   7
ATOM      7  C1' I4B d   1      -2.492  -2.405  -0.247  0.00  0.00     0.060 C 
BRANCH   7   8
ATOM      8  C2' I4B d   1      -1.511  -3.442   0.263  0.00  0.00    -0.013 C 
ATOM      9  C4' I4B d   1      -1.514  -3.502   1.768  0.00  0.00     0.013 C 
ATOM     10  C3' I4B d   1      -1.887  -4.766  -0.332  0.00  0.00     0.013 C 
ENDBRANCH   7   8
ENDBRANCH   1   7
TORSDOF 2
ENDMDL
