MODEL 1
REMARK minimizedAffinity -0.922917008
REMARK minimizedRMSD -1
REMARK  2 active torsions:
REMARK  status: ('A' for Active; 'I' for Inactive)
REMARK    1  A    between atoms: C2'_3  and  C1'_4 
REMARK    2  A    between atoms: C1'_4  and  C1_5 
ROOT
ATOM      1  C1  I4B d   1       0.420   1.221   0.377  0.00  0.00    -0.075 A 
ATOM      2  C2  I4B d   1      -0.838   1.645   0.029  0.00  0.00     0.003 A 
ATOM      3  C3  I4B d   1      -1.498   1.077  -1.087  0.00  0.00     0.002 A 
ATOM      4  C4  I4B d   1      -0.848   0.130  -1.851  0.00  0.00    -0.004 A 
ATOM      5  C5  I4B d   1       0.419  -0.315  -1.484  0.00  0.00     0.002 A 
ATOM      6  C6  I4B d   1       1.052   0.225  -0.355  0.00  0.00     0.003 A 
ENDROOT
BRANCH   1   7
ATOM      7  C1' I4B d   1       1.102   1.867   1.542  0.00  0.00     0.060 C 
BRANCH   7   8
ATOM      8  C2' I4B d   1       2.515   2.216   1.121  0.00  0.00    -0.013 C 
ATOM      9  C4' I4B d   1       2.735   3.706   1.133  0.00  0.00     0.013 C 
ATOM     10  C3' I4B d   1       3.461   1.522   2.055  0.00  0.00     0.013 C 
ENDBRANCH   7   8
ENDBRANCH   1   7
TORSDOF 2
ENDMDL
