MODEL 1
REMARK minimizedAffinity -3.78125405
REMARK minimizedRMSD -1
REMARK  2 active torsions:
REMARK  status: ('A' for Active; 'I' for Inactive)
REMARK    1  A    between atoms: C2'_3  and  C1'_4 
REMARK    2  A    between atoms: C1'_4  and  C1_5 
ROOT
ATOM      1  C1  I4B d   1       1.765   0.185   0.365  0.00  0.00    -0.075 A 
ATOM      2  C2  I4B d   1       2.106  -0.970   1.023  0.00  0.00     0.003 A 
ATOM      3  C3  I4B d   1       1.171  -2.028   1.138  0.00  0.00     0.002 A 
ATOM      4  C4  I4B d   1      -0.101  -1.869   0.628  0.00  0.00    -0.004 A 
ATOM      5  C5  I4B d   1      -0.437  -0.706  -0.060  0.00  0.00     0.002 A 
ATOM      6  C6  I4B d   1       0.505   0.322  -0.203  0.00  0.00     0.003 A 
ENDROOT
BRANCH   1   7
ATOM      7  C1' I4B d   1       2.765   1.294   0.290  0.00  0.00     0.060 C 
BRANCH   7   8
ATOM      8  C2' I4B d   1       2.245   2.449   1.122  0.00  0.00    -0.013 C 
ATOM      9  C4' I4B d   1       2.974   2.547   2.436  0.00  0.00     0.013 C 
ATOM     10  C3' I4B d   1       2.403   3.706   0.319  0.00  0.00     0.013 C 
ENDBRANCH   7   8
ENDBRANCH   1   7
TORSDOF 2
ENDMDL
