MODEL 1
REMARK minimizedAffinity -2.95041156
REMARK minimizedRMSD -1
REMARK  2 active torsions:
REMARK  status: ('A' for Active; 'I' for Inactive)
REMARK    1  A    between atoms: C2'_3  and  C1'_4 
REMARK    2  A    between atoms: C1'_4  and  C1_5 
ROOT
ATOM      1  C1  I4B d   1       0.544   0.456   0.642  0.00  0.00    -0.075 A 
ATOM      2  C2  I4B d   1       0.016   1.671   1.000  0.00  0.00     0.003 A 
ATOM      3  C3  I4B d   1       0.853   2.686   1.523  0.00  0.00     0.002 A 
ATOM      4  C4  I4B d   1       2.195   2.428   1.716  0.00  0.00    -0.004 A 
ATOM      5  C5  I4B d   1       2.733   1.203   1.330  0.00  0.00     0.002 A 
ATOM      6  C6  I4B d   1       1.905   0.215   0.778  0.00  0.00     0.003 A 
ENDROOT
BRANCH   1   7
ATOM      7  C1' I4B d   1      -0.375  -0.605   0.124  0.00  0.00     0.060 C 
BRANCH   7   8
ATOM      8  C2' I4B d   1      -1.072  -0.059  -1.105  0.00  0.00    -0.013 C 
ATOM      9  C4' I4B d   1      -0.147  -0.041  -2.294  0.00  0.00     0.013 C 
ATOM     10  C3' I4B d   1      -2.277  -0.912  -1.370  0.00  0.00     0.013 C 
ENDBRANCH   7   8
ENDBRANCH   1   7
TORSDOF 2
ENDMDL
