MODEL 1
REMARK minimizedAffinity -1.63474262
REMARK minimizedRMSD -1
REMARK  2 active torsions:
REMARK  status: ('A' for Active; 'I' for Inactive)
REMARK    1  A    between atoms: C2'_3  and  C1'_4 
REMARK    2  A    between atoms: C1'_4  and  C1_5 
ROOT
ATOM      1  C1  I4B d   1       1.210   0.494   0.611  0.00  0.00    -0.075 A 
ATOM      2  C2  I4B d   1       1.367  -0.760   1.146  0.00  0.00     0.003 A 
ATOM      3  C3  I4B d   1       0.233  -1.540   1.479  0.00  0.00     0.002 A 
ATOM      4  C4  I4B d   1      -1.030  -1.011   1.308  0.00  0.00    -0.004 A 
ATOM      5  C5  I4B d   1      -1.187   0.252   0.744  0.00  0.00     0.002 A 
ATOM      6  C6  I4B d   1      -0.061   1.005   0.381  0.00  0.00     0.003 A 
ENDROOT
BRANCH   1   7
ATOM      7  C1' I4B d   1       2.430   1.304   0.302  0.00  0.00     0.060 C 
BRANCH   7   8
ATOM      8  C2' I4B d   1       2.326   2.612   1.059  0.00  0.00    -0.013 C 
ATOM      9  C4' I4B d   1       2.991   2.517   2.406  0.00  0.00     0.013 C 
ATOM     10  C3' I4B d   1       2.954   3.684   0.219  0.00  0.00     0.013 C 
ENDBRANCH   7   8
ENDBRANCH   1   7
TORSDOF 2
ENDMDL
