MODEL 1
REMARK minimizedAffinity -2.71177459
REMARK minimizedRMSD -1
REMARK  2 active torsions:
REMARK  status: ('A' for Active; 'I' for Inactive)
REMARK    1  A    between atoms: C2'_3  and  C1'_4 
REMARK    2  A    between atoms: C1'_4  and  C1_5 
ROOT
ATOM      1  C1  I4B d   1       0.592   0.839  -0.418  0.00  0.00    -0.075 A 
ATOM      2  C2  I4B d   1       0.491  -0.506  -0.164  0.00  0.00     0.003 A 
ATOM      3  C3  I4B d   1      -0.728  -1.186  -0.402  0.00  0.00     0.002 A 
ATOM      4  C4  I4B d   1      -1.827  -0.478  -0.843  0.00  0.00    -0.004 A 
ATOM      5  C5  I4B d   1      -1.716   0.881  -1.122  0.00  0.00     0.002 A 
ATOM      6  C6  I4B d   1      -0.495   1.542  -0.920  0.00  0.00     0.003 A 
ENDROOT
BRANCH   1   7
ATOM      7  C1' I4B d   1       1.885   1.532  -0.124  0.00  0.00     0.060 C 
BRANCH   7   8
ATOM      8  C2' I4B d   1       1.595   2.677   0.826  0.00  0.00    -0.013 C 
ATOM      9  C4' I4B d   1       2.165   2.408   2.194  0.00  0.00     0.013 C 
ATOM     10  C3' I4B d   1       2.174   3.927   0.234  0.00  0.00     0.013 C 
ENDBRANCH   7   8
ENDBRANCH   1   7
TORSDOF 2
ENDMDL
