MODEL 1
REMARK minimizedAffinity -5.09989452
REMARK minimizedRMSD -1
REMARK  2 active torsions:
REMARK  status: ('A' for Active; 'I' for Inactive)
REMARK    1  A    between atoms: C2'_3  and  C1'_4 
REMARK    2  A    between atoms: C1'_4  and  C1_5 
ROOT
ATOM      1  C1  I4B d   1      -0.785   0.900   0.001  0.00  0.00    -0.075 A 
ATOM      2  C2  I4B d   1      -1.299   0.160   1.036  0.00  0.00     0.003 A 
ATOM      3  C3  I4B d   1      -2.259  -0.850   0.782  0.00  0.00     0.002 A 
ATOM      4  C4  I4B d   1      -2.712  -1.049  -0.507  0.00  0.00    -0.004 A 
ATOM      5  C5  I4B d   1      -2.172  -0.312  -1.558  0.00  0.00     0.002 A 
ATOM      6  C6  I4B d   1      -1.194   0.660  -1.304  0.00  0.00     0.003 A 
ENDROOT
BRANCH   1   7
ATOM      7  C1' I4B d   1       0.203   1.980   0.309  0.00  0.00     0.060 C 
BRANCH   7   8
ATOM      8  C2' I4B d   1       1.442   1.328   0.889  0.00  0.00    -0.013 C 
ATOM      9  C4' I4B d   1       1.994   0.282  -0.044  0.00  0.00     0.013 C 
ATOM     10  C3' I4B d   1       2.451   2.405   1.153  0.00  0.00     0.013 C 
ENDBRANCH   7   8
ENDBRANCH   1   7
TORSDOF 2
ENDMDL
