MODEL 1
REMARK minimizedAffinity -3.75575829
REMARK minimizedRMSD -1
REMARK  2 active torsions:
REMARK  status: ('A' for Active; 'I' for Inactive)
REMARK    1  A    between atoms: C2'_3  and  C1'_4 
REMARK    2  A    between atoms: C1'_4  and  C1_5 
ROOT
ATOM      1  C1  I4B d   1      -0.320   0.022   0.324  0.00  0.00    -0.075 A 
ATOM      2  C2  I4B d   1      -0.703  -0.562  -0.858  0.00  0.00     0.003 A 
ATOM      3  C3  I4B d   1      -2.074  -0.783  -1.132  0.00  0.00     0.002 A 
ATOM      4  C4  I4B d   1      -3.019  -0.452  -0.183  0.00  0.00    -0.004 A 
ATOM      5  C5  I4B d   1      -2.631   0.161   1.005  0.00  0.00     0.002 A 
ATOM      6  C6  I4B d   1      -1.274   0.411   1.255  0.00  0.00     0.003 A 
ENDROOT
BRANCH   1   7
ATOM      7  C1' I4B d   1       1.139   0.210   0.596  0.00  0.00     0.060 C 
BRANCH   7   8
ATOM      8  C2' I4B d   1       1.354   1.651   1.013  0.00  0.00    -0.013 C 
ATOM      9  C4' I4B d   1       1.710   1.748   2.473  0.00  0.00     0.013 C 
ATOM     10  C3' I4B d   1       2.439   2.225   0.152  0.00  0.00     0.013 C 
ENDBRANCH   7   8
ENDBRANCH   1   7
TORSDOF 2
ENDMDL
