MODEL 1
REMARK minimizedAffinity 0.737383842
REMARK minimizedRMSD -1
REMARK  2 active torsions:
REMARK  status: ('A' for Active; 'I' for Inactive)
REMARK    1  A    between atoms: C2'_3  and  C1'_4 
REMARK    2  A    between atoms: C1'_4  and  C1_5 
ROOT
ATOM      1  C1  I4B d   1       0.874   0.848  -0.705  0.00  0.00    -0.075 A 
ATOM      2  C2  I4B d   1       0.595   0.547  -2.015  0.00  0.00     0.003 A 
ATOM      3  C3  I4B d   1      -0.688   0.072  -2.380  0.00  0.00     0.002 A 
ATOM      4  C4  I4B d   1      -1.640  -0.133  -1.402  0.00  0.00    -0.004 A 
ATOM      5  C5  I4B d   1      -1.363   0.195  -0.078  0.00  0.00     0.002 A 
ATOM      6  C6  I4B d   1      -0.102   0.700   0.272  0.00  0.00     0.003 A 
ENDROOT
BRANCH   1   7
ATOM      7  C1' I4B d   1       2.250   1.316  -0.350  0.00  0.00     0.060 C 
BRANCH   7   8
ATOM      8  C2' I4B d   1       2.113   2.483   0.606  0.00  0.00    -0.013 C 
ATOM      9  C4' I4B d   1       2.732   2.168   1.942  0.00  0.00     0.013 C 
ATOM     10  C3' I4B d   1       2.766   3.677  -0.025  0.00  0.00     0.013 C 
ENDBRANCH   7   8
ENDBRANCH   1   7
TORSDOF 2
ENDMDL
