MODEL 1
REMARK minimizedAffinity 7.7476964
REMARK minimizedRMSD -1
REMARK  0 active torsions:
REMARK  status: ('A' for Active; 'I' for Inactive)
ROOT
ATOM      1  C   UNL d   1      -0.181   0.685  -1.836  0.00  0.00     0.023 A 
ATOM      2  C1  UNL d   1      -0.935   1.378  -0.889  0.00  0.00     0.003 A 
ATOM      3  C2  UNL d   1      -0.688   1.193   0.473  0.00  0.00     0.048 A 
ATOM      4  C3  UNL d   1       0.315   0.316   0.881  0.00  0.00     0.023 A 
ATOM      5  C4  UNL d   1       1.073  -0.379  -0.063  0.00  0.00     0.048 A 
ATOM      6  C5  UNL d   1       0.822  -0.192  -1.424  0.00  0.00     0.003 A 
ATOM      7  I   UNL d   1       0.685   0.039   2.907  0.00  0.00    -0.146 I 
ENDROOT
TORSDOF 0
ENDMDL
