MODEL 1
REMARK minimizedAffinity 10.410368
REMARK minimizedRMSD -1
REMARK  0 active torsions:
REMARK  status: ('A' for Active; 'I' for Inactive)
ROOT
ATOM      1  C   UNL d   1      -2.785   0.705  -2.508  0.00  0.00     0.023 A 
ATOM      2  C1  UNL d   1      -2.340  -0.587  -2.788  0.00  0.00     0.003 A 
ATOM      3  C2  UNL d   1      -1.124  -1.036  -2.268  0.00  0.00     0.048 A 
ATOM      4  C3  UNL d   1      -0.360  -0.189  -1.466  0.00  0.00     0.023 A 
ATOM      5  C4  UNL d   1      -0.802   1.104  -1.182  0.00  0.00     0.048 A 
ATOM      6  C5  UNL d   1      -2.017   1.550  -1.705  0.00  0.00     0.003 A 
ATOM      7  I   UNL d   1       1.449  -0.856  -0.689  0.00  0.00    -0.146 I 
ENDROOT
TORSDOF 0
ENDMDL
