MODEL 1
REMARK minimizedAffinity 3.19668722
REMARK minimizedRMSD -1
REMARK  0 active torsions:
REMARK  status: ('A' for Active; 'I' for Inactive)
ROOT
ATOM      1  C   UNL d   1      -0.991   1.433  -1.265  0.00  0.00     0.023 A 
ATOM      2  C1  UNL d   1      -1.101   1.784   0.080  0.00  0.00     0.003 A 
ATOM      3  C2  UNL d   1      -0.244   1.217   1.025  0.00  0.00     0.048 A 
ATOM      4  C3  UNL d   1       0.723   0.298   0.617  0.00  0.00     0.023 A 
ATOM      5  C4  UNL d   1       0.838  -0.056  -0.728  0.00  0.00     0.048 A 
ATOM      6  C5  UNL d   1      -0.022   0.514  -1.669  0.00  0.00     0.003 A 
ATOM      7  I   UNL d   1       2.001  -0.548   2.021  0.00  0.00    -0.146 I 
ENDROOT
TORSDOF 0
ENDMDL
