MODEL 1
REMARK minimizedAffinity 8.57348442
REMARK minimizedRMSD -1
REMARK  0 active torsions:
REMARK  status: ('A' for Active; 'I' for Inactive)
ROOT
ATOM      1  C   UNL d   1      -0.550   1.181  -1.192  0.00  0.00     0.023 A 
ATOM      2  C1  UNL d   1      -0.883   2.139  -0.235  0.00  0.00     0.003 A 
ATOM      3  C2  UNL d   1      -0.284   2.106   1.026  0.00  0.00     0.048 A 
ATOM      4  C3  UNL d   1       0.649   1.113   1.322  0.00  0.00     0.023 A 
ATOM      5  C4  UNL d   1       0.986   0.153   0.367  0.00  0.00     0.048 A 
ATOM      6  C5  UNL d   1       0.383   0.189  -0.891  0.00  0.00     0.003 A 
ATOM      7  I   UNL d   1       1.543   1.063   3.198  0.00  0.00    -0.146 I 
ENDROOT
TORSDOF 0
ENDMDL
