MODEL 1
REMARK minimizedAffinity 9.07648373
REMARK minimizedRMSD -1
REMARK  0 active torsions:
REMARK  status: ('A' for Active; 'I' for Inactive)
ROOT
ATOM      1  C   UNL d   1      -5.996  -2.911   3.566  0.00  0.00     0.023 A 
ATOM      2  C1  UNL d   1      -5.998  -1.608   4.065  0.00  0.00     0.003 A 
ATOM      3  C2  UNL d   1      -5.994  -0.523   3.186  0.00  0.00     0.048 A 
ATOM      4  C3  UNL d   1      -5.990  -0.747   1.810  0.00  0.00     0.023 A 
ATOM      5  C4  UNL d   1      -5.989  -2.049   1.306  0.00  0.00     0.048 A 
ATOM      6  C5  UNL d   1      -5.992  -3.131   2.188  0.00  0.00     0.003 A 
ATOM      7  I   UNL d   1      -5.984   0.867   0.501  0.00  0.00    -0.146 I 
ENDROOT
TORSDOF 0
ENDMDL
