MODEL 1
REMARK minimizedAffinity 6.27595854
REMARK minimizedRMSD -1
REMARK  0 active torsions:
REMARK  status: ('A' for Active; 'I' for Inactive)
ROOT
ATOM      1  C   UNL d   1       0.855   0.654   1.482  0.00  0.00     0.023 A 
ATOM      2  C1  UNL d   1       1.757  -0.397   1.312  0.00  0.00     0.003 A 
ATOM      3  C2  UNL d   1       1.355  -1.565   0.660  0.00  0.00     0.048 A 
ATOM      4  C3  UNL d   1       0.051  -1.675   0.180  0.00  0.00     0.023 A 
ATOM      5  C4  UNL d   1      -0.855  -0.626   0.347  0.00  0.00     0.048 A 
ATOM      6  C5  UNL d   1      -0.449   0.539   1.001  0.00  0.00     0.003 A 
ATOM      7  I   UNL d   1      -0.549  -3.412  -0.791  0.00  0.00    -0.146 I 
ENDROOT
TORSDOF 0
ENDMDL
