MODEL 1
REMARK minimizedAffinity -2.3384831
REMARK minimizedRMSD -1
REMARK  0 active torsions:
REMARK  status: ('A' for Active; 'I' for Inactive)
ROOT
ATOM      1  C   UNL d   1       5.952   2.001  -5.997  0.00  0.00    -0.002 A 
ATOM      2  C1  UNL d   1       4.732   1.339  -6.000  0.00  0.00     0.010 A 
ATOM      3  C2  UNL d   1       3.535   2.058  -6.000  0.00  0.00     0.041 A 
ATOM      4  C3  UNL d   1       3.585   3.466  -5.999  0.00  0.00    -0.075 A 
ATOM      5  S   UNL d   1       2.247   4.553  -5.999  0.00  0.00     0.015 SA
ATOM      6  C4  UNL d   1       3.263   5.921  -5.996  0.00  0.00     0.022 A 
ATOM      7  C5  UNL d   1       4.594   5.575  -5.995  0.00  0.00     0.026 A 
ATOM      8  C6  UNL d   1       4.801   4.154  -5.996  0.00  0.00    -0.082 A 
ATOM      9  C7  UNL d   1       5.997   3.397  -5.995  0.00  0.00     0.045 A 
ENDROOT
TORSDOF 0
ENDMDL
