MODEL 1
REMARK minimizedAffinity -0.865721881
REMARK minimizedRMSD -1
REMARK  0 active torsions:
REMARK  status: ('A' for Active; 'I' for Inactive)
ROOT
ATOM      1  C   UNL d   1       1.136   3.207  -5.985  0.00  0.00    -0.002 A 
ATOM      2  C1  UNL d   1       1.703   1.941  -5.990  0.00  0.00     0.010 A 
ATOM      3  C2  UNL d   1       3.091   1.784  -5.995  0.00  0.00     0.041 A 
ATOM      4  C3  UNL d   1       3.907   2.932  -5.994  0.00  0.00    -0.075 A 
ATOM      5  S   UNL d   1       5.630   2.983  -5.999  0.00  0.00     0.015 SA
ATOM      6  C4  UNL d   1       5.654   4.687  -5.994  0.00  0.00     0.022 A 
ATOM      7  C5  UNL d   1       4.387   5.221  -5.989  0.00  0.00     0.026 A 
ATOM      8  C6  UNL d   1       3.359   4.218  -5.988  0.00  0.00    -0.082 A 
ATOM      9  C7  UNL d   1       1.949   4.344  -5.984  0.00  0.00     0.045 A 
ENDROOT
TORSDOF 0
ENDMDL
