MODEL 1
REMARK minimizedAffinity 13.0209894
REMARK minimizedRMSD -1
REMARK  0 active torsions:
REMARK  status: ('A' for Active; 'I' for Inactive)
ROOT
ATOM      1  C   UNL d   1       4.925  -3.871   5.965  0.00  0.00    -0.002 A 
ATOM      2  C1  UNL d   1       4.972  -5.257   5.995  0.00  0.00     0.010 A 
ATOM      3  C2  UNL d   1       5.007  -5.992   4.808  0.00  0.00     0.041 A 
ATOM      4  C3  UNL d   1       4.995  -5.304   3.579  0.00  0.00    -0.075 A 
ATOM      5  S   UNL d   1       5.033  -5.995   2.000  0.00  0.00     0.015 SA
ATOM      6  C4  UNL d   1       4.988  -4.466   1.249  0.00  0.00     0.022 A 
ATOM      7  C5  UNL d   1       4.944  -3.442   2.165  0.00  0.00     0.026 A 
ATOM      8  C6  UNL d   1       4.948  -3.908   3.524  0.00  0.00    -0.082 A 
ATOM      9  C7  UNL d   1       4.913  -3.191   4.744  0.00  0.00     0.045 A 
ENDROOT
TORSDOF 0
ENDMDL
