MODEL 1
REMARK minimizedAffinity 6.92596626
REMARK minimizedRMSD -1
REMARK  0 active torsions:
REMARK  status: ('A' for Active; 'I' for Inactive)
ROOT
ATOM      1  C   UNL d   1      -5.990   3.114  -5.424  0.00  0.00    -0.002 A 
ATOM      2  C1  UNL d   1      -6.000   1.737  -5.252  0.00  0.00     0.010 A 
ATOM      3  C2  UNL d   1      -5.101   1.124  -4.377  0.00  0.00     0.041 A 
ATOM      4  C3  UNL d   1      -4.186   1.926  -3.668  0.00  0.00    -0.075 A 
ATOM      5  S   UNL d   1      -2.994   1.394  -2.541  0.00  0.00     0.015 SA
ATOM      6  C4  UNL d   1      -2.444   2.983  -2.260  0.00  0.00     0.022 A 
ATOM      7  C5  UNL d   1      -3.141   3.908  -2.999  0.00  0.00     0.026 A 
ATOM      8  C6  UNL d   1      -4.157   3.315  -3.823  0.00  0.00    -0.082 A 
ATOM      9  C7  UNL d   1      -5.080   3.906  -4.719  0.00  0.00     0.045 A 
ENDROOT
TORSDOF 0
ENDMDL
