MODEL 1
REMARK minimizedAffinity 17.4242496
REMARK minimizedRMSD -1
REMARK  0 active torsions:
REMARK  status: ('A' for Active; 'I' for Inactive)
ROOT
ATOM      1  C   UNL d   1      -5.969   1.848   1.853  0.00  0.00    -0.002 A 
ATOM      2  C1  UNL d   1      -4.819   1.251   1.355  0.00  0.00     0.010 A 
ATOM      3  C2  UNL d   1      -3.679   1.132   2.152  0.00  0.00     0.041 A 
ATOM      4  C3  UNL d   1      -3.714   1.627   3.471  0.00  0.00    -0.075 A 
ATOM      5  S   UNL d   1      -2.437   1.590   4.629  0.00  0.00     0.015 SA
ATOM      6  C4  UNL d   1      -3.388   2.366   5.812  0.00  0.00     0.022 A 
ATOM      7  C5  UNL d   1      -4.651   2.653   5.351  0.00  0.00     0.026 A 
ATOM      8  C6  UNL d   1      -4.860   2.232   3.994  0.00  0.00    -0.082 A 
ATOM      9  C7  UNL d   1      -6.000   2.338   3.161  0.00  0.00     0.045 A 
ENDROOT
TORSDOF 0
ENDMDL
