MODEL 1
REMARK minimizedAffinity -4.89465284
REMARK minimizedRMSD -1
REMARK  3 active torsions:
REMARK  status: ('A' for Active; 'I' for Inactive)
REMARK    1  A    between atoms: C3'_2  and  C2'_3 
REMARK    2  A    between atoms: C2'_3  and  C1'_4 
REMARK    3  A    between atoms: C1'_4  and  C1_5 
ROOT
ATOM      1  C1  N4B d   1      -0.636  -1.037  -0.329  0.00  0.00    -0.075 A 
ATOM      2  C2  N4B d   1      -0.204  -0.987  -1.672  0.00  0.00     0.002 A 
ATOM      3  C3  N4B d   1      -0.390  -2.072  -2.494  0.00  0.00     0.002 A 
ATOM      4  C4  N4B d   1      -0.985  -3.219  -1.991  0.00  0.00    -0.004 A 
ATOM      5  C5  N4B d   1      -1.422  -3.250  -0.699  0.00  0.00     0.002 A 
ATOM      6  C6  N4B d   1      -1.245  -2.166   0.137  0.00  0.00     0.002 A 
ENDROOT
BRANCH   1   7
ATOM      7  C1' N4B d   1      -0.377   0.092   0.631  0.00  0.00     0.057 C 
BRANCH   7   8
ATOM      8  C2' N4B d   1       0.609   1.071  -0.001  0.00  0.00     0.009 C 
BRANCH   8   9
ATOM      9  C3' N4B d   1       0.451   2.475   0.556  0.00  0.00     0.004 C 
ATOM     10  C4' N4B d   1       1.765   3.171   0.757  0.00  0.00     0.003 C 
ENDBRANCH   8   9
ENDBRANCH   7   8
ENDBRANCH   1   7
TORSDOF 3
ENDMDL
