MODEL 1
REMARK minimizedAffinity -2.48698473
REMARK minimizedRMSD -1
REMARK  3 active torsions:
REMARK  status: ('A' for Active; 'I' for Inactive)
REMARK    1  A    between atoms: C3'_2  and  C2'_3 
REMARK    2  A    between atoms: C2'_3  and  C1'_4 
REMARK    3  A    between atoms: C1'_4  and  C1_5 
ROOT
ATOM      1  C1  N4B d   1      -0.019   0.673   0.341  0.00  0.00    -0.075 A 
ATOM      2  C2  N4B d   1      -0.264   0.729   1.731  0.00  0.00     0.002 A 
ATOM      3  C3  N4B d   1      -0.754  -0.374   2.387  0.00  0.00     0.002 A 
ATOM      4  C4  N4B d   1      -1.024  -1.532   1.674  0.00  0.00    -0.004 A 
ATOM      5  C5  N4B d   1      -0.761  -1.586   0.336  0.00  0.00     0.002 A 
ATOM      6  C6  N4B d   1      -0.264  -0.487  -0.335  0.00  0.00     0.002 A 
ENDROOT
BRANCH   1   7
ATOM      7  C1' N4B d   1       0.436   1.879  -0.434  0.00  0.00     0.057 C 
BRANCH   7   8
ATOM      8  C2' N4B d   1       0.694   3.029   0.535  0.00  0.00     0.009 C 
BRANCH   8   9
ATOM      9  C3' N4B d   1       2.152   3.456   0.533  0.00  0.00     0.004 C 
ATOM     10  C4' N4B d   1       2.942   2.824  -0.574  0.00  0.00     0.003 C 
ENDBRANCH   8   9
ENDBRANCH   7   8
ENDBRANCH   1   7
TORSDOF 3
ENDMDL
