MODEL 1
REMARK minimizedAffinity -2.20035291
REMARK minimizedRMSD -1
REMARK  3 active torsions:
REMARK  status: ('A' for Active; 'I' for Inactive)
REMARK    1  A    between atoms: C3'_2  and  C2'_3 
REMARK    2  A    between atoms: C2'_3  and  C1'_4 
REMARK    3  A    between atoms: C1'_4  and  C1_5 
ROOT
ATOM      1  C1  N4B d   1      -0.266   0.571   0.344  0.00  0.00    -0.075 A 
ATOM      2  C2  N4B d   1       0.127  -0.177  -0.788  0.00  0.00     0.002 A 
ATOM      3  C3  N4B d   1      -0.110  -1.529  -0.834  0.00  0.00     0.002 A 
ATOM      4  C4  N4B d   1      -0.718  -2.155   0.243  0.00  0.00    -0.004 A 
ATOM      5  C5  N4B d   1      -1.118  -1.422   1.321  0.00  0.00     0.002 A 
ATOM      6  C6  N4B d   1      -0.890  -0.062   1.380  0.00  0.00     0.002 A 
ENDROOT
BRANCH   1   7
ATOM      7  C1' N4B d   1       0.049   2.036   0.477  0.00  0.00     0.057 C 
BRANCH   7   8
ATOM      8  C2' N4B d   1       1.545   2.248   0.265  0.00  0.00     0.009 C 
BRANCH   8   9
ATOM      9  C3' N4B d   1       2.084   3.385   1.116  0.00  0.00     0.004 C 
ATOM     10  C4' N4B d   1       1.037   3.996   1.999  0.00  0.00     0.003 C 
ENDBRANCH   8   9
ENDBRANCH   7   8
ENDBRANCH   1   7
TORSDOF 3
ENDMDL
