MODEL 1
REMARK minimizedAffinity -4.90366173
REMARK minimizedRMSD -1
REMARK  3 active torsions:
REMARK  status: ('A' for Active; 'I' for Inactive)
REMARK    1  A    between atoms: C3'_2  and  C2'_3 
REMARK    2  A    between atoms: C2'_3  and  C1'_4 
REMARK    3  A    between atoms: C1'_4  and  C1_5 
ROOT
ATOM      1  C1  N4B d   1      -0.448   0.679   1.106  0.00  0.00    -0.075 A 
ATOM      2  C2  N4B d   1      -0.243  -0.101   2.265  0.00  0.00     0.002 A 
ATOM      3  C3  N4B d   1      -0.535  -1.443   2.250  0.00  0.00     0.002 A 
ATOM      4  C4  N4B d   1      -1.048  -2.020   1.098  0.00  0.00    -0.004 A 
ATOM      5  C5  N4B d   1      -1.219  -1.265  -0.025  0.00  0.00     0.002 A 
ATOM      6  C6  N4B d   1      -0.926   0.084  -0.025  0.00  0.00     0.002 A 
ENDROOT
BRANCH   1   7
ATOM      7  C1' N4B d   1      -0.224   2.167   1.101  0.00  0.00     0.057 C 
BRANCH   7   8
ATOM      8  C2' N4B d   1       0.656   2.537  -0.089  0.00  0.00     0.009 C 
BRANCH   8   9
ATOM      9  C3' N4B d   1       2.066   2.906   0.340  0.00  0.00     0.004 C 
ATOM     10  C4' N4B d   1       2.229   2.941   1.830  0.00  0.00     0.003 C 
ENDBRANCH   8   9
ENDBRANCH   7   8
ENDBRANCH   1   7
TORSDOF 3
ENDMDL
