MODEL 1
REMARK minimizedAffinity -3.75157499
REMARK minimizedRMSD -1
REMARK  3 active torsions:
REMARK  status: ('A' for Active; 'I' for Inactive)
REMARK    1  A    between atoms: C3'_2  and  C2'_3 
REMARK    2  A    between atoms: C2'_3  and  C1'_4 
REMARK    3  A    between atoms: C1'_4  and  C1_5 
ROOT
ATOM      1  C1  N4B d   1      -0.330  -0.582  -0.142  0.00  0.00    -0.075 A 
ATOM      2  C2  N4B d   1      -0.798  -1.744   0.510  0.00  0.00     0.002 A 
ATOM      3  C3  N4B d   1      -0.930  -2.918  -0.190  0.00  0.00     0.002 A 
ATOM      4  C4  N4B d   1      -0.620  -2.949  -1.542  0.00  0.00    -0.004 A 
ATOM      5  C5  N4B d   1      -0.144  -1.829  -2.158  0.00  0.00     0.002 A 
ATOM      6  C6  N4B d   1      -0.002  -0.643  -1.466  0.00  0.00     0.002 A 
ENDROOT
BRANCH   1   7
ATOM      7  C1' N4B d   1      -0.250   0.746   0.561  0.00  0.00     0.057 C 
BRANCH   7   8
ATOM      8  C2' N4B d   1       0.714   1.656  -0.195  0.00  0.00     0.009 C 
BRANCH   8   9
ATOM      9  C3' N4B d   1       0.883   3.000   0.492  0.00  0.00     0.004 C 
ATOM     10  C4' N4B d   1       2.319   3.416   0.610  0.00  0.00     0.003 C 
ENDBRANCH   8   9
ENDBRANCH   7   8
ENDBRANCH   1   7
TORSDOF 3
ENDMDL
