MODEL 1
REMARK minimizedAffinity -4.13562584
REMARK minimizedRMSD -1
REMARK  3 active torsions:
REMARK  status: ('A' for Active; 'I' for Inactive)
REMARK    1  A    between atoms: C3'_2  and  C2'_3 
REMARK    2  A    between atoms: C2'_3  and  C1'_4 
REMARK    3  A    between atoms: C1'_4  and  C1_5 
ROOT
ATOM      1  C1  N4B d   1      -0.119   0.272   0.149  0.00  0.00    -0.075 A 
ATOM      2  C2  N4B d   1       0.212  -0.508  -0.980  0.00  0.00     0.002 A 
ATOM      3  C3  N4B d   1      -0.134  -1.837  -1.022  0.00  0.00     0.002 A 
ATOM      4  C4  N4B d   1      -0.792  -2.408   0.057  0.00  0.00    -0.004 A 
ATOM      5  C5  N4B d   1      -1.130  -1.641   1.133  0.00  0.00     0.002 A 
ATOM      6  C6  N4B d   1      -0.792  -0.304   1.187  0.00  0.00     0.002 A 
ENDROOT
BRANCH   1   7
ATOM      7  C1' N4B d   1       0.314   1.707   0.277  0.00  0.00     0.057 C 
BRANCH   7   8
ATOM      8  C2' N4B d   1       1.785   1.823  -0.112  0.00  0.00     0.009 C 
BRANCH   8   9
ATOM      9  C3' N4B d   1       2.353   3.193   0.216  0.00  0.00     0.004 C 
ATOM     10  C4' N4B d   1       2.345   3.488   1.687  0.00  0.00     0.003 C 
ENDBRANCH   8   9
ENDBRANCH   7   8
ENDBRANCH   1   7
TORSDOF 3
ENDMDL
