MODEL 1
REMARK minimizedAffinity 0.610602558
REMARK minimizedRMSD -1
REMARK  3 active torsions:
REMARK  status: ('A' for Active; 'I' for Inactive)
REMARK    1  A    between atoms: C3'_2  and  C2'_3 
REMARK    2  A    between atoms: C2'_3  and  C1'_4 
REMARK    3  A    between atoms: C1'_4  and  C1_5 
ROOT
ATOM      1  C1  N4B d   1      -0.637  -1.049   0.476  0.00  0.00    -0.075 A 
ATOM      2  C2  N4B d   1       0.633  -0.810  -0.094  0.00  0.00     0.002 A 
ATOM      3  C3  N4B d   1       1.195   0.440  -0.019  0.00  0.00     0.002 A 
ATOM      4  C4  N4B d   1       0.501   1.468   0.602  0.00  0.00    -0.004 A 
ATOM      5  C5  N4B d   1      -0.714   1.224   1.172  0.00  0.00     0.002 A 
ATOM      6  C6  N4B d   1      -1.289  -0.029   1.107  0.00  0.00     0.002 A 
ENDROOT
BRANCH   1   7
ATOM      7  C1' N4B d   1      -1.330  -2.377   0.343  0.00  0.00     0.057 C 
BRANCH   7   8
ATOM      8  C2' N4B d   1      -0.517  -3.276  -0.583  0.00  0.00     0.009 C 
BRANCH   8   9
ATOM      9  C3' N4B d   1      -1.163  -3.417  -1.950  0.00  0.00     0.004 C 
ATOM     10  C4' N4B d   1      -0.277  -2.942  -3.063  0.00  0.00     0.003 C 
ENDBRANCH   8   9
ENDBRANCH   7   8
ENDBRANCH   1   7
TORSDOF 3
ENDMDL
