MODEL 1
REMARK minimizedAffinity -4.72434568
REMARK minimizedRMSD -1
REMARK  3 active torsions:
REMARK  status: ('A' for Active; 'I' for Inactive)
REMARK    1  A    between atoms: C3'_2  and  C2'_3 
REMARK    2  A    between atoms: C2'_3  and  C1'_4 
REMARK    3  A    between atoms: C1'_4  and  C1_5 
ROOT
ATOM      1  C1  N4B d   1      -0.391  -0.524   0.070  0.00  0.00    -0.075 A 
ATOM      2  C2  N4B d   1       0.085  -0.610  -1.257  0.00  0.00     0.002 A 
ATOM      3  C3  N4B d   1       0.067  -1.814  -1.916  0.00  0.00     0.002 A 
ATOM      4  C4  N4B d   1      -0.403  -2.945  -1.266  0.00  0.00    -0.004 A 
ATOM      5  C5  N4B d   1      -0.885  -2.849   0.007  0.00  0.00     0.002 A 
ATOM      6  C6  N4B d   1      -0.877  -1.644   0.680  0.00  0.00     0.002 A 
ENDROOT
BRANCH   1   7
ATOM      7  C1' N4B d   1      -0.312   0.753   0.861  0.00  0.00     0.057 C 
BRANCH   7   8
ATOM      8  C2' N4B d   1       0.524   1.770   0.089  0.00  0.00     0.009 C 
BRANCH   8   9
ATOM      9  C3' N4B d   1       0.452   3.154   0.710  0.00  0.00     0.004 C 
ATOM     10  C4' N4B d   1       1.805   3.758   0.943  0.00  0.00     0.003 C 
ENDBRANCH   8   9
ENDBRANCH   7   8
ENDBRANCH   1   7
TORSDOF 3
ENDMDL
