MODEL 1
REMARK minimizedAffinity -3.81246305
REMARK minimizedRMSD -1
REMARK  3 active torsions:
REMARK  status: ('A' for Active; 'I' for Inactive)
REMARK    1  A    between atoms: C3'_2  and  C2'_3 
REMARK    2  A    between atoms: C2'_3  and  C1'_4 
REMARK    3  A    between atoms: C1'_4  and  C1_5 
ROOT
ATOM      1  C1  N4B d   1      -0.011  -0.742  -0.272  0.00  0.00    -0.075 A 
ATOM      2  C2  N4B d   1       0.396  -0.853  -1.620  0.00  0.00     0.002 A 
ATOM      3  C3  N4B d   1       0.176  -2.020  -2.310  0.00  0.00     0.002 A 
ATOM      4  C4  N4B d   1      -0.430  -3.091  -1.670  0.00  0.00    -0.004 A 
ATOM      5  C5  N4B d   1      -0.843  -2.967  -0.376  0.00  0.00     0.002 A 
ATOM      6  C6  N4B d   1      -0.632  -1.799   0.328  0.00  0.00     0.002 A 
ENDROOT
BRANCH   1   7
ATOM      7  C1' N4B d   1       0.286   0.483   0.548  0.00  0.00     0.057 C 
BRANCH   7   8
ATOM      8  C2' N4B d   1       0.644   1.636  -0.385  0.00  0.00     0.009 C 
BRANCH   8   9
ATOM      9  C3' N4B d   1       1.993   2.246  -0.042  0.00  0.00     0.004 C 
ATOM     10  C4' N4B d   1       1.871   3.550   0.688  0.00  0.00     0.003 C 
ENDBRANCH   8   9
ENDBRANCH   7   8
ENDBRANCH   1   7
TORSDOF 3
ENDMDL
