MODEL 1
REMARK minimizedAffinity -5.18609333
REMARK minimizedRMSD -1
REMARK  1 active torsions:
REMARK  status: ('A' for Active; 'I' for Inactive)
REMARK    1  A    between atoms: C1_2  and  C2_3 
ROOT
ATOM      1  C2  UNL d   1      -0.041  -0.093  -0.651  0.00  0.00    -0.081 A 
ATOM      2  C3  UNL d   1      -1.332   0.123  -0.152  0.00  0.00     0.006 A 
ATOM      3  C4  UNL d   1      -1.519   0.586   1.152  0.00  0.00     0.002 A 
ATOM      4  C5  UNL d   1      -0.419   0.849   1.977  0.00  0.00    -0.080 A 
ATOM      5  C6  UNL d   1      -0.605   1.376   3.368  0.00  0.00     0.076 C 
ATOM      6  C7  UNL d   1       0.870   0.617   1.485  0.00  0.00     0.002 A 
ATOM      7  C8  UNL d   1       1.057   0.152   0.181  0.00  0.00     0.006 A 
ENDROOT
BRANCH   1   8
ATOM      8  C1  UNL d   1       0.166  -0.532  -2.078  0.00  0.00     0.054 C 
ATOM      9  C   UNL d   1       0.605   0.632  -2.956  0.00  0.00     0.018 C 
ENDBRANCH   1   8
TORSDOF 1
ENDMDL
