MODEL 1
REMARK minimizedAffinity -3.62165928
REMARK minimizedRMSD -1
REMARK  1 active torsions:
REMARK  status: ('A' for Active; 'I' for Inactive)
REMARK    1  A    between atoms: C1_2  and  C2_3 
ROOT
ATOM      1  C2  UNL d   1      -0.001  -0.181  -0.741  0.00  0.00    -0.081 A 
ATOM      2  C3  UNL d   1      -1.246   0.072  -0.152  0.00  0.00     0.006 A 
ATOM      3  C4  UNL d   1      -1.333   0.412   1.200  0.00  0.00     0.002 A 
ATOM      4  C5  UNL d   1      -0.178   0.512   1.983  0.00  0.00    -0.080 A 
ATOM      5  C6  UNL d   1      -0.256   0.905   3.429  0.00  0.00     0.076 C 
ATOM      6  C7  UNL d   1       1.064   0.242   1.399  0.00  0.00     0.002 A 
ATOM      7  C8  UNL d   1       1.152  -0.098   0.047  0.00  0.00     0.006 A 
ENDROOT
BRANCH   1   8
ATOM      8  C1  UNL d   1       0.102  -0.484  -2.214  0.00  0.00     0.054 C 
ATOM      9  C   UNL d   1       1.103   0.436  -2.899  0.00  0.00     0.018 C 
ENDBRANCH   1   8
TORSDOF 1
ENDMDL
