MODEL 1
REMARK minimizedAffinity -3.20066619
REMARK minimizedRMSD -1
REMARK  1 active torsions:
REMARK  status: ('A' for Active; 'I' for Inactive)
REMARK    1  A    between atoms: C1_2  and  C2_3 
ROOT
ATOM      1  C2  UNL d   1      -0.159  -0.122  -0.752  0.00  0.00    -0.081 A 
ATOM      2  C3  UNL d   1      -1.271  -0.547  -0.014  0.00  0.00     0.006 A 
ATOM      3  C4  UNL d   1      -1.403  -0.197   1.332  0.00  0.00     0.002 A 
ATOM      4  C5  UNL d   1      -0.430   0.589   1.960  0.00  0.00    -0.080 A 
ATOM      5  C6  UNL d   1      -0.574   0.996   3.396  0.00  0.00     0.076 C 
ATOM      6  C7  UNL d   1       0.689   0.998   1.228  0.00  0.00     0.002 A 
ATOM      7  C8  UNL d   1       0.822   0.648  -0.118  0.00  0.00     0.006 A 
ENDROOT
BRANCH   1   8
ATOM      8  C1  UNL d   1      -0.047  -0.443  -2.220  0.00  0.00     0.054 C 
ATOM      9  C   UNL d   1       0.636   0.684  -2.982  0.00  0.00     0.018 C 
ENDBRANCH   1   8
TORSDOF 1
ENDMDL
