MODEL 1
REMARK minimizedAffinity -1.96528423
REMARK minimizedRMSD -1
REMARK  1 active torsions:
REMARK  status: ('A' for Active; 'I' for Inactive)
REMARK    1  A    between atoms: C1_2  and  C2_3 
ROOT
ATOM      1  C2  UNL d   1       0.024  -0.413  -1.052  0.00  0.00    -0.081 A 
ATOM      2  C3  UNL d   1      -1.174   0.116  -0.557  0.00  0.00     0.006 A 
ATOM      3  C4  UNL d   1      -1.339   0.332   0.813  0.00  0.00     0.002 A 
ATOM      4  C5  UNL d   1      -0.308   0.030   1.709  0.00  0.00    -0.080 A 
ATOM      5  C6  UNL d   1      -0.462   0.286   3.179  0.00  0.00     0.076 C 
ATOM      6  C7  UNL d   1       0.882  -0.515   1.216  0.00  0.00     0.002 A 
ATOM      7  C8  UNL d   1       1.048  -0.732  -0.153  0.00  0.00     0.006 A 
ENDROOT
BRANCH   1   8
ATOM      8  C1  UNL d   1       0.230  -0.587  -2.535  0.00  0.00     0.054 C 
ATOM      9  C   UNL d   1       1.222   0.431  -3.079  0.00  0.00     0.018 C 
ENDBRANCH   1   8
TORSDOF 1
ENDMDL
