MODEL 1
REMARK minimizedAffinity -4.12850094
REMARK minimizedRMSD -1
REMARK  1 active torsions:
REMARK  status: ('A' for Active; 'I' for Inactive)
REMARK    1  A    between atoms: C1_2  and  C2_3 
ROOT
ATOM      1  C2  UNL d   1      -0.354   0.072   0.443  0.00  0.00    -0.081 A 
ATOM      2  C3  UNL d   1       0.150  -1.089  -0.158  0.00  0.00     0.006 A 
ATOM      3  C4  UNL d   1       0.598  -1.065  -1.481  0.00  0.00     0.002 A 
ATOM      4  C5  UNL d   1       0.557   0.121  -2.222  0.00  0.00    -0.080 A 
ATOM      5  C6  UNL d   1       1.063   0.168  -3.633  0.00  0.00     0.076 C 
ATOM      6  C7  UNL d   1       0.037   1.276  -1.628  0.00  0.00     0.002 A 
ATOM      7  C8  UNL d   1      -0.411   1.252  -0.306  0.00  0.00     0.006 A 
ENDROOT
BRANCH   1   8
ATOM      8  C1  UNL d   1      -0.777   0.064   1.889  0.00  0.00     0.054 C 
ATOM      9  C   UNL d   1       0.417  -0.118   2.815  0.00  0.00     0.018 C 
ENDBRANCH   1   8
TORSDOF 1
ENDMDL
