MODEL 1
REMARK minimizedAffinity -3.60333633
REMARK minimizedRMSD -1
REMARK  1 active torsions:
REMARK  status: ('A' for Active; 'I' for Inactive)
REMARK    1  A    between atoms: C1_2  and  C2_3 
ROOT
ATOM      1  C2  UNL d   1      -0.391  -0.367   0.145  0.00  0.00    -0.081 A 
ATOM      2  C3  UNL d   1      -1.440   0.144   0.919  0.00  0.00     0.006 A 
ATOM      3  C4  UNL d   1      -1.198   0.634   2.204  0.00  0.00     0.002 A 
ATOM      4  C5  UNL d   1       0.097   0.629   2.734  0.00  0.00    -0.080 A 
ATOM      5  C6  UNL d   1       0.375   1.180   4.101  0.00  0.00     0.076 C 
ATOM      6  C7  UNL d   1       1.142   0.102   1.968  0.00  0.00     0.002 A 
ATOM      7  C8  UNL d   1       0.901  -0.389   0.683  0.00  0.00     0.006 A 
ENDROOT
BRANCH   1   8
ATOM      8  C1  UNL d   1      -0.637  -0.837  -1.266  0.00  0.00     0.054 C 
ATOM      9  C   UNL d   1       0.364  -0.226  -2.236  0.00  0.00     0.018 C 
ENDBRANCH   1   8
TORSDOF 1
ENDMDL
