MODEL 1
REMARK minimizedAffinity -3.77594733
REMARK minimizedRMSD -1
REMARK  1 active torsions:
REMARK  status: ('A' for Active; 'I' for Inactive)
REMARK    1  A    between atoms: C1_2  and  C2_3 
ROOT
ATOM      1  C2  UNL d   1       5.236   4.619   3.523  0.00  0.00    -0.081 A 
ATOM      2  C3  UNL d   1       4.895   3.488   2.771  0.00  0.00     0.006 A 
ATOM      3  C4  UNL d   1       4.930   2.217   3.349  0.00  0.00     0.002 A 
ATOM      4  C5  UNL d   1       5.298   2.056   4.689  0.00  0.00    -0.080 A 
ATOM      5  C6  UNL d   1       5.310   0.700   5.330  0.00  0.00     0.076 C 
ATOM      6  C7  UNL d   1       5.655   3.184   5.435  0.00  0.00     0.002 A 
ATOM      7  C8  UNL d   1       5.622   4.455   4.858  0.00  0.00     0.006 A 
ENDROOT
BRANCH   1   8
ATOM      8  C1  UNL d   1       5.137   5.998   2.921  0.00  0.00     0.054 C 
ATOM      9  C   UNL d   1       4.497   5.955   1.541  0.00  0.00     0.018 C 
ENDBRANCH   1   8
TORSDOF 1
ENDMDL
