MODEL 1
REMARK minimizedAffinity 4.49835777
REMARK minimizedRMSD -1
REMARK  0 active torsions:
REMARK  status: ('A' for Active; 'I' for Inactive)
ROOT
ATOM      1  C   UNL d   1       4.376   3.312  -2.676  0.00  0.00     0.124 A 
ATOM      2  C1  UNL d   1       3.050   3.594  -2.974  0.00  0.00     0.062 A 
ATOM      3  C2  UNL d   1       2.065   2.635  -2.758  0.00  0.00     0.162 A 
ATOM      4  C3  UNL d   1       2.401   1.385  -2.240  0.00  0.00    -0.034 A 
ATOM      5  C4  UNL d   1       3.737   1.108  -1.943  0.00  0.00     0.162 A 
ATOM      6  C5  UNL d   1       4.718   2.070  -2.161  0.00  0.00     0.062 A 
ATOM      7  F   UNL d   1       5.999   1.795  -1.872  0.00  0.00    -0.097 F 
ATOM      8  F1  UNL d   1       4.095  -0.084  -1.444  0.00  0.00    -0.096 F 
ATOM      9  I   UNL d   1       0.931  -0.052  -1.916  0.00  0.00    -0.060 I 
ATOM     10  F2  UNL d   1       0.792   2.936  -3.056  0.00  0.00    -0.096 F 
ATOM     11  F3  UNL d   1       2.718   4.794  -3.473  0.00  0.00    -0.097 F 
ATOM     12  F4  UNL d   1       5.323   4.236  -2.885  0.00  0.00    -0.092 F 
ENDROOT
TORSDOF 0
ENDMDL
