MODEL 1
REMARK minimizedAffinity 17.8955383
REMARK minimizedRMSD -1
REMARK  0 active torsions:
REMARK  status: ('A' for Active; 'I' for Inactive)
ROOT
ATOM      1  C   UNL d   1      -1.197  -3.312  -0.082  0.00  0.00     0.124 A 
ATOM      2  C1  UNL d   1      -0.649  -2.049   0.094  0.00  0.00     0.062 A 
ATOM      3  C2  UNL d   1       0.600  -1.905   0.691  0.00  0.00     0.162 A 
ATOM      4  C3  UNL d   1       1.311  -3.028   1.116  0.00  0.00    -0.034 A 
ATOM      5  C4  UNL d   1       0.753  -4.295   0.936  0.00  0.00     0.162 A 
ATOM      6  C5  UNL d   1      -0.496  -4.433   0.339  0.00  0.00     0.062 A 
ATOM      7  F   UNL d   1      -1.024  -5.654   0.170  0.00  0.00    -0.097 F 
ATOM      8  F1  UNL d   1       1.409  -5.395   1.333  0.00  0.00    -0.096 F 
ATOM      9  I   UNL d   1       3.179  -2.817   2.010  0.00  0.00    -0.060 I 
ATOM     10  F2  UNL d   1       1.106  -0.673   0.849  0.00  0.00    -0.096 F 
ATOM     11  F3  UNL d   1      -1.324  -0.964  -0.311  0.00  0.00    -0.097 F 
ATOM     12  F4  UNL d   1      -2.399  -3.448  -0.656  0.00  0.00    -0.092 F 
ENDROOT
TORSDOF 0
ENDMDL
