MODEL 1
REMARK minimizedAffinity 17.666687
REMARK minimizedRMSD -1
REMARK  0 active torsions:
REMARK  status: ('A' for Active; 'I' for Inactive)
ROOT
ATOM      1  C   UNL d   1       5.977  -0.384  -4.713  0.00  0.00     0.124 A 
ATOM      2  C1  UNL d   1       5.987   1.002  -4.798  0.00  0.00     0.062 A 
ATOM      3  C2  UNL d   1       5.985   1.774  -3.640  0.00  0.00     0.162 A 
ATOM      4  C3  UNL d   1       5.974   1.163  -2.387  0.00  0.00    -0.034 A 
ATOM      5  C4  UNL d   1       5.963  -0.231  -2.309  0.00  0.00     0.162 A 
ATOM      6  C5  UNL d   1       5.966  -0.999  -3.469  0.00  0.00     0.062 A 
ATOM      7  F   UNL d   1       5.956  -2.337  -3.385  0.00  0.00    -0.097 F 
ATOM      8  F1  UNL d   1       5.953  -0.852  -1.120  0.00  0.00    -0.096 F 
ATOM      9  I   UNL d   1       5.971   2.314  -0.653  0.00  0.00    -0.060 I 
ATOM     10  F2  UNL d   1       5.995   3.111  -3.752  0.00  0.00    -0.096 F 
ATOM     11  F3  UNL d   1       5.998   1.598  -5.999  0.00  0.00    -0.097 F 
ATOM     12  F4  UNL d   1       5.978  -1.124  -5.829  0.00  0.00    -0.092 F 
ENDROOT
TORSDOF 0
ENDMDL
