MODEL 1
REMARK minimizedAffinity 13.1883268
REMARK minimizedRMSD -1
REMARK  0 active torsions:
REMARK  status: ('A' for Active; 'I' for Inactive)
ROOT
ATOM      1  C   UNL d   1      -1.068  -1.834  -0.392  0.00  0.00     0.124 A 
ATOM      2  C1  UNL d   1       0.223  -1.791   0.114  0.00  0.00     0.062 A 
ATOM      3  C2  UNL d   1       0.977  -0.626   0.013  0.00  0.00     0.162 A 
ATOM      4  C3  UNL d   1       0.441   0.508  -0.597  0.00  0.00    -0.034 A 
ATOM      5  C4  UNL d   1      -0.858   0.458  -1.105  0.00  0.00     0.162 A 
ATOM      6  C5  UNL d   1      -1.608  -0.710  -1.001  0.00  0.00     0.062 A 
ATOM      7  F   UNL d   1      -2.855  -0.749  -1.491  0.00  0.00    -0.097 F 
ATOM      8  F1  UNL d   1      -1.405   1.530  -1.698  0.00  0.00    -0.096 F 
ATOM      9  I   UNL d   1       1.565   2.253  -0.751  0.00  0.00    -0.060 I 
ATOM     10  F2  UNL d   1       2.223  -0.613   0.511  0.00  0.00    -0.096 F 
ATOM     11  F3  UNL d   1       0.747  -2.876   0.703  0.00  0.00    -0.097 F 
ATOM     12  F4  UNL d   1      -1.791  -2.957  -0.294  0.00  0.00    -0.092 F 
ENDROOT
TORSDOF 0
ENDMDL
