MODEL 1
REMARK minimizedAffinity 20.4765053
REMARK minimizedRMSD -1
REMARK  0 active torsions:
REMARK  status: ('A' for Active; 'I' for Inactive)
ROOT
ATOM      1  C   UNL d   1       4.825  -0.831  -5.905  0.00  0.00     0.124 A 
ATOM      2  C1  UNL d   1       3.634  -0.119  -5.939  0.00  0.00     0.062 A 
ATOM      3  C2  UNL d   1       2.415  -0.791  -5.913  0.00  0.00     0.162 A 
ATOM      4  C3  UNL d   1       2.381  -2.184  -5.852  0.00  0.00    -0.034 A 
ATOM      5  C4  UNL d   1       3.583  -2.894  -5.819  0.00  0.00     0.162 A 
ATOM      6  C5  UNL d   1       4.798  -2.217  -5.845  0.00  0.00     0.062 A 
ATOM      7  F   UNL d   1       5.948  -2.907  -5.813  0.00  0.00    -0.097 F 
ATOM      8  F1  UNL d   1       3.586  -4.234  -5.760  0.00  0.00    -0.096 F 
ATOM      9  I   UNL d   1       0.561  -3.193  -5.813  0.00  0.00    -0.060 I 
ATOM     10  F2  UNL d   1       1.280  -0.077  -5.947  0.00  0.00    -0.096 F 
ATOM     11  F3  UNL d   1       3.657   1.220  -5.998  0.00  0.00    -0.097 F 
ATOM     12  F4  UNL d   1       5.996  -0.182  -5.932  0.00  0.00    -0.092 F 
ENDROOT
TORSDOF 0
ENDMDL
