MODEL 1
REMARK minimizedAffinity 24.6371193
REMARK minimizedRMSD -1
REMARK  0 active torsions:
REMARK  status: ('A' for Active; 'I' for Inactive)
ROOT
ATOM      1  C   UNL d   1      -0.367  -2.668   0.945  0.00  0.00     0.124 A 
ATOM      2  C1  UNL d   1       0.992  -2.882   0.760  0.00  0.00     0.062 A 
ATOM      3  C2  UNL d   1       1.915  -2.325   1.640  0.00  0.00     0.162 A 
ATOM      4  C3  UNL d   1       1.482  -1.548   2.715  0.00  0.00    -0.034 A 
ATOM      5  C4  UNL d   1       0.114  -1.336   2.894  0.00  0.00     0.162 A 
ATOM      6  C5  UNL d   1      -0.804  -1.895   2.011  0.00  0.00     0.062 A 
ATOM      7  F   UNL d   1      -2.117  -1.687   2.191  0.00  0.00    -0.097 F 
ATOM      8  F1  UNL d   1      -0.337  -0.594   3.916  0.00  0.00    -0.096 F 
ATOM      9  I   UNL d   1       2.859  -0.712   4.033  0.00  0.00    -0.060 I 
ATOM     10  F2  UNL d   1       3.222  -2.548   1.437  0.00  0.00    -0.096 F 
ATOM     11  F3  UNL d   1       1.418  -3.628  -0.270  0.00  0.00    -0.097 F 
ATOM     12  F4  UNL d   1      -1.252  -3.205   0.096  0.00  0.00    -0.092 F 
ENDROOT
TORSDOF 0
ENDMDL
