MODEL 1
REMARK minimizedAffinity 13.0875607
REMARK minimizedRMSD -1
REMARK  0 active torsions:
REMARK  status: ('A' for Active; 'I' for Inactive)
ROOT
ATOM      1  C   UNL d   1       5.656   1.132  -2.362  0.00  0.00     0.124 A 
ATOM      2  C1  UNL d   1       5.651  -0.228  -2.087  0.00  0.00     0.062 A 
ATOM      3  C2  UNL d   1       5.748  -1.152  -3.124  0.00  0.00     0.162 A 
ATOM      4  C3  UNL d   1       5.853  -0.718  -4.445  0.00  0.00    -0.034 A 
ATOM      5  C4  UNL d   1       5.857   0.652  -4.714  0.00  0.00     0.162 A 
ATOM      6  C5  UNL d   1       5.760   1.571  -3.674  0.00  0.00     0.062 A 
ATOM      7  F   UNL d   1       5.766   2.885  -3.942  0.00  0.00    -0.097 F 
ATOM      8  F1  UNL d   1       5.957   1.103  -5.973  0.00  0.00    -0.096 F 
ATOM      9  I   UNL d   1       5.999  -2.096  -5.998  0.00  0.00    -0.060 I 
ATOM     10  F2  UNL d   1       5.740  -2.461  -2.829  0.00  0.00    -0.096 F 
ATOM     11  F3  UNL d   1       5.550  -0.655  -0.820  0.00  0.00    -0.097 F 
ATOM     12  F4  UNL d   1       5.562   2.019  -1.363  0.00  0.00    -0.092 F 
ENDROOT
TORSDOF 0
ENDMDL
