MODEL 1
REMARK minimizedAffinity 25.3278446
REMARK minimizedRMSD -1
REMARK  0 active torsions:
REMARK  status: ('A' for Active; 'I' for Inactive)
ROOT
ATOM      1  C   UNL d   1       3.213   3.419  -2.388  0.00  0.00     0.124 A 
ATOM      2  C1  UNL d   1       1.902   3.152  -2.021  0.00  0.00     0.062 A 
ATOM      3  C2  UNL d   1       0.921   2.988  -2.995  0.00  0.00     0.162 A 
ATOM      4  C3  UNL d   1       1.248   3.089  -4.347  0.00  0.00    -0.034 A 
ATOM      5  C4  UNL d   1       2.569   3.358  -4.709  0.00  0.00     0.162 A 
ATOM      6  C5  UNL d   1       3.546   3.521  -3.732  0.00  0.00     0.062 A 
ATOM      7  F   UNL d   1       4.812   3.779  -4.089  0.00  0.00    -0.097 F 
ATOM      8  F1  UNL d   1       2.919   3.462  -6.000  0.00  0.00    -0.096 F 
ATOM      9  I   UNL d   1      -0.215   2.844  -5.806  0.00  0.00    -0.060 I 
ATOM     10  F2  UNL d   1      -0.338   2.731  -2.610  0.00  0.00    -0.096 F 
ATOM     11  F3  UNL d   1       1.578   3.053  -0.723  0.00  0.00    -0.097 F 
ATOM     12  F4  UNL d   1       4.155   3.577  -1.449  0.00  0.00    -0.092 F 
ENDROOT
TORSDOF 0
ENDMDL
