MODEL 1
REMARK minimizedAffinity 15.5814857
REMARK minimizedRMSD -1
REMARK  0 active torsions:
REMARK  status: ('A' for Active; 'I' for Inactive)
ROOT
ATOM      1  C   UNL d   1       1.756  -2.374   0.457  0.00  0.00     0.124 A 
ATOM      2  C1  UNL d   1       0.392  -2.202   0.265  0.00  0.00     0.062 A 
ATOM      3  C2  UNL d   1      -0.492  -3.236   0.559  0.00  0.00     0.162 A 
ATOM      4  C3  UNL d   1      -0.015  -4.452   1.049  0.00  0.00    -0.034 A 
ATOM      5  C4  UNL d   1       1.358  -4.618   1.238  0.00  0.00     0.162 A 
ATOM      6  C5  UNL d   1       2.238  -3.581   0.943  0.00  0.00     0.062 A 
ATOM      7  F   UNL d   1       3.555  -3.750   1.128  0.00  0.00    -0.097 F 
ATOM      8  F1  UNL d   1       1.850  -5.774   1.707  0.00  0.00    -0.096 F 
ATOM      9  I   UNL d   1      -1.334  -6.000   1.490  0.00  0.00    -0.060 I 
ATOM     10  F2  UNL d   1      -1.805  -3.041   0.365  0.00  0.00    -0.096 F 
ATOM     11  F3  UNL d   1      -0.075  -1.036  -0.205  0.00  0.00    -0.097 F 
ATOM     12  F4  UNL d   1       2.605  -1.378   0.172  0.00  0.00    -0.092 F 
ENDROOT
TORSDOF 0
ENDMDL
