MODEL 1
REMARK minimizedAffinity 6.39436436
REMARK minimizedRMSD -1
REMARK  0 active torsions:
REMARK  status: ('A' for Active; 'I' for Inactive)
ROOT
ATOM      1  C   UNL d   1       1.156  -1.605  -2.126  0.00  0.00     0.124 A 
ATOM      2  C1  UNL d   1       1.099  -0.532  -3.005  0.00  0.00     0.062 A 
ATOM      3  C2  UNL d   1       0.987   0.767  -2.518  0.00  0.00     0.162 A 
ATOM      4  C3  UNL d   1       0.932   1.001  -1.144  0.00  0.00    -0.034 A 
ATOM      5  C4  UNL d   1       0.989  -0.083  -0.266  0.00  0.00     0.162 A 
ATOM      6  C5  UNL d   1       1.101  -1.379  -0.758  0.00  0.00     0.062 A 
ATOM      7  F   UNL d   1       1.156  -2.414   0.093  0.00  0.00    -0.097 F 
ATOM      8  F1  UNL d   1       0.939   0.106   1.060  0.00  0.00    -0.096 F 
ATOM      9  I   UNL d   1       0.764   2.942  -0.412  0.00  0.00    -0.060 I 
ATOM     10  F2  UNL d   1       0.934   1.784  -3.391  0.00  0.00    -0.096 F 
ATOM     11  F3  UNL d   1       1.151  -0.747  -4.328  0.00  0.00    -0.097 F 
ATOM     12  F4  UNL d   1       1.263  -2.854  -2.598  0.00  0.00    -0.092 F 
ENDROOT
TORSDOF 0
ENDMDL
