MODEL 1
REMARK minimizedAffinity 23.653368
REMARK minimizedRMSD -1
REMARK  0 active torsions:
REMARK  status: ('A' for Active; 'I' for Inactive)
ROOT
ATOM      1  C   UNL d   1       1.144   1.771  -3.382  0.00  0.00     0.124 A 
ATOM      2  C1  UNL d   1       0.695   0.497  -3.702  0.00  0.00     0.062 A 
ATOM      3  C2  UNL d   1       0.313  -0.384  -2.695  0.00  0.00     0.162 A 
ATOM      4  C3  UNL d   1       0.377   0.005  -1.357  0.00  0.00    -0.034 A 
ATOM      5  C4  UNL d   1       0.830   1.288  -1.043  0.00  0.00     0.162 A 
ATOM      6  C5  UNL d   1       1.211   2.165  -2.053  0.00  0.00     0.062 A 
ATOM      7  F   UNL d   1       1.645   3.395  -1.741  0.00  0.00    -0.097 F 
ATOM      8  F1  UNL d   1       0.904   1.695   0.233  0.00  0.00    -0.096 F 
ATOM      9  I   UNL d   1      -0.194  -1.310   0.152  0.00  0.00    -0.060 I 
ATOM     10  F2  UNL d   1      -0.117  -1.609  -3.034  0.00  0.00    -0.096 F 
ATOM     11  F3  UNL d   1       0.630   0.114  -4.985  0.00  0.00    -0.097 F 
ATOM     12  F4  UNL d   1       1.512   2.616  -4.353  0.00  0.00    -0.092 F 
ENDROOT
TORSDOF 0
ENDMDL
