MODEL 1
REMARK minimizedAffinity 11.6405859
REMARK minimizedRMSD -1
REMARK  0 active torsions:
REMARK  status: ('A' for Active; 'I' for Inactive)
ROOT
ATOM      1  C   UNL d   1       0.989  -1.494  -2.492  0.00  0.00     0.124 A 
ATOM      2  C1  UNL d   1       0.701  -1.245  -1.157  0.00  0.00     0.062 A 
ATOM      3  C2  UNL d   1       0.706   0.059  -0.672  0.00  0.00     0.162 A 
ATOM      4  C3  UNL d   1       0.999   1.125  -1.522  0.00  0.00    -0.034 A 
ATOM      5  C4  UNL d   1       1.288   0.867  -2.863  0.00  0.00     0.162 A 
ATOM      6  C5  UNL d   1       1.282  -0.439  -3.343  0.00  0.00     0.062 A 
ATOM      7  F   UNL d   1       1.560  -0.677  -4.633  0.00  0.00    -0.097 F 
ATOM      8  F1  UNL d   1       1.574   1.869  -3.708  0.00  0.00    -0.096 F 
ATOM      9  I   UNL d   1       1.007   3.077  -0.800  0.00  0.00    -0.060 I 
ATOM     10  F2  UNL d   1       0.425   0.270   0.623  0.00  0.00    -0.096 F 
ATOM     11  F3  UNL d   1       0.419  -2.264  -0.332  0.00  0.00    -0.097 F 
ATOM     12  F4  UNL d   1       0.985  -2.751  -2.956  0.00  0.00    -0.092 F 
ENDROOT
TORSDOF 0
ENDMDL
