MODEL 1
REMARK minimizedAffinity 13.0144463
REMARK minimizedRMSD -1
REMARK  0 active torsions:
REMARK  status: ('A' for Active; 'I' for Inactive)
ROOT
ATOM      1  C   UNL d   1       1.537  -1.420  -4.274  0.00  0.00     0.124 A 
ATOM      2  C1  UNL d   1       1.184  -1.804  -2.988  0.00  0.00     0.062 A 
ATOM      3  C2  UNL d   1       0.946  -0.841  -2.011  0.00  0.00     0.162 A 
ATOM      4  C3  UNL d   1       1.059   0.515  -2.317  0.00  0.00    -0.034 A 
ATOM      5  C4  UNL d   1       1.416   0.893  -3.613  0.00  0.00     0.162 A 
ATOM      6  C5  UNL d   1       1.652  -0.073  -4.586  0.00  0.00     0.062 A 
ATOM      7  F   UNL d   1       1.994   0.299  -5.828  0.00  0.00    -0.097 F 
ATOM      8  F1  UNL d   1       1.533   2.188  -3.942  0.00  0.00    -0.096 F 
ATOM      9  I   UNL d   1       0.704   1.958  -0.860  0.00  0.00    -0.060 I 
ATOM     10  F2  UNL d   1       0.606  -1.240  -0.776  0.00  0.00    -0.096 F 
ATOM     11  F3  UNL d   1       1.072  -3.105  -2.684  0.00  0.00    -0.097 F 
ATOM     12  F4  UNL d   1       1.766  -2.349  -5.212  0.00  0.00    -0.092 F 
ENDROOT
TORSDOF 0
ENDMDL
