MODEL 1
REMARK minimizedAffinity 1.25093257
REMARK minimizedRMSD -1
REMARK  0 active torsions:
REMARK  status: ('A' for Active; 'I' for Inactive)
ROOT
ATOM      1  C   UNL d   1       1.214  -1.615  -2.306  0.00  0.00     0.124 A 
ATOM      2  C1  UNL d   1       1.171  -1.389  -0.937  0.00  0.00     0.062 A 
ATOM      3  C2  UNL d   1       1.087  -0.091  -0.444  0.00  0.00     0.162 A 
ATOM      4  C3  UNL d   1       1.044   0.994  -1.320  0.00  0.00    -0.034 A 
ATOM      5  C4  UNL d   1       1.090   0.759  -2.695  0.00  0.00     0.162 A 
ATOM      6  C5  UNL d   1       1.174  -0.541  -3.183  0.00  0.00     0.062 A 
ATOM      7  F   UNL d   1       1.216  -0.756  -4.506  0.00  0.00    -0.097 F 
ATOM      8  F1  UNL d   1       1.051   1.779  -3.566  0.00  0.00    -0.096 F 
ATOM      9  I   UNL d   1       0.918   2.937  -0.586  0.00  0.00    -0.060 I 
ATOM     10  F2  UNL d   1       1.046   0.098   0.884  0.00  0.00    -0.096 F 
ATOM     11  F3  UNL d   1       1.211  -2.425  -0.087  0.00  0.00    -0.097 F 
ATOM     12  F4  UNL d   1       1.296  -2.865  -2.778  0.00  0.00    -0.092 F 
ENDROOT
TORSDOF 0
ENDMDL
