MODEL 1
REMARK minimizedAffinity 17.0568562
REMARK minimizedRMSD -1
REMARK  0 active torsions:
REMARK  status: ('A' for Active; 'I' for Inactive)
ROOT
ATOM      1  C   UNL d   1       1.567   2.754  -1.754  0.00  0.00     0.124 A 
ATOM      2  C1  UNL d   1       1.280   1.890  -0.706  0.00  0.00     0.062 A 
ATOM      3  C2  UNL d   1       0.988   0.553  -0.962  0.00  0.00     0.162 A 
ATOM      4  C3  UNL d   1       0.981   0.072  -2.272  0.00  0.00    -0.034 A 
ATOM      5  C4  UNL d   1       1.270   0.948  -3.320  0.00  0.00     0.162 A 
ATOM      6  C5  UNL d   1       1.561   2.283  -3.059  0.00  0.00     0.062 A 
ATOM      7  F   UNL d   1       1.838   3.117  -4.072  0.00  0.00    -0.097 F 
ATOM      8  F1  UNL d   1       1.272   0.519  -4.591  0.00  0.00    -0.096 F 
ATOM      9  I   UNL d   1       0.545  -1.925  -2.658  0.00  0.00    -0.060 I 
ATOM     10  F2  UNL d   1       0.715  -0.260   0.069  0.00  0.00    -0.096 F 
ATOM     11  F3  UNL d   1       1.284   2.343   0.556  0.00  0.00    -0.097 F 
ATOM     12  F4  UNL d   1       1.847   4.040  -1.505  0.00  0.00    -0.092 F 
ENDROOT
TORSDOF 0
ENDMDL
