MODEL 1
REMARK minimizedAffinity 4.23212099
REMARK minimizedRMSD -1
REMARK  0 active torsions:
REMARK  status: ('A' for Active; 'I' for Inactive)
ROOT
ATOM      1  C   UNL d   1       1.412  -1.490  -2.602  0.00  0.00     0.124 A 
ATOM      2  C1  UNL d   1       1.195  -1.258  -1.250  0.00  0.00     0.062 A 
ATOM      3  C2  UNL d   1       1.016   0.040  -0.783  0.00  0.00     0.162 A 
ATOM      4  C3  UNL d   1       1.054   1.118  -1.668  0.00  0.00    -0.034 A 
ATOM      5  C4  UNL d   1       1.274   0.877  -3.025  0.00  0.00     0.162 A 
ATOM      6  C5  UNL d   1       1.451  -0.423  -3.487  0.00  0.00     0.062 A 
ATOM      7  F   UNL d   1       1.661  -0.645  -4.793  0.00  0.00    -0.097 F 
ATOM      8  F1  UNL d   1       1.316   1.890  -3.903  0.00  0.00    -0.096 F 
ATOM      9  I   UNL d   1       0.787   3.062  -0.973  0.00  0.00    -0.060 I 
ATOM     10  F2  UNL d   1       0.808   0.235   0.528  0.00  0.00    -0.096 F 
ATOM     11  F3  UNL d   1       1.157  -2.288  -0.393  0.00  0.00    -0.097 F 
ATOM     12  F4  UNL d   1       1.584  -2.741  -3.049  0.00  0.00    -0.092 F 
ENDROOT
TORSDOF 0
ENDMDL
