MODEL 1
REMARK minimizedAffinity 11.9857302
REMARK minimizedRMSD -1
REMARK  0 active torsions:
REMARK  status: ('A' for Active; 'I' for Inactive)
ROOT
ATOM      1  C   UNL d   1       0.967  -1.238  -2.532  0.00  0.00     0.124 A 
ATOM      2  C1  UNL d   1       1.004  -1.158  -1.147  0.00  0.00     0.062 A 
ATOM      3  C2  UNL d   1       0.857   0.072  -0.512  0.00  0.00     0.162 A 
ATOM      4  C3  UNL d   1       0.671   1.233  -1.263  0.00  0.00    -0.034 A 
ATOM      5  C4  UNL d   1       0.635   1.145  -2.656  0.00  0.00     0.162 A 
ATOM      6  C5  UNL d   1       0.783  -0.087  -3.285  0.00  0.00     0.062 A 
ATOM      7  F   UNL d   1       0.747  -0.162  -4.623  0.00  0.00    -0.097 F 
ATOM      8  F1  UNL d   1       0.457   2.241  -3.407  0.00  0.00    -0.096 F 
ATOM      9  I   UNL d   1       0.450   3.074  -0.318  0.00  0.00    -0.060 I 
ATOM     10  F2  UNL d   1       0.897   0.120   0.828  0.00  0.00    -0.096 F 
ATOM     11  F3  UNL d   1       1.183  -2.268  -0.417  0.00  0.00    -0.097 F 
ATOM     12  F4  UNL d   1       1.110  -2.423  -3.140  0.00  0.00    -0.092 F 
ENDROOT
TORSDOF 0
ENDMDL
