MODEL 1
REMARK minimizedAffinity 13.7184706
REMARK minimizedRMSD -1
REMARK  0 active torsions:
REMARK  status: ('A' for Active; 'I' for Inactive)
ROOT
ATOM      1  C   UNL d   1       1.335  -1.754  -2.460  0.00  0.00     0.124 A 
ATOM      2  C1  UNL d   1       1.008  -1.583  -1.122  0.00  0.00     0.062 A 
ATOM      3  C2  UNL d   1       0.746  -0.310  -0.623  0.00  0.00     0.162 A 
ATOM      4  C3  UNL d   1       0.810   0.802  -1.463  0.00  0.00    -0.034 A 
ATOM      5  C4  UNL d   1       1.140   0.622  -2.807  0.00  0.00     0.162 A 
ATOM      6  C5  UNL d   1       1.400  -0.652  -3.301  0.00  0.00     0.062 A 
ATOM      7  F   UNL d   1       1.716  -0.816  -4.594  0.00  0.00    -0.097 F 
ATOM      8  F1  UNL d   1       1.210   1.669  -3.642  0.00  0.00    -0.096 F 
ATOM      9  I   UNL d   1       0.419   2.707  -0.721  0.00  0.00    -0.060 I 
ATOM     10  F2  UNL d   1       0.433  -0.174   0.674  0.00  0.00    -0.096 F 
ATOM     11  F3  UNL d   1       0.944  -2.645  -0.307  0.00  0.00    -0.097 F 
ATOM     12  F4  UNL d   1       1.587  -2.980  -2.938  0.00  0.00    -0.092 F 
ENDROOT
TORSDOF 0
ENDMDL
