MODEL 1
REMARK minimizedAffinity 21.2554073
REMARK minimizedRMSD -1
REMARK  0 active torsions:
REMARK  status: ('A' for Active; 'I' for Inactive)
ROOT
ATOM      1  C   UNL d   1       1.191  -1.259  -2.753  0.00  0.00     0.124 A 
ATOM      2  C1  UNL d   1       1.205  -0.084  -3.491  0.00  0.00     0.062 A 
ATOM      3  C2  UNL d   1       1.206   1.149  -2.845  0.00  0.00     0.162 A 
ATOM      4  C3  UNL d   1       1.195   1.212  -1.451  0.00  0.00    -0.034 A 
ATOM      5  C4  UNL d   1       1.180   0.026  -0.716  0.00  0.00     0.162 A 
ATOM      6  C5  UNL d   1       1.178  -1.203  -1.367  0.00  0.00     0.062 A 
ATOM      7  F   UNL d   1       1.165  -2.338  -0.652  0.00  0.00    -0.097 F 
ATOM      8  F1  UNL d   1       1.169   0.051   0.625  0.00  0.00    -0.096 F 
ATOM      9  I   UNL d   1       1.198   3.053  -0.480  0.00  0.00    -0.060 I 
ATOM     10  F2  UNL d   1       1.220   2.268  -3.583  0.00  0.00    -0.096 F 
ATOM     11  F3  UNL d   1       1.215  -0.135  -4.831  0.00  0.00    -0.097 F 
ATOM     12  F4  UNL d   1       1.188  -2.444  -3.378  0.00  0.00    -0.092 F 
ENDROOT
TORSDOF 0
ENDMDL
