MODEL 1
REMARK minimizedAffinity -2.11364412
REMARK minimizedRMSD -1
REMARK  0 active torsions:
REMARK  status: ('A' for Active; 'I' for Inactive)
ROOT
ATOM      1  C   UNL d   1       1.410  -0.485  -2.058  0.00  0.00    -0.002 A 
ATOM      2  C1  UNL d   1       0.770   0.598  -2.644  0.00  0.00     0.010 A 
ATOM      3  C2  UNL d   1      -0.315   1.209  -2.013  0.00  0.00     0.041 A 
ATOM      4  C3  UNL d   1      -0.750   0.710  -0.769  0.00  0.00    -0.075 A 
ATOM      5  S   UNL d   1      -2.057   1.299   0.189  0.00  0.00     0.015 SA
ATOM      6  C4  UNL d   1      -1.796   0.128   1.399  0.00  0.00     0.022 A 
ATOM      7  C5  UNL d   1      -0.741  -0.701   1.096  0.00  0.00     0.026 A 
ATOM      8  C6  UNL d   1      -0.121  -0.379  -0.158  0.00  0.00    -0.082 A 
ATOM      9  C7  UNL d   1       0.976  -0.977  -0.824  0.00  0.00     0.045 A 
ENDROOT
TORSDOF 0
ENDMDL
