MODEL 1
REMARK minimizedAffinity -4.38245916
REMARK minimizedRMSD -1
REMARK  0 active torsions:
REMARK  status: ('A' for Active; 'I' for Inactive)
ROOT
ATOM      1  C   UNL d   1       2.288  -0.550  -3.134  0.00  0.00    -0.002 A 
ATOM      2  C1  UNL d   1       2.310  -1.891  -2.778  0.00  0.00     0.010 A 
ATOM      3  C2  UNL d   1       1.610  -2.339  -1.655  0.00  0.00     0.041 A 
ATOM      4  C3  UNL d   1       0.880  -1.408  -0.891  0.00  0.00    -0.075 A 
ATOM      5  S   UNL d   1      -0.053  -1.728   0.523  0.00  0.00     0.015 SA
ATOM      6  C4  UNL d   1      -0.504  -0.093   0.686  0.00  0.00     0.022 A 
ATOM      7  C5  UNL d   1       0.035   0.692  -0.305  0.00  0.00     0.026 A 
ATOM      8  C6  UNL d   1       0.841  -0.053  -1.231  0.00  0.00    -0.082 A 
ATOM      9  C7  UNL d   1       1.561   0.370  -2.374  0.00  0.00     0.045 A 
ENDROOT
TORSDOF 0
ENDMDL
