MODEL 1
REMARK minimizedAffinity -4.4877162
REMARK minimizedRMSD -1
REMARK  0 active torsions:
REMARK  status: ('A' for Active; 'I' for Inactive)
ROOT
ATOM      1  C   UNL d   1      -2.823   1.089   1.837  0.00  0.00    -0.002 A 
ATOM      2  C1  UNL d   1      -1.978   0.104   2.329  0.00  0.00     0.010 A 
ATOM      3  C2  UNL d   1      -0.875  -0.322   1.588  0.00  0.00     0.041 A 
ATOM      4  C3  UNL d   1      -0.630   0.266   0.331  0.00  0.00    -0.075 A 
ATOM      5  S   UNL d   1       0.661  -0.096  -0.752  0.00  0.00     0.015 SA
ATOM      6  C4  UNL d   1       0.123   1.050  -1.894  0.00  0.00     0.022 A 
ATOM      7  C5  UNL d   1      -1.013   1.701  -1.476  0.00  0.00     0.026 A 
ATOM      8  C6  UNL d   1      -1.465   1.261  -0.186  0.00  0.00    -0.082 A 
ATOM      9  C7  UNL d   1      -2.577   1.670   0.590  0.00  0.00     0.045 A 
ENDROOT
TORSDOF 0
ENDMDL
