MODEL 1
REMARK minimizedAffinity 7.92619228
REMARK minimizedRMSD -1
REMARK  0 active torsions:
REMARK  status: ('A' for Active; 'I' for Inactive)
ROOT
ATOM      1  C   UNL d   1       0.412  -1.438   1.722  0.00  0.00    -0.002 A 
ATOM      2  C1  UNL d   1       0.204  -2.260   0.624  0.00  0.00     0.010 A 
ATOM      3  C2  UNL d   1       0.658  -1.884  -0.642  0.00  0.00     0.041 A 
ATOM      4  C3  UNL d   1       1.334  -0.656  -0.786  0.00  0.00    -0.075 A 
ATOM      5  S   UNL d   1       1.981   0.010  -2.239  0.00  0.00     0.015 SA
ATOM      6  C4  UNL d   1       2.550   1.401  -1.435  0.00  0.00     0.022 A 
ATOM      7  C5  UNL d   1       2.263   1.375  -0.091  0.00  0.00     0.026 A 
ATOM      8  C6  UNL d   1       1.558   0.188   0.305  0.00  0.00    -0.082 A 
ATOM      9  C7  UNL d   1       1.084  -0.221   1.575  0.00  0.00     0.045 A 
ENDROOT
TORSDOF 0
ENDMDL
