MODEL 1
REMARK minimizedAffinity -2.27082372
REMARK minimizedRMSD -1
REMARK  0 active torsions:
REMARK  status: ('A' for Active; 'I' for Inactive)
ROOT
ATOM      1  C   UNL d   1       1.998  -2.477  -2.427  0.00  0.00    -0.002 A 
ATOM      2  C1  UNL d   1       1.114  -3.011  -1.500  0.00  0.00     0.010 A 
ATOM      3  C2  UNL d   1       0.422  -2.178  -0.617  0.00  0.00     0.041 A 
ATOM      4  C3  UNL d   1       0.634  -0.787  -0.685  0.00  0.00    -0.075 A 
ATOM      5  S   UNL d   1      -0.103   0.425   0.294  0.00  0.00     0.015 SA
ATOM      6  C4  UNL d   1       0.737   1.680  -0.496  0.00  0.00     0.022 A 
ATOM      7  C5  UNL d   1       1.564   1.203  -1.485  0.00  0.00     0.026 A 
ATOM      8  C6  UNL d   1       1.518  -0.226  -1.610  0.00  0.00    -0.082 A 
ATOM      9  C7  UNL d   1       2.205  -1.097  -2.490  0.00  0.00     0.045 A 
ENDROOT
TORSDOF 0
ENDMDL
