MODEL 1
REMARK minimizedAffinity -2.7601099
REMARK minimizedRMSD -1
REMARK  0 active torsions:
REMARK  status: ('A' for Active; 'I' for Inactive)
ROOT
ATOM      1  C   UNL d   1       2.157   0.471  -1.035  0.00  0.00    -0.002 A 
ATOM      2  C1  UNL d   1       1.517  -0.523  -1.761  0.00  0.00     0.010 A 
ATOM      3  C2  UNL d   1       0.219  -0.919  -1.433  0.00  0.00     0.041 A 
ATOM      4  C3  UNL d   1      -0.433  -0.291  -0.354  0.00  0.00    -0.075 A 
ATOM      5  S   UNL d   1      -2.023  -0.611   0.229  0.00  0.00     0.015 SA
ATOM      6  C4  UNL d   1      -1.892   0.565   1.455  0.00  0.00     0.022 A 
ATOM      7  C5  UNL d   1      -0.670   1.196   1.436  0.00  0.00     0.026 A 
ATOM      8  C6  UNL d   1       0.190   0.713   0.392  0.00  0.00    -0.082 A 
ATOM      9  C7  UNL d   1       1.507   1.092   0.036  0.00  0.00     0.045 A 
ENDROOT
TORSDOF 0
ENDMDL
