MODEL 1
REMARK minimizedAffinity -3.02666283
REMARK minimizedRMSD -1
REMARK  0 active torsions:
REMARK  status: ('A' for Active; 'I' for Inactive)
ROOT
ATOM      1  C   UNL d   1       2.255  -0.072  -2.577  0.00  0.00    -0.002 A 
ATOM      2  C1  UNL d   1       1.306  -1.084  -2.581  0.00  0.00     0.010 A 
ATOM      3  C2  UNL d   1       0.342  -1.158  -1.573  0.00  0.00     0.041 A 
ATOM      4  C3  UNL d   1       0.347  -0.187  -0.553  0.00  0.00    -0.075 A 
ATOM      5  S   UNL d   1      -0.737  -0.077   0.783  0.00  0.00     0.015 SA
ATOM      6  C4  UNL d   1       0.034   1.317   1.390  0.00  0.00     0.022 A 
ATOM      7  C5  UNL d   1       1.095   1.703   0.605  0.00  0.00     0.026 A 
ATOM      8  C6  UNL d   1       1.293   0.843  -0.528  0.00  0.00    -0.082 A 
ATOM      9  C7  UNL d   1       2.257   0.890  -1.563  0.00  0.00     0.045 A 
ENDROOT
TORSDOF 0
ENDMDL
