MODEL 1
REMARK minimizedAffinity -3.38268518
REMARK minimizedRMSD -1
REMARK  0 active torsions:
REMARK  status: ('A' for Active; 'I' for Inactive)
ROOT
ATOM      1  C   UNL d   1       0.677  -1.946  -0.685  0.00  0.00    -0.002 A 
ATOM      2  C1  UNL d   1       0.779  -1.090  -1.773  0.00  0.00     0.010 A 
ATOM      3  C2  UNL d   1       0.760   0.294  -1.592  0.00  0.00     0.041 A 
ATOM      4  C3  UNL d   1       0.638   0.809  -0.287  0.00  0.00    -0.075 A 
ATOM      5  S   UNL d   1       0.593   2.469   0.176  0.00  0.00     0.015 SA
ATOM      6  C4  UNL d   1       0.439   2.082   1.829  0.00  0.00     0.022 A 
ATOM      7  C5  UNL d   1       0.420   0.724   2.040  0.00  0.00     0.026 A 
ATOM      8  C6  UNL d   1       0.534  -0.032   0.825  0.00  0.00    -0.082 A 
ATOM      9  C7  UNL d   1       0.556  -1.431   0.608  0.00  0.00     0.045 A 
ENDROOT
TORSDOF 0
ENDMDL
