MODEL 1
REMARK minimizedAffinity -1.17365026
REMARK minimizedRMSD -1
REMARK  0 active torsions:
REMARK  status: ('A' for Active; 'I' for Inactive)
ROOT
ATOM      1  C   UNL d   1       1.979   1.407  -1.840  0.00  0.00    -0.002 A 
ATOM      2  C1  UNL d   1       2.423   0.095  -1.920  0.00  0.00     0.010 A 
ATOM      3  C2  UNL d   1       1.798  -0.913  -1.182  0.00  0.00     0.041 A 
ATOM      4  C3  UNL d   1       0.708  -0.576  -0.356  0.00  0.00    -0.075 A 
ATOM      5  S   UNL d   1      -0.212  -1.644   0.638  0.00  0.00     0.015 SA
ATOM      6  C4  UNL d   1      -1.216  -0.383   1.192  0.00  0.00     0.022 A 
ATOM      7  C5  UNL d   1      -0.872   0.830   0.642  0.00  0.00     0.026 A 
ATOM      8  C6  UNL d   1       0.242   0.738  -0.259  0.00  0.00    -0.082 A 
ATOM      9  C7  UNL d   1       0.897   1.737  -1.019  0.00  0.00     0.045 A 
ENDROOT
TORSDOF 0
ENDMDL
