MODEL 1
REMARK minimizedAffinity -4.49664688
REMARK minimizedRMSD -1
REMARK  0 active torsions:
REMARK  status: ('A' for Active; 'I' for Inactive)
ROOT
ATOM      1  C   UNL d   1       1.830   0.883  -1.569  0.00  0.00    -0.002 A 
ATOM      2  C1  UNL d   1       1.385  -0.268  -2.204  0.00  0.00     0.010 A 
ATOM      3  C2  UNL d   1       0.242  -0.930  -1.754  0.00  0.00     0.041 A 
ATOM      4  C3  UNL d   1      -0.455  -0.410  -0.646  0.00  0.00    -0.075 A 
ATOM      5  S   UNL d   1      -1.882  -1.052   0.080  0.00  0.00     0.015 SA
ATOM      6  C4  UNL d   1      -1.934   0.187   1.249  0.00  0.00     0.022 A 
ATOM      7  C5  UNL d   1      -0.897   1.077   1.104  0.00  0.00     0.026 A 
ATOM      8  C6  UNL d   1      -0.027   0.748   0.010  0.00  0.00    -0.082 A 
ATOM      9  C7  UNL d   1       1.136   1.396  -0.470  0.00  0.00     0.045 A 
ENDROOT
TORSDOF 0
ENDMDL
