MODEL 1
REMARK minimizedAffinity -4.95886993
REMARK minimizedRMSD -1
REMARK  0 active torsions:
REMARK  status: ('A' for Active; 'I' for Inactive)
ROOT
ATOM      1  C   UNL d   1      -4.196   0.784   0.131  0.00  0.00    -0.002 A 
ATOM      2  C1  UNL d   1      -3.983   0.468   1.465  0.00  0.00     0.010 A 
ATOM      3  C2  UNL d   1      -2.701   0.163   1.926  0.00  0.00     0.041 A 
ATOM      4  C3  UNL d   1      -1.626   0.183   1.015  0.00  0.00    -0.075 A 
ATOM      5  S   UNL d   1       0.030  -0.156   1.354  0.00  0.00     0.015 SA
ATOM      6  C4  UNL d   1       0.493   0.112  -0.264  0.00  0.00     0.022 A 
ATOM      7  C5  UNL d   1      -0.577   0.452  -1.057  0.00  0.00     0.026 A 
ATOM      8  C6  UNL d   1      -1.816   0.499  -0.333  0.00  0.00    -0.082 A 
ATOM      9  C7  UNL d   1      -3.128   0.803  -0.770  0.00  0.00     0.045 A 
ENDROOT
TORSDOF 0
ENDMDL
