MODEL 1
REMARK minimizedAffinity -4.49573565
REMARK minimizedRMSD -1
REMARK  2 active torsions:
REMARK  status: ('A' for Active; 'I' for Inactive)
REMARK    1  A    between atoms: C1_2  and  C2_3 
REMARK    2  A    between atoms: C2_3  and  C3_4 
ROOT
ATOM      1  C3  UNL d   1       0.394  -0.255  -0.011  0.00  0.00    -0.075 A 
ATOM      2  C4  UNL d   1      -0.184  -0.949   1.062  0.00  0.00     0.002 A 
ATOM      3  C5  UNL d   1      -0.365  -2.330   0.997  0.00  0.00     0.002 A 
ATOM      4  C6  UNL d   1       0.019  -3.034  -0.142  0.00  0.00    -0.004 A 
ATOM      5  C7  UNL d   1       0.580  -2.352  -1.221  0.00  0.00     0.002 A 
ATOM      6  C8  UNL d   1       0.766  -0.970  -1.157  0.00  0.00     0.002 A 
ENDROOT
BRANCH   1   7
ATOM      7  C2  UNL d   1       0.620   1.236   0.065  0.00  0.00     0.056 C 
BRANCH   7   8
ATOM      8  C1  UNL d   1       1.833   1.641   0.909  0.00  0.00     0.007 C 
ATOM      9  C   UNL d   1       2.453   2.962   0.473  0.00  0.00     0.009 C 
ENDBRANCH   7   8
ENDBRANCH   1   7
TORSDOF 2
ENDMDL
