MODEL 1
REMARK minimizedAffinity -5.3804841
REMARK minimizedRMSD -1
REMARK  2 active torsions:
REMARK  status: ('A' for Active; 'I' for Inactive)
REMARK    1  A    between atoms: C1_2  and  C2_3 
REMARK    2  A    between atoms: C2_3  and  C3_4 
ROOT
ATOM      1  C3  UNL d   1      -1.386  -0.674   1.109  0.00  0.00    -0.075 A 
ATOM      2  C4  UNL d   1      -1.071  -2.040   1.131  0.00  0.00     0.002 A 
ATOM      3  C5  UNL d   1      -0.048  -2.544   0.327  0.00  0.00     0.002 A 
ATOM      4  C6  UNL d   1       0.664  -1.693  -0.515  0.00  0.00    -0.004 A 
ATOM      5  C7  UNL d   1       0.349  -0.337  -0.557  0.00  0.00     0.002 A 
ATOM      6  C8  UNL d   1      -0.671   0.171   0.250  0.00  0.00     0.002 A 
ENDROOT
BRANCH   1   7
ATOM      7  C2  UNL d   1      -2.472  -0.117   1.998  0.00  0.00     0.056 C 
BRANCH   7   8
ATOM      8  C1  UNL d   1      -3.372   0.915   1.312  0.00  0.00     0.007 C 
ATOM      9  C   UNL d   1      -4.694   1.135   2.036  0.00  0.00     0.009 C 
ENDBRANCH   7   8
ENDBRANCH   1   7
TORSDOF 2
ENDMDL
