MODEL 1
REMARK minimizedAffinity -2.30382252
REMARK minimizedRMSD -1
REMARK  2 active torsions:
REMARK  status: ('A' for Active; 'I' for Inactive)
REMARK    1  A    between atoms: C1_2  and  C2_3 
REMARK    2  A    between atoms: C2_3  and  C3_4 
ROOT
ATOM      1  C3  UNL d   1      -2.634   0.649   1.106  0.00  0.00    -0.075 A 
ATOM      2  C4  UNL d   1      -3.449   1.538   0.389  0.00  0.00     0.002 A 
ATOM      3  C5  UNL d   1      -4.562   2.123   0.993  0.00  0.00     0.002 A 
ATOM      4  C6  UNL d   1      -4.880   1.820   2.315  0.00  0.00    -0.004 A 
ATOM      5  C7  UNL d   1      -4.088   0.925   3.032  0.00  0.00     0.002 A 
ATOM      6  C8  UNL d   1      -2.971   0.342   2.431  0.00  0.00     0.002 A 
ENDROOT
BRANCH   1   7
ATOM      7  C2  UNL d   1      -1.411   0.035   0.467  0.00  0.00     0.056 C 
BRANCH   7   8
ATOM      8  C1  UNL d   1      -0.832  -1.152   1.243  0.00  0.00     0.007 C 
ATOM      9  C   UNL d   1      -1.081  -2.492   0.565  0.00  0.00     0.009 C 
ENDBRANCH   7   8
ENDBRANCH   1   7
TORSDOF 2
ENDMDL
