MODEL 1
REMARK minimizedAffinity -2.07539415
REMARK minimizedRMSD -1
REMARK  2 active torsions:
REMARK  status: ('A' for Active; 'I' for Inactive)
REMARK    1  A    between atoms: C1_2  and  C2_3 
REMARK    2  A    between atoms: C2_3  and  C3_4 
ROOT
ATOM      1  C3  UNL d   1      -0.100  -0.310  -0.224  0.00  0.00    -0.075 A 
ATOM      2  C4  UNL d   1      -0.482  -0.697   1.068  0.00  0.00     0.002 A 
ATOM      3  C5  UNL d   1      -0.897  -2.005   1.322  0.00  0.00     0.002 A 
ATOM      4  C6  UNL d   1      -0.944  -2.937   0.288  0.00  0.00    -0.004 A 
ATOM      5  C7  UNL d   1      -0.582  -2.559  -1.003  0.00  0.00     0.002 A 
ATOM      6  C8  UNL d   1      -0.163  -1.252  -1.259  0.00  0.00     0.002 A 
ENDROOT
BRANCH   1   7
ATOM      7  C2  UNL d   1       0.377   1.096  -0.500  0.00  0.00     0.056 C 
BRANCH   7   8
ATOM      8  C1  UNL d   1       1.601   1.512   0.323  0.00  0.00     0.007 C 
ATOM      9  C   UNL d   1       1.950   2.987   0.177  0.00  0.00     0.009 C 
ENDBRANCH   7   8
ENDBRANCH   1   7
TORSDOF 2
ENDMDL
