MODEL 1
REMARK minimizedAffinity -3.49602175
REMARK minimizedRMSD -1
REMARK  2 active torsions:
REMARK  status: ('A' for Active; 'I' for Inactive)
REMARK    1  A    between atoms: C1_2  and  C2_3 
REMARK    2  A    between atoms: C2_3  and  C3_4 
ROOT
ATOM      1  C3  UNL d   1      -0.936   0.429   0.615  0.00  0.00    -0.075 A 
ATOM      2  C4  UNL d   1      -1.110  -0.226   1.843  0.00  0.00     0.002 A 
ATOM      3  C5  UNL d   1      -2.220   0.050   2.642  0.00  0.00     0.002 A 
ATOM      4  C6  UNL d   1      -3.162   0.989   2.230  0.00  0.00    -0.004 A 
ATOM      5  C7  UNL d   1      -2.991   1.658   1.020  0.00  0.00     0.002 A 
ATOM      6  C8  UNL d   1      -1.884   1.381   0.216  0.00  0.00     0.002 A 
ENDROOT
BRANCH   1   7
ATOM      7  C2  UNL d   1       0.248   0.114  -0.268  0.00  0.00     0.056 C 
BRANCH   7   8
ATOM      8  C1  UNL d   1      -0.081  -0.807  -1.447  0.00  0.00     0.007 C 
ATOM      9  C   UNL d   1       0.164  -0.158  -2.803  0.00  0.00     0.009 C 
ENDBRANCH   7   8
ENDBRANCH   1   7
TORSDOF 2
ENDMDL
