MODEL 1
REMARK minimizedAffinity -4.4899435
REMARK minimizedRMSD -1
REMARK  2 active torsions:
REMARK  status: ('A' for Active; 'I' for Inactive)
REMARK    1  A    between atoms: C1_2  and  C2_3 
REMARK    2  A    between atoms: C2_3  and  C3_4 
ROOT
ATOM      1  C3  UNL d   1       0.176  -0.241   0.018  0.00  0.00    -0.075 A 
ATOM      2  C4  UNL d   1       0.905  -1.144  -0.769  0.00  0.00     0.002 A 
ATOM      3  C5  UNL d   1       0.764  -2.519  -0.584  0.00  0.00     0.002 A 
ATOM      4  C6  UNL d   1      -0.098  -3.009   0.395  0.00  0.00    -0.004 A 
ATOM      5  C7  UNL d   1      -0.814  -2.120   1.194  0.00  0.00     0.002 A 
ATOM      6  C8  UNL d   1      -0.678  -0.744   1.008  0.00  0.00     0.002 A 
ENDROOT
BRANCH   1   7
ATOM      7  C2  UNL d   1       0.302   1.249  -0.197  0.00  0.00     0.056 C 
BRANCH   7   8
ATOM      8  C1  UNL d   1       1.748   1.740  -0.324  0.00  0.00     0.007 C 
ATOM      9  C   UNL d   1       2.142   2.734   0.760  0.00  0.00     0.009 C 
ENDBRANCH   7   8
ENDBRANCH   1   7
TORSDOF 2
ENDMDL
