MODEL 1
REMARK minimizedAffinity -4.3086009
REMARK minimizedRMSD -1
REMARK  2 active torsions:
REMARK  status: ('A' for Active; 'I' for Inactive)
REMARK    1  A    between atoms: C1_2  and  C2_3 
REMARK    2  A    between atoms: C2_3  and  C3_4 
ROOT
ATOM      1  C3  UNL d   1      -2.200   0.600   0.447  0.00  0.00    -0.075 A 
ATOM      2  C4  UNL d   1      -1.287   0.641  -0.616  0.00  0.00     0.002 A 
ATOM      3  C5  UNL d   1      -0.364  -0.390  -0.798  0.00  0.00     0.002 A 
ATOM      4  C6  UNL d   1      -0.336  -1.467   0.085  0.00  0.00    -0.004 A 
ATOM      5  C7  UNL d   1      -1.227  -1.510   1.155  0.00  0.00     0.002 A 
ATOM      6  C8  UNL d   1      -2.154  -0.482   1.337  0.00  0.00     0.002 A 
ENDROOT
BRANCH   1   7
ATOM      7  C2  UNL d   1      -3.220   1.698   0.632  0.00  0.00     0.056 C 
BRANCH   7   8
ATOM      8  C1  UNL d   1      -4.604   1.198   1.060  0.00  0.00     0.007 C 
ATOM      9  C   UNL d   1      -4.982   1.613   2.475  0.00  0.00     0.009 C 
ENDBRANCH   7   8
ENDBRANCH   1   7
TORSDOF 2
ENDMDL
