MODEL 1
REMARK minimizedAffinity -3.69279432
REMARK minimizedRMSD -1
REMARK  2 active torsions:
REMARK  status: ('A' for Active; 'I' for Inactive)
REMARK    1  A    between atoms: C1_2  and  C2_3 
REMARK    2  A    between atoms: C2_3  and  C3_4 
ROOT
ATOM      1  C3  UNL d   1      -1.964   1.087   0.165  0.00  0.00    -0.075 A 
ATOM      2  C4  UNL d   1      -0.687   1.343  -0.355  0.00  0.00     0.002 A 
ATOM      3  C5  UNL d   1       0.357   0.441  -0.148  0.00  0.00     0.002 A 
ATOM      4  C6  UNL d   1       0.141  -0.721   0.589  0.00  0.00    -0.004 A 
ATOM      5  C7  UNL d   1      -1.120  -0.979   1.124  0.00  0.00     0.002 A 
ATOM      6  C8  UNL d   1      -2.167  -0.080   0.914  0.00  0.00     0.002 A 
ENDROOT
BRANCH   1   7
ATOM      7  C2  UNL d   1      -3.105   2.044  -0.081  0.00  0.00     0.056 C 
BRANCH   7   8
ATOM      8  C1  UNL d   1      -3.445   2.931   1.122  0.00  0.00     0.007 C 
ATOM      9  C   UNL d   1      -4.543   2.352   2.003  0.00  0.00     0.009 C 
ENDBRANCH   7   8
ENDBRANCH   1   7
TORSDOF 2
ENDMDL
