MODEL 1
REMARK minimizedAffinity -2.70688844
REMARK minimizedRMSD -1
REMARK  2 active torsions:
REMARK  status: ('A' for Active; 'I' for Inactive)
REMARK    1  A    between atoms: C1_2  and  C2_3 
REMARK    2  A    between atoms: C2_3  and  C3_4 
ROOT
ATOM      1  C3  UNL d   1      -1.677   0.438   0.753  0.00  0.00    -0.075 A 
ATOM      2  C4  UNL d   1      -0.685   0.151  -0.196  0.00  0.00     0.002 A 
ATOM      3  C5  UNL d   1       0.017  -1.054  -0.144  0.00  0.00     0.002 A 
ATOM      4  C6  UNL d   1      -0.256  -1.980   0.860  0.00  0.00    -0.004 A 
ATOM      5  C7  UNL d   1      -1.228  -1.698   1.817  0.00  0.00     0.002 A 
ATOM      6  C8  UNL d   1      -1.935  -0.496   1.766  0.00  0.00     0.002 A 
ENDROOT
BRANCH   1   7
ATOM      7  C2  UNL d   1      -2.461   1.727   0.686  0.00  0.00     0.056 C 
BRANCH   7   8
ATOM      8  C1  UNL d   1      -3.968   1.532   0.489  0.00  0.00     0.007 C 
ATOM      9  C   UNL d   1      -4.764   1.661   1.781  0.00  0.00     0.009 C 
ENDBRANCH   7   8
ENDBRANCH   1   7
TORSDOF 2
ENDMDL
