MODEL 1
REMARK minimizedAffinity 4.95064831
REMARK minimizedRMSD -1
REMARK  2 active torsions:
REMARK  status: ('A' for Active; 'I' for Inactive)
REMARK    1  A    between atoms: C1_2  and  C2_3 
REMARK    2  A    between atoms: C2_3  and  C3_4 
ROOT
ATOM      1  C3  UNL d   1       2.249   4.199   1.460  0.00  0.00    -0.075 A 
ATOM      2  C4  UNL d   1       3.433   4.777   0.981  0.00  0.00     0.002 A 
ATOM      3  C5  UNL d   1       4.194   4.130   0.007  0.00  0.00     0.002 A 
ATOM      4  C6  UNL d   1       3.787   2.895  -0.493  0.00  0.00    -0.004 A 
ATOM      5  C7  UNL d   1       2.620   2.303  -0.012  0.00  0.00     0.002 A 
ATOM      6  C8  UNL d   1       1.855   2.950   0.959  0.00  0.00     0.002 A 
ENDROOT
BRANCH   1   7
ATOM      7  C2  UNL d   1       1.406   4.908   2.493  0.00  0.00     0.056 C 
BRANCH   7   8
ATOM      8  C1  UNL d   1       0.013   5.306   1.994  0.00  0.00     0.007 C 
ATOM      9  C   UNL d   1      -0.830   5.998   3.057  0.00  0.00     0.009 C 
ENDBRANCH   7   8
ENDBRANCH   1   7
TORSDOF 2
ENDMDL
