MODEL 1
REMARK minimizedAffinity 6.21078396
REMARK minimizedRMSD -1
REMARK  2 active torsions:
REMARK  status: ('A' for Active; 'I' for Inactive)
REMARK    1  A    between atoms: C1_2  and  C2_3 
REMARK    2  A    between atoms: C2_3  and  C3_4 
ROOT
ATOM      1  C3  UNL d   1       1.858   4.570   1.528  0.00  0.00    -0.075 A 
ATOM      2  C4  UNL d   1       0.583   4.380   0.975  0.00  0.00     0.002 A 
ATOM      3  C5  UNL d   1      -0.532   5.005   1.535  0.00  0.00     0.002 A 
ATOM      4  C6  UNL d   1      -0.389   5.817   2.658  0.00  0.00    -0.004 A 
ATOM      5  C7  UNL d   1       0.871   5.999   3.225  0.00  0.00     0.002 A 
ATOM      6  C8  UNL d   1       1.989   5.379   2.664  0.00  0.00     0.002 A 
ENDROOT
BRANCH   1   7
ATOM      7  C2  UNL d   1       3.073   3.921   0.909  0.00  0.00     0.056 C 
BRANCH   7   8
ATOM      8  C1  UNL d   1       3.146   4.060  -0.615  0.00  0.00     0.007 C 
ATOM      9  C   UNL d   1       3.492   2.756  -1.321  0.00  0.00     0.009 C 
ENDBRANCH   7   8
ENDBRANCH   1   7
TORSDOF 2
ENDMDL
