MODEL 1
REMARK minimizedAffinity -4.69360065
REMARK minimizedRMSD -1
REMARK  2 active torsions:
REMARK  status: ('A' for Active; 'I' for Inactive)
REMARK    1  A    between atoms: C1_2  and  C2_3 
REMARK    2  A    between atoms: C2_3  and  C3_4 
ROOT
ATOM      1  C3  UNL d   1       0.147  -0.867  -1.500  0.00  0.00    -0.075 A 
ATOM      2  C4  UNL d   1       1.515  -1.173  -1.496  0.00  0.00     0.002 A 
ATOM      3  C5  UNL d   1       1.953  -2.468  -1.777  0.00  0.00     0.002 A 
ATOM      4  C6  UNL d   1       1.029  -3.473  -2.054  0.00  0.00    -0.004 A 
ATOM      5  C7  UNL d   1      -0.334  -3.184  -2.044  0.00  0.00     0.002 A 
ATOM      6  C8  UNL d   1      -0.774  -1.889  -1.768  0.00  0.00     0.002 A 
ENDROOT
BRANCH   1   7
ATOM      7  C2  UNL d   1      -0.331   0.539  -1.227  0.00  0.00     0.056 C 
BRANCH   7   8
ATOM      8  C1  UNL d   1      -1.391   0.634  -0.124  0.00  0.00     0.007 C 
ATOM      9  C   UNL d   1      -2.218   1.911  -0.195  0.00  0.00     0.009 C 
ENDBRANCH   7   8
ENDBRANCH   1   7
TORSDOF 2
ENDMDL
