MODEL 1
REMARK minimizedAffinity 2.99514008
REMARK minimizedRMSD -1
REMARK  2 active torsions:
REMARK  status: ('A' for Active; 'I' for Inactive)
REMARK    1  A    between atoms: C1_2  and  C2_3 
REMARK    2  A    between atoms: C2_3  and  C3_4 
ROOT
ATOM      1  C3  UNL d   1      -1.164   2.806   1.478  0.00  0.00    -0.075 A 
ATOM      2  C4  UNL d   1       0.092   2.187   1.412  0.00  0.00     0.002 A 
ATOM      3  C5  UNL d   1       1.132   2.604   2.242  0.00  0.00     0.002 A 
ATOM      4  C6  UNL d   1       0.933   3.651   3.140  0.00  0.00    -0.004 A 
ATOM      5  C7  UNL d   1      -0.306   4.284   3.203  0.00  0.00     0.002 A 
ATOM      6  C8  UNL d   1      -1.350   3.866   2.376  0.00  0.00     0.002 A 
ENDROOT
BRANCH   1   7
ATOM      7  C2  UNL d   1      -2.303   2.339   0.602  0.00  0.00     0.056 C 
BRANCH   7   8
ATOM      8  C1  UNL d   1      -3.114   1.183   1.197  0.00  0.00     0.007 C 
ATOM      9  C   UNL d   1      -4.351   1.646   1.956  0.00  0.00     0.009 C 
ENDBRANCH   7   8
ENDBRANCH   1   7
TORSDOF 2
ENDMDL
