MODEL 1
REMARK minimizedAffinity 6.39635277
REMARK minimizedRMSD -1
REMARK  2 active torsions:
REMARK  status: ('A' for Active; 'I' for Inactive)
REMARK    1  A    between atoms: C1_2  and  C2_3 
REMARK    2  A    between atoms: C2_3  and  C3_4 
ROOT
ATOM      1  C3  UNL d   1       3.265  -3.906  -5.546  0.00  0.00    -0.075 A 
ATOM      2  C4  UNL d   1       4.245  -3.007  -5.993  0.00  0.00     0.002 A 
ATOM      3  C5  UNL d   1       5.600  -3.293  -5.820  0.00  0.00     0.002 A 
ATOM      4  C6  UNL d   1       5.991  -4.473  -5.191  0.00  0.00    -0.004 A 
ATOM      5  C7  UNL d   1       5.026  -5.365  -4.729  0.00  0.00     0.002 A 
ATOM      6  C8  UNL d   1       3.670  -5.084  -4.904  0.00  0.00     0.002 A 
ENDROOT
BRANCH   1   7
ATOM      7  C2  UNL d   1       1.798  -3.616  -5.757  0.00  0.00     0.056 C 
BRANCH   7   8
ATOM      8  C1  UNL d   1       0.882  -4.232  -4.694  0.00  0.00     0.007 C 
ATOM      9  C   UNL d   1       0.444  -3.237  -3.628  0.00  0.00     0.009 C 
ENDBRANCH   7   8
ENDBRANCH   1   7
TORSDOF 2
ENDMDL
