MODEL 1
REMARK minimizedAffinity 9.76078987
REMARK minimizedRMSD -1
REMARK  0 active torsions:
REMARK  status: ('A' for Active; 'I' for Inactive)
ROOT
ATOM      1  C   UNL d   1       3.088   1.214  -0.147  0.00  0.00     0.020 A 
ATOM      2  C1  UNL d   1       2.221   0.122  -0.175  0.00  0.00     0.020 A 
ATOM      3  C2  UNL d   1       1.838  -0.496   1.018  0.00  0.00     0.034 A 
ATOM      4  C3  UNL d   1       2.322  -0.022   2.243  0.00  0.00     0.017 A 
ATOM      5  C4  UNL d   1       3.192   1.075   2.269  0.00  0.00     0.017 A 
ATOM      6  C5  UNL d   1       3.572   1.689   1.072  0.00  0.00     0.034 A 
ATOM      7 Cl   UNL d   1       3.830   1.716   3.742  0.00  0.00    -0.070 Cl
ATOM      8 Cl1  UNL d   1       1.807  -0.833   3.678  0.00  0.00    -0.070 Cl
ENDROOT
TORSDOF 0
ENDMDL
