MODEL 1
REMARK minimizedAffinity 0.315157086
REMARK minimizedRMSD -1
REMARK  0 active torsions:
REMARK  status: ('A' for Active; 'I' for Inactive)
ROOT
ATOM      1  C   UNL d   1      -0.486  -1.914   4.938  0.00  0.00     0.020 A 
ATOM      2  C1  UNL d   1      -1.796  -1.511   4.682  0.00  0.00     0.020 A 
ATOM      3  C2  UNL d   1      -2.082  -0.743   3.551  0.00  0.00     0.034 A 
ATOM      4  C3  UNL d   1      -1.056  -0.376   2.672  0.00  0.00     0.017 A 
ATOM      5  C4  UNL d   1       0.259  -0.781   2.930  0.00  0.00     0.017 A 
ATOM      6  C5  UNL d   1       0.539  -1.550   4.064  0.00  0.00     0.034 A 
ATOM      7 Cl   UNL d   1       1.577  -0.367   1.892  0.00  0.00    -0.070 Cl
ATOM      8 Cl1  UNL d   1      -1.481   0.574   1.293  0.00  0.00    -0.070 Cl
ENDROOT
TORSDOF 0
ENDMDL
