MODEL 1
REMARK minimizedAffinity 0.286703825
REMARK minimizedRMSD -1
REMARK  0 active torsions:
REMARK  status: ('A' for Active; 'I' for Inactive)
ROOT
ATOM      1  C   UNL d   1      -2.181  -0.206   2.412  0.00  0.00     0.020 A 
ATOM      2  C1  UNL d   1      -2.025  -0.727   3.696  0.00  0.00     0.020 A 
ATOM      3  C2  UNL d   1      -0.748  -1.017   4.181  0.00  0.00     0.034 A 
ATOM      4  C3  UNL d   1       0.378  -0.785   3.382  0.00  0.00     0.017 A 
ATOM      5  C4  UNL d   1       0.220  -0.263   2.094  0.00  0.00     0.017 A 
ATOM      6  C5  UNL d   1      -1.061   0.025   1.613  0.00  0.00     0.034 A 
ATOM      7 Cl   UNL d   1       1.561   0.050   1.050  0.00  0.00    -0.070 Cl
ATOM      8 Cl1  UNL d   1       1.927  -1.166   4.047  0.00  0.00    -0.070 Cl
ENDROOT
TORSDOF 0
ENDMDL
