MODEL 1
REMARK minimizedAffinity 5.15640926
REMARK minimizedRMSD -1
REMARK  0 active torsions:
REMARK  status: ('A' for Active; 'I' for Inactive)
ROOT
ATOM      1  C   UNL d   1      -2.145   1.087   0.607  0.00  0.00     0.020 A 
ATOM      2  C1  UNL d   1      -2.846   0.672   1.739  0.00  0.00     0.020 A 
ATOM      3  C2  UNL d   1      -2.168   0.052   2.791  0.00  0.00     0.034 A 
ATOM      4  C3  UNL d   1      -0.786  -0.154   2.713  0.00  0.00     0.017 A 
ATOM      5  C4  UNL d   1      -0.084   0.263   1.577  0.00  0.00     0.017 A 
ATOM      6  C5  UNL d   1      -0.767   0.883   0.526  0.00  0.00     0.034 A 
ATOM      7 Cl   UNL d   1       1.622   0.043   1.409  0.00  0.00    -0.070 Cl
ATOM      8 Cl1  UNL d   1      -0.012  -0.926   4.052  0.00  0.00    -0.070 Cl
ENDROOT
TORSDOF 0
ENDMDL
