MODEL 1
REMARK minimizedAffinity 10.1583595
REMARK minimizedRMSD -1
REMARK  0 active torsions:
REMARK  status: ('A' for Active; 'I' for Inactive)
ROOT
ATOM      1  C   UNL d   1      -2.473   0.547   3.003  0.00  0.00     0.020 A 
ATOM      2  C1  UNL d   1      -2.955  -0.759   3.093  0.00  0.00     0.020 A 
ATOM      3  C2  UNL d   1      -3.329  -1.446   1.937  0.00  0.00     0.034 A 
ATOM      4  C3  UNL d   1      -3.223  -0.829   0.685  0.00  0.00     0.017 A 
ATOM      5  C4  UNL d   1      -2.739   0.481   0.596  0.00  0.00     0.017 A 
ATOM      6  C5  UNL d   1      -2.366   1.165   1.757  0.00  0.00     0.034 A 
ATOM      7 Cl   UNL d   1      -2.580   1.309  -0.913  0.00  0.00    -0.070 Cl
ATOM      8 Cl1  UNL d   1      -3.704  -1.739  -0.703  0.00  0.00    -0.070 Cl
ENDROOT
TORSDOF 0
ENDMDL
