MODEL 1
REMARK minimizedAffinity -2.90985465
REMARK minimizedRMSD -1
REMARK  0 active torsions:
REMARK  status: ('A' for Active; 'I' for Inactive)
ROOT
ATOM      1  C   UNL d   1      -1.458  -1.492   4.230  0.00  0.00     0.020 A 
ATOM      2  C1  UNL d   1      -0.090  -1.752   4.287  0.00  0.00     0.020 A 
ATOM      3  C2  UNL d   1       0.767  -1.194   3.335  0.00  0.00     0.034 A 
ATOM      4  C3  UNL d   1       0.256  -0.373   2.323  0.00  0.00     0.017 A 
ATOM      5  C4  UNL d   1      -1.118  -0.113   2.267  0.00  0.00     0.017 A 
ATOM      6  C5  UNL d   1      -1.971  -0.674   3.222  0.00  0.00     0.034 A 
ATOM      7 Cl   UNL d   1      -1.822   0.890   1.048  0.00  0.00    -0.070 Cl
ATOM      8 Cl1  UNL d   1       1.373   0.283   1.181  0.00  0.00    -0.070 Cl
ENDROOT
TORSDOF 0
ENDMDL
