MODEL 1
REMARK minimizedAffinity -0.370758712
REMARK minimizedRMSD -1
REMARK  0 active torsions:
REMARK  status: ('A' for Active; 'I' for Inactive)
ROOT
ATOM      1  C   UNL d   1      -2.526   0.281   2.164  0.00  0.00     0.020 A 
ATOM      2  C1  UNL d   1      -2.276   0.407   0.799  0.00  0.00     0.020 A 
ATOM      3  C2  UNL d   1      -1.038   0.026   0.278  0.00  0.00     0.034 A 
ATOM      4  C3  UNL d   1      -0.045  -0.484   1.123  0.00  0.00     0.017 A 
ATOM      5  C4  UNL d   1      -0.298  -0.610   2.494  0.00  0.00     0.017 A 
ATOM      6  C5  UNL d   1      -1.539  -0.227   3.010  0.00  0.00     0.034 A 
ATOM      7 Cl   UNL d   1       0.877  -1.230   3.600  0.00  0.00    -0.070 Cl
ATOM      8 Cl1  UNL d   1       1.463  -0.936   0.411  0.00  0.00    -0.070 Cl
ENDROOT
TORSDOF 0
ENDMDL
