MODEL 1
REMARK minimizedAffinity 1.52586162
REMARK minimizedRMSD -1
REMARK  0 active torsions:
REMARK  status: ('A' for Active; 'I' for Inactive)
ROOT
ATOM      1  C   UNL d   1      -1.940  -0.011   1.941  0.00  0.00     0.020 A 
ATOM      2  C1  UNL d   1      -3.036  -0.369   2.725  0.00  0.00     0.020 A 
ATOM      3  C2  UNL d   1      -2.838  -0.960   3.974  0.00  0.00     0.034 A 
ATOM      4  C3  UNL d   1      -1.541  -1.195   4.444  0.00  0.00     0.017 A 
ATOM      5  C4  UNL d   1      -0.441  -0.835   3.657  0.00  0.00     0.017 A 
ATOM      6  C5  UNL d   1      -0.645  -0.244   2.407  0.00  0.00     0.034 A 
ATOM      7 Cl   UNL d   1       1.190  -1.093   4.169  0.00  0.00    -0.070 Cl
ATOM      8 Cl1  UNL d   1      -1.370  -1.929   5.999  0.00  0.00    -0.070 Cl
ENDROOT
TORSDOF 0
ENDMDL
