MODEL 1
REMARK minimizedAffinity 4.03406763
REMARK minimizedRMSD -1
REMARK  0 active torsions:
REMARK  status: ('A' for Active; 'I' for Inactive)
ROOT
ATOM      1  C   UNL d   1       0.661  -0.789   4.103  0.00  0.00     0.020 A 
ATOM      2  C1  UNL d   1      -0.690  -0.505   4.298  0.00  0.00     0.020 A 
ATOM      3  C2  UNL d   1      -1.456   0.001   3.246  0.00  0.00     0.034 A 
ATOM      4  C3  UNL d   1      -0.871   0.227   1.994  0.00  0.00     0.017 A 
ATOM      5  C4  UNL d   1       0.485  -0.058   1.800  0.00  0.00     0.017 A 
ATOM      6  C5  UNL d   1       1.247  -0.565   2.857  0.00  0.00     0.034 A 
ATOM      7 Cl   UNL d   1       1.277   0.194   0.284  0.00  0.00    -0.070 Cl
ATOM      8 Cl1  UNL d   1      -1.878   0.855   0.738  0.00  0.00    -0.070 Cl
ENDROOT
TORSDOF 0
ENDMDL
