MODEL 1
REMARK minimizedAffinity -2.15373683
REMARK minimizedRMSD -1
REMARK  0 active torsions:
REMARK  status: ('A' for Active; 'I' for Inactive)
ROOT
ATOM      1  C   UNL d   1      -1.977   0.339   1.304  0.00  0.00     0.020 A 
ATOM      2  C1  UNL d   1      -2.147   0.009   2.648  0.00  0.00     0.020 A 
ATOM      3  C2  UNL d   1      -1.050  -0.389   3.414  0.00  0.00     0.034 A 
ATOM      4  C3  UNL d   1       0.223  -0.459   2.837  0.00  0.00     0.017 A 
ATOM      5  C4  UNL d   1       0.394  -0.128   1.487  0.00  0.00     0.017 A 
ATOM      6  C5  UNL d   1      -0.709   0.270   0.725  0.00  0.00     0.034 A 
ATOM      7 Cl   UNL d   1       1.933  -0.190   0.705  0.00  0.00    -0.070 Cl
ATOM      8 Cl1  UNL d   1       1.536  -0.959   3.843  0.00  0.00    -0.070 Cl
ENDROOT
TORSDOF 0
ENDMDL
