MODEL 1
REMARK minimizedAffinity 1.22739291
REMARK minimizedRMSD -1
REMARK  0 active torsions:
REMARK  status: ('A' for Active; 'I' for Inactive)
ROOT
ATOM      1  C   UNL d   1      -3.347  -1.375   4.384  0.00  0.00     0.020 A 
ATOM      2  C1  UNL d   1      -2.383  -1.820   5.288  0.00  0.00     0.020 A 
ATOM      3  C2  UNL d   1      -1.029  -1.747   4.955  0.00  0.00     0.034 A 
ATOM      4  C3  UNL d   1      -0.635  -1.228   3.716  0.00  0.00     0.017 A 
ATOM      5  C4  UNL d   1      -1.604  -0.782   2.810  0.00  0.00     0.017 A 
ATOM      6  C5  UNL d   1      -2.959  -0.857   3.148  0.00  0.00     0.034 A 
ATOM      7 Cl   UNL d   1      -1.196  -0.129   1.263  0.00  0.00    -0.070 Cl
ATOM      8 Cl1  UNL d   1       1.057  -1.167   3.371  0.00  0.00    -0.070 Cl
ENDROOT
TORSDOF 0
ENDMDL
