MODEL 1
REMARK minimizedAffinity 0.593592942
REMARK minimizedRMSD -1
REMARK  0 active torsions:
REMARK  status: ('A' for Active; 'I' for Inactive)
ROOT
ATOM      1  C   UNL d   1      -0.215  -1.010   3.723  0.00  0.00     0.020 A 
ATOM      2  C1  UNL d   1      -1.543  -0.748   3.385  0.00  0.00     0.020 A 
ATOM      3  C2  UNL d   1      -1.864  -0.315   2.097  0.00  0.00     0.034 A 
ATOM      4  C3  UNL d   1      -0.856  -0.142   1.141  0.00  0.00     0.017 A 
ATOM      5  C4  UNL d   1       0.476  -0.404   1.481  0.00  0.00     0.017 A 
ATOM      6  C5  UNL d   1       0.792  -0.838   2.772  0.00  0.00     0.034 A 
ATOM      7 Cl   UNL d   1       1.774  -0.213   0.356  0.00  0.00    -0.070 Cl
ATOM      8 Cl1  UNL d   1      -1.325   0.397  -0.432  0.00  0.00    -0.070 Cl
ENDROOT
TORSDOF 0
ENDMDL
