MODEL 1
REMARK minimizedAffinity 7.24097013
REMARK minimizedRMSD -1
REMARK  0 active torsions:
REMARK  status: ('A' for Active; 'I' for Inactive)
ROOT
ATOM      1  C1  BNZ d   1      -3.638   0.359  -0.868  0.00  0.00     0.000 A 
ATOM      2  C2  BNZ d   1      -3.654   0.294  -2.235  0.00  0.00     0.000 A 
ATOM      3  C3  BNZ d   1      -4.836   0.240  -2.919  0.00  0.00     0.000 A 
ATOM      4  C4  BNZ d   1      -5.997   0.210  -2.235  0.00  0.00     0.000 A 
ATOM      5  C5  BNZ d   1      -5.997   0.265  -0.855  0.00  0.00     0.000 A 
ATOM      6  C6  BNZ d   1      -4.807   0.359  -0.171  0.00  0.00     0.000 A 
ENDROOT
TORSDOF 0
ENDMDL
