MODEL 1
REMARK minimizedAffinity -0.0548297316
REMARK minimizedRMSD -1
REMARK  0 active torsions:
REMARK  status: ('A' for Active; 'I' for Inactive)
ROOT
ATOM      1  C1  BNZ d   1       4.059   1.804  -1.442  0.00  0.00     0.000 A 
ATOM      2  C2  BNZ d   1       2.860   1.159  -1.293  0.00  0.00     0.000 A 
ATOM      3  C3  BNZ d   1       2.592   0.431  -0.168  0.00  0.00     0.000 A 
ATOM      4  C4  BNZ d   1       3.537   0.316   0.788  0.00  0.00     0.000 A 
ATOM      5  C5  BNZ d   1       4.753   0.953   0.648  0.00  0.00     0.000 A 
ATOM      6  C6  BNZ d   1       5.005   1.717  -0.469  0.00  0.00     0.000 A 
ENDROOT
TORSDOF 0
ENDMDL
