MODEL 1
REMARK minimizedAffinity 6.76084995
REMARK minimizedRMSD -1
REMARK  0 active torsions:
REMARK  status: ('A' for Active; 'I' for Inactive)
ROOT
ATOM      1  C1  BNZ d   1       2.606   0.202   0.100  0.00  0.00     0.000 A 
ATOM      2  C2  BNZ d   1       3.402   1.232   0.525  0.00  0.00     0.000 A 
ATOM      3  C3  BNZ d   1       4.117   1.979  -0.369  0.00  0.00     0.000 A 
ATOM      4  C4  BNZ d   1       4.067   1.670  -1.681  0.00  0.00     0.000 A 
ATOM      5  C5  BNZ d   1       3.277   0.628  -2.124  0.00  0.00     0.000 A 
ATOM      6  C6  BNZ d   1       2.529  -0.097  -1.226  0.00  0.00     0.000 A 
ENDROOT
TORSDOF 0
ENDMDL
