MODEL 1
REMARK minimizedAffinity 0.899579346
REMARK minimizedRMSD -1
REMARK  0 active torsions:
REMARK  status: ('A' for Active; 'I' for Inactive)
ROOT
ATOM      1  C1  BNZ d   1       2.911  -0.254   0.478  0.00  0.00     0.000 A 
ATOM      2  C2  BNZ d   1       3.570   0.869   0.902  0.00  0.00     0.000 A 
ATOM      3  C3  BNZ d   1       3.913   1.854   0.020  0.00  0.00     0.000 A 
ATOM      4  C4  BNZ d   1       3.634   1.698  -1.290  0.00  0.00     0.000 A 
ATOM      5  C5  BNZ d   1       2.978   0.567  -1.735  0.00  0.00     0.000 A 
ATOM      6  C6  BNZ d   1       2.600  -0.405  -0.838  0.00  0.00     0.000 A 
ENDROOT
TORSDOF 0
ENDMDL
