MODEL 1
REMARK minimizedAffinity 7.58576202
REMARK minimizedRMSD -1
REMARK  0 active torsions:
REMARK  status: ('A' for Active; 'I' for Inactive)
ROOT
ATOM      1  C1  BNZ d   1       5.999   3.551  -3.869  0.00  0.00     0.000 A 
ATOM      2  C2  BNZ d   1       5.105   2.538  -3.644  0.00  0.00     0.000 A 
ATOM      3  C3  BNZ d   1       4.200   2.618  -2.623  0.00  0.00     0.000 A 
ATOM      4  C4  BNZ d   1       4.215   3.690  -1.805  0.00  0.00     0.000 A 
ATOM      5  C5  BNZ d   1       5.116   4.715  -2.013  0.00  0.00     0.000 A 
ATOM      6  C6  BNZ d   1       6.000   4.650  -3.066  0.00  0.00     0.000 A 
ENDROOT
TORSDOF 0
ENDMDL
