MODEL 1
REMARK minimizedAffinity 9.755229
REMARK minimizedRMSD -1
REMARK  0 active torsions:
REMARK  status: ('A' for Active; 'I' for Inactive)
ROOT
ATOM      1  C1  BNZ d   1      -2.166   1.429  -1.398  0.00  0.00     0.000 A 
ATOM      2  C2  BNZ d   1      -2.879   1.828  -0.300  0.00  0.00     0.000 A 
ATOM      3  C3  BNZ d   1      -4.067   1.231   0.018  0.00  0.00     0.000 A 
ATOM      4  C4  BNZ d   1      -4.559   0.265  -0.784  0.00  0.00     0.000 A 
ATOM      5  C5  BNZ d   1      -3.856  -0.142  -1.901  0.00  0.00     0.000 A 
ATOM      6  C6  BNZ d   1      -2.642   0.434  -2.196  0.00  0.00     0.000 A 
ENDROOT
TORSDOF 0
ENDMDL
