MODEL 1
REMARK minimizedAffinity 7.45334816
REMARK minimizedRMSD -1
REMARK  0 active torsions:
REMARK  status: ('A' for Active; 'I' for Inactive)
ROOT
ATOM      1  C1  BNZ d   1       3.844   3.421  -2.175  0.00  0.00     0.000 A 
ATOM      2  C2  BNZ d   1       3.052   2.998  -1.141  0.00  0.00     0.000 A 
ATOM      3  C3  BNZ d   1       2.756   1.673  -0.983  0.00  0.00     0.000 A 
ATOM      4  C4  BNZ d   1       3.218   0.778  -1.881  0.00  0.00     0.000 A 
ATOM      5  C5  BNZ d   1       4.009   1.190  -2.934  0.00  0.00     0.000 A 
ATOM      6  C6  BNZ d   1       4.338   2.520  -3.068  0.00  0.00     0.000 A 
ENDROOT
TORSDOF 0
ENDMDL
