MODEL 1
REMARK minimizedAffinity 2.59062743
REMARK minimizedRMSD -1
REMARK  0 active torsions:
REMARK  status: ('A' for Active; 'I' for Inactive)
ROOT
ATOM      1  C1  BNZ d   1      -3.646   4.467   3.062  0.00  0.00     0.000 A 
ATOM      2  C2  BNZ d   1      -4.820   4.091   2.465  0.00  0.00     0.000 A 
ATOM      3  C3  BNZ d   1      -6.000   4.131   3.153  0.00  0.00     0.000 A 
ATOM      4  C4  BNZ d   1      -6.000   4.507   4.448  0.00  0.00     0.000 A 
ATOM      5  C5  BNZ d   1      -4.824   4.880   5.068  0.00  0.00     0.000 A 
ATOM      6  C6  BNZ d   1      -3.643   4.876   4.360  0.00  0.00     0.000 A 
ENDROOT
TORSDOF 0
ENDMDL
