MODEL 1
REMARK minimizedAffinity 11.0672827
REMARK minimizedRMSD -1
REMARK  0 active torsions:
REMARK  status: ('A' for Active; 'I' for Inactive)
ROOT
ATOM      1  C1  BNZ d   1       1.593  -1.875   1.176  0.00  0.00     0.000 A 
ATOM      2  C2  BNZ d   1       1.353  -2.726   0.131  0.00  0.00     0.000 A 
ATOM      3  C3  BNZ d   1       1.315  -2.263  -1.155  0.00  0.00     0.000 A 
ATOM      4  C4  BNZ d   1       1.477  -0.945  -1.389  0.00  0.00     0.000 A 
ATOM      5  C5  BNZ d   1       1.711  -0.072  -0.345  0.00  0.00     0.000 A 
ATOM      6  C6  BNZ d   1       1.787  -0.548   0.944  0.00  0.00     0.000 A 
ENDROOT
TORSDOF 0
ENDMDL
