MODEL 1
REMARK minimizedAffinity 14.2787018
REMARK minimizedRMSD -1
REMARK  0 active torsions:
REMARK  status: ('A' for Active; 'I' for Inactive)
ROOT
ATOM      1  C1  BNZ d   1      -5.332   0.994  -5.910  0.00  0.00     0.000 A 
ATOM      2  C2  BNZ d   1      -5.331   2.363  -5.935  0.00  0.00     0.000 A 
ATOM      3  C3  BNZ d   1      -4.158   3.061  -5.999  0.00  0.00     0.000 A 
ATOM      4  C4  BNZ d   1      -2.987   2.391  -5.998  0.00  0.00     0.000 A 
ATOM      5  C5  BNZ d   1      -2.971   1.011  -5.964  0.00  0.00     0.000 A 
ATOM      6  C6  BNZ d   1      -4.156   0.311  -5.939  0.00  0.00     0.000 A 
ENDROOT
TORSDOF 0
ENDMDL
