MODEL 1
REMARK minimizedAffinity -0.893986583
REMARK minimizedRMSD -1
REMARK  0 active torsions:
REMARK  status: ('A' for Active; 'I' for Inactive)
ROOT
ATOM      1  C   UNL d   1      -0.361  -5.618   6.000  0.00  0.00     0.077 C 
ATOM      2  C1  UNL d   1      -0.234  -4.239   5.426  0.00  0.00    -0.074 A 
ATOM      3  C2  UNL d   1      -1.066  -3.814   4.384  0.00  0.00    -0.005 A 
ATOM      4  C3  UNL d   1      -0.942  -2.525   3.867  0.00  0.00     0.006 A 
ATOM      5  C4  UNL d   1       0.013  -1.649   4.384  0.00  0.00    -0.005 A 
ATOM      6  C5  UNL d   1       0.853  -2.055   5.425  0.00  0.00    -0.074 A 
ATOM      7  C6  UNL d   1       1.878  -1.123   5.999  0.00  0.00     0.077 C 
ATOM      8  C7  UNL d   1       0.718  -3.350   5.945  0.00  0.00    -0.001 A 
ENDROOT
TORSDOF 0
ENDMDL
