MODEL 1
REMARK minimizedAffinity 4.24644613
REMARK minimizedRMSD -1
REMARK  0 active torsions:
REMARK  status: ('A' for Active; 'I' for Inactive)
ROOT
ATOM      1  C   UNL d   1       3.310   0.643   5.999  0.00  0.00     0.077 C 
ATOM      2  C1  UNL d   1       3.472   2.134   6.000  0.00  0.00    -0.074 A 
ATOM      3  C2  UNL d   1       4.742   2.719   5.984  0.00  0.00    -0.005 A 
ATOM      4  C3  UNL d   1       4.876   4.107   5.975  0.00  0.00     0.006 A 
ATOM      5  C4  UNL d   1       3.744   4.923   5.983  0.00  0.00    -0.005 A 
ATOM      6  C5  UNL d   1       2.466   4.356   5.998  0.00  0.00    -0.074 A 
ATOM      7  C6  UNL d   1       1.239   5.218   5.996  0.00  0.00     0.077 C 
ATOM      8  C7  UNL d   1       2.339   2.960   6.000  0.00  0.00    -0.001 A 
ENDROOT
TORSDOF 0
ENDMDL
