MODEL 1
REMARK minimizedAffinity 5.72894669
REMARK minimizedRMSD -1
REMARK  0 active torsions:
REMARK  status: ('A' for Active; 'I' for Inactive)
ROOT
ATOM      1  C   UNL d   1       4.824   5.998   5.044  0.00  0.00     0.077 C 
ATOM      2  C1  UNL d   1       3.557   5.271   5.384  0.00  0.00    -0.074 A 
ATOM      3  C2  UNL d   1       2.351   5.962   5.540  0.00  0.00    -0.005 A 
ATOM      4  C3  UNL d   1       1.179   5.271   5.847  0.00  0.00     0.006 A 
ATOM      5  C4  UNL d   1       1.200   3.884   5.999  0.00  0.00    -0.005 A 
ATOM      6  C5  UNL d   1       2.396   3.176   5.845  0.00  0.00    -0.074 A 
ATOM      7  C6  UNL d   1       2.435   1.684   5.996  0.00  0.00     0.077 C 
ATOM      8  C7  UNL d   1       3.569   3.877   5.531  0.00  0.00    -0.001 A 
ENDROOT
TORSDOF 0
ENDMDL
