MODEL 1
REMARK minimizedAffinity 7.27212429
REMARK minimizedRMSD -1
REMARK  0 active torsions:
REMARK  status: ('A' for Active; 'I' for Inactive)
ROOT
ATOM      1  C   UNL d   1       0.498   5.261   5.970  0.00  0.00     0.077 C 
ATOM      2  C1  UNL d   1       1.776   4.476   5.987  0.00  0.00    -0.074 A 
ATOM      3  C2  UNL d   1       1.761   3.078   5.986  0.00  0.00    -0.005 A 
ATOM      4  C3  UNL d   1       2.958   2.361   5.992  0.00  0.00     0.006 A 
ATOM      5  C4  UNL d   1       4.180   3.035   5.999  0.00  0.00    -0.005 A 
ATOM      6  C5  UNL d   1       4.215   4.433   6.000  0.00  0.00    -0.074 A 
ATOM      7  C6  UNL d   1       5.520   5.172   5.998  0.00  0.00     0.077 C 
ATOM      8  C7  UNL d   1       3.008   5.146   5.987  0.00  0.00    -0.001 A 
ENDROOT
TORSDOF 0
ENDMDL
