MODEL 1
REMARK minimizedAffinity -0.257969081
REMARK minimizedRMSD -1
REMARK  0 active torsions:
REMARK  status: ('A' for Active; 'I' for Inactive)
ROOT
ATOM      1  C   UNL d   1       4.936   2.989   2.956  0.00  0.00     0.077 C 
ATOM      2  C1  UNL d   1       3.876   2.944   4.015  0.00  0.00    -0.074 A 
ATOM      3  C2  UNL d   1       3.771   1.851   4.882  0.00  0.00    -0.005 A 
ATOM      4  C3  UNL d   1       2.786   1.828   5.868  0.00  0.00     0.006 A 
ATOM      5  C4  UNL d   1       1.896   2.895   5.999  0.00  0.00    -0.005 A 
ATOM      6  C5  UNL d   1       1.986   3.997   5.142  0.00  0.00    -0.074 A 
ATOM      7  C6  UNL d   1       1.045   5.157   5.275  0.00  0.00     0.077 C 
ATOM      8  C7  UNL d   1       2.984   4.016   4.157  0.00  0.00    -0.001 A 
ENDROOT
TORSDOF 0
ENDMDL
