MODEL 1
REMARK minimizedAffinity -1.96835983
REMARK minimizedRMSD -1
REMARK  0 active torsions:
REMARK  status: ('A' for Active; 'I' for Inactive)
ROOT
ATOM      1  C   UNL d   1       1.124  -1.172   3.521  0.00  0.00     0.077 C 
ATOM      2  C1  UNL d   1       1.128  -2.425   4.344  0.00  0.00    -0.074 A 
ATOM      3  C2  UNL d   1       2.173  -2.699   5.232  0.00  0.00    -0.005 A 
ATOM      4  C3  UNL d   1       2.159  -3.864   5.998  0.00  0.00     0.006 A 
ATOM      5  C4  UNL d   1       1.100  -4.766   5.885  0.00  0.00    -0.005 A 
ATOM      6  C5  UNL d   1       0.045  -4.509   5.004  0.00  0.00    -0.074 A 
ATOM      7  C6  UNL d   1      -1.105  -5.464   4.877  0.00  0.00     0.077 C 
ATOM      8  C7  UNL d   1       0.064  -3.333   4.242  0.00  0.00    -0.001 A 
ENDROOT
TORSDOF 0
ENDMDL
