MODEL 1
REMARK minimizedAffinity 4.65260553
REMARK minimizedRMSD -1
REMARK  0 active torsions:
REMARK  status: ('A' for Active; 'I' for Inactive)
ROOT
ATOM      1  C   UNL d   1      -4.979   1.884   2.589  0.00  0.00     0.077 C 
ATOM      2  C1  UNL d   1      -4.782   1.095   1.329  0.00  0.00    -0.074 A 
ATOM      3  C2  UNL d   1      -5.855   0.436   0.719  0.00  0.00    -0.005 A 
ATOM      4  C3  UNL d   1      -5.658  -0.286  -0.458  0.00  0.00     0.006 A 
ATOM      5  C4  UNL d   1      -4.390  -0.357  -1.036  0.00  0.00    -0.005 A 
ATOM      6  C5  UNL d   1      -3.306   0.297  -0.441  0.00  0.00    -0.074 A 
ATOM      7  C6  UNL d   1      -1.939   0.239  -1.054  0.00  0.00     0.077 C 
ATOM      8  C7  UNL d   1      -3.513   1.026   0.738  0.00  0.00    -0.001 A 
ENDROOT
TORSDOF 0
ENDMDL
