MODEL 1
REMARK minimizedAffinity 9.6738224
REMARK minimizedRMSD -1
REMARK  0 active torsions:
REMARK  status: ('A' for Active; 'I' for Inactive)
ROOT
ATOM      1  C1  DEN d   1       1.365   2.042   1.269  0.00  0.00     0.130 A 
ATOM      2  C2  DEN d   1       0.378   2.857   0.567  0.00  0.00    -0.031 A 
ATOM      3  C3  DEN d   1      -0.955   2.528   1.110  0.00  0.00     0.027 A 
ATOM      4  C4  DEN d   1      -1.582   0.849   2.965  0.00  0.00     0.027 A 
ATOM      5  C5  DEN d   1      -1.087  -0.084   3.848  0.00  0.00    -0.003 A 
ATOM      6  C6  DEN d   1       0.246  -0.397   3.910  0.00  0.00     0.001 A 
ATOM      7  C7  DEN d   1       1.135   0.263   3.104  0.00  0.00     0.017 A 
ATOM      8  C8  DEN d   1       0.642   1.200   2.205  0.00  0.00    -0.094 A 
ATOM      9  C9  DEN d   1      -0.706   1.510   2.167  0.00  0.00    -0.072 A 
ENDROOT
TORSDOF 0
ENDMDL
