MODEL 1
REMARK minimizedAffinity 10.5720739
REMARK minimizedRMSD -1
REMARK  0 active torsions:
REMARK  status: ('A' for Active; 'I' for Inactive)
ROOT
ATOM      1  C1  DEN d   1       0.771  -5.940  -5.134  0.00  0.00     0.130 A 
ATOM      2  C2  DEN d   1      -0.362  -5.357  -5.847  0.00  0.00    -0.031 A 
ATOM      3  C3  DEN d   1      -1.229  -4.689  -4.856  0.00  0.00     0.027 A 
ATOM      4  C4  DEN d   1      -0.926  -4.496  -2.302  0.00  0.00     0.027 A 
ATOM      5  C5  DEN d   1      -0.122  -4.841  -1.238  0.00  0.00    -0.003 A 
ATOM      6  C6  DEN d   1       1.008  -5.599  -1.392  0.00  0.00     0.001 A 
ATOM      7  C7  DEN d   1       1.391  -5.999  -2.645  0.00  0.00     0.017 A 
ATOM      8  C8  DEN d   1       0.582  -5.662  -3.722  0.00  0.00    -0.094 A 
ATOM      9  C9  DEN d   1      -0.550  -4.884  -3.547  0.00  0.00    -0.072 A 
ENDROOT
TORSDOF 0
ENDMDL
