MODEL 1
REMARK minimizedAffinity 3.74580789
REMARK minimizedRMSD -1
REMARK  0 active torsions:
REMARK  status: ('A' for Active; 'I' for Inactive)
ROOT
ATOM      1  C1  DEN d   1       1.628   0.844   1.848  0.00  0.00     0.130 A 
ATOM      2  C2  DEN d   1       1.171  -0.212   2.747  0.00  0.00    -0.031 A 
ATOM      3  C3  DEN d   1      -0.154   0.177   3.272  0.00  0.00     0.027 A 
ATOM      4  C4  DEN d   1      -1.536   2.298   2.777  0.00  0.00     0.027 A 
ATOM      5  C5  DEN d   1      -1.557   3.488   2.085  0.00  0.00    -0.003 A 
ATOM      6  C6  DEN d   1      -0.511   3.894   1.298  0.00  0.00     0.001 A 
ATOM      7  C7  DEN d   1       0.581   3.080   1.149  0.00  0.00     0.017 A 
ATOM      8  C8  DEN d   1       0.612   1.882   1.850  0.00  0.00    -0.094 A 
ATOM      9  C9  DEN d   1      -0.460   1.484   2.630  0.00  0.00    -0.072 A 
ENDROOT
TORSDOF 0
ENDMDL
