MODEL 1
REMARK minimizedAffinity 8.4591341
REMARK minimizedRMSD -1
REMARK  0 active torsions:
REMARK  status: ('A' for Active; 'I' for Inactive)
ROOT
ATOM      1  C1  DEN d   1       0.384  -3.341  -0.996  0.00  0.00     0.130 A 
ATOM      2  C2  DEN d   1      -0.617  -4.267  -1.517  0.00  0.00    -0.031 A 
ATOM      3  C3  DEN d   1      -1.475  -3.527  -2.465  0.00  0.00     0.027 A 
ATOM      4  C4  DEN d   1      -1.345  -1.051  -3.176  0.00  0.00     0.027 A 
ATOM      5  C5  DEN d   1      -0.670   0.135  -2.994  0.00  0.00    -0.003 A 
ATOM      6  C6  DEN d   1       0.374   0.254  -2.115  0.00  0.00     0.001 A 
ATOM      7  C7  DEN d   1       0.803  -0.845  -1.418  0.00  0.00     0.017 A 
ATOM      8  C8  DEN d   1       0.122  -2.043  -1.591  0.00  0.00    -0.094 A 
ATOM      9  C9  DEN d   1      -0.924  -2.145  -2.493  0.00  0.00    -0.072 A 
ENDROOT
TORSDOF 0
ENDMDL
