MODEL 1
REMARK minimizedAffinity 1.42912436
REMARK minimizedRMSD -1
REMARK  0 active torsions:
REMARK  status: ('A' for Active; 'I' for Inactive)
ROOT
ATOM      1  C1  DEN d   1       1.170   0.193  -0.323  0.00  0.00     0.130 A 
ATOM      2  C2  DEN d   1       1.163  -0.957   0.576  0.00  0.00    -0.031 A 
ATOM      3  C3  DEN d   1       0.647  -0.511   1.886  0.00  0.00     0.027 A 
ATOM      4  C4  DEN d   1      -0.141   1.838   2.604  0.00  0.00     0.027 A 
ATOM      5  C5  DEN d   1      -0.309   3.141   2.189  0.00  0.00    -0.003 A 
ATOM      6  C6  DEN d   1       0.032   3.557   0.930  0.00  0.00     0.001 A 
ATOM      7  C7  DEN d   1       0.519   2.651   0.025  0.00  0.00     0.017 A 
ATOM      8  C8  DEN d   1       0.698   1.337   0.437  0.00  0.00    -0.094 A 
ATOM      9  C9  DEN d   1       0.335   0.934   1.711  0.00  0.00    -0.072 A 
ENDROOT
TORSDOF 0
ENDMDL
