MODEL 1
REMARK minimizedAffinity 6.9502244
REMARK minimizedRMSD -1
REMARK  0 active torsions:
REMARK  status: ('A' for Active; 'I' for Inactive)
ROOT
ATOM      1  C   UNL d   1      -5.048   5.025  -5.255  0.00  0.00     0.023 A 
ATOM      2  C1  UNL d   1      -5.998   4.009  -5.143  0.00  0.00     0.003 A 
ATOM      3  C2  UNL d   1      -5.783   2.944  -4.267  0.00  0.00     0.048 A 
ATOM      4  C3  UNL d   1      -4.616   2.900  -3.505  0.00  0.00     0.023 A 
ATOM      5  C4  UNL d   1      -3.663   3.914  -3.612  0.00  0.00     0.048 A 
ATOM      6  C5  UNL d   1      -3.882   4.977  -4.490  0.00  0.00     0.003 A 
ATOM      7  I   UNL d   1      -4.294   1.314  -2.200  0.00  0.00    -0.146 I 
ENDROOT
TORSDOF 0
ENDMDL
