MODEL 1
REMARK minimizedAffinity 3.57481122
REMARK minimizedRMSD -1
REMARK  0 active torsions:
REMARK  status: ('A' for Active; 'I' for Inactive)
ROOT
ATOM      1  C   UNL d   1      -1.600   1.386  -2.884  0.00  0.00     0.023 A 
ATOM      2  C1  UNL d   1      -0.340   0.875  -3.194  0.00  0.00     0.003 A 
ATOM      3  C2  UNL d   1      -0.149  -0.505  -3.291  0.00  0.00     0.048 A 
ATOM      4  C3  UNL d   1      -1.223  -1.368  -3.076  0.00  0.00     0.023 A 
ATOM      5  C4  UNL d   1      -2.486  -0.862  -2.766  0.00  0.00     0.048 A 
ATOM      6  C5  UNL d   1      -2.672   0.519  -2.670  0.00  0.00     0.003 A 
ATOM      7  I   UNL d   1      -0.941  -3.422  -3.220  0.00  0.00    -0.146 I 
ENDROOT
TORSDOF 0
ENDMDL
