MODEL 1
REMARK minimizedAffinity 12.0351934
REMARK minimizedRMSD -1
REMARK  0 active torsions:
REMARK  status: ('A' for Active; 'I' for Inactive)
ROOT
ATOM      1  C   UNL d   1      -4.233   1.952  -1.035  0.00  0.00     0.023 A 
ATOM      2  C1  UNL d   1      -4.946   0.766  -1.204  0.00  0.00     0.003 A 
ATOM      3  C2  UNL d   1      -4.394  -0.283  -1.944  0.00  0.00     0.048 A 
ATOM      4  C3  UNL d   1      -3.129  -0.137  -2.511  0.00  0.00     0.023 A 
ATOM      5  C4  UNL d   1      -2.411   1.048  -2.343  0.00  0.00     0.048 A 
ATOM      6  C5  UNL d   1      -2.967   2.093  -1.604  0.00  0.00     0.003 A 
ATOM      7  I   UNL d   1      -2.305  -1.696  -3.612  0.00  0.00    -0.146 I 
ENDROOT
TORSDOF 0
ENDMDL
