MODEL 1
REMARK minimizedAffinity 1.58743691
REMARK minimizedRMSD -1
REMARK  0 active torsions:
REMARK  status: ('A' for Active; 'I' for Inactive)
ROOT
ATOM      1  C   UNL d   1      -0.742  -0.328  -5.321  0.00  0.00     0.023 A 
ATOM      2  C1  UNL d   1      -1.933  -1.055  -5.332  0.00  0.00     0.003 A 
ATOM      3  C2  UNL d   1      -2.017  -2.270  -4.650  0.00  0.00     0.048 A 
ATOM      4  C3  UNL d   1      -0.908  -2.753  -3.956  0.00  0.00     0.023 A 
ATOM      5  C4  UNL d   1       0.285  -2.028  -3.941  0.00  0.00     0.048 A 
ATOM      6  C5  UNL d   1       0.365  -0.814  -4.626  0.00  0.00     0.003 A 
ATOM      7  I   UNL d   1      -1.031  -4.561  -2.939  0.00  0.00    -0.146 I 
ENDROOT
TORSDOF 0
ENDMDL
