MODEL 1
REMARK minimizedAffinity 3.89093852
REMARK minimizedRMSD -1
REMARK  0 active torsions:
REMARK  status: ('A' for Active; 'I' for Inactive)
ROOT
ATOM      1  C   UNL d   1       1.113  -1.716  -1.267  0.00  0.00     0.023 A 
ATOM      2  C1  UNL d   1       0.845  -0.693  -2.176  0.00  0.00     0.003 A 
ATOM      3  C2  UNL d   1       0.702   0.622  -1.728  0.00  0.00     0.048 A 
ATOM      4  C3  UNL d   1       0.829   0.906  -0.368  0.00  0.00     0.023 A 
ATOM      5  C4  UNL d   1       1.098  -0.115   0.545  0.00  0.00     0.048 A 
ATOM      6  C5  UNL d   1       1.239  -1.428   0.092  0.00  0.00     0.003 A 
ATOM      7  I   UNL d   1       0.618   2.862   0.302  0.00  0.00    -0.146 I 
ENDROOT
TORSDOF 0
ENDMDL
