MODEL 1
REMARK minimizedAffinity 5.19167995
REMARK minimizedRMSD -1
REMARK  0 active torsions:
REMARK  status: ('A' for Active; 'I' for Inactive)
ROOT
ATOM      1  C   UNL d   1       5.445  -3.582  -0.719  0.00  0.00     0.023 A 
ATOM      2  C1  UNL d   1       5.642  -2.998  -1.970  0.00  0.00     0.003 A 
ATOM      3  C2  UNL d   1       5.285  -3.690  -3.129  0.00  0.00     0.048 A 
ATOM      4  C3  UNL d   1       4.730  -4.965  -3.030  0.00  0.00     0.023 A 
ATOM      5  C4  UNL d   1       4.530  -5.553  -1.780  0.00  0.00     0.048 A 
ATOM      6  C5  UNL d   1       4.889  -4.858  -0.624  0.00  0.00     0.003 A 
ATOM      7  I   UNL d   1       4.197  -5.997  -4.753  0.00  0.00    -0.146 I 
ENDROOT
TORSDOF 0
ENDMDL
