MODEL 1
REMARK minimizedAffinity 5.05351734
REMARK minimizedRMSD -1
REMARK  0 active torsions:
REMARK  status: ('A' for Active; 'I' for Inactive)
ROOT
ATOM      1  C   UNL d   1      -4.948   5.416  -5.634  0.00  0.00     0.023 A 
ATOM      2  C1  UNL d   1      -3.805   5.171  -4.872  0.00  0.00     0.003 A 
ATOM      3  C2  UNL d   1      -3.713   4.009  -4.104  0.00  0.00     0.048 A 
ATOM      4  C3  UNL d   1      -4.767   3.095  -4.102  0.00  0.00     0.023 A 
ATOM      5  C4  UNL d   1      -5.912   3.336  -4.864  0.00  0.00     0.048 A 
ATOM      6  C5  UNL d   1      -6.000   4.500  -5.629  0.00  0.00     0.003 A 
ATOM      7  I   UNL d   1      -4.631   1.364  -2.960  0.00  0.00    -0.146 I 
ENDROOT
TORSDOF 0
ENDMDL
