MODEL 1
REMARK minimizedAffinity 7.02390194
REMARK minimizedRMSD -1
REMARK  0 active torsions:
REMARK  status: ('A' for Active; 'I' for Inactive)
ROOT
ATOM      1  C   UNL d   1       1.126   3.396   1.472  0.00  0.00     0.023 A 
ATOM      2  C1  UNL d   1       0.459   3.126   0.277  0.00  0.00     0.003 A 
ATOM      3  C2  UNL d   1       0.745   3.873  -0.868  0.00  0.00     0.048 A 
ATOM      4  C3  UNL d   1       1.700   4.887  -0.811  0.00  0.00     0.023 A 
ATOM      5  C4  UNL d   1       2.371   5.160   0.382  0.00  0.00     0.048 A 
ATOM      6  C5  UNL d   1       2.081   4.411   1.524  0.00  0.00     0.003 A 
ATOM      7  I   UNL d   1       2.128   6.000  -2.514  0.00  0.00    -0.146 I 
ENDROOT
TORSDOF 0
ENDMDL
