MODEL 1
REMARK minimizedAffinity 3.14017987
REMARK minimizedRMSD -1
REMARK  0 active torsions:
REMARK  status: ('A' for Active; 'I' for Inactive)
ROOT
ATOM      1  C   UNL d   1       5.056  -4.325  -3.494  0.00  0.00     0.023 A 
ATOM      2  C1  UNL d   1       4.105  -5.268  -3.101  0.00  0.00     0.003 A 
ATOM      3  C2  UNL d   1       4.097  -5.749  -1.791  0.00  0.00     0.048 A 
ATOM      4  C3  UNL d   1       5.042  -5.283  -0.877  0.00  0.00     0.023 A 
ATOM      5  C4  UNL d   1       5.995  -4.340  -1.265  0.00  0.00     0.048 A 
ATOM      6  C5  UNL d   1       6.000  -3.862  -2.577  0.00  0.00     0.003 A 
ATOM      7  I   UNL d   1       5.032  -5.999   1.074  0.00  0.00    -0.146 I 
ENDROOT
TORSDOF 0
ENDMDL
