MODEL 1
REMARK minimizedAffinity 1.07195091
REMARK minimizedRMSD -1
REMARK  0 active torsions:
REMARK  status: ('A' for Active; 'I' for Inactive)
ROOT
ATOM      1  C2' OXE d   1       3.349  -4.301  -0.291  0.00  0.00     0.078 C 
ATOM      2  C1' OXE d   1       3.767  -1.556   0.123  0.00  0.00     0.078 C 
ATOM      3  C1  OXE d   1       2.380  -2.100   0.359  0.00  0.00    -0.078 A 
ATOM      4  C2  OXE d   1       2.173  -3.435   0.109  0.00  0.00    -0.078 A 
ATOM      5  C3  OXE d   1       0.926  -3.999   0.362  0.00  0.00     0.003 A 
ATOM      6  C4  OXE d   1      -0.158  -3.190   0.722  0.00  0.00    -0.002 A 
ATOM      7  C5  OXE d   1       0.022  -1.820   0.944  0.00  0.00    -0.002 A 
ATOM      8  C6  OXE d   1       1.291  -1.269   0.808  0.00  0.00     0.003 A 
ENDROOT
TORSDOF 0
ENDMDL
