MODEL 1
REMARK minimizedAffinity 9.60105801
REMARK minimizedRMSD -1
REMARK  0 active torsions:
REMARK  status: ('A' for Active; 'I' for Inactive)
ROOT
ATOM      1  C2' OXE d   1       1.613  -0.077   2.966  0.00  0.00     0.078 C 
ATOM      2  C1' OXE d   1       3.052  -0.486   0.591  0.00  0.00     0.078 C 
ATOM      3  C1  OXE d   1       1.570  -0.764   0.572  0.00  0.00    -0.078 A 
ATOM      4  C2  OXE d   1       0.882  -0.606   1.750  0.00  0.00    -0.078 A 
ATOM      5  C3  OXE d   1      -0.497  -0.796   1.775  0.00  0.00     0.003 A 
ATOM      6  C4  OXE d   1      -1.163  -1.295   0.649  0.00  0.00    -0.002 A 
ATOM      7  C5  OXE d   1      -0.474  -1.501  -0.551  0.00  0.00    -0.002 A 
ATOM      8  C6  OXE d   1       0.882  -1.201  -0.618  0.00  0.00     0.003 A 
ENDROOT
TORSDOF 0
ENDMDL
