MODEL 1
REMARK minimizedAffinity 2.64670444
REMARK minimizedRMSD -1
REMARK  0 active torsions:
REMARK  status: ('A' for Active; 'I' for Inactive)
ROOT
ATOM      1  C2' OXE d   1      -1.604  -1.915   0.483  0.00  0.00     0.078 C 
ATOM      2  C1' OXE d   1       0.226  -3.872  -0.356  0.00  0.00     0.078 C 
ATOM      3  C1  OXE d   1       0.776  -2.544   0.101  0.00  0.00    -0.078 A 
ATOM      4  C2  OXE d   1      -0.129  -1.577   0.465  0.00  0.00    -0.078 A 
ATOM      5  C3  OXE d   1       0.327  -0.353   0.947  0.00  0.00     0.003 A 
ATOM      6  C4  OXE d   1       1.692  -0.044   0.919  0.00  0.00    -0.002 A 
ATOM      7  C5  OXE d   1       2.628  -1.002   0.513  0.00  0.00    -0.002 A 
ATOM      8  C6  OXE d   1       2.191  -2.268   0.143  0.00  0.00     0.003 A 
ENDROOT
TORSDOF 0
ENDMDL
