MODEL 1
REMARK minimizedAffinity -4.17021656
REMARK minimizedRMSD -1
REMARK  0 active torsions:
REMARK  status: ('A' for Active; 'I' for Inactive)
ROOT
ATOM      1  C2' OXE d   1       3.053  -2.780   0.165  0.00  0.00     0.078 C 
ATOM      2  C1' OXE d   1       2.318  -0.097  -0.218  0.00  0.00     0.078 C 
ATOM      3  C1  OXE d   1       1.244  -1.068   0.204  0.00  0.00    -0.078 A 
ATOM      4  C2  OXE d   1       1.602  -2.387   0.344  0.00  0.00    -0.078 A 
ATOM      5  C3  OXE d   1       0.662  -3.314   0.785  0.00  0.00     0.003 A 
ATOM      6  C4  OXE d   1      -0.679  -2.945   0.939  0.00  0.00    -0.002 A 
ATOM      7  C5  OXE d   1      -1.074  -1.614   0.763  0.00  0.00    -0.002 A 
ATOM      8  C6  OXE d   1      -0.119  -0.657   0.438  0.00  0.00     0.003 A 
ENDROOT
TORSDOF 0
ENDMDL
