MODEL 1
REMARK minimizedAffinity -1.50620246
REMARK minimizedRMSD -1
REMARK  0 active torsions:
REMARK  status: ('A' for Active; 'I' for Inactive)
ROOT
ATOM      1  C2' OXE d   1       3.045  -4.340  -0.051  0.00  0.00     0.078 C 
ATOM      2  C1' OXE d   1       3.733  -1.631   0.205  0.00  0.00     0.078 C 
ATOM      3  C1  OXE d   1       2.280  -2.005   0.358  0.00  0.00    -0.078 A 
ATOM      4  C2  OXE d   1       1.946  -3.327   0.185  0.00  0.00    -0.078 A 
ATOM      5  C3  OXE d   1       0.628  -3.735   0.369  0.00  0.00     0.003 A 
ATOM      6  C4  OXE d   1      -0.384  -2.790   0.576  0.00  0.00    -0.002 A 
ATOM      7  C5  OXE d   1      -0.071  -1.434   0.716  0.00  0.00    -0.002 A 
ATOM      8  C6  OXE d   1       1.258  -1.031   0.652  0.00  0.00     0.003 A 
ENDROOT
TORSDOF 0
ENDMDL
