MODEL 1
REMARK minimizedAffinity 1.3511585
REMARK minimizedRMSD -1
REMARK  0 active torsions:
REMARK  status: ('A' for Active; 'I' for Inactive)
ROOT
ATOM      1  C2' OXE d   1       3.555  -3.994  -0.662  0.00  0.00     0.078 C 
ATOM      2  C1' OXE d   1       4.150  -1.420   0.289  0.00  0.00     0.078 C 
ATOM      3  C1  OXE d   1       2.730  -1.911   0.427  0.00  0.00    -0.078 A 
ATOM      4  C2  OXE d   1       2.438  -3.153  -0.083  0.00  0.00    -0.078 A 
ATOM      5  C3  OXE d   1       1.157  -3.675   0.066  0.00  0.00     0.003 A 
ATOM      6  C4  OXE d   1       0.127  -2.887   0.593  0.00  0.00    -0.002 A 
ATOM      7  C5  OXE d   1       0.394  -1.604   1.083  0.00  0.00    -0.002 A 
ATOM      8  C6  OXE d   1       1.696  -1.118   1.046  0.00  0.00     0.003 A 
ENDROOT
TORSDOF 0
ENDMDL
