MODEL 1
REMARK minimizedAffinity -0.131365359
REMARK minimizedRMSD -1
REMARK  0 active torsions:
REMARK  status: ('A' for Active; 'I' for Inactive)
ROOT
ATOM      1  C2' OXE d   1       2.351  -3.945   0.402  0.00  0.00     0.078 C 
ATOM      2  C1' OXE d   1      -0.384  -4.027  -0.227  0.00  0.00     0.078 C 
ATOM      3  C1  OXE d   1       0.198  -2.706   0.209  0.00  0.00    -0.078 A 
ATOM      4  C2  OXE d   1       1.527  -2.685   0.559  0.00  0.00    -0.078 A 
ATOM      5  C3  OXE d   1       2.127  -1.481   0.916  0.00  0.00     0.003 A 
ATOM      6  C4  OXE d   1       1.355  -0.323   1.070  0.00  0.00    -0.002 A 
ATOM      7  C5  OXE d   1      -0.008  -0.331   0.756  0.00  0.00    -0.002 A 
ATOM      8  C6  OXE d   1      -0.592  -1.502   0.285  0.00  0.00     0.003 A 
ENDROOT
TORSDOF 0
ENDMDL
