MODEL 1
REMARK minimizedAffinity -2.81776977
REMARK minimizedRMSD -1
REMARK  0 active torsions:
REMARK  status: ('A' for Active; 'I' for Inactive)
ROOT
ATOM      1  C2' OXE d   1      -1.162  -0.876   0.508  0.00  0.00     0.078 C 
ATOM      2  C1' OXE d   1       1.192   0.068   1.709  0.00  0.00     0.078 C 
ATOM      3  C1  OXE d   1       1.241  -1.276   1.026  0.00  0.00    -0.078 A 
ATOM      4  C2  OXE d   1       0.073  -1.751   0.482  0.00  0.00    -0.078 A 
ATOM      5  C3  OXE d   1       0.075  -2.960  -0.207  0.00  0.00     0.003 A 
ATOM      6  C4  OXE d   1       1.219  -3.768  -0.218  0.00  0.00    -0.002 A 
ATOM      7  C5  OXE d   1       2.409  -3.320   0.365  0.00  0.00    -0.002 A 
ATOM      8  C6  OXE d   1       2.449  -2.061   0.953  0.00  0.00     0.003 A 
ENDROOT
TORSDOF 0
ENDMDL
