MODEL 1
REMARK minimizedAffinity -2.35375619
REMARK minimizedRMSD -1
REMARK  0 active torsions:
REMARK  status: ('A' for Active; 'I' for Inactive)
ROOT
ATOM      1  C2' OXE d   1       0.761  -3.943  -0.513  0.00  0.00     0.078 C 
ATOM      2  C1' OXE d   1       3.098  -2.403  -0.302  0.00  0.00     0.078 C 
ATOM      3  C1  OXE d   1       1.812  -1.802   0.208  0.00  0.00    -0.078 A 
ATOM      4  C2  OXE d   1       0.665  -2.544   0.058  0.00  0.00    -0.078 A 
ATOM      5  C3  OXE d   1      -0.539  -2.060   0.561  0.00  0.00     0.003 A 
ATOM      6  C4  OXE d   1      -0.621  -0.762   1.078  0.00  0.00    -0.002 A 
ATOM      7  C5  OXE d   1       0.529   0.026   1.204  0.00  0.00    -0.002 A 
ATOM      8  C6  OXE d   1       1.757  -0.495   0.813  0.00  0.00     0.003 A 
ENDROOT
TORSDOF 0
ENDMDL
