MODEL 1
REMARK minimizedAffinity -0.746575713
REMARK minimizedRMSD -1
REMARK  0 active torsions:
REMARK  status: ('A' for Active; 'I' for Inactive)
ROOT
ATOM      1  C2' OXE d   1       3.231  -4.414  -0.345  0.00  0.00     0.078 C 
ATOM      2  C1' OXE d   1       3.968  -1.732   0.032  0.00  0.00     0.078 C 
ATOM      3  C1  OXE d   1       2.545  -2.120   0.344  0.00  0.00    -0.078 A 
ATOM      4  C2  OXE d   1       2.180  -3.425   0.112  0.00  0.00    -0.078 A 
ATOM      5  C3  OXE d   1       0.894  -3.849   0.434  0.00  0.00     0.003 A 
ATOM      6  C4  OXE d   1      -0.074  -2.926   0.846  0.00  0.00    -0.002 A 
ATOM      7  C5  OXE d   1       0.266  -1.584   1.051  0.00  0.00    -0.002 A 
ATOM      8  C6  OXE d   1       1.578  -1.175   0.845  0.00  0.00     0.003 A 
ENDROOT
TORSDOF 0
ENDMDL
