MODEL 1
REMARK minimizedAffinity -4.18278694
REMARK minimizedRMSD -1
REMARK  0 active torsions:
REMARK  status: ('A' for Active; 'I' for Inactive)
ROOT
ATOM      1  C2' OXE d   1       2.209  -3.760  -0.530  0.00  0.00     0.078 C 
ATOM      2  C1' OXE d   1       3.002  -1.067  -0.478  0.00  0.00     0.078 C 
ATOM      3  C1  OXE d   1       1.713  -1.434   0.214  0.00  0.00    -0.078 A 
ATOM      4  C2  OXE d   1       1.309  -2.746   0.143  0.00  0.00    -0.078 A 
ATOM      5  C3  OXE d   1       0.155  -3.149   0.810  0.00  0.00     0.003 A 
ATOM      6  C4  OXE d   1      -0.677  -2.204   1.422  0.00  0.00    -0.002 A 
ATOM      7  C5  OXE d   1      -0.304  -0.856   1.471  0.00  0.00    -0.002 A 
ATOM      8  C6  OXE d   1       0.906  -0.463   0.910  0.00  0.00     0.003 A 
ENDROOT
TORSDOF 0
ENDMDL
