MODEL 1
REMARK minimizedAffinity 4.09116936
REMARK minimizedRMSD -1
REMARK  0 active torsions:
REMARK  status: ('A' for Active; 'I' for Inactive)
ROOT
ATOM      1  C2' OXE d   1      -1.871   1.513   2.711  0.00  0.00     0.078 C 
ATOM      2  C1' OXE d   1      -3.564   0.415   0.759  0.00  0.00     0.078 C 
ATOM      3  C1  OXE d   1      -2.258  -0.288   1.034  0.00  0.00    -0.078 A 
ATOM      4  C2  OXE d   1      -1.415   0.282   1.957  0.00  0.00    -0.078 A 
ATOM      5  C3  OXE d   1      -0.223  -0.355   2.287  0.00  0.00     0.003 A 
ATOM      6  C4  OXE d   1       0.196  -1.488   1.578  0.00  0.00    -0.002 A 
ATOM      7  C5  OXE d   1      -0.630  -2.062   0.606  0.00  0.00    -0.002 A 
ATOM      8  C6  OXE d   1      -1.876  -1.500   0.352  0.00  0.00     0.003 A 
ENDROOT
TORSDOF 0
ENDMDL
