MODEL 1
REMARK minimizedAffinity -3.18473196
REMARK minimizedRMSD -1
REMARK  0 active torsions:
REMARK  status: ('A' for Active; 'I' for Inactive)
ROOT
ATOM      1  C2' OXE d   1      -0.883  -1.094   0.590  0.00  0.00     0.078 C 
ATOM      2  C1' OXE d   1       1.527  -0.024   1.554  0.00  0.00     0.078 C 
ATOM      3  C1  OXE d   1       1.571  -1.385   0.905  0.00  0.00    -0.078 A 
ATOM      4  C2  OXE d   1       0.380  -1.921   0.479  0.00  0.00    -0.078 A 
ATOM      5  C3  OXE d   1       0.372  -3.150  -0.176  0.00  0.00     0.003 A 
ATOM      6  C4  OXE d   1       1.542  -3.913  -0.265  0.00  0.00    -0.002 A 
ATOM      7  C5  OXE d   1       2.759  -3.402   0.199  0.00  0.00    -0.002 A 
ATOM      8  C6  OXE d   1       2.798  -2.125   0.747  0.00  0.00     0.003 A 
ENDROOT
TORSDOF 0
ENDMDL
