MODEL 1
REMARK minimizedAffinity 2.61427641
REMARK minimizedRMSD -1
REMARK  0 active torsions:
REMARK  status: ('A' for Active; 'I' for Inactive)
ROOT
ATOM      1  C2' OXE d   1       0.773  -3.629   0.048  0.00  0.00     0.078 C 
ATOM      2  C1' OXE d   1       2.958  -1.868   0.095  0.00  0.00     0.078 C 
ATOM      3  C1  OXE d   1       1.627  -1.350   0.578  0.00  0.00    -0.078 A 
ATOM      4  C2  OXE d   1       0.553  -2.204   0.508  0.00  0.00    -0.078 A 
ATOM      5  C3  OXE d   1      -0.686  -1.794   0.991  0.00  0.00     0.003 A 
ATOM      6  C4  OXE d   1      -0.884  -0.471   1.405  0.00  0.00    -0.002 A 
ATOM      7  C5  OXE d   1       0.188   0.427   1.447  0.00  0.00    -0.002 A 
ATOM      8  C6  OXE d   1       1.456  -0.008   1.077  0.00  0.00     0.003 A 
ENDROOT
TORSDOF 0
ENDMDL
