MODEL 1
REMARK minimizedAffinity -2.27175498
REMARK minimizedRMSD -1
REMARK  0 active torsions:
REMARK  status: ('A' for Active; 'I' for Inactive)
ROOT
ATOM      1  C2' OXE d   1       2.663  -4.206   0.133  0.00  0.00     0.078 C 
ATOM      2  C1' OXE d   1       3.858  -1.672   0.307  0.00  0.00     0.078 C 
ATOM      3  C1  OXE d   1       2.361  -1.757   0.470  0.00  0.00    -0.078 A 
ATOM      4  C2  OXE d   1       1.779  -2.995   0.337  0.00  0.00    -0.078 A 
ATOM      5  C3  OXE d   1       0.409  -3.137   0.532  0.00  0.00     0.003 A 
ATOM      6  C4  OXE d   1      -0.403  -2.010   0.711  0.00  0.00    -0.002 A 
ATOM      7  C5  OXE d   1       0.165  -0.735   0.809  0.00  0.00    -0.002 A 
ATOM      8  C6  OXE d   1       1.546  -0.596   0.734  0.00  0.00     0.003 A 
ENDROOT
TORSDOF 0
ENDMDL
