MODEL 1
REMARK minimizedAffinity -0.449269056
REMARK minimizedRMSD -1
REMARK  0 active torsions:
REMARK  status: ('A' for Active; 'I' for Inactive)
ROOT
ATOM      1  C2' OXE d   1      -1.625  -2.599   1.024  0.00  0.00     0.078 C 
ATOM      2  C1' OXE d   1      -0.420  -0.901   2.907  0.00  0.00     0.078 C 
ATOM      3  C1  OXE d   1       0.329  -1.176   1.628  0.00  0.00    -0.078 A 
ATOM      4  C2  OXE d   1      -0.247  -2.045   0.732  0.00  0.00    -0.078 A 
ATOM      5  C3  OXE d   1       0.376  -2.291  -0.488  0.00  0.00     0.003 A 
ATOM      6  C4  OXE d   1       1.655  -1.783  -0.746  0.00  0.00    -0.002 A 
ATOM      7  C5  OXE d   1       2.277  -0.928   0.170  0.00  0.00    -0.002 A 
ATOM      8  C6  OXE d   1       1.610  -0.581   1.340  0.00  0.00     0.003 A 
ENDROOT
TORSDOF 0
ENDMDL
