MODEL 1
REMARK minimizedAffinity -1.77450418
REMARK minimizedRMSD -1
REMARK  0 active torsions:
REMARK  status: ('A' for Active; 'I' for Inactive)
ROOT
ATOM      1  C2' OXE d   1       3.073  -2.793  -0.489  0.00  0.00     0.078 C 
ATOM      2  C1' OXE d   1       0.666  -4.102   0.124  0.00  0.00     0.078 C 
ATOM      3  C1  OXE d   1       0.746  -2.618   0.383  0.00  0.00    -0.078 A 
ATOM      4  C2  OXE d   1       1.943  -1.994   0.124  0.00  0.00    -0.078 A 
ATOM      5  C3  OXE d   1       2.053  -0.617   0.294  0.00  0.00     0.003 A 
ATOM      6  C4  OXE d   1       1.007   0.112   0.870  0.00  0.00    -0.002 A 
ATOM      7  C5  OXE d   1      -0.207  -0.511   1.179  0.00  0.00    -0.002 A 
ATOM      8  C6  OXE d   1      -0.368  -1.864   0.903  0.00  0.00     0.003 A 
ENDROOT
TORSDOF 0
ENDMDL
