MODEL 1
REMARK minimizedAffinity -5.26720524
REMARK minimizedRMSD -1
REMARK  1 active torsions:
REMARK  status: ('A' for Active; 'I' for Inactive)
REMARK    1  A    between atoms: N_2  and  C1_3 
ROOT
ATOM      1  C1  UNL d   1       0.219   1.428   0.246  0.00  0.00     0.143 A 
ATOM      2  C2  UNL d   1      -0.564   0.271   0.325  0.00  0.00    -0.057 A 
ATOM      3  C3  UNL d   1       0.021  -0.996   0.429  0.00  0.00     0.033 A 
ATOM      4  C4  UNL d   1       1.406  -1.132   0.427  0.00  0.00    -0.042 A 
ATOM      5  C5  UNL d   1       2.204   0.002   0.325  0.00  0.00     0.033 A 
ATOM      6  C6  UNL d   1       1.613   1.266   0.228  0.00  0.00    -0.057 A 
ENDROOT
BRANCH   1   7
ATOM      7  N   UNL d   1      -0.303   2.708   0.042  0.00  0.00    -0.732 N 
ATOM      8  C   UNL d   1       0.551   3.873   0.123  0.00  0.00     0.284 C 
ATOM      9  H3  UNL d   1      -0.974   2.737  -0.722  0.00  0.00     0.395 HD
ENDBRANCH   1   7
TORSDOF 1
ENDMDL
