MODEL 1
REMARK minimizedAffinity -4.95420456
REMARK minimizedRMSD -1
REMARK  1 active torsions:
REMARK  status: ('A' for Active; 'I' for Inactive)
REMARK    1  A    between atoms: N_2  and  C1_3 
ROOT
ATOM      1  C1  UNL d   1       0.050  -0.136  -0.043  0.00  0.00     0.143 A 
ATOM      2  C2  UNL d   1      -1.131   0.389   0.495  0.00  0.00    -0.057 A 
ATOM      3  C3  UNL d   1      -1.329   1.771   0.600  0.00  0.00     0.033 A 
ATOM      4  C4  UNL d   1      -0.335   2.655   0.195  0.00  0.00    -0.042 A 
ATOM      5  C5  UNL d   1       0.856   2.156  -0.320  0.00  0.00     0.033 A 
ATOM      6  C6  UNL d   1       1.046   0.775  -0.428  0.00  0.00    -0.057 A 
ENDROOT
BRANCH   1   7
ATOM      7  N   UNL d   1       0.347  -1.500  -0.083  0.00  0.00    -0.732 N 
ATOM      8  C   UNL d   1      -0.055  -2.309  -1.214  0.00  0.00     0.284 C 
ATOM      9  H3  UNL d   1       1.282  -1.704   0.263  0.00  0.00     0.395 HD
ENDBRANCH   1   7
TORSDOF 1
ENDMDL
