MODEL 1
REMARK minimizedAffinity -4.03880167
REMARK minimizedRMSD -1
REMARK  1 active torsions:
REMARK  status: ('A' for Active; 'I' for Inactive)
REMARK    1  A    between atoms: N_2  and  C1_3 
ROOT
ATOM      1  C1  UNL d   1       0.656   1.553   0.087  0.00  0.00     0.143 A 
ATOM      2  C2  UNL d   1       1.950   1.077   0.326  0.00  0.00    -0.057 A 
ATOM      3  C3  UNL d   1       2.211  -0.295   0.426  0.00  0.00     0.033 A 
ATOM      4  C4  UNL d   1       1.175  -1.217   0.316  0.00  0.00    -0.042 A 
ATOM      5  C5  UNL d   1      -0.123  -0.764   0.104  0.00  0.00     0.033 A 
ATOM      6  C6  UNL d   1      -0.376   0.607  -0.002  0.00  0.00    -0.057 A 
ENDROOT
BRANCH   1   7
ATOM      7  N   UNL d   1       0.317   2.908   0.075  0.00  0.00    -0.732 N 
ATOM      8  C   UNL d   1      -0.396   3.499   1.188  0.00  0.00     0.284 C 
ATOM      9  H3  UNL d   1       1.061   3.492  -0.298  0.00  0.00     0.395 HD
ENDBRANCH   1   7
TORSDOF 1
ENDMDL
