MODEL 1
REMARK minimizedAffinity -4.09328461
REMARK minimizedRMSD -1
REMARK  1 active torsions:
REMARK  status: ('A' for Active; 'I' for Inactive)
REMARK    1  A    between atoms: N_2  and  C1_3 
ROOT
ATOM      1  C1  UNL d   1       0.205   0.213   0.056  0.00  0.00     0.143 A 
ATOM      2  C2  UNL d   1       1.308   0.959  -0.374  0.00  0.00    -0.057 A 
ATOM      3  C3  UNL d   1       1.264   2.357  -0.423  0.00  0.00     0.033 A 
ATOM      4  C4  UNL d   1       0.103   3.036  -0.068  0.00  0.00    -0.042 A 
ATOM      5  C5  UNL d   1      -1.013   2.314   0.339  0.00  0.00     0.033 A 
ATOM      6  C6  UNL d   1      -0.961   0.918   0.392  0.00  0.00    -0.057 A 
ENDROOT
BRANCH   1   7
ATOM      7  N   UNL d   1       0.153  -1.183   0.033  0.00  0.00    -0.732 N 
ATOM      8  C   UNL d   1       0.034  -1.895  -1.221  0.00  0.00     0.284 C 
ATOM      9  H3  UNL d   1       0.803  -1.607   0.692  0.00  0.00     0.395 HD
ENDBRANCH   1   7
TORSDOF 1
ENDMDL
