MODEL 1
REMARK minimizedAffinity -3.29337907
REMARK minimizedRMSD -1
REMARK  1 active torsions:
REMARK  status: ('A' for Active; 'I' for Inactive)
REMARK    1  A    between atoms: N_2  and  C1_3 
ROOT
ATOM      1  C1  UNL d   1      -0.098  -0.214   0.001  0.00  0.00     0.143 A 
ATOM      2  C2  UNL d   1      -1.126   0.415   0.712  0.00  0.00    -0.057 A 
ATOM      3  C3  UNL d   1      -1.273   1.807   0.696  0.00  0.00     0.033 A 
ATOM      4  C4  UNL d   1      -0.374   2.600  -0.009  0.00  0.00    -0.042 A 
ATOM      5  C5  UNL d   1       0.670   1.998  -0.702  0.00  0.00     0.033 A 
ATOM      6  C6  UNL d   1       0.808   0.607  -0.689  0.00  0.00    -0.057 A 
ENDROOT
BRANCH   1   7
ATOM      7  N   UNL d   1       0.159  -1.586   0.057  0.00  0.00    -0.732 N 
ATOM      8  C   UNL d   1      -0.097  -2.431  -1.090  0.00  0.00     0.284 C 
ATOM      9  H3  UNL d   1       1.026  -1.799   0.545  0.00  0.00     0.395 HD
ENDBRANCH   1   7
TORSDOF 1
ENDMDL
