MODEL 1
REMARK minimizedAffinity -4.4239583
REMARK minimizedRMSD -1
REMARK  1 active torsions:
REMARK  status: ('A' for Active; 'I' for Inactive)
REMARK    1  A    between atoms: N_2  and  C1_3 
ROOT
ATOM      1  C1  UNL d   1       0.261  -0.148   0.210  0.00  0.00     0.143 A 
ATOM      2  C2  UNL d   1       1.249   0.831   0.066  0.00  0.00    -0.057 A 
ATOM      3  C3  UNL d   1       0.916   2.180  -0.104  0.00  0.00     0.033 A 
ATOM      4  C4  UNL d   1      -0.417   2.572  -0.162  0.00  0.00    -0.042 A 
ATOM      5  C5  UNL d   1      -1.417   1.612  -0.047  0.00  0.00     0.033 A 
ATOM      6  C6  UNL d   1      -1.078   0.268   0.130  0.00  0.00    -0.057 A 
ENDROOT
BRANCH   1   7
ATOM      7  N   UNL d   1       0.527  -1.517   0.283  0.00  0.00    -0.732 N 
ATOM      8  C   UNL d   1      -0.326  -2.471  -0.394  0.00  0.00     0.284 C 
ATOM      9  H3  UNL d   1       1.520  -1.724   0.213  0.00  0.00     0.395 HD
ENDBRANCH   1   7
TORSDOF 1
ENDMDL
