MODEL 1
REMARK minimizedAffinity -4.70106936
REMARK minimizedRMSD -1
REMARK  1 active torsions:
REMARK  status: ('A' for Active; 'I' for Inactive)
REMARK    1  A    between atoms: N_2  and  C1_3 
ROOT
ATOM      1  C1  UNL d   1      -0.220  -0.975  -0.102  0.00  0.00     0.143 A 
ATOM      2  C2  UNL d   1       0.938  -0.285  -0.475  0.00  0.00    -0.057 A 
ATOM      3  C3  UNL d   1       1.018   1.109  -0.371  0.00  0.00     0.033 A 
ATOM      4  C4  UNL d   1      -0.073   1.843   0.083  0.00  0.00    -0.042 A 
ATOM      5  C5  UNL d   1      -1.244   1.180   0.436  0.00  0.00     0.033 A 
ATOM      6  C6  UNL d   1      -1.315  -0.213   0.336  0.00  0.00    -0.057 A 
ENDROOT
BRANCH   1   7
ATOM      7  N   UNL d   1      -0.396  -2.350  -0.275  0.00  0.00    -0.732 N 
ATOM      8  C   UNL d   1      -0.621  -2.904  -1.592  0.00  0.00     0.284 C 
ATOM      9  H3  UNL d   1       0.235  -2.898   0.305  0.00  0.00     0.395 HD
ENDBRANCH   1   7
TORSDOF 1
ENDMDL
