MODEL 1
REMARK minimizedAffinity -4.43695211
REMARK minimizedRMSD -1
REMARK  1 active torsions:
REMARK  status: ('A' for Active; 'I' for Inactive)
REMARK    1  A    between atoms: N_2  and  C1_3 
ROOT
ATOM      1  C1  UNL d   1      -0.124   0.071   0.059  0.00  0.00     0.143 A 
ATOM      2  C2  UNL d   1      -1.274   0.818   0.333  0.00  0.00    -0.057 A 
ATOM      3  C3  UNL d   1      -1.249   2.218   0.329  0.00  0.00     0.033 A 
ATOM      4  C4  UNL d   1      -0.061   2.898   0.080  0.00  0.00    -0.042 A 
ATOM      5  C5  UNL d   1       1.101   2.175  -0.170  0.00  0.00     0.033 A 
ATOM      6  C6  UNL d   1       1.067   0.778  -0.172  0.00  0.00    -0.057 A 
ENDROOT
BRANCH   1   7
ATOM      7  N   UNL d   1      -0.062  -1.322   0.145  0.00  0.00    -0.732 N 
ATOM      8  C   UNL d   1      -0.152  -2.138  -1.047  0.00  0.00     0.284 C 
ATOM      9  H3  UNL d   1       0.634  -1.640   0.815  0.00  0.00     0.395 HD
ENDBRANCH   1   7
TORSDOF 1
ENDMDL
