MODEL 1
REMARK minimizedAffinity -4.01629639
REMARK minimizedRMSD -1
REMARK  1 active torsions:
REMARK  status: ('A' for Active; 'I' for Inactive)
REMARK    1  A    between atoms: N_2  and  C1_3 
ROOT
ATOM      1  C1  UNL d   1       0.129   0.158   0.346  0.00  0.00     0.143 A 
ATOM      2  C2  UNL d   1      -0.893   0.882   0.970  0.00  0.00    -0.057 A 
ATOM      3  C3  UNL d   1      -0.923   2.281   0.925  0.00  0.00     0.033 A 
ATOM      4  C4  UNL d   1       0.088   2.984   0.278  0.00  0.00    -0.042 A 
ATOM      5  C5  UNL d   1       1.127   2.286  -0.327  0.00  0.00     0.033 A 
ATOM      6  C6  UNL d   1       1.148   0.889  -0.285  0.00  0.00    -0.057 A 
ENDROOT
BRANCH   1   7
ATOM      7  N   UNL d   1       0.268  -1.229   0.439  0.00  0.00    -0.732 N 
ATOM      8  C   UNL d   1      -0.567  -2.108  -0.350  0.00  0.00     0.284 C 
ATOM      9  H3  UNL d   1       1.242  -1.519   0.494  0.00  0.00     0.395 HD
ENDBRANCH   1   7
TORSDOF 1
ENDMDL
