MODEL 1
REMARK minimizedAffinity -3.23794055
REMARK minimizedRMSD -1
REMARK  1 active torsions:
REMARK  status: ('A' for Active; 'I' for Inactive)
REMARK    1  A    between atoms: N_2  and  C1_3 
ROOT
ATOM      1  C1  UNL d   1      -0.143  -0.210   0.006  0.00  0.00     0.143 A 
ATOM      2  C2  UNL d   1      -1.216   0.441   0.624  0.00  0.00    -0.057 A 
ATOM      3  C3  UNL d   1      -1.269   1.838   0.704  0.00  0.00     0.033 A 
ATOM      4  C4  UNL d   1      -0.232   2.610   0.191  0.00  0.00    -0.042 A 
ATOM      5  C5  UNL d   1       0.856   1.983  -0.406  0.00  0.00     0.033 A 
ATOM      6  C6  UNL d   1       0.900   0.588  -0.488  0.00  0.00    -0.057 A 
ENDROOT
BRANCH   1   7
ATOM      7  N   UNL d   1       0.016  -1.598  -0.018  0.00  0.00    -0.732 N 
ATOM      8  C   UNL d   1      -0.349  -2.361  -1.192  0.00  0.00     0.284 C 
ATOM      9  H3  UNL d   1       0.884  -1.897   0.419  0.00  0.00     0.395 HD
ENDBRANCH   1   7
TORSDOF 1
ENDMDL
