MODEL 1
REMARK minimizedAffinity -3.98181653
REMARK minimizedRMSD -1
REMARK  1 active torsions:
REMARK  status: ('A' for Active; 'I' for Inactive)
REMARK    1  A    between atoms: N_2  and  C1_3 
ROOT
ATOM      1  C1  UNL d   1       0.170  -0.349  -0.153  0.00  0.00     0.143 A 
ATOM      2  C2  UNL d   1       1.382   0.337  -0.286  0.00  0.00    -0.057 A 
ATOM      3  C3  UNL d   1       1.436   1.735  -0.221  0.00  0.00     0.033 A 
ATOM      4  C4  UNL d   1       0.271   2.475  -0.050  0.00  0.00    -0.042 A 
ATOM      5  C5  UNL d   1      -0.948   1.815   0.060  0.00  0.00     0.033 A 
ATOM      6  C6  UNL d   1      -0.995   0.419   0.001  0.00  0.00    -0.057 A 
ENDROOT
BRANCH   1   7
ATOM      7  N   UNL d   1       0.038  -1.731  -0.307  0.00  0.00    -0.732 N 
ATOM      8  C   UNL d   1      -0.259  -2.303  -1.602  0.00  0.00     0.284 C 
ATOM      9  H3  UNL d   1       0.731  -2.250   0.228  0.00  0.00     0.395 HD
ENDBRANCH   1   7
TORSDOF 1
ENDMDL
