MODEL 1
REMARK minimizedAffinity -3.27206492
REMARK minimizedRMSD -1
REMARK  1 active torsions:
REMARK  status: ('A' for Active; 'I' for Inactive)
REMARK    1  A    between atoms: N_2  and  C1_3 
ROOT
ATOM      1  C1  UNL d   1      -0.162  -0.245  -0.142  0.00  0.00     0.143 A 
ATOM      2  C2  UNL d   1      -1.293   0.494   0.221  0.00  0.00    -0.057 A 
ATOM      3  C3  UNL d   1      -1.247   1.891   0.318  0.00  0.00     0.033 A 
ATOM      4  C4  UNL d   1      -0.058   2.572   0.081  0.00  0.00    -0.042 A 
ATOM      5  C5  UNL d   1       1.085   1.856  -0.257  0.00  0.00     0.033 A 
ATOM      6  C6  UNL d   1       1.031   0.462  -0.359  0.00  0.00    -0.057 A 
ENDROOT
BRANCH   1   7
ATOM      7  N   UNL d   1      -0.118  -1.641  -0.159  0.00  0.00    -0.732 N 
ATOM      8  C   UNL d   1      -0.181  -2.365  -1.410  0.00  0.00     0.284 C 
ATOM      9  H3  UNL d   1       0.556  -2.017   0.505  0.00  0.00     0.395 HD
ENDBRANCH   1   7
TORSDOF 1
ENDMDL
