MODEL 1
REMARK minimizedAffinity -2.80839968
REMARK minimizedRMSD -1
REMARK  1 active torsions:
REMARK  status: ('A' for Active; 'I' for Inactive)
REMARK    1  A    between atoms: N_2  and  C1_3 
ROOT
ATOM      1  C1  UNL d   1      -0.069   0.783   0.017  0.00  0.00     0.143 A 
ATOM      2  C2  UNL d   1       0.525   1.597  -0.953  0.00  0.00    -0.057 A 
ATOM      3  C3  UNL d   1       0.679   2.974  -0.751  0.00  0.00     0.033 A 
ATOM      4  C4  UNL d   1       0.212   3.568   0.417  0.00  0.00    -0.042 A 
ATOM      5  C5  UNL d   1      -0.405   2.782   1.384  0.00  0.00     0.033 A 
ATOM      6  C6  UNL d   1      -0.549   1.407   1.179  0.00  0.00    -0.057 A 
ENDROOT
BRANCH   1   7
ATOM      7  N   UNL d   1      -0.339  -0.575  -0.166  0.00  0.00    -0.732 N 
ATOM      8  C   UNL d   1      -0.717  -1.082  -1.468  0.00  0.00     0.284 C 
ATOM      9  H3  UNL d   1       0.311  -1.172   0.339  0.00  0.00     0.395 HD
ENDBRANCH   1   7
TORSDOF 1
ENDMDL
