MODEL 1
REMARK minimizedAffinity 20.5848808
REMARK minimizedRMSD -1
REMARK  0 active torsions:
REMARK  status: ('A' for Active; 'I' for Inactive)
ROOT
ATOM      1  C   UNL d   1      -0.682  -2.616  -1.092  0.00  0.00     0.124 A 
ATOM      2  C1  UNL d   1      -0.657  -2.615   0.296  0.00  0.00     0.062 A 
ATOM      3  C2  UNL d   1       0.427  -3.160   0.977  0.00  0.00     0.162 A 
ATOM      4  C3  UNL d   1       1.496  -3.712   0.271  0.00  0.00    -0.034 A 
ATOM      5  C4  UNL d   1       1.464  -3.710  -1.124  0.00  0.00     0.162 A 
ATOM      6  C5  UNL d   1       0.378  -3.163  -1.800  0.00  0.00     0.062 A 
ATOM      7  F   UNL d   1       0.355  -3.165  -3.141  0.00  0.00    -0.097 F 
ATOM      8  F1  UNL d   1       2.475  -4.232  -1.834  0.00  0.00    -0.096 F 
ATOM      9  I   UNL d   1       3.119  -4.529   1.286  0.00  0.00    -0.060 I 
ATOM     10  F2  UNL d   1       0.424  -3.146   2.318  0.00  0.00    -0.096 F 
ATOM     11  F3  UNL d   1      -1.681  -2.087   0.983  0.00  0.00    -0.097 F 
ATOM     12  F4  UNL d   1      -1.727  -2.091  -1.745  0.00  0.00    -0.092 F 
ENDROOT
TORSDOF 0
ENDMDL
