MODEL 1
REMARK minimizedAffinity 1.90361023
REMARK minimizedRMSD -1
REMARK  0 active torsions:
REMARK  status: ('A' for Active; 'I' for Inactive)
ROOT
ATOM      1  C   UNL d   1       0.188   3.512  -0.661  0.00  0.00     0.124 A 
ATOM      2  C1  UNL d   1       1.564   3.333  -0.635  0.00  0.00     0.062 A 
ATOM      3  C2  UNL d   1       2.121   2.303   0.117  0.00  0.00     0.162 A 
ATOM      4  C3  UNL d   1       1.302   1.442   0.848  0.00  0.00    -0.034 A 
ATOM      5  C4  UNL d   1      -0.081   1.630   0.818  0.00  0.00     0.162 A 
ATOM      6  C5  UNL d   1      -0.633   2.661   0.065  0.00  0.00     0.062 A 
ATOM      7  F   UNL d   1      -1.963   2.833   0.041  0.00  0.00    -0.097 F 
ATOM      8  F1  UNL d   1      -0.897   0.821   1.510  0.00  0.00    -0.096 F 
ATOM      9  I   UNL d   1       2.132  -0.099   1.974  0.00  0.00    -0.060 I 
ATOM     10  F2  UNL d   1       3.454   2.153   0.123  0.00  0.00    -0.096 F 
ATOM     11  F3  UNL d   1       2.359   4.154  -1.335  0.00  0.00    -0.097 F 
ATOM     12  F4  UNL d   1      -0.346   4.505  -1.384  0.00  0.00    -0.092 F 
ENDROOT
TORSDOF 0
ENDMDL
