MODEL 1
REMARK minimizedAffinity 10.5593557
REMARK minimizedRMSD -1
REMARK  0 active torsions:
REMARK  status: ('A' for Active; 'I' for Inactive)
ROOT
ATOM      1  C   UNL d   1      -0.061  -2.488  -0.291  0.00  0.00     0.124 A 
ATOM      2  C1  UNL d   1       0.349  -2.116  -1.564  0.00  0.00     0.062 A 
ATOM      3  C2  UNL d   1      -0.592  -1.776  -2.531  0.00  0.00     0.162 A 
ATOM      4  C3  UNL d   1      -1.953  -1.805  -2.229  0.00  0.00    -0.034 A 
ATOM      5  C4  UNL d   1      -2.358  -2.181  -0.947  0.00  0.00     0.162 A 
ATOM      6  C5  UNL d   1      -1.414  -2.520   0.016  0.00  0.00     0.062 A 
ATOM      7  F   UNL d   1      -1.812  -2.880   1.245  0.00  0.00    -0.097 F 
ATOM      8  F1  UNL d   1      -3.659  -2.220  -0.624  0.00  0.00    -0.096 F 
ATOM      9  I   UNL d   1      -3.364  -1.298  -3.673  0.00  0.00    -0.060 I 
ATOM     10  F2  UNL d   1      -0.167  -1.420  -3.753  0.00  0.00    -0.096 F 
ATOM     11  F3  UNL d   1       1.656  -2.085  -1.863  0.00  0.00    -0.097 F 
ATOM     12  F4  UNL d   1       0.847  -2.815   0.638  0.00  0.00    -0.092 F 
ENDROOT
TORSDOF 0
ENDMDL
