MODEL 1
REMARK minimizedAffinity 6.23179007
REMARK minimizedRMSD -1
REMARK  0 active torsions:
REMARK  status: ('A' for Active; 'I' for Inactive)
ROOT
ATOM      1  C   UNL d   1       0.859  -0.552   1.583  0.00  0.00     0.124 A 
ATOM      2  C1  UNL d   1      -0.310   0.127   1.271  0.00  0.00     0.062 A 
ATOM      3  C2  UNL d   1      -0.253   1.395   0.700  0.00  0.00     0.162 A 
ATOM      4  C3  UNL d   1       0.980   1.993   0.437  0.00  0.00    -0.034 A 
ATOM      5  C4  UNL d   1       2.152   1.304   0.754  0.00  0.00     0.162 A 
ATOM      6  C5  UNL d   1       2.089   0.037   1.324  0.00  0.00     0.062 A 
ATOM      7  F   UNL d   1       3.220  -0.618   1.625  0.00  0.00    -0.097 F 
ATOM      8  F1  UNL d   1       3.354   1.849   0.514  0.00  0.00    -0.096 F 
ATOM      9  I   UNL d   1       1.071   3.889  -0.416  0.00  0.00    -0.060 I 
ATOM     10  F2  UNL d   1      -1.399   2.028   0.409  0.00  0.00    -0.096 F 
ATOM     11  F3  UNL d   1      -1.500  -0.439   1.521  0.00  0.00    -0.097 F 
ATOM     12  F4  UNL d   1       0.801  -1.772   2.133  0.00  0.00    -0.092 F 
ENDROOT
TORSDOF 0
ENDMDL
