MODEL 1
REMARK minimizedAffinity 14.5813923
REMARK minimizedRMSD -1
REMARK  0 active torsions:
REMARK  status: ('A' for Active; 'I' for Inactive)
ROOT
ATOM      1  C   UNL d   1      -3.864  -0.393   0.702  0.00  0.00     0.124 A 
ATOM      2  C1  UNL d   1      -3.547   0.919   0.378  0.00  0.00     0.062 A 
ATOM      3  C2  UNL d   1      -3.363   1.286  -0.952  0.00  0.00     0.162 A 
ATOM      4  C3  UNL d   1      -3.496   0.340  -1.969  0.00  0.00    -0.034 A 
ATOM      5  C4  UNL d   1      -3.814  -0.977  -1.634  0.00  0.00     0.162 A 
ATOM      6  C5  UNL d   1      -3.997  -1.340  -0.304  0.00  0.00     0.062 A 
ATOM      7  F   UNL d   1      -4.303  -2.607   0.008  0.00  0.00    -0.097 F 
ATOM      8  F1  UNL d   1      -3.950  -1.912  -2.587  0.00  0.00    -0.096 F 
ATOM      9  I   UNL d   1      -3.221   0.885  -3.958  0.00  0.00    -0.060 I 
ATOM     10  F2  UNL d   1      -3.057   2.561  -1.237  0.00  0.00    -0.096 F 
ATOM     11  F3  UNL d   1      -3.417   1.835   1.348  0.00  0.00    -0.097 F 
ATOM     12  F4  UNL d   1      -4.040  -0.744   1.982  0.00  0.00    -0.092 F 
ENDROOT
TORSDOF 0
ENDMDL
