MODEL 1
REMARK minimizedAffinity 8.67372704
REMARK minimizedRMSD -1
REMARK  0 active torsions:
REMARK  status: ('A' for Active; 'I' for Inactive)
ROOT
ATOM      1  C   UNL d   1       3.124  -3.299   4.386  0.00  0.00     0.124 A 
ATOM      2  C1  UNL d   1       1.792  -2.933   4.256  0.00  0.00     0.062 A 
ATOM      3  C2  UNL d   1       1.397  -2.082   3.228  0.00  0.00     0.162 A 
ATOM      4  C3  UNL d   1       2.336  -1.591   2.321  0.00  0.00    -0.034 A 
ATOM      5  C4  UNL d   1       3.675  -1.962   2.459  0.00  0.00     0.162 A 
ATOM      6  C5  UNL d   1       4.064  -2.813   3.488  0.00  0.00     0.062 A 
ATOM      7  F   UNL d   1       5.352  -3.166   3.613  0.00  0.00    -0.097 F 
ATOM      8  F1  UNL d   1       4.604  -1.509   1.604  0.00  0.00    -0.096 F 
ATOM      9  I   UNL d   1       1.750  -0.318   0.782  0.00  0.00    -0.060 I 
ATOM     10  F2  UNL d   1       0.103  -1.745   3.126  0.00  0.00    -0.096 F 
ATOM     11  F3  UNL d   1       0.882  -3.400   5.123  0.00  0.00    -0.097 F 
ATOM     12  F4  UNL d   1       3.502  -4.117   5.377  0.00  0.00    -0.092 F 
ENDROOT
TORSDOF 0
ENDMDL
