MODEL 1
REMARK minimizedAffinity -0.292736501
REMARK minimizedRMSD -1
REMARK  0 active torsions:
REMARK  status: ('A' for Active; 'I' for Inactive)
ROOT
ATOM      1  C   UNL d   1       0.616   3.444  -4.092  0.00  0.00     0.077 C 
ATOM      2  C1  UNL d   1      -0.379   2.610  -3.341  0.00  0.00    -0.074 A 
ATOM      3  C2  UNL d   1      -1.584   2.219  -3.934  0.00  0.00    -0.005 A 
ATOM      4  C3  UNL d   1      -2.495   1.436  -3.226  0.00  0.00     0.006 A 
ATOM      5  C4  UNL d   1      -2.211   1.035  -1.920  0.00  0.00    -0.005 A 
ATOM      6  C5  UNL d   1      -1.011   1.416  -1.310  0.00  0.00    -0.074 A 
ATOM      7  C6  UNL d   1      -0.686   0.986   0.089  0.00  0.00     0.077 C 
ATOM      8  C7  UNL d   1      -0.098   2.198  -2.031  0.00  0.00    -0.001 A 
ENDROOT
TORSDOF 0
ENDMDL
