MODEL 1
REMARK minimizedAffinity -2.60729265
REMARK minimizedRMSD -1
REMARK  0 active torsions:
REMARK  status: ('A' for Active; 'I' for Inactive)
ROOT
ATOM      1  C   UNL d   1      -0.414   3.011  -4.510  0.00  0.00     0.077 C 
ATOM      2  C1  UNL d   1      -1.150   2.326  -3.398  0.00  0.00    -0.074 A 
ATOM      3  C2  UNL d   1      -2.492   1.958  -3.544  0.00  0.00    -0.005 A 
ATOM      4  C3  UNL d   1      -3.161   1.313  -2.504  0.00  0.00     0.006 A 
ATOM      5  C4  UNL d   1      -2.497   1.029  -1.310  0.00  0.00    -0.005 A 
ATOM      6  C5  UNL d   1      -1.156   1.389  -1.146  0.00  0.00    -0.074 A 
ATOM      7  C6  UNL d   1      -0.425   1.083   0.127  0.00  0.00     0.077 C 
ATOM      8  C7  UNL d   1      -0.488   2.031  -2.198  0.00  0.00    -0.001 A 
ENDROOT
TORSDOF 0
ENDMDL
