MODEL 1
REMARK minimizedAffinity -3.98162889
REMARK minimizedRMSD -1
REMARK  0 active torsions:
REMARK  status: ('A' for Active; 'I' for Inactive)
ROOT
ATOM      1  C   UNL d   1      -0.346   2.665  -3.840  0.00  0.00     0.077 C 
ATOM      2  C1  UNL d   1      -0.523   2.053  -2.482  0.00  0.00    -0.074 A 
ATOM      3  C2  UNL d   1      -1.692   2.266  -1.744  0.00  0.00    -0.005 A 
ATOM      4  C3  UNL d   1      -1.845   1.683  -0.486  0.00  0.00     0.006 A 
ATOM      5  C4  UNL d   1      -0.833   0.883   0.046  0.00  0.00    -0.005 A 
ATOM      6  C5  UNL d   1       0.342   0.658  -0.678  0.00  0.00    -0.074 A 
ATOM      7  C6  UNL d   1       1.435  -0.207  -0.125  0.00  0.00     0.077 C 
ATOM      8  C7  UNL d   1       0.486   1.242  -1.944  0.00  0.00    -0.001 A 
ENDROOT
TORSDOF 0
ENDMDL
