MODEL 1
REMARK minimizedAffinity -4.75212908
REMARK minimizedRMSD -1
REMARK  0 active torsions:
REMARK  status: ('A' for Active; 'I' for Inactive)
ROOT
ATOM      1  C   UNL d   1       0.257   2.986  -4.302  0.00  0.00     0.077 C 
ATOM      2  C1  UNL d   1      -0.698   2.290  -3.378  0.00  0.00    -0.074 A 
ATOM      3  C2  UNL d   1      -1.916   1.790  -3.848  0.00  0.00    -0.005 A 
ATOM      4  C3  UNL d   1      -2.790   1.136  -2.979  0.00  0.00     0.006 A 
ATOM      5  C4  UNL d   1      -2.455   0.976  -1.634  0.00  0.00    -0.005 A 
ATOM      6  C5  UNL d   1      -1.241   1.469  -1.147  0.00  0.00    -0.074 A 
ATOM      7  C6  UNL d   1      -0.860   1.297   0.294  0.00  0.00     0.077 C 
ATOM      8  C7  UNL d   1      -0.365   2.119  -2.027  0.00  0.00    -0.001 A 
ENDROOT
TORSDOF 0
ENDMDL
