MODEL 1
REMARK minimizedAffinity -3.67367649
REMARK minimizedRMSD -1
REMARK  0 active torsions:
REMARK  status: ('A' for Active; 'I' for Inactive)
ROOT
ATOM      1  C   UNL d   1       1.129  -0.406  -0.027  0.00  0.00     0.077 C 
ATOM      2  C1  UNL d   1      -0.078   0.396  -0.414  0.00  0.00    -0.074 A 
ATOM      3  C2  UNL d   1      -0.776   1.147   0.537  0.00  0.00    -0.005 A 
ATOM      4  C3  UNL d   1      -1.892   1.895   0.160  0.00  0.00     0.006 A 
ATOM      5  C4  UNL d   1      -2.319   1.900  -1.168  0.00  0.00    -0.005 A 
ATOM      6  C5  UNL d   1      -1.632   1.155  -2.133  0.00  0.00    -0.074 A 
ATOM      7  C6  UNL d   1      -2.072   1.157  -3.567  0.00  0.00     0.077 C 
ATOM      8  C7  UNL d   1      -0.508   0.411  -1.748  0.00  0.00    -0.001 A 
ENDROOT
TORSDOF 0
ENDMDL
