MODEL 1
REMARK minimizedAffinity -3.01938486
REMARK minimizedRMSD -1
REMARK  0 active torsions:
REMARK  status: ('A' for Active; 'I' for Inactive)
ROOT
ATOM      1  C   UNL d   1      -0.764   1.301  -0.914  0.00  0.00     0.077 C 
ATOM      2  C1  UNL d   1       0.119   0.360  -0.149  0.00  0.00    -0.074 A 
ATOM      3  C2  UNL d   1       1.392   0.025  -0.621  0.00  0.00    -0.005 A 
ATOM      4  C3  UNL d   1       2.205  -0.845   0.106  0.00  0.00     0.006 A 
ATOM      5  C4  UNL d   1       1.754  -1.387   1.310  0.00  0.00    -0.005 A 
ATOM      6  C5  UNL d   1       0.484  -1.063   1.798  0.00  0.00    -0.074 A 
ATOM      7  C6  UNL d   1      -0.012  -1.630   3.095  0.00  0.00     0.077 C 
ATOM      8  C7  UNL d   1      -0.324  -0.183   1.065  0.00  0.00    -0.001 A 
ENDROOT
TORSDOF 0
ENDMDL
