MODEL 1
REMARK minimizedAffinity -3.26113272
REMARK minimizedRMSD -1
REMARK  0 active torsions:
REMARK  status: ('A' for Active; 'I' for Inactive)
ROOT
ATOM      1  C   UNL d   1      -0.925   0.613  -1.246  0.00  0.00     0.077 C 
ATOM      2  C1  UNL d   1       0.015  -0.152  -0.363  0.00  0.00    -0.074 A 
ATOM      3  C2  UNL d   1       1.241  -0.617  -0.850  0.00  0.00    -0.005 A 
ATOM      4  C3  UNL d   1       2.109  -1.319  -0.014  0.00  0.00     0.006 A 
ATOM      5  C4  UNL d   1       1.762  -1.562   1.315  0.00  0.00    -0.005 A 
ATOM      6  C5  UNL d   1       0.541  -1.104   1.820  0.00  0.00    -0.074 A 
ATOM      7  C6  UNL d   1       0.156  -1.349   3.249  0.00  0.00     0.077 C 
ATOM      8  C7  UNL d   1      -0.324  -0.394   0.976  0.00  0.00    -0.001 A 
ENDROOT
TORSDOF 0
ENDMDL
