MODEL 1
REMARK minimizedAffinity -4.17303467
REMARK minimizedRMSD -1
REMARK  0 active torsions:
REMARK  status: ('A' for Active; 'I' for Inactive)
ROOT
ATOM      1  C   UNL d   1       1.776  -1.870   0.992  0.00  0.00     0.077 C 
ATOM      2  C1  UNL d   1       1.416  -0.613   0.258  0.00  0.00    -0.074 A 
ATOM      3  C2  UNL d   1       2.406   0.282  -0.162  0.00  0.00    -0.005 A 
ATOM      4  C3  UNL d   1       2.056   1.443  -0.853  0.00  0.00     0.006 A 
ATOM      5  C4  UNL d   1       0.717   1.720  -1.129  0.00  0.00    -0.005 A 
ATOM      6  C5  UNL d   1      -0.286   0.837  -0.717  0.00  0.00    -0.074 A 
ATOM      7  C6  UNL d   1      -1.729   1.114  -1.014  0.00  0.00     0.077 C 
ATOM      8  C7  UNL d   1       0.074  -0.331  -0.030  0.00  0.00    -0.001 A 
ENDROOT
TORSDOF 0
ENDMDL
