MODEL 1
REMARK minimizedAffinity -1.95368791
REMARK minimizedRMSD -1
REMARK  0 active torsions:
REMARK  status: ('A' for Active; 'I' for Inactive)
ROOT
ATOM      1  C   UNL d   1      -0.659   0.843   0.191  0.00  0.00     0.077 C 
ATOM      2  C1  UNL d   1      -1.292   1.315  -1.084  0.00  0.00    -0.074 A 
ATOM      3  C2  UNL d   1      -2.505   0.777  -1.526  0.00  0.00    -0.005 A 
ATOM      4  C3  UNL d   1      -3.087   1.233  -2.709  0.00  0.00     0.006 A 
ATOM      5  C4  UNL d   1      -2.463   2.230  -3.460  0.00  0.00    -0.005 A 
ATOM      6  C5  UNL d   1      -1.251   2.781  -3.033  0.00  0.00    -0.074 A 
ATOM      7  C6  UNL d   1      -0.572   3.860  -3.823  0.00  0.00     0.077 C 
ATOM      8  C7  UNL d   1      -0.676   2.322  -1.840  0.00  0.00    -0.001 A 
ENDROOT
TORSDOF 0
ENDMDL
