MODEL 1
REMARK minimizedAffinity -3.90322065
REMARK minimizedRMSD -1
REMARK  0 active torsions:
REMARK  status: ('A' for Active; 'I' for Inactive)
ROOT
ATOM      1  C   UNL d   1       3.049   0.992  -0.638  0.00  0.00     0.077 C 
ATOM      2  C1  UNL d   1       2.073  -0.025  -0.124  0.00  0.00    -0.074 A 
ATOM      3  C2  UNL d   1       2.515  -1.244   0.400  0.00  0.00    -0.005 A 
ATOM      4  C3  UNL d   1       1.596  -2.176   0.883  0.00  0.00     0.006 A 
ATOM      5  C4  UNL d   1       0.229  -1.898   0.848  0.00  0.00    -0.005 A 
ATOM      6  C5  UNL d   1      -0.231  -0.684   0.329  0.00  0.00    -0.074 A 
ATOM      7  C6  UNL d   1      -1.696  -0.365   0.293  0.00  0.00     0.077 C 
ATOM      8  C7  UNL d   1       0.699   0.250  -0.149  0.00  0.00    -0.001 A 
ENDROOT
TORSDOF 0
ENDMDL
