MODEL 1
REMARK minimizedAffinity 1.1012162
REMARK minimizedRMSD -1
REMARK  0 active torsions:
REMARK  status: ('A' for Active; 'I' for Inactive)
ROOT
ATOM      1  C   UNL d   1       3.338  -1.109  -0.712  0.00  0.00     0.077 C 
ATOM      2  C1  UNL d   1       2.039  -0.706  -0.079  0.00  0.00    -0.074 A 
ATOM      3  C2  UNL d   1       1.142   0.131  -0.750  0.00  0.00    -0.005 A 
ATOM      4  C3  UNL d   1      -0.067   0.490  -0.153  0.00  0.00     0.006 A 
ATOM      5  C4  UNL d   1      -0.389   0.016   1.120  0.00  0.00    -0.005 A 
ATOM      6  C5  UNL d   1       0.495  -0.822   1.806  0.00  0.00    -0.074 A 
ATOM      7  C6  UNL d   1       0.160  -1.348   3.170  0.00  0.00     0.077 C 
ATOM      8  C7  UNL d   1       1.705  -1.184   1.196  0.00  0.00    -0.001 A 
ENDROOT
TORSDOF 0
ENDMDL
