MODEL 1
REMARK minimizedAffinity -4.30633879
REMARK minimizedRMSD -1
REMARK  0 active torsions:
REMARK  status: ('A' for Active; 'I' for Inactive)
ROOT
ATOM      1  C   UNL d   1      -1.404   1.095  -0.072  0.00  0.00     0.077 C 
ATOM      2  C1  UNL d   1      -0.744   0.038   0.763  0.00  0.00    -0.074 A 
ATOM      3  C2  UNL d   1      -1.377  -0.483   1.895  0.00  0.00    -0.005 A 
ATOM      4  C3  UNL d   1      -0.755  -1.473   2.656  0.00  0.00     0.006 A 
ATOM      5  C4  UNL d   1       0.505  -1.950   2.293  0.00  0.00    -0.005 A 
ATOM      6  C5  UNL d   1       1.153  -1.442   1.163  0.00  0.00    -0.074 A 
ATOM      7  C6  UNL d   1       2.503  -1.951   0.752  0.00  0.00     0.077 C 
ATOM      8  C7  UNL d   1       0.518  -0.453   0.399  0.00  0.00    -0.001 A 
ENDROOT
TORSDOF 0
ENDMDL
