MODEL 1
REMARK minimizedAffinity -0.236993536
REMARK minimizedRMSD -1
REMARK  0 active torsions:
REMARK  status: ('A' for Active; 'I' for Inactive)
ROOT
ATOM      1  C   UNL d   1      -1.528  -0.320   1.884  0.00  0.00     0.077 C 
ATOM      2  C1  UNL d   1      -0.832   0.112   0.628  0.00  0.00    -0.074 A 
ATOM      3  C2  UNL d   1      -1.560   0.549  -0.484  0.00  0.00    -0.005 A 
ATOM      4  C3  UNL d   1      -0.898   0.957  -1.642  0.00  0.00     0.006 A 
ATOM      5  C4  UNL d   1       0.496   0.933  -1.700  0.00  0.00    -0.005 A 
ATOM      6  C5  UNL d   1       1.241   0.501  -0.598  0.00  0.00    -0.074 A 
ATOM      7  C6  UNL d   1       2.740   0.479  -0.640  0.00  0.00     0.077 C 
ATOM      8  C7  UNL d   1       0.569   0.099   0.565  0.00  0.00    -0.001 A 
ENDROOT
TORSDOF 0
ENDMDL
