MODEL 1
REMARK minimizedAffinity 0.684384286
REMARK minimizedRMSD -1
REMARK  0 active torsions:
REMARK  status: ('A' for Active; 'I' for Inactive)
ROOT
ATOM      1  C   UNL d   1       2.972  -1.122   1.525  0.00  0.00     0.077 C 
ATOM      2  C1  UNL d   1       2.857  -0.052   0.479  0.00  0.00    -0.074 A 
ATOM      3  C2  UNL d   1       1.713   0.055  -0.317  0.00  0.00    -0.005 A 
ATOM      4  C3  UNL d   1       1.617   1.060  -1.279  0.00  0.00     0.006 A 
ATOM      5  C4  UNL d   1       2.663   1.968  -1.454  0.00  0.00    -0.005 A 
ATOM      6  C5  UNL d   1       3.814   1.877  -0.666  0.00  0.00    -0.074 A 
ATOM      7  C6  UNL d   1       4.943   2.850  -0.834  0.00  0.00     0.077 C 
ATOM      8  C7  UNL d   1       3.900   0.868   0.303  0.00  0.00    -0.001 A 
ENDROOT
TORSDOF 0
ENDMDL
