MODEL 1
REMARK minimizedAffinity -1.1643914
REMARK minimizedRMSD -1
REMARK  0 active torsions:
REMARK  status: ('A' for Active; 'I' for Inactive)
ROOT
ATOM      1  C   UNL d   1       3.325  -0.758  -0.987  0.00  0.00     0.077 C 
ATOM      2  C1  UNL d   1       2.103   0.057  -0.687  0.00  0.00    -0.074 A 
ATOM      3  C2  UNL d   1       2.212   1.373  -0.226  0.00  0.00    -0.005 A 
ATOM      4  C3  UNL d   1       1.066   2.123   0.040  0.00  0.00     0.006 A 
ATOM      5  C4  UNL d   1      -0.199   1.564  -0.152  0.00  0.00    -0.005 A 
ATOM      6  C5  UNL d   1      -0.327   0.250  -0.613  0.00  0.00    -0.074 A 
ATOM      7  C6  UNL d   1      -1.679  -0.362  -0.833  0.00  0.00     0.077 C 
ATOM      8  C7  UNL d   1       0.829  -0.494  -0.884  0.00  0.00    -0.001 A 
ENDROOT
TORSDOF 0
ENDMDL
