MODEL 1
REMARK minimizedAffinity -1.48156595
REMARK minimizedRMSD -1
REMARK  0 active torsions:
REMARK  status: ('A' for Active; 'I' for Inactive)
ROOT
ATOM      1  C   UNL d   1       2.660  -1.231   0.715  0.00  0.00     0.077 C 
ATOM      2  C1  UNL d   1       1.328  -0.542   0.662  0.00  0.00    -0.074 A 
ATOM      3  C2  UNL d   1       1.028   0.364  -0.360  0.00  0.00    -0.005 A 
ATOM      4  C3  UNL d   1      -0.218   0.990  -0.402  0.00  0.00     0.006 A 
ATOM      5  C4  UNL d   1      -1.174   0.717   0.576  0.00  0.00    -0.005 A 
ATOM      6  C5  UNL d   1      -0.892  -0.187   1.606  0.00  0.00    -0.074 A 
ATOM      7  C6  UNL d   1      -1.913  -0.499   2.660  0.00  0.00     0.077 C 
ATOM      8  C7  UNL d   1       0.359  -0.817   1.637  0.00  0.00    -0.001 A 
ENDROOT
TORSDOF 0
ENDMDL
