MODEL 1
REMARK minimizedAffinity 11.3960857
REMARK minimizedRMSD -1
REMARK  0 active torsions:
REMARK  status: ('A' for Active; 'I' for Inactive)
ROOT
ATOM      1  C   UNL d   1      -6.000   0.447   0.499  0.00  0.00    -0.002 A 
ATOM      2  C1  UNL d   1      -5.070   0.095  -0.470  0.00  0.00     0.010 A 
ATOM      3  C2  UNL d   1      -3.749   0.538  -0.381  0.00  0.00     0.041 A 
ATOM      4  C3  UNL d   1      -3.374   1.348   0.709  0.00  0.00    -0.075 A 
ATOM      5  S   UNL d   1      -1.812   2.007   1.025  0.00  0.00     0.015 SA
ATOM      6  C4  UNL d   1      -2.342   2.770   2.454  0.00  0.00     0.022 A 
ATOM      7  C5  UNL d   1      -3.675   2.539   2.699  0.00  0.00     0.026 A 
ATOM      8  C6  UNL d   1      -4.291   1.715   1.697  0.00  0.00    -0.082 A 
ATOM      9  C7  UNL d   1      -5.623   1.250   1.579  0.00  0.00     0.045 A 
ENDROOT
TORSDOF 0
ENDMDL
