MODEL 1
REMARK minimizedAffinity 11.243763
REMARK minimizedRMSD -1
REMARK  0 active torsions:
REMARK  status: ('A' for Active; 'I' for Inactive)
ROOT
ATOM      1  C   UNL d   1      -4.144   1.265  -5.982  0.00  0.00    -0.002 A 
ATOM      2  C1  UNL d   1      -4.215   0.001  -5.414  0.00  0.00     0.010 A 
ATOM      3  C2  UNL d   1      -4.678  -0.165  -4.108  0.00  0.00     0.041 A 
ATOM      4  C3  UNL d   1      -5.074   0.971  -3.375  0.00  0.00    -0.075 A 
ATOM      5  S   UNL d   1      -5.674   1.009  -1.759  0.00  0.00     0.015 SA
ATOM      6  C4  UNL d   1      -5.851   2.704  -1.785  0.00  0.00     0.022 A 
ATOM      7  C5  UNL d   1      -5.466   3.244  -2.989  0.00  0.00     0.026 A 
ATOM      8  C6  UNL d   1      -5.012   2.254  -3.925  0.00  0.00    -0.082 A 
ATOM      9  C7  UNL d   1      -4.537   2.390  -5.252  0.00  0.00     0.045 A 
ENDROOT
TORSDOF 0
ENDMDL
