MODEL 1
REMARK minimizedAffinity 6.5447464
REMARK minimizedRMSD -1
REMARK  0 active torsions:
REMARK  status: ('A' for Active; 'I' for Inactive)
ROOT
ATOM      1  C   UNL d   1       1.321  -1.085  -3.273  0.00  0.00    -0.002 A 
ATOM      2  C1  UNL d   1      -0.003  -1.364  -2.965  0.00  0.00     0.010 A 
ATOM      3  C2  UNL d   1      -0.332  -2.029  -1.782  0.00  0.00     0.041 A 
ATOM      4  C3  UNL d   1       0.702  -2.410  -0.905  0.00  0.00    -0.075 A 
ATOM      5  S   UNL d   1       0.536  -3.234   0.601  0.00  0.00     0.015 SA
ATOM      6  C4  UNL d   1       2.219  -3.234   0.871  0.00  0.00     0.022 A 
ATOM      7  C5  UNL d   1       2.906  -2.625  -0.153  0.00  0.00     0.026 A 
ATOM      8  C6  UNL d   1       2.043  -2.140  -1.193  0.00  0.00    -0.082 A 
ATOM      9  C7  UNL d   1       2.344  -1.465  -2.401  0.00  0.00     0.045 A 
ENDROOT
TORSDOF 0
ENDMDL
