MODEL 1
REMARK minimizedAffinity 8.2915535
REMARK minimizedRMSD -1
REMARK  0 active torsions:
REMARK  status: ('A' for Active; 'I' for Inactive)
ROOT
ATOM      1  C   UNL d   1       0.407  -3.618  -0.342  0.00  0.00    -0.002 A 
ATOM      2  C1  UNL d   1       0.031  -2.669  -1.281  0.00  0.00     0.010 A 
ATOM      3  C2  UNL d   1       0.724  -1.461  -1.387  0.00  0.00     0.041 A 
ATOM      4  C3  UNL d   1       1.813  -1.222  -0.526  0.00  0.00    -0.075 A 
ATOM      5  S   UNL d   1       2.809   0.184  -0.475  0.00  0.00     0.015 SA
ATOM      6  C4  UNL d   1       3.758  -0.443   0.794  0.00  0.00     0.022 A 
ATOM      7  C5  UNL d   1       3.339  -1.694   1.182  0.00  0.00     0.026 A 
ATOM      8  C6  UNL d   1       2.212  -2.164   0.427  0.00  0.00    -0.082 A 
ATOM      9  C7  UNL d   1       1.488  -3.378   0.510  0.00  0.00     0.045 A 
ENDROOT
TORSDOF 0
ENDMDL
