MODEL 1
REMARK minimizedAffinity 18.8438435
REMARK minimizedRMSD -1
REMARK  1 active torsions:
REMARK  status: ('A' for Active; 'I' for Inactive)
REMARK    1  A    between atoms: C1_2  and  C2_3 
ROOT
ATOM      1  C2  UNL d   1      -3.116   1.473  -4.562  0.00  0.00    -0.073 A 
ATOM      2  C3  UNL d   1      -4.261   0.818  -4.092  0.00  0.00    -0.002 A 
ATOM      3  C4  UNL d   1      -4.157  -0.154  -3.097  0.00  0.00     0.004 A 
ATOM      4  C5  UNL d   1      -2.912  -0.476  -2.556  0.00  0.00    -0.004 A 
ATOM      5  C6  UNL d   1      -1.759   0.175  -3.004  0.00  0.00    -0.075 A 
ATOM      6  C7  UNL d   1      -0.412  -0.161  -2.435  0.00  0.00     0.076 C 
ATOM      7  C8  UNL d   1      -1.870   1.149  -4.006  0.00  0.00     0.001 A 
ENDROOT
BRANCH   1   8
ATOM      8  C1  UNL d   1      -3.224   2.528  -5.633  0.00  0.00     0.053 C 
ATOM      9  C   UNL d   1      -3.607   3.884  -5.060  0.00  0.00     0.018 C 
ENDBRANCH   1   8
TORSDOF 1
ENDMDL
