MODEL 1
REMARK minimizedAffinity 9.35698795
REMARK minimizedRMSD -1
REMARK  1 active torsions:
REMARK  status: ('A' for Active; 'I' for Inactive)
REMARK    1  A    between atoms: C1_2  and  C2_3 
ROOT
ATOM      1  C2  UNL d   1       2.647  -2.326  -1.498  0.00  0.00    -0.073 A 
ATOM      2  C3  UNL d   1       3.111  -2.199  -2.812  0.00  0.00    -0.002 A 
ATOM      3  C4  UNL d   1       2.596  -3.012  -3.823  0.00  0.00     0.004 A 
ATOM      4  C5  UNL d   1       1.609  -3.953  -3.532  0.00  0.00    -0.004 A 
ATOM      5  C6  UNL d   1       1.124  -4.087  -2.227  0.00  0.00    -0.075 A 
ATOM      6  C7  UNL d   1       0.064  -5.096  -1.898  0.00  0.00     0.076 C 
ATOM      7  C8  UNL d   1       1.648  -3.269  -1.217  0.00  0.00     0.001 A 
ENDROOT
BRANCH   1   8
ATOM      8  C1  UNL d   1       3.195  -1.446  -0.404  0.00  0.00     0.053 C 
ATOM      9  C   UNL d   1       3.755  -0.142  -0.949  0.00  0.00     0.018 C 
ENDBRANCH   1   8
TORSDOF 1
ENDMDL
