MODEL 1
REMARK minimizedAffinity 20.2283211
REMARK minimizedRMSD -1
REMARK  1 active torsions:
REMARK  status: ('A' for Active; 'I' for Inactive)
REMARK    1  A    between atoms: C1_2  and  C2_3 
ROOT
ATOM      1  C2  UNL d   1       4.300   0.349  -1.035  0.00  0.00    -0.073 A 
ATOM      2  C3  UNL d   1       3.109   0.135  -0.332  0.00  0.00    -0.002 A 
ATOM      3  C4  UNL d   1       2.180  -0.801  -0.788  0.00  0.00     0.004 A 
ATOM      4  C5  UNL d   1       2.435  -1.537  -1.945  0.00  0.00    -0.004 A 
ATOM      5  C6  UNL d   1       3.625  -1.345  -2.655  0.00  0.00    -0.075 A 
ATOM      6  C7  UNL d   1       3.914  -2.127  -3.903  0.00  0.00     0.076 C 
ATOM      7  C8  UNL d   1       4.552  -0.401  -2.192  0.00  0.00     0.001 A 
ENDROOT
BRANCH   1   8
ATOM      8  C1  UNL d   1       5.309   1.355  -0.543  0.00  0.00     0.053 C 
ATOM      9  C   UNL d   1       5.347   1.428   0.976  0.00  0.00     0.018 C 
ENDBRANCH   1   8
TORSDOF 1
ENDMDL
