MODEL 1
REMARK minimizedAffinity -5.00124359
REMARK minimizedRMSD -1
REMARK  2 active torsions:
REMARK  status: ('A' for Active; 'I' for Inactive)
REMARK    1  A    between atoms: C1_2  and  C2_3 
REMARK    2  A    between atoms: C2_3  and  C3_4 
ROOT
ATOM      1  C3  UNL d   1      -0.104  -0.210  -0.129  0.00  0.00    -0.075 A 
ATOM      2  C4  UNL d   1       0.832   0.743   0.298  0.00  0.00     0.002 A 
ATOM      3  C5  UNL d   1       2.140   0.364   0.604  0.00  0.00     0.002 A 
ATOM      4  C6  UNL d   1       2.524  -0.971   0.497  0.00  0.00    -0.004 A 
ATOM      5  C7  UNL d   1       1.598  -1.929   0.090  0.00  0.00     0.002 A 
ATOM      6  C8  UNL d   1       0.290  -1.551  -0.221  0.00  0.00     0.002 A 
ENDROOT
BRANCH   1   7
ATOM      7  C2  UNL d   1      -1.512   0.199  -0.490  0.00  0.00     0.056 C 
BRANCH   7   8
ATOM      8  C1  UNL d   1      -2.275   0.883   0.649  0.00  0.00     0.007 C 
ATOM      9  C   UNL d   1      -3.752   0.515   0.689  0.00  0.00     0.009 C 
ENDBRANCH   7   8
ENDBRANCH   1   7
TORSDOF 2
ENDMDL
