MODEL 1
REMARK minimizedAffinity -5.22904062
REMARK minimizedRMSD -1
REMARK  2 active torsions:
REMARK  status: ('A' for Active; 'I' for Inactive)
REMARK    1  A    between atoms: C1_2  and  C2_3 
REMARK    2  A    between atoms: C2_3  and  C3_4 
ROOT
ATOM      1  C3  UNL d   1       0.196  -0.037  -0.135  0.00  0.00    -0.075 A 
ATOM      2  C4  UNL d   1       0.906  -1.245  -0.207  0.00  0.00     0.002 A 
ATOM      3  C5  UNL d   1       2.301  -1.249  -0.184  0.00  0.00     0.002 A 
ATOM      4  C6  UNL d   1       3.003  -0.049  -0.099  0.00  0.00    -0.004 A 
ATOM      5  C7  UNL d   1       2.308   1.158  -0.044  0.00  0.00     0.002 A 
ATOM      6  C8  UNL d   1       0.912   1.165  -0.062  0.00  0.00     0.002 A 
ENDROOT
BRANCH   1   7
ATOM      7  C2  UNL d   1      -1.314  -0.027  -0.129  0.00  0.00     0.056 C 
BRANCH   7   8
ATOM      8  C1  UNL d   1      -1.929   1.376  -0.099  0.00  0.00     0.007 C 
ATOM      9  C   UNL d   1      -3.154   1.475   0.799  0.00  0.00     0.009 C 
ENDBRANCH   7   8
ENDBRANCH   1   7
TORSDOF 2
ENDMDL
