MODEL 1
REMARK minimizedAffinity -4.53640032
REMARK minimizedRMSD -1
REMARK  2 active torsions:
REMARK  status: ('A' for Active; 'I' for Inactive)
REMARK    1  A    between atoms: C1_2  and  C2_3 
REMARK    2  A    between atoms: C2_3  and  C3_4 
ROOT
ATOM      1  C3  UNL d   1      -0.072  -0.239   0.120  0.00  0.00    -0.075 A 
ATOM      2  C4  UNL d   1       0.045  -1.634   0.026  0.00  0.00     0.002 A 
ATOM      3  C5  UNL d   1       1.262  -2.262   0.295  0.00  0.00     0.002 A 
ATOM      4  C6  UNL d   1       2.376  -1.505   0.650  0.00  0.00    -0.004 A 
ATOM      5  C7  UNL d   1       2.275  -0.118   0.730  0.00  0.00     0.002 A 
ATOM      6  C8  UNL d   1       1.058   0.513   0.466  0.00  0.00     0.002 A 
ENDROOT
BRANCH   1   7
ATOM      7  C2  UNL d   1      -1.393   0.444  -0.140  0.00  0.00     0.056 C 
BRANCH   7   8
ATOM      8  C1  UNL d   1      -2.198   0.751   1.127  0.00  0.00     0.007 C 
ATOM      9  C   UNL d   1      -3.690   0.909   0.868  0.00  0.00     0.009 C 
ENDBRANCH   7   8
ENDBRANCH   1   7
TORSDOF 2
ENDMDL
