MODEL 1
REMARK minimizedAffinity -4.39395618
REMARK minimizedRMSD -1
REMARK  2 active torsions:
REMARK  status: ('A' for Active; 'I' for Inactive)
REMARK    1  A    between atoms: C1_2  and  C2_3 
REMARK    2  A    between atoms: C2_3  and  C3_4 
ROOT
ATOM      1  C3  UNL d   1       1.470   0.422  -0.447  0.00  0.00    -0.075 A 
ATOM      2  C4  UNL d   1       2.018  -0.807  -0.844  0.00  0.00     0.002 A 
ATOM      3  C5  UNL d   1       3.303  -1.172  -0.443  0.00  0.00     0.002 A 
ATOM      4  C6  UNL d   1       4.059  -0.312   0.350  0.00  0.00    -0.004 A 
ATOM      5  C7  UNL d   1       3.532   0.918   0.737  0.00  0.00     0.002 A 
ATOM      6  C8  UNL d   1       2.245   1.284   0.340  0.00  0.00     0.002 A 
ENDROOT
BRANCH   1   7
ATOM      7  C2  UNL d   1       0.069   0.811  -0.854  0.00  0.00     0.056 C 
BRANCH   7   8
ATOM      8  C1  UNL d   1      -1.031   0.036  -0.120  0.00  0.00     0.007 C 
ATOM      9  C   UNL d   1      -2.322   0.829   0.036  0.00  0.00     0.009 C 
ENDBRANCH   7   8
ENDBRANCH   1   7
TORSDOF 2
ENDMDL
