MODEL 1
REMARK minimizedAffinity -5.94560242
REMARK minimizedRMSD -1
REMARK  1 active torsions:
REMARK  status: ('A' for Active; 'I' for Inactive)
REMARK    1  A    between atoms: C1_2  and  C2_3 
ROOT
ATOM      1  C2  UNL d   1       0.102  -0.026  -0.579  0.00  0.00    -0.073 A 
ATOM      2  C3  UNL d   1       1.189  -0.711  -1.135  0.00  0.00    -0.002 A 
ATOM      3  C4  UNL d   1       2.104  -1.368  -0.311  0.00  0.00     0.004 A 
ATOM      4  C5  UNL d   1       1.938  -1.354   1.074  0.00  0.00    -0.004 A 
ATOM      5  C6  UNL d   1       0.851  -0.686   1.647  0.00  0.00    -0.075 A 
ATOM      6  C7  UNL d   1       0.659  -0.659   3.135  0.00  0.00     0.076 C 
ATOM      7  C8  UNL d   1      -0.062  -0.026   0.813  0.00  0.00     0.001 A 
ENDROOT
BRANCH   1   8
ATOM      8  C1  UNL d   1      -0.892   0.679  -1.465  0.00  0.00     0.053 C 
ATOM      9  C   UNL d   1      -0.306   1.933  -2.095  0.00  0.00     0.018 C 
ENDBRANCH   1   8
TORSDOF 1
ENDMDL
