MODEL 1
REMARK minimizedAffinity -0.389834255
REMARK minimizedRMSD -1
REMARK  1 active torsions:
REMARK  status: ('A' for Active; 'I' for Inactive)
REMARK    1  A    between atoms: C1_2  and  C2_3 
ROOT
ATOM      1  C2  UNL d   1      -0.310   1.435  -1.871  0.00  0.00    -0.073 A 
ATOM      2  C3  UNL d   1      -1.511   0.733  -1.722  0.00  0.00    -0.002 A 
ATOM      3  C4  UNL d   1      -1.637  -0.247  -0.736  0.00  0.00     0.004 A 
ATOM      4  C5  UNL d   1      -0.567  -0.530   0.113  0.00  0.00    -0.004 A 
ATOM      5  C6  UNL d   1       0.637   0.169  -0.013  0.00  0.00    -0.075 A 
ATOM      6  C7  UNL d   1       1.798  -0.125   0.891  0.00  0.00     0.076 C 
ATOM      7  C8  UNL d   1       0.757   1.150  -1.007  0.00  0.00     0.001 A 
ENDROOT
BRANCH   1   8
ATOM      8  C1  UNL d   1      -0.171   2.499  -2.930  0.00  0.00     0.053 C 
ATOM      9  C   UNL d   1      -1.389   3.407  -2.988  0.00  0.00     0.018 C 
ENDBRANCH   1   8
TORSDOF 1
ENDMDL
