MODEL 1
REMARK minimizedAffinity -3.20824337
REMARK minimizedRMSD -1
REMARK  1 active torsions:
REMARK  status: ('A' for Active; 'I' for Inactive)
REMARK    1  A    between atoms: C1_2  and  C2_3 
ROOT
ATOM      1  C2  UNL d   1      -0.520   0.205  -0.398  0.00  0.00    -0.073 A 
ATOM      2  C3  UNL d   1      -1.547   0.989   0.141  0.00  0.00    -0.002 A 
ATOM      3  C4  UNL d   1      -1.877   0.886   1.493  0.00  0.00     0.004 A 
ATOM      4  C5  UNL d   1      -1.181   0.006   2.321  0.00  0.00    -0.004 A 
ATOM      5  C6  UNL d   1      -0.144  -0.777   1.804  0.00  0.00    -0.075 A 
ATOM      6  C7  UNL d   1       0.614  -1.731   2.680  0.00  0.00     0.076 C 
ATOM      7  C8  UNL d   1       0.180  -0.670   0.444  0.00  0.00     0.001 A 
ENDROOT
BRANCH   1   8
ATOM      8  C1  UNL d   1      -0.156   0.317  -1.855  0.00  0.00     0.053 C 
ATOM      9  C   UNL d   1      -0.853   1.489  -2.529  0.00  0.00     0.018 C 
ENDBRANCH   1   8
TORSDOF 1
ENDMDL
