MODEL 1
REMARK minimizedAffinity -2.04684663
REMARK minimizedRMSD -1
REMARK  1 active torsions:
REMARK  status: ('A' for Active; 'I' for Inactive)
REMARK    1  A    between atoms: C1_2  and  C2_3 
ROOT
ATOM      1  C2  UNL d   1      -0.713   0.232  -1.078  0.00  0.00    -0.073 A 
ATOM      2  C3  UNL d   1       0.233  -0.632  -1.641  0.00  0.00    -0.002 A 
ATOM      3  C4  UNL d   1       0.975  -1.490  -0.829  0.00  0.00     0.004 A 
ATOM      4  C5  UNL d   1       0.776  -1.497   0.552  0.00  0.00    -0.004 A 
ATOM      5  C6  UNL d   1      -0.173  -0.649   1.132  0.00  0.00    -0.075 A 
ATOM      6  C7  UNL d   1      -0.397  -0.644   2.615  0.00  0.00     0.076 C 
ATOM      7  C8  UNL d   1      -0.913   0.211   0.310  0.00  0.00     0.001 A 
ENDROOT
BRANCH   1   8
ATOM      8  C1  UNL d   1      -1.522   1.156  -1.952  0.00  0.00     0.053 C 
ATOM      9  C   UNL d   1      -0.660   2.226  -2.603  0.00  0.00     0.018 C 
ENDBRANCH   1   8
TORSDOF 1
ENDMDL
