MODEL 1
REMARK minimizedAffinity -4.95227623
REMARK minimizedRMSD -1
REMARK  1 active torsions:
REMARK  status: ('A' for Active; 'I' for Inactive)
REMARK    1  A    between atoms: C1_2  and  C2_3 
ROOT
ATOM      1  C2  UNL d   1       0.281   0.543  -0.812  0.00  0.00    -0.073 A 
ATOM      2  C3  UNL d   1       1.122  -0.383  -1.439  0.00  0.00    -0.002 A 
ATOM      3  C4  UNL d   1       2.007  -1.155  -0.685  0.00  0.00     0.004 A 
ATOM      4  C5  UNL d   1       2.056  -1.014   0.701  0.00  0.00    -0.004 A 
ATOM      5  C6  UNL d   1       1.215  -0.102   1.348  0.00  0.00    -0.075 A 
ATOM      6  C7  UNL d   1       1.257   0.063   2.838  0.00  0.00     0.076 C 
ATOM      7  C8  UNL d   1       0.331   0.671   0.584  0.00  0.00     0.001 A 
ENDROOT
BRANCH   1   8
ATOM      8  C1  UNL d   1      -0.681   1.374  -1.621  0.00  0.00     0.053 C 
ATOM      9  C   UNL d   1      -0.226   2.820  -1.738  0.00  0.00     0.018 C 
ENDBRANCH   1   8
TORSDOF 1
ENDMDL
