MODEL 1
REMARK minimizedAffinity -5.15765953
REMARK minimizedRMSD -1
REMARK  1 active torsions:
REMARK  status: ('A' for Active; 'I' for Inactive)
REMARK    1  A    between atoms: C1_2  and  C2_3 
ROOT
ATOM      1  C2  UNL d   1      -0.048   0.191  -0.824  0.00  0.00    -0.073 A 
ATOM      2  C3  UNL d   1       0.850  -0.612  -1.537  0.00  0.00    -0.002 A 
ATOM      3  C4  UNL d   1       1.674  -1.515  -0.864  0.00  0.00     0.004 A 
ATOM      4  C5  UNL d   1       1.604  -1.630   0.524  0.00  0.00    -0.004 A 
ATOM      5  C6  UNL d   1       0.704  -0.845   1.252  0.00  0.00    -0.075 A 
ATOM      6  C7  UNL d   1       0.617  -0.956   2.746  0.00  0.00     0.076 C 
ATOM      7  C8  UNL d   1      -0.118   0.062   0.570  0.00  0.00     0.001 A 
ENDROOT
BRANCH   1   8
ATOM      8  C1  UNL d   1      -0.945   1.163  -1.547  0.00  0.00     0.053 C 
ATOM      9  C   UNL d   1      -0.172   2.355  -2.090  0.00  0.00     0.018 C 
ENDBRANCH   1   8
TORSDOF 1
ENDMDL
