MODEL 1
REMARK minimizedAffinity -4.19040012
REMARK minimizedRMSD -1
REMARK  1 active torsions:
REMARK  status: ('A' for Active; 'I' for Inactive)
REMARK    1  A    between atoms: C1_2  and  C2_3 
ROOT
ATOM      1  C2  UNL d   1       1.112  -1.154  -0.758  0.00  0.00    -0.073 A 
ATOM      2  C3  UNL d   1      -0.215  -0.756  -0.954  0.00  0.00    -0.002 A 
ATOM      3  C4  UNL d   1      -0.966  -0.258   0.111  0.00  0.00     0.004 A 
ATOM      4  C5  UNL d   1      -0.397  -0.147   1.380  0.00  0.00    -0.004 A 
ATOM      5  C6  UNL d   1       0.931  -0.529   1.593  0.00  0.00    -0.075 A 
ATOM      6  C7  UNL d   1       1.557  -0.418   2.952  0.00  0.00     0.076 C 
ATOM      7  C8  UNL d   1       1.678  -1.030   0.519  0.00  0.00     0.001 A 
ENDROOT
BRANCH   1   8
ATOM      8  C1  UNL d   1       1.930  -1.686  -1.907  0.00  0.00     0.053 C 
ATOM      9  C   UNL d   1       3.351  -2.023  -1.487  0.00  0.00     0.018 C 
ENDBRANCH   1   8
TORSDOF 1
ENDMDL
