MODEL 1
REMARK minimizedAffinity 0.916902363
REMARK minimizedRMSD -1
REMARK  0 active torsions:
REMARK  status: ('A' for Active; 'I' for Inactive)
ROOT
ATOM      1  C   UNL d   1       0.343   3.702   0.207  0.00  0.00    -0.002 A 
ATOM      2  C1  UNL d   1      -0.740   2.971  -0.262  0.00  0.00     0.010 A 
ATOM      3  C2  UNL d   1      -0.542   1.829  -1.041  0.00  0.00     0.041 A 
ATOM      4  C3  UNL d   1       0.775   1.428  -1.341  0.00  0.00    -0.075 A 
ATOM      5  S   UNL d   1       1.258   0.063  -2.276  0.00  0.00     0.015 SA
ATOM      6  C4  UNL d   1       2.913   0.416  -2.073  0.00  0.00     0.022 A 
ATOM      7  C5  UNL d   1       3.110   1.545  -1.314  0.00  0.00     0.026 A 
ATOM      8  C6  UNL d   1       1.881   2.147  -0.879  0.00  0.00    -0.082 A 
ATOM      9  C7  UNL d   1       1.648   3.301  -0.093  0.00  0.00     0.045 A 
ENDROOT
TORSDOF 0
ENDMDL
