MODEL 1
REMARK minimizedAffinity 21.6223145
REMARK minimizedRMSD -1
REMARK  0 active torsions:
REMARK  status: ('A' for Active; 'I' for Inactive)
ROOT
ATOM      1  C   UNL d   1      -2.974   5.998   5.994  0.00  0.00    -0.002 A 
ATOM      2  C1  UNL d   1      -4.353   5.848   5.996  0.00  0.00     0.010 A 
ATOM      3  C2  UNL d   1      -4.960   4.847   5.235  0.00  0.00     0.041 A 
ATOM      4  C3  UNL d   1      -4.149   3.990   4.466  0.00  0.00    -0.075 A 
ATOM      5  S   UNL d   1      -4.671   2.693   3.457  0.00  0.00     0.015 SA
ATOM      6  C4  UNL d   1      -3.075   2.307   3.001  0.00  0.00     0.022 A 
ATOM      7  C5  UNL d   1      -2.154   3.137   3.594  0.00  0.00     0.026 A 
ATOM      8  C6  UNL d   1      -2.757   4.121   4.448  0.00  0.00    -0.082 A 
ATOM      9  C7  UNL d   1      -2.172   5.146   5.230  0.00  0.00     0.045 A 
ENDROOT
TORSDOF 0
ENDMDL
