MODEL 1
REMARK minimizedAffinity 16.5772724
REMARK minimizedRMSD -1
REMARK  0 active torsions:
REMARK  status: ('A' for Active; 'I' for Inactive)
ROOT
ATOM      1  C   UNL d   1       4.940  -0.028  -2.009  0.00  0.00    -0.002 A 
ATOM      2  C1  UNL d   1       4.497  -0.968  -1.089  0.00  0.00     0.010 A 
ATOM      3  C2  UNL d   1       3.131  -1.154  -0.866  0.00  0.00     0.041 A 
ATOM      4  C3  UNL d   1       2.209  -0.374  -1.591  0.00  0.00    -0.075 A 
ATOM      5  S   UNL d   1       0.489  -0.429  -1.484  0.00  0.00     0.015 SA
ATOM      6  C4  UNL d   1       0.302   0.792  -2.658  0.00  0.00     0.022 A 
ATOM      7  C5  UNL d   1       1.512   1.243  -3.130  0.00  0.00     0.026 A 
ATOM      8  C6  UNL d   1       2.631   0.578  -2.524  0.00  0.00    -0.082 A 
ATOM      9  C7  UNL d   1       4.022   0.744  -2.727  0.00  0.00     0.045 A 
ENDROOT
TORSDOF 0
ENDMDL
