MODEL 1
REMARK minimizedAffinity 22.8290997
REMARK minimizedRMSD -1
REMARK  0 active torsions:
REMARK  status: ('A' for Active; 'I' for Inactive)
ROOT
ATOM      1  C   UNL d   1       2.088   0.423  -2.286  0.00  0.00    -0.002 A 
ATOM      2  C1  UNL d   1       1.705   1.533  -3.025  0.00  0.00     0.010 A 
ATOM      3  C2  UNL d   1       0.418   2.060  -2.901  0.00  0.00     0.041 A 
ATOM      4  C3  UNL d   1      -0.487   1.447  -2.012  0.00  0.00    -0.075 A 
ATOM      5  S   UNL d   1      -2.115   1.918  -1.696  0.00  0.00     0.015 SA
ATOM      6  C4  UNL d   1      -2.340   0.658  -0.572  0.00  0.00     0.022 A 
ATOM      7  C5  UNL d   1      -1.211  -0.114  -0.429  0.00  0.00     0.026 A 
ATOM      8  C6  UNL d   1      -0.124   0.328  -1.256  0.00  0.00    -0.082 A 
ATOM      9  C7  UNL d   1       1.188  -0.182  -1.405  0.00  0.00     0.045 A 
ENDROOT
TORSDOF 0
ENDMDL
