MODEL 1
REMARK minimizedAffinity 8.84251881
REMARK minimizedRMSD -1
REMARK  0 active torsions:
REMARK  status: ('A' for Active; 'I' for Inactive)
ROOT
ATOM      1  C   UNL d   1       4.943   4.530   2.750  0.00  0.00    -0.002 A 
ATOM      2  C1  UNL d   1       5.990   5.326   2.305  0.00  0.00     0.010 A 
ATOM      3  C2  UNL d   1       6.000   5.821   1.000  0.00  0.00     0.041 A 
ATOM      4  C3  UNL d   1       4.929   5.502   0.141  0.00  0.00    -0.075 A 
ATOM      5  S   UNL d   1       4.728   5.997  -1.498  0.00  0.00     0.015 SA
ATOM      6  C4  UNL d   1       3.248   5.165  -1.646  0.00  0.00     0.022 A 
ATOM      7  C5  UNL d   1       2.901   4.519  -0.482  0.00  0.00     0.026 A 
ATOM      8  C6  UNL d   1       3.864   4.703   0.567  0.00  0.00    -0.082 A 
ATOM      9  C7  UNL d   1       3.883   4.216   1.896  0.00  0.00     0.045 A 
ENDROOT
TORSDOF 0
ENDMDL
