MODEL 1
REMARK minimizedAffinity 8.48643208
REMARK minimizedRMSD -1
REMARK  0 active torsions:
REMARK  status: ('A' for Active; 'I' for Inactive)
ROOT
ATOM      1  C   UNL d   1       3.236   2.948  -5.480  0.00  0.00    -0.002 A 
ATOM      2  C1  UNL d   1       3.066   4.090  -4.711  0.00  0.00     0.010 A 
ATOM      3  C2  UNL d   1       2.292   4.055  -3.549  0.00  0.00     0.041 A 
ATOM      4  C3  UNL d   1       1.688   2.841  -3.168  0.00  0.00    -0.075 A 
ATOM      5  S   UNL d   1       0.698   2.561  -1.785  0.00  0.00     0.015 SA
ATOM      6  C4  UNL d   1       0.479   0.918  -2.181  0.00  0.00     0.022 A 
ATOM      7  C5  UNL d   1       1.138   0.574  -3.338  0.00  0.00     0.026 A 
ATOM      8  C6  UNL d   1       1.846   1.677  -3.926  0.00  0.00    -0.082 A 
ATOM      9  C7  UNL d   1       2.636   1.745  -5.099  0.00  0.00     0.045 A 
ENDROOT
TORSDOF 0
ENDMDL
