MODEL 1
REMARK minimizedAffinity 12.8440638
REMARK minimizedRMSD -1
REMARK  0 active torsions:
REMARK  status: ('A' for Active; 'I' for Inactive)
ROOT
ATOM      1  C   UNL d   1      -2.276  -0.479   4.877  0.00  0.00    -0.002 A 
ATOM      2  C1  UNL d   1      -2.612   0.855   5.060  0.00  0.00     0.010 A 
ATOM      3  C2  UNL d   1      -3.676   1.423   4.357  0.00  0.00     0.041 A 
ATOM      4  C3  UNL d   1      -4.405   0.619   3.459  0.00  0.00    -0.075 A 
ATOM      5  S   UNL d   1      -5.748   1.098   2.490  0.00  0.00     0.015 SA
ATOM      6  C4  UNL d   1      -5.909  -0.456   1.811  0.00  0.00     0.022 A 
ATOM      7  C5  UNL d   1      -4.968  -1.332   2.299  0.00  0.00     0.026 A 
ATOM      8  C6  UNL d   1      -4.087  -0.727   3.258  0.00  0.00    -0.082 A 
ATOM      9  C7  UNL d   1      -3.002  -1.273   3.985  0.00  0.00     0.045 A 
ENDROOT
TORSDOF 0
ENDMDL
