MODEL 1
REMARK minimizedAffinity 6.15935946
REMARK minimizedRMSD -1
REMARK  0 active torsions:
REMARK  status: ('A' for Active; 'I' for Inactive)
ROOT
ATOM      1  C   UNL d   1      -1.805  -0.582   4.166  0.00  0.00    -0.002 A 
ATOM      2  C1  UNL d   1      -2.247   0.708   4.422  0.00  0.00     0.010 A 
ATOM      3  C2  UNL d   1      -3.499   1.133   3.973  0.00  0.00     0.041 A 
ATOM      4  C3  UNL d   1      -4.308   0.229   3.256  0.00  0.00    -0.075 A 
ATOM      5  S   UNL d   1      -5.878   0.527   2.609  0.00  0.00     0.015 SA
ATOM      6  C4  UNL d   1      -6.000  -1.052   1.978  0.00  0.00     0.022 A 
ATOM      7  C5  UNL d   1      -4.878  -1.801   2.245  0.00  0.00     0.026 A 
ATOM      8  C6  UNL d   1      -3.885  -1.076   2.987  0.00  0.00    -0.082 A 
ATOM      9  C7  UNL d   1      -2.610  -1.475   3.455  0.00  0.00     0.045 A 
ENDROOT
TORSDOF 0
ENDMDL
