MODEL 1
REMARK minimizedAffinity 11.4547939
REMARK minimizedRMSD -1
REMARK  0 active torsions:
REMARK  status: ('A' for Active; 'I' for Inactive)
ROOT
ATOM      1  C   UNL d   1       1.926   4.038  -0.375  0.00  0.00    -0.002 A 
ATOM      2  C1  UNL d   1       2.525   4.536  -1.523  0.00  0.00     0.010 A 
ATOM      3  C2  UNL d   1       2.412   3.853  -2.736  0.00  0.00     0.041 A 
ATOM      4  C3  UNL d   1       1.678   2.652  -2.776  0.00  0.00    -0.075 A 
ATOM      5  S   UNL d   1       1.405   1.646  -4.149  0.00  0.00     0.015 SA
ATOM      6  C4  UNL d   1       0.485   0.532  -3.243  0.00  0.00     0.022 A 
ATOM      7  C5  UNL d   1       0.380   0.903  -1.924  0.00  0.00     0.026 A 
ATOM      8  C6  UNL d   1       1.065   2.131  -1.633  0.00  0.00    -0.082 A 
ATOM      9  C7  UNL d   1       1.199   2.846  -0.418  0.00  0.00     0.045 A 
ENDROOT
TORSDOF 0
ENDMDL
