MODEL 1
REMARK minimizedAffinity 8.4940567
REMARK minimizedRMSD -1
REMARK  0 active torsions:
REMARK  status: ('A' for Active; 'I' for Inactive)
ROOT
ATOM      1  C   UNL d   1       0.588  -0.031  -1.822  0.00  0.00    -0.002 A 
ATOM      2  C1  UNL d   1       0.457   1.162  -1.126  0.00  0.00     0.010 A 
ATOM      3  C2  UNL d   1       1.046   2.333  -1.607  0.00  0.00     0.041 A 
ATOM      4  C3  UNL d   1       1.774   2.285  -2.812  0.00  0.00    -0.075 A 
ATOM      5  S   UNL d   1       2.581   3.593  -3.592  0.00  0.00     0.015 SA
ATOM      6  C4  UNL d   1       3.118   2.599  -4.868  0.00  0.00     0.022 A 
ATOM      7  C5  UNL d   1       2.702   1.298  -4.718  0.00  0.00     0.026 A 
ATOM      8  C6  UNL d   1       1.920   1.095  -3.531  0.00  0.00    -0.082 A 
ATOM      9  C7  UNL d   1       1.311  -0.075  -3.017  0.00  0.00     0.045 A 
ENDROOT
TORSDOF 0
ENDMDL
