MODEL 1
REMARK minimizedAffinity 16.929512
REMARK minimizedRMSD -1
REMARK  0 active torsions:
REMARK  status: ('A' for Active; 'I' for Inactive)
ROOT
ATOM      1  C   UNL d   1      -4.119   0.813  -0.420  0.00  0.00    -0.002 A 
ATOM      2  C1  UNL d   1      -3.323   1.830   0.088  0.00  0.00     0.010 A 
ATOM      3  C2  UNL d   1      -2.822   1.756   1.389  0.00  0.00     0.041 A 
ATOM      4  C3  UNL d   1      -3.135   0.631   2.178  0.00  0.00    -0.075 A 
ATOM      5  S   UNL d   1      -2.631   0.325   3.798  0.00  0.00     0.015 SA
ATOM      6  C4  UNL d   1      -3.460  -1.163   3.853  0.00  0.00     0.022 A 
ATOM      7  C5  UNL d   1      -4.110  -1.435   2.673  0.00  0.00     0.026 A 
ATOM      8  C6  UNL d   1      -3.933  -0.406   1.687  0.00  0.00    -0.082 A 
ATOM      9  C7  UNL d   1      -4.427  -0.301   0.365  0.00  0.00     0.045 A 
ENDROOT
TORSDOF 0
ENDMDL
