MODEL 1
REMARK minimizedAffinity -3.02189136
REMARK minimizedRMSD -1
REMARK  1 active torsions:
REMARK  status: ('A' for Active; 'I' for Inactive)
REMARK    1  A    between atoms: C1_2  and  C2_3 
ROOT
ATOM      1  C2  UNL d   1      -0.681   1.767   0.764  0.00  0.00    -0.081 A 
ATOM      2  C3  UNL d   1      -1.057   0.502   1.233  0.00  0.00     0.006 A 
ATOM      3  C4  UNL d   1      -0.556  -0.654   0.631  0.00  0.00     0.002 A 
ATOM      4  C5  UNL d   1       0.334  -0.567  -0.444  0.00  0.00    -0.080 A 
ATOM      5  C6  UNL d   1       0.902  -1.800  -1.080  0.00  0.00     0.076 C 
ATOM      6  C7  UNL d   1       0.696   0.696  -0.925  0.00  0.00     0.002 A 
ATOM      7  C8  UNL d   1       0.196   1.853  -0.324  0.00  0.00     0.006 A 
ENDROOT
BRANCH   1   8
ATOM      8  C1  UNL d   1      -1.168   3.016   1.452  0.00  0.00     0.054 C 
ATOM      9  C   UNL d   1      -2.414   2.741   2.281  0.00  0.00     0.018 C 
ENDBRANCH   1   8
TORSDOF 1
ENDMDL
