MODEL 1
REMARK minimizedAffinity -4.07330656
REMARK minimizedRMSD -1
REMARK  1 active torsions:
REMARK  status: ('A' for Active; 'I' for Inactive)
REMARK    1  A    between atoms: C1_2  and  C2_3 
ROOT
ATOM      1  C2  UNL d   1       1.165  -0.702  -0.375  0.00  0.00    -0.081 A 
ATOM      2  C3  UNL d   1       0.731  -1.071   0.904  0.00  0.00     0.006 A 
ATOM      3  C4  UNL d   1      -0.185  -0.278   1.599  0.00  0.00     0.002 A 
ATOM      4  C5  UNL d   1      -0.689   0.893   1.023  0.00  0.00    -0.080 A 
ATOM      5  C6  UNL d   1      -1.696   1.738   1.745  0.00  0.00     0.076 C 
ATOM      6  C7  UNL d   1      -0.243   1.272  -0.248  0.00  0.00     0.002 A 
ATOM      7  C8  UNL d   1       0.674   0.480  -0.942  0.00  0.00     0.006 A 
ENDROOT
BRANCH   1   8
ATOM      8  C1  UNL d   1       2.103  -1.589  -1.152  0.00  0.00     0.054 C 
ATOM      9  C   UNL d   1       1.794  -3.061  -0.919  0.00  0.00     0.018 C 
ENDBRANCH   1   8
TORSDOF 1
ENDMDL
