MODEL 1
REMARK minimizedAffinity -3.31656528
REMARK minimizedRMSD -1
REMARK  1 active torsions:
REMARK  status: ('A' for Active; 'I' for Inactive)
REMARK    1  A    between atoms: C1_2  and  C2_3 
ROOT
ATOM      1  C2  UNL d   1       0.552  -0.607  -0.069  0.00  0.00    -0.081 A 
ATOM      2  C3  UNL d   1       0.601   0.597  -0.784  0.00  0.00     0.006 A 
ATOM      3  C4  UNL d   1      -0.026   1.741  -0.286  0.00  0.00     0.002 A 
ATOM      4  C5  UNL d   1      -0.705   1.704   0.936  0.00  0.00    -0.080 A 
ATOM      5  C6  UNL d   1      -1.357   2.934   1.496  0.00  0.00     0.076 C 
ATOM      6  C7  UNL d   1      -0.768   0.498   1.642  0.00  0.00     0.002 A 
ATOM      7  C8  UNL d   1      -0.142  -0.647   1.145  0.00  0.00     0.006 A 
ENDROOT
BRANCH   1   8
ATOM      8  C1  UNL d   1       1.283  -1.826  -0.571  0.00  0.00     0.054 C 
ATOM      9  C   UNL d   1       0.838  -2.197  -1.979  0.00  0.00     0.018 C 
ENDBRANCH   1   8
TORSDOF 1
ENDMDL
