MODEL 1
REMARK minimizedAffinity -0.713286638
REMARK minimizedRMSD -1
REMARK  1 active torsions:
REMARK  status: ('A' for Active; 'I' for Inactive)
REMARK    1  A    between atoms: C1_2  and  C2_3 
ROOT
ATOM      1  C2  UNL d   1       2.704  -5.306  -0.399  0.00  0.00    -0.081 A 
ATOM      2  C3  UNL d   1       1.614  -6.000  -0.940  0.00  0.00     0.006 A 
ATOM      3  C4  UNL d   1       0.753  -5.372  -1.844  0.00  0.00     0.002 A 
ATOM      4  C5  UNL d   1       0.972  -4.045  -2.228  0.00  0.00    -0.080 A 
ATOM      5  C6  UNL d   1       0.073  -3.369  -3.220  0.00  0.00     0.076 C 
ATOM      6  C7  UNL d   1       2.050  -3.346  -1.674  0.00  0.00     0.002 A 
ATOM      7  C8  UNL d   1       2.911  -3.973  -0.770  0.00  0.00     0.006 A 
ENDROOT
BRANCH   1   8
ATOM      8  C1  UNL d   1       3.671  -6.000   0.525  0.00  0.00     0.054 C 
ATOM      9  C   UNL d   1       5.083  -5.992  -0.044  0.00  0.00     0.018 C 
ENDBRANCH   1   8
TORSDOF 1
ENDMDL
