MODEL 1
REMARK minimizedAffinity -5.24167967
REMARK minimizedRMSD -1
REMARK  1 active torsions:
REMARK  status: ('A' for Active; 'I' for Inactive)
REMARK    1  A    between atoms: C1_2  and  C2_3 
ROOT
ATOM      1  C2  UNL d   1       0.339  -0.138  -0.380  0.00  0.00    -0.081 A 
ATOM      2  C3  UNL d   1      -0.043  -0.427   0.935  0.00  0.00     0.006 A 
ATOM      3  C4  UNL d   1      -0.904   0.428   1.627  0.00  0.00     0.002 A 
ATOM      4  C5  UNL d   1      -1.402   1.583   1.014  0.00  0.00    -0.080 A 
ATOM      5  C6  UNL d   1      -2.350   2.494   1.735  0.00  0.00     0.076 C 
ATOM      6  C7  UNL d   1      -1.006   1.881  -0.294  0.00  0.00     0.002 A 
ATOM      7  C8  UNL d   1      -0.145   1.027  -0.987  0.00  0.00     0.006 A 
ENDROOT
BRANCH   1   8
ATOM      8  C1  UNL d   1       1.215  -1.091  -1.151  0.00  0.00     0.054 C 
ATOM      9  C   UNL d   1       0.384  -2.050  -1.991  0.00  0.00     0.018 C 
ENDBRANCH   1   8
TORSDOF 1
ENDMDL
