MODEL 1
REMARK minimizedAffinity -2.58638811
REMARK minimizedRMSD -1
REMARK  1 active torsions:
REMARK  status: ('A' for Active; 'I' for Inactive)
REMARK    1  A    between atoms: C1_2  and  C2_3 
ROOT
ATOM      1  C2  UNL d   1       0.372  -0.174  -0.159  0.00  0.00    -0.081 A 
ATOM      2  C3  UNL d   1      -0.006   0.934  -0.928  0.00  0.00     0.006 A 
ATOM      3  C4  UNL d   1      -0.943   1.848  -0.441  0.00  0.00     0.002 A 
ATOM      4  C5  UNL d   1      -1.512   1.675   0.825  0.00  0.00    -0.080 A 
ATOM      5  C6  UNL d   1      -2.496   2.665   1.372  0.00  0.00     0.076 C 
ATOM      6  C7  UNL d   1      -1.148   0.559   1.586  0.00  0.00     0.002 A 
ATOM      7  C8  UNL d   1      -0.211  -0.356   1.100  0.00  0.00     0.006 A 
ENDROOT
BRANCH   1   8
ATOM      8  C1  UNL d   1       1.430  -1.126  -0.654  0.00  0.00     0.054 C 
ATOM      9  C   UNL d   1       0.832  -2.198  -1.554  0.00  0.00     0.018 C 
ENDBRANCH   1   8
TORSDOF 1
ENDMDL
