MODEL 1
REMARK minimizedAffinity -4.21635437
REMARK minimizedRMSD -1
REMARK  1 active torsions:
REMARK  status: ('A' for Active; 'I' for Inactive)
REMARK    1  A    between atoms: C1_2  and  C2_3 
ROOT
ATOM      1  C2  UNL d   1       0.288  -0.478  -0.457  0.00  0.00    -0.081 A 
ATOM      2  C3  UNL d   1      -0.271  -0.753   0.797  0.00  0.00     0.006 A 
ATOM      3  C4  UNL d   1      -1.141   0.158   1.400  0.00  0.00     0.002 A 
ATOM      4  C5  UNL d   1      -1.473   1.355   0.755  0.00  0.00    -0.080 A 
ATOM      5  C6  UNL d   1      -2.430   2.328   1.378  0.00  0.00     0.076 C 
ATOM      6  C7  UNL d   1      -0.902   1.638  -0.490  0.00  0.00     0.002 A 
ATOM      7  C8  UNL d   1      -0.031   0.727  -1.092  0.00  0.00     0.006 A 
ENDROOT
BRANCH   1   8
ATOM      8  C1  UNL d   1       1.176  -1.488  -1.139  0.00  0.00     0.054 C 
ATOM      9  C   UNL d   1       0.372  -2.409  -2.045  0.00  0.00     0.018 C 
ENDBRANCH   1   8
TORSDOF 1
ENDMDL
