MODEL 1
REMARK minimizedAffinity -5.88695955
REMARK minimizedRMSD -1
REMARK  1 active torsions:
REMARK  status: ('A' for Active; 'I' for Inactive)
REMARK    1  A    between atoms: C1_2  and  C2_3 
ROOT
ATOM      1  C2  UNL d   1       0.322  -0.561  -0.193  0.00  0.00    -0.081 A 
ATOM      2  C3  UNL d   1      -0.135  -0.666   1.126  0.00  0.00     0.006 A 
ATOM      3  C4  UNL d   1      -0.906   0.352   1.691  0.00  0.00     0.002 A 
ATOM      4  C5  UNL d   1      -1.241   1.487   0.945  0.00  0.00    -0.080 A 
ATOM      5  C6  UNL d   1      -2.094   2.573   1.530  0.00  0.00     0.076 C 
ATOM      6  C7  UNL d   1      -0.769   1.601  -0.367  0.00  0.00     0.002 A 
ATOM      7  C8  UNL d   1       0.003   0.584  -0.933  0.00  0.00     0.006 A 
ENDROOT
BRANCH   1   8
ATOM      8  C1  UNL d   1       1.100  -1.686  -0.827  0.00  0.00     0.054 C 
ATOM      9  C   UNL d   1       0.333  -2.304  -1.987  0.00  0.00     0.018 C 
ENDBRANCH   1   8
TORSDOF 1
ENDMDL
