MODEL 1
REMARK minimizedAffinity -4.78006458
REMARK minimizedRMSD -1
REMARK  1 active torsions:
REMARK  status: ('A' for Active; 'I' for Inactive)
REMARK    1  A    between atoms: C1_2  and  C2_3 
ROOT
ATOM      1  C2  UNL d   1       0.245  -0.507  -0.612  0.00  0.00    -0.081 A 
ATOM      2  C3  UNL d   1      -0.724  -1.389  -1.107  0.00  0.00     0.006 A 
ATOM      3  C4  UNL d   1      -0.390  -2.333  -2.081  0.00  0.00     0.002 A 
ATOM      4  C5  UNL d   1       0.917  -2.416  -2.571  0.00  0.00    -0.080 A 
ATOM      5  C6  UNL d   1       1.295  -3.444  -3.595  0.00  0.00     0.076 C 
ATOM      6  C7  UNL d   1       1.881  -1.523  -2.090  0.00  0.00     0.002 A 
ATOM      7  C8  UNL d   1       1.548  -0.579  -1.116  0.00  0.00     0.006 A 
ENDROOT
BRANCH   1   8
ATOM      8  C1  UNL d   1      -0.096   0.468   0.485  0.00  0.00     0.054 C 
ATOM      9  C   UNL d   1      -1.145  -0.104   1.428  0.00  0.00     0.018 C 
ENDBRANCH   1   8
TORSDOF 1
ENDMDL
