MODEL 1
REMARK minimizedAffinity -1.61973953
REMARK minimizedRMSD -1
REMARK  1 active torsions:
REMARK  status: ('A' for Active; 'I' for Inactive)
REMARK    1  A    between atoms: C1_2  and  C2_3 
ROOT
ATOM      1  C2  UNL d   1       0.032  -0.124   1.838  0.00  0.00    -0.081 A 
ATOM      2  C3  UNL d   1      -0.639   0.080   0.626  0.00  0.00     0.006 A 
ATOM      3  C4  UNL d   1      -1.410   1.228   0.428  0.00  0.00     0.002 A 
ATOM      4  C5  UNL d   1      -1.517   2.193   1.434  0.00  0.00    -0.080 A 
ATOM      5  C6  UNL d   1      -2.318   3.444   1.223  0.00  0.00     0.076 C 
ATOM      6  C7  UNL d   1      -0.862   1.981   2.651  0.00  0.00     0.002 A 
ATOM      7  C8  UNL d   1      -0.091   0.834   2.850  0.00  0.00     0.006 A 
ENDROOT
BRANCH   1   8
ATOM      8  C1  UNL d   1       0.916  -1.329   2.031  0.00  0.00     0.054 C 
ATOM      9  C   UNL d   1       1.114  -1.639   3.508  0.00  0.00     0.018 C 
ENDBRANCH   1   8
TORSDOF 1
ENDMDL
