MODEL 1
REMARK minimizedAffinity -4.86431837
REMARK minimizedRMSD -1
REMARK  1 active torsions:
REMARK  status: ('A' for Active; 'I' for Inactive)
REMARK    1  A    between atoms: C1_2  and  C2_3 
ROOT
ATOM      1  C2  UNL d   1       0.600  -0.821  -0.432  0.00  0.00    -0.081 A 
ATOM      2  C3  UNL d   1       0.380  -1.036   0.934  0.00  0.00     0.006 A 
ATOM      3  C4  UNL d   1      -0.418  -0.157   1.669  0.00  0.00     0.002 A 
ATOM      4  C5  UNL d   1      -1.016   0.946   1.050  0.00  0.00    -0.080 A 
ATOM      5  C6  UNL d   1      -1.900   1.880   1.821  0.00  0.00     0.076 C 
ATOM      6  C7  UNL d   1      -0.782   1.171  -0.311  0.00  0.00     0.002 A 
ATOM      7  C8  UNL d   1       0.017   0.292  -1.046  0.00  0.00     0.006 A 
ENDROOT
BRANCH   1   8
ATOM      8  C1  UNL d   1       1.408  -1.803  -1.242  0.00  0.00     0.054 C 
ATOM      9  C   UNL d   1       0.577  -2.412  -2.362  0.00  0.00     0.018 C 
ENDBRANCH   1   8
TORSDOF 1
ENDMDL
