MODEL 1
REMARK minimizedAffinity -4.94744253
REMARK minimizedRMSD -1
REMARK  1 active torsions:
REMARK  status: ('A' for Active; 'I' for Inactive)
REMARK    1  A    between atoms: C1_2  and  C2_3 
ROOT
ATOM      1  C2  UNL d   1       0.252  -0.067  -0.436  0.00  0.00    -0.081 A 
ATOM      2  C3  UNL d   1       0.446   1.101  -1.183  0.00  0.00     0.006 A 
ATOM      3  C4  UNL d   1      -0.220   2.280  -0.840  0.00  0.00     0.002 A 
ATOM      4  C5  UNL d   1      -1.084   2.313   0.259  0.00  0.00    -0.080 A 
ATOM      5  C6  UNL d   1      -1.781   3.580   0.657  0.00  0.00     0.076 C 
ATOM      6  C7  UNL d   1      -1.291   1.142   0.996  0.00  0.00     0.002 A 
ATOM      7  C8  UNL d   1      -0.626  -0.038   0.653  0.00  0.00     0.006 A 
ENDROOT
BRANCH   1   8
ATOM      8  C1  UNL d   1       1.018  -1.323  -0.764  0.00  0.00     0.054 C 
ATOM      9  C   UNL d   1       0.207  -2.247  -1.661  0.00  0.00     0.018 C 
ENDBRANCH   1   8
TORSDOF 1
ENDMDL
