MODEL 1
REMARK minimizedAffinity -2.69955134
REMARK minimizedRMSD -1
REMARK  1 active torsions:
REMARK  status: ('A' for Active; 'I' for Inactive)
REMARK    1  A    between atoms: C1_2  and  C2_3 
ROOT
ATOM      1  C2  UNL d   1       0.961  -3.964  -1.997  0.00  0.00    -0.081 A 
ATOM      2  C3  UNL d   1       2.089  -3.293  -1.509  0.00  0.00     0.006 A 
ATOM      3  C4  UNL d   1       2.991  -3.945  -0.665  0.00  0.00     0.002 A 
ATOM      4  C5  UNL d   1       2.784  -5.279  -0.300  0.00  0.00    -0.080 A 
ATOM      5  C6  UNL d   1       3.761  -6.000   0.582  0.00  0.00     0.076 C 
ATOM      6  C7  UNL d   1       1.648  -5.945  -0.773  0.00  0.00     0.002 A 
ATOM      7  C8  UNL d   1       0.746  -5.293  -1.617  0.00  0.00     0.006 A 
ENDROOT
BRANCH   1   8
ATOM      8  C1  UNL d   1       0.021  -3.284  -2.959  0.00  0.00     0.054 C 
ATOM      9  C   UNL d   1       0.748  -2.244  -3.800  0.00  0.00     0.018 C 
ENDBRANCH   1   8
TORSDOF 1
ENDMDL
