MODEL 1
REMARK minimizedAffinity -4.6270237
REMARK minimizedRMSD -1
REMARK  1 active torsions:
REMARK  status: ('A' for Active; 'I' for Inactive)
REMARK    1  A    between atoms: C1_2  and  C2_3 
ROOT
ATOM      1  C2  UNL d   1      -0.287   1.826   0.181  0.00  0.00    -0.081 A 
ATOM      2  C3  UNL d   1       0.879   1.733  -0.589  0.00  0.00     0.006 A 
ATOM      3  C4  UNL d   1       1.369   0.487  -0.986  0.00  0.00     0.002 A 
ATOM      4  C5  UNL d   1       0.697  -0.687  -0.627  0.00  0.00    -0.080 A 
ATOM      5  C6  UNL d   1       1.196  -2.029  -1.072  0.00  0.00     0.076 C 
ATOM      6  C7  UNL d   1      -0.458  -0.596   0.157  0.00  0.00     0.002 A 
ATOM      7  C8  UNL d   1      -0.947   0.650   0.555  0.00  0.00     0.006 A 
ENDROOT
BRANCH   1   8
ATOM      8  C1  UNL d   1      -0.853   3.171   0.556  0.00  0.00     0.054 C 
ATOM      9  C   UNL d   1      -2.120   3.026   1.387  0.00  0.00     0.018 C 
ENDBRANCH   1   8
TORSDOF 1
ENDMDL
