MODEL 1
REMARK minimizedAffinity 1.17367971
REMARK minimizedRMSD -1
REMARK  0 active torsions:
REMARK  status: ('A' for Active; 'I' for Inactive)
ROOT
ATOM      1  C   UNL d   1       0.332  -0.040  -3.147  0.00  0.00     0.078 C 
ATOM      2  C1  UNL d   1      -0.859   0.262  -2.287  0.00  0.00    -0.077 A 
ATOM      3  C2  UNL d   1      -1.460   1.527  -2.305  0.00  0.00    -0.001 A 
ATOM      4  C3  UNL d   1      -2.561   1.797  -1.491  0.00  0.00     0.003 A 
ATOM      5  C4  UNL d   1      -3.071   0.808  -0.653  0.00  0.00    -0.005 A 
ATOM      6  C5  UNL d   1      -2.478  -0.453  -0.626  0.00  0.00     0.003 A 
ATOM      7  C6  UNL d   1      -1.376  -0.725  -1.439  0.00  0.00    -0.001 A 
ENDROOT
TORSDOF 0
ENDMDL
