MODEL 1
REMARK minimizedAffinity -3.17529655
REMARK minimizedRMSD -1
REMARK  0 active torsions:
REMARK  status: ('A' for Active; 'I' for Inactive)
ROOT
ATOM      1  C   UNL d   1      -3.554  -0.960  -2.041  0.00  0.00     0.078 C 
ATOM      2  C1  UNL d   1      -3.963  -0.544  -3.422  0.00  0.00    -0.077 A 
ATOM      3  C2  UNL d   1      -3.108  -0.733  -4.515  0.00  0.00    -0.001 A 
ATOM      4  C3  UNL d   1      -3.499  -0.333  -5.794  0.00  0.00     0.003 A 
ATOM      5  C4  UNL d   1      -4.744   0.261  -5.992  0.00  0.00    -0.005 A 
ATOM      6  C5  UNL d   1      -5.600   0.455  -4.910  0.00  0.00     0.003 A 
ATOM      7  C6  UNL d   1      -5.212   0.055  -3.630  0.00  0.00    -0.001 A 
ENDROOT
TORSDOF 0
ENDMDL
