MODEL 1
REMARK minimizedAffinity 2.85656881
REMARK minimizedRMSD -1
REMARK  0 active torsions:
REMARK  status: ('A' for Active; 'I' for Inactive)
ROOT
ATOM      1  C   UNL d   1       3.466   1.568  -0.388  0.00  0.00     0.078 C 
ATOM      2  C1  UNL d   1       2.692   1.166   0.833  0.00  0.00    -0.077 A 
ATOM      3  C2  UNL d   1       2.784   1.903   2.020  0.00  0.00    -0.001 A 
ATOM      4  C3  UNL d   1       2.065   1.511   3.151  0.00  0.00     0.003 A 
ATOM      5  C4  UNL d   1       1.251   0.381   3.106  0.00  0.00    -0.005 A 
ATOM      6  C5  UNL d   1       1.156  -0.360   1.930  0.00  0.00     0.003 A 
ATOM      7  C6  UNL d   1       1.873   0.030   0.798  0.00  0.00    -0.001 A 
ENDROOT
TORSDOF 0
ENDMDL
