MODEL 1
REMARK minimizedAffinity 1.50572836
REMARK minimizedRMSD -1
REMARK  0 active torsions:
REMARK  status: ('A' for Active; 'I' for Inactive)
ROOT
ATOM      1  C   UNL d   1      -1.893  -1.110  -5.633  0.00  0.00     0.078 C 
ATOM      2  C1  UNL d   1      -3.041  -0.263  -5.172  0.00  0.00    -0.077 A 
ATOM      3  C2  UNL d   1      -4.147  -0.034  -6.000  0.00  0.00    -0.001 A 
ATOM      4  C3  UNL d   1      -5.204   0.765  -5.561  0.00  0.00     0.003 A 
ATOM      5  C4  UNL d   1      -5.166   1.342  -4.293  0.00  0.00    -0.005 A 
ATOM      6  C5  UNL d   1      -4.069   1.121  -3.463  0.00  0.00     0.003 A 
ATOM      7  C6  UNL d   1      -3.011   0.323  -3.900  0.00  0.00    -0.001 A 
ENDROOT
TORSDOF 0
ENDMDL
