MODEL 1
REMARK minimizedAffinity 1.9705317
REMARK minimizedRMSD -1
REMARK  0 active torsions:
REMARK  status: ('A' for Active; 'I' for Inactive)
ROOT
ATOM      1  C   UNL d   1      -4.285   1.519  -6.000  0.00  0.00     0.078 C 
ATOM      2  C1  UNL d   1      -4.238   0.439  -4.961  0.00  0.00    -0.077 A 
ATOM      3  C2  UNL d   1      -3.024  -0.146  -4.583  0.00  0.00    -0.001 A 
ATOM      4  C3  UNL d   1      -2.997  -1.158  -3.621  0.00  0.00     0.003 A 
ATOM      5  C4  UNL d   1      -4.181  -1.593  -3.030  0.00  0.00    -0.005 A 
ATOM      6  C5  UNL d   1      -5.395  -1.018  -3.401  0.00  0.00     0.003 A 
ATOM      7  C6  UNL d   1      -5.424  -0.007  -4.363  0.00  0.00    -0.001 A 
ENDROOT
TORSDOF 0
ENDMDL
