MODEL 1
REMARK minimizedAffinity 2.58679318
REMARK minimizedRMSD -1
REMARK  0 active torsions:
REMARK  status: ('A' for Active; 'I' for Inactive)
ROOT
ATOM      1  C   UNL d   1      -3.997   1.907  -5.532  0.00  0.00     0.078 C 
ATOM      2  C1  UNL d   1      -4.079   0.784  -4.542  0.00  0.00    -0.077 A 
ATOM      3  C2  UNL d   1      -3.664  -0.509  -4.882  0.00  0.00    -0.001 A 
ATOM      4  C3  UNL d   1      -3.755  -1.547  -3.953  0.00  0.00     0.003 A 
ATOM      5  C4  UNL d   1      -4.264  -1.303  -2.679  0.00  0.00    -0.005 A 
ATOM      6  C5  UNL d   1      -4.682  -0.020  -2.332  0.00  0.00     0.003 A 
ATOM      7  C6  UNL d   1      -4.591   1.019  -3.259  0.00  0.00    -0.001 A 
ENDROOT
TORSDOF 0
ENDMDL
