MODEL 1
REMARK minimizedAffinity 11.5483837
REMARK minimizedRMSD -1
REMARK  1 active torsions:
REMARK  status: ('A' for Active; 'I' for Inactive)
REMARK    1  A    between atoms: C1_2  and  C2_3 
ROOT
ATOM      1  C2  UNL d   1       3.026   3.845  -3.412  0.00  0.00    -0.076 A 
ATOM      2  C3  UNL d   1       2.587   5.181  -3.437  0.00  0.00     0.004 A 
ATOM      3  C4  UNL d   1       2.719   5.957  -4.587  0.00  0.00    -0.003 A 
ATOM      4  C5  UNL d   1       3.292   5.411  -5.730  0.00  0.00     0.000 A 
ATOM      5  C6  UNL d   1       3.717   4.083  -5.728  0.00  0.00     0.000 A 
ATOM      6  C7  UNL d   1       3.576   3.281  -4.583  0.00  0.00    -0.073 A 
ATOM      7  C8  UNL d   1       4.057   1.857  -4.635  0.00  0.00     0.078 C 
ENDROOT
BRANCH   1   8
ATOM      8  C1  UNL d   1       2.881   3.060  -2.128  0.00  0.00     0.053 C 
ATOM      9  C   UNL d   1       4.045   2.111  -1.891  0.00  0.00     0.018 C 
ENDBRANCH   1   8
TORSDOF 1
ENDMDL
