MODEL 1
REMARK minimizedAffinity 4.81640005
REMARK minimizedRMSD -1
REMARK  1 active torsions:
REMARK  status: ('A' for Active; 'I' for Inactive)
REMARK    1  A    between atoms: C1_2  and  C2_3 
ROOT
ATOM      1  C2  UNL d   1       4.125   3.432  -4.724  0.00  0.00    -0.076 A 
ATOM      2  C3  UNL d   1       5.081   4.116  -5.494  0.00  0.00     0.004 A 
ATOM      3  C4  UNL d   1       4.817   5.388  -6.000  0.00  0.00    -0.003 A 
ATOM      4  C5  UNL d   1       3.593   5.996  -5.743  0.00  0.00     0.000 A 
ATOM      5  C6  UNL d   1       2.640   5.339  -4.966  0.00  0.00     0.000 A 
ATOM      6  C7  UNL d   1       2.896   4.063  -4.435  0.00  0.00    -0.073 A 
ATOM      7  C8  UNL d   1       1.830   3.398  -3.609  0.00  0.00     0.078 C 
ENDROOT
BRANCH   1   8
ATOM      8  C1  UNL d   1       4.456   2.043  -4.225  0.00  0.00     0.053 C 
ATOM      9  C   UNL d   1       4.475   1.959  -2.707  0.00  0.00     0.018 C 
ENDBRANCH   1   8
TORSDOF 1
ENDMDL
