MODEL 1
REMARK minimizedAffinity 5.02592421
REMARK minimizedRMSD -1
REMARK  1 active torsions:
REMARK  status: ('A' for Active; 'I' for Inactive)
REMARK    1  A    between atoms: C1_2  and  C2_3 
ROOT
ATOM      1  C2  UNL d   1       2.863   2.451   0.875  0.00  0.00    -0.076 A 
ATOM      2  C3  UNL d   1       4.109   2.293   0.246  0.00  0.00     0.004 A 
ATOM      3  C4  UNL d   1       4.681   1.030   0.093  0.00  0.00    -0.003 A 
ATOM      4  C5  UNL d   1       4.014  -0.094   0.566  0.00  0.00     0.000 A 
ATOM      5  C6  UNL d   1       2.768   0.043   1.177  0.00  0.00     0.000 A 
ATOM      6  C7  UNL d   1       2.170   1.306   1.325  0.00  0.00    -0.073 A 
ATOM      7  C8  UNL d   1       0.828   1.396   1.997  0.00  0.00     0.078 C 
ENDROOT
BRANCH   1   8
ATOM      8  C1  UNL d   1       2.305   3.847   1.037  0.00  0.00     0.053 C 
ATOM      9  C   UNL d   1       3.388   4.877   1.321  0.00  0.00     0.018 C 
ENDBRANCH   1   8
TORSDOF 1
ENDMDL
