MODEL 1
REMARK minimizedAffinity 2.42735195
REMARK minimizedRMSD -1
REMARK  1 active torsions:
REMARK  status: ('A' for Active; 'I' for Inactive)
REMARK    1  A    between atoms: C1_2  and  C2_3 
ROOT
ATOM      1  C2  UNL d   1       4.164   3.587  -4.516  0.00  0.00    -0.076 A 
ATOM      2  C3  UNL d   1       5.355   4.236  -4.888  0.00  0.00     0.004 A 
ATOM      3  C4  UNL d   1       5.326   5.432  -5.603  0.00  0.00    -0.003 A 
ATOM      4  C5  UNL d   1       4.107   5.999  -5.957  0.00  0.00     0.000 A 
ATOM      5  C6  UNL d   1       2.916   5.379  -5.581  0.00  0.00     0.000 A 
ATOM      6  C7  UNL d   1       2.927   4.181  -4.846  0.00  0.00    -0.073 A 
ATOM      7  C8  UNL d   1       1.613   3.551  -4.472  0.00  0.00     0.078 C 
ENDROOT
BRANCH   1   8
ATOM      8  C1  UNL d   1       4.257   2.278  -3.765  0.00  0.00     0.053 C 
ATOM      9  C   UNL d   1       5.298   2.315  -2.657  0.00  0.00     0.018 C 
ENDBRANCH   1   8
TORSDOF 1
ENDMDL
