MODEL 1
REMARK minimizedAffinity 8.25105381
REMARK minimizedRMSD -1
REMARK  1 active torsions:
REMARK  status: ('A' for Active; 'I' for Inactive)
REMARK    1  A    between atoms: C1_2  and  C2_3 
ROOT
ATOM      1  C2  UNL d   1      -2.930   1.328   3.780  0.00  0.00    -0.076 A 
ATOM      2  C3  UNL d   1      -2.245   2.554   3.837  0.00  0.00     0.004 A 
ATOM      3  C4  UNL d   1      -0.964   2.686   3.306  0.00  0.00    -0.003 A 
ATOM      4  C5  UNL d   1      -0.346   1.594   2.707  0.00  0.00     0.000 A 
ATOM      5  C6  UNL d   1      -1.017   0.374   2.626  0.00  0.00     0.000 A 
ATOM      6  C7  UNL d   1      -2.316   0.229   3.142  0.00  0.00    -0.073 A 
ATOM      7  C8  UNL d   1      -2.990  -1.111   3.032  0.00  0.00     0.078 C 
ENDROOT
BRANCH   1   8
ATOM      8  C1  UNL d   1      -4.307   1.237   4.398  0.00  0.00     0.053 C 
ATOM      9  C   UNL d   1      -4.397   1.966   5.730  0.00  0.00     0.018 C 
ENDBRANCH   1   8
TORSDOF 1
ENDMDL
