MODEL 1
REMARK minimizedAffinity 5.2248311
REMARK minimizedRMSD -1
REMARK  1 active torsions:
REMARK  status: ('A' for Active; 'I' for Inactive)
REMARK    1  A    between atoms: C1_2  and  C2_3 
ROOT
ATOM      1  C2  UNL d   1      -3.488   1.521   3.613  0.00  0.00    -0.076 A 
ATOM      2  C3  UNL d   1      -2.705   2.579   3.121  0.00  0.00     0.004 A 
ATOM      3  C4  UNL d   1      -1.518   2.333   2.431  0.00  0.00    -0.003 A 
ATOM      4  C5  UNL d   1      -1.097   1.024   2.222  0.00  0.00     0.000 A 
ATOM      5  C6  UNL d   1      -1.871  -0.038   2.688  0.00  0.00     0.000 A 
ATOM      6  C7  UNL d   1      -3.078   0.193   3.370  0.00  0.00    -0.073 A 
ATOM      7  C8  UNL d   1      -3.870  -0.991   3.856  0.00  0.00     0.078 C 
ENDROOT
BRANCH   1   8
ATOM      8  C1  UNL d   1      -4.751   1.849   4.377  0.00  0.00     0.053 C 
ATOM      9  C   UNL d   1      -4.466   2.366   5.778  0.00  0.00     0.018 C 
ENDBRANCH   1   8
TORSDOF 1
ENDMDL
