MODEL 1
REMARK minimizedAffinity 9.43950653
REMARK minimizedRMSD -1
REMARK  1 active torsions:
REMARK  status: ('A' for Active; 'I' for Inactive)
REMARK    1  A    between atoms: C1_2  and  C2_3 
ROOT
ATOM      1  C2  UNL d   1      -0.313   0.549   2.915  0.00  0.00    -0.076 A 
ATOM      2  C3  UNL d   1       0.598   1.531   2.488  0.00  0.00     0.004 A 
ATOM      3  C4  UNL d   1       0.153   2.746   1.971  0.00  0.00    -0.003 A 
ATOM      4  C5  UNL d   1      -1.211   3.001   1.874  0.00  0.00     0.000 A 
ATOM      5  C6  UNL d   1      -2.128   2.046   2.309  0.00  0.00     0.000 A 
ATOM      6  C7  UNL d   1      -1.696   0.821   2.848  0.00  0.00    -0.073 A 
ATOM      7  C8  UNL d   1      -2.730  -0.175   3.297  0.00  0.00     0.078 C 
ENDROOT
BRANCH   1   8
ATOM      8  C1  UNL d   1       0.228  -0.761   3.442  0.00  0.00     0.053 C 
ATOM      9  C   UNL d   1       0.868  -0.618   4.814  0.00  0.00     0.018 C 
ENDBRANCH   1   8
TORSDOF 1
ENDMDL
