MODEL 1
REMARK minimizedAffinity 4.54527712
REMARK minimizedRMSD -1
REMARK  1 active torsions:
REMARK  status: ('A' for Active; 'I' for Inactive)
REMARK    1  A    between atoms: C1_2  and  C2_3 
ROOT
ATOM      1  C2  UNL d   1      -2.717   2.541   2.817  0.00  0.00    -0.076 A 
ATOM      2  C3  UNL d   1      -1.739   1.787   3.490  0.00  0.00     0.004 A 
ATOM      3  C4  UNL d   1      -0.414   1.784   3.059  0.00  0.00    -0.003 A 
ATOM      4  C5  UNL d   1      -0.043   2.537   1.950  0.00  0.00     0.000 A 
ATOM      5  C6  UNL d   1      -0.996   3.305   1.282  0.00  0.00     0.000 A 
ATOM      6  C7  UNL d   1      -2.334   3.331   1.713  0.00  0.00    -0.073 A 
ATOM      7  C8  UNL d   1      -3.321   4.173   0.951  0.00  0.00     0.078 C 
ENDROOT
BRANCH   1   8
ATOM      8  C1  UNL d   1      -4.144   2.483   3.313  0.00  0.00     0.053 C 
ATOM      9  C   UNL d   1      -4.231   2.242   4.813  0.00  0.00     0.018 C 
ENDBRANCH   1   8
TORSDOF 1
ENDMDL
