MODEL 1
REMARK minimizedAffinity 7.17205811
REMARK minimizedRMSD -1
REMARK  1 active torsions:
REMARK  status: ('A' for Active; 'I' for Inactive)
REMARK    1  A    between atoms: C1_2  and  C2_3 
ROOT
ATOM      1  C2  UNL d   1       3.584  -0.729   1.192  0.00  0.00    -0.076 A 
ATOM      2  C3  UNL d   1       4.802  -0.308   1.754  0.00  0.00     0.004 A 
ATOM      3  C4  UNL d   1       6.000  -0.441   1.054  0.00  0.00    -0.003 A 
ATOM      4  C5  UNL d   1       5.999  -0.998  -0.221  0.00  0.00     0.000 A 
ATOM      5  C6  UNL d   1       4.798  -1.405  -0.801  0.00  0.00     0.000 A 
ATOM      6  C7  UNL d   1       3.580  -1.262  -0.115  0.00  0.00    -0.073 A 
ATOM      7  C8  UNL d   1       2.315  -1.723  -0.786  0.00  0.00     0.078 C 
ENDROOT
BRANCH   1   8
ATOM      8  C1  UNL d   1       2.321  -0.583   2.009  0.00  0.00     0.053 C 
ATOM      9  C   UNL d   1       2.566  -0.771   3.499  0.00  0.00     0.018 C 
ENDBRANCH   1   8
TORSDOF 1
ENDMDL
