MODEL 1
REMARK minimizedAffinity 6.49023771
REMARK minimizedRMSD -1
REMARK  1 active torsions:
REMARK  status: ('A' for Active; 'I' for Inactive)
REMARK    1  A    between atoms: C1_2  and  C2_3 
ROOT
ATOM      1  C2  UNL d   1      -3.766   2.063   3.739  0.00  0.00    -0.076 A 
ATOM      2  C3  UNL d   1      -2.997   3.184   3.382  0.00  0.00     0.004 A 
ATOM      3  C4  UNL d   1      -1.811   3.042   2.664  0.00  0.00    -0.003 A 
ATOM      4  C5  UNL d   1      -1.375   1.776   2.289  0.00  0.00     0.000 A 
ATOM      5  C6  UNL d   1      -2.135   0.654   2.618  0.00  0.00     0.000 A 
ATOM      6  C7  UNL d   1      -3.341   0.781   3.329  0.00  0.00    -0.073 A 
ATOM      7  C8  UNL d   1      -4.116  -0.464   3.663  0.00  0.00     0.078 C 
ENDROOT
BRANCH   1   8
ATOM      8  C1  UNL d   1      -5.029   2.276   4.542  0.00  0.00     0.053 C 
ATOM      9  C   UNL d   1      -4.743   2.609   5.999  0.00  0.00     0.018 C 
ENDBRANCH   1   8
TORSDOF 1
ENDMDL
