MODEL 1
REMARK minimizedAffinity 3.15527868
REMARK minimizedRMSD -1
REMARK  1 active torsions:
REMARK  status: ('A' for Active; 'I' for Inactive)
REMARK    1  A    between atoms: C1_2  and  C2_3 
ROOT
ATOM      1  C2  UNL d   1       2.787  -0.369  -0.925  0.00  0.00    -0.076 A 
ATOM      2  C3  UNL d   1       2.124  -1.579  -0.656  0.00  0.00     0.004 A 
ATOM      3  C4  UNL d   1       1.571  -2.339  -1.685  0.00  0.00    -0.003 A 
ATOM      4  C5  UNL d   1       1.673  -1.901  -3.001  0.00  0.00     0.000 A 
ATOM      5  C6  UNL d   1       2.343  -0.712  -3.288  0.00  0.00     0.000 A 
ATOM      6  C7  UNL d   1       2.920   0.057  -2.264  0.00  0.00    -0.073 A 
ATOM      7  C8  UNL d   1       3.626   1.334  -2.630  0.00  0.00     0.078 C 
ENDROOT
BRANCH   1   8
ATOM      8  C1  UNL d   1       3.343   0.425   0.235  0.00  0.00     0.053 C 
ATOM      9  C   UNL d   1       4.484  -0.293   0.940  0.00  0.00     0.018 C 
ENDBRANCH   1   8
TORSDOF 1
ENDMDL
