MODEL 1
REMARK minimizedAffinity -2.27745724
REMARK minimizedRMSD -1
REMARK  0 active torsions:
REMARK  status: ('A' for Active; 'I' for Inactive)
ROOT
ATOM      1  C4' PXY d   1      -0.762  -2.612  -1.895  0.00  0.00     0.077 C 
ATOM      2  C1' PXY d   1      -3.258   2.410  -3.296  0.00  0.00     0.077 C 
ATOM      3  C1  PXY d   1      -2.601   1.098  -2.917  0.00  0.00    -0.082 A 
ATOM      4  C2  PXY d   1      -2.077   0.332  -3.860  0.00  0.00     0.003 A 
ATOM      5  C3  PXY d   1      -1.507  -0.873  -3.538  0.00  0.00     0.003 A 
ATOM      6  C4  PXY d   1      -1.427  -1.274  -2.231  0.00  0.00    -0.082 A 
ATOM      7  C5  PXY d   1      -1.950  -0.494  -1.262  0.00  0.00     0.003 A 
ATOM      8  C6  PXY d   1      -2.560   0.707  -1.614  0.00  0.00     0.003 A 
ENDROOT
TORSDOF 0
ENDMDL
