MODEL 1
REMARK minimizedAffinity -2.67210507
REMARK minimizedRMSD -1
REMARK  0 active torsions:
REMARK  status: ('A' for Active; 'I' for Inactive)
ROOT
ATOM      1  C4' PXY d   1      -3.751   1.190  -0.587  0.00  0.00     0.077 C 
ATOM      2  C1' PXY d   1      -5.743   3.640  -5.429  0.00  0.00     0.077 C 
ATOM      3  C1  PXY d   1      -5.208   2.999  -4.164  0.00  0.00    -0.082 A 
ATOM      4  C2  PXY d   1      -6.000   2.225  -3.438  0.00  0.00     0.003 A 
ATOM      5  C3  PXY d   1      -5.542   1.663  -2.274  0.00  0.00     0.003 A 
ATOM      6  C4  PXY d   1      -4.245   1.851  -1.877  0.00  0.00    -0.082 A 
ATOM      7  C5  PXY d   1      -3.429   2.630  -2.618  0.00  0.00     0.003 A 
ATOM      8  C6  PXY d   1      -3.925   3.225  -3.774  0.00  0.00     0.003 A 
ENDROOT
TORSDOF 0
ENDMDL
