MODEL 1
REMARK minimizedAffinity -1.3068639
REMARK minimizedRMSD -1
REMARK  0 active torsions:
REMARK  status: ('A' for Active; 'I' for Inactive)
ROOT
ATOM      1  C4' PXY d   1       0.007   3.632   0.509  0.00  0.00     0.077 C 
ATOM      2  C1' PXY d   1       0.581  -0.389   4.622  0.00  0.00     0.077 C 
ATOM      3  C1  PXY d   1       0.443   0.665   3.541  0.00  0.00    -0.082 A 
ATOM      4  C2  PXY d   1      -0.604   1.474   3.546  0.00  0.00     0.003 A 
ATOM      5  C3  PXY d   1      -0.760   2.412   2.559  0.00  0.00     0.003 A 
ATOM      6  C4  PXY d   1       0.191   2.559   1.585  0.00  0.00    -0.082 A 
ATOM      7  C5  PXY d   1       1.268   1.744   1.579  0.00  0.00     0.003 A 
ATOM      8  C6  PXY d   1       1.387   0.771   2.567  0.00  0.00     0.003 A 
ENDROOT
TORSDOF 0
ENDMDL
