MODEL 1
REMARK minimizedAffinity 2.52450562
REMARK minimizedRMSD -1
REMARK  0 active torsions:
REMARK  status: ('A' for Active; 'I' for Inactive)
ROOT
ATOM      1  C4' PXY d   1       2.737  -1.209   0.199  0.00  0.00     0.077 C 
ATOM      2  C1' PXY d   1      -0.295   3.695  -0.212  0.00  0.00     0.077 C 
ATOM      3  C1  PXY d   1       0.492   2.403  -0.113  0.00  0.00    -0.082 A 
ATOM      4  C2  PXY d   1       1.195   2.148   0.979  0.00  0.00     0.003 A 
ATOM      5  C3  PXY d   1       1.938   1.000   1.072  0.00  0.00     0.003 A 
ATOM      6  C4  PXY d   1       1.920   0.078   0.059  0.00  0.00    -0.082 A 
ATOM      7  C5  PXY d   1       1.197   0.327  -1.053  0.00  0.00     0.003 A 
ATOM      8  C6  PXY d   1       0.482   1.517  -1.145  0.00  0.00     0.003 A 
ENDROOT
TORSDOF 0
ENDMDL
