MODEL 1
REMARK minimizedAffinity -1.31825137
REMARK minimizedRMSD -1
REMARK  0 active torsions:
REMARK  status: ('A' for Active; 'I' for Inactive)
ROOT
ATOM      1  C4' PXY d   1       0.280   3.398  -0.434  0.00  0.00     0.077 C 
ATOM      2  C1' PXY d   1      -1.324  -1.949  -1.934  0.00  0.00     0.077 C 
ATOM      3  C1  PXY d   1      -0.891  -0.550  -1.540  0.00  0.00    -0.082 A 
ATOM      4  C2  PXY d   1      -1.768   0.277  -0.996  0.00  0.00     0.003 A 
ATOM      5  C3  PXY d   1      -1.402   1.555  -0.662  0.00  0.00     0.003 A 
ATOM      6  C4  PXY d   1      -0.110   1.974  -0.839  0.00  0.00    -0.082 A 
ATOM      7  C5  PXY d   1       0.793   1.132  -1.384  0.00  0.00     0.003 A 
ATOM      8  C6  PXY d   1       0.391  -0.148  -1.753  0.00  0.00     0.003 A 
ENDROOT
TORSDOF 0
ENDMDL
