MODEL 1
REMARK minimizedAffinity 5.02256489
REMARK minimizedRMSD -1
REMARK  0 active torsions:
REMARK  status: ('A' for Active; 'I' for Inactive)
ROOT
ATOM      1  C4' PXY d   1       0.462   1.328  -1.701  0.00  0.00     0.077 C 
ATOM      2  C1' PXY d   1      -1.923   5.637   1.325  0.00  0.00     0.077 C 
ATOM      3  C1  PXY d   1      -1.309   4.503   0.528  0.00  0.00    -0.082 A 
ATOM      4  C2  PXY d   1      -0.115   4.042   0.860  0.00  0.00     0.003 A 
ATOM      5  C3  PXY d   1       0.469   3.038   0.130  0.00  0.00     0.003 A 
ATOM      6  C4  PXY d   1      -0.200   2.465  -0.918  0.00  0.00    -0.082 A 
ATOM      7  C5  PXY d   1      -1.424   2.924  -1.257  0.00  0.00     0.003 A 
ATOM      8  C6  PXY d   1      -1.981   3.971  -0.529  0.00  0.00     0.003 A 
ENDROOT
TORSDOF 0
ENDMDL
