MODEL 1
REMARK minimizedAffinity 4.4515481
REMARK minimizedRMSD -1
REMARK  0 active torsions:
REMARK  status: ('A' for Active; 'I' for Inactive)
ROOT
ATOM      1  C4' PXY d   1      -5.998   2.258  -1.337  0.00  0.00     0.077 C 
ATOM      2  C1' PXY d   1      -3.380   4.452  -6.000  0.00  0.00     0.077 C 
ATOM      3  C1  PXY d   1      -4.055   3.871  -4.774  0.00  0.00    -0.082 A 
ATOM      4  C2  PXY d   1      -5.369   3.716  -4.762  0.00  0.00     0.003 A 
ATOM      5  C3  PXY d   1      -6.000   3.222  -3.649  0.00  0.00     0.003 A 
ATOM      6  C4  PXY d   1      -5.272   2.832  -2.557  0.00  0.00    -0.082 A 
ATOM      7  C5  PXY d   1      -3.930   2.976  -2.565  0.00  0.00     0.003 A 
ATOM      8  C6  PXY d   1      -3.313   3.519  -3.689  0.00  0.00     0.003 A 
ENDROOT
TORSDOF 0
ENDMDL
