MODEL 1
REMARK minimizedAffinity 7.02343798
REMARK minimizedRMSD -1
REMARK  0 active torsions:
REMARK  status: ('A' for Active; 'I' for Inactive)
ROOT
ATOM      1  C4' PXY d   1      -3.614   4.112  -5.997  0.00  0.00     0.077 C 
ATOM      2  C1' PXY d   1      -5.917   2.568  -0.925  0.00  0.00     0.077 C 
ATOM      3  C1  PXY d   1      -5.325   2.975  -2.260  0.00  0.00    -0.082 A 
ATOM      4  C2  PXY d   1      -4.151   2.490  -2.630  0.00  0.00     0.003 A 
ATOM      5  C3  PXY d   1      -3.586   2.874  -3.820  0.00  0.00     0.003 A 
ATOM      6  C4  PXY d   1      -4.254   3.721  -4.663  0.00  0.00    -0.082 A 
ATOM      7  C5  PXY d   1      -5.457   4.211  -4.297  0.00  0.00     0.003 A 
ATOM      8  C6  PXY d   1      -5.995   3.842  -3.067  0.00  0.00     0.003 A 
ENDROOT
TORSDOF 0
ENDMDL
