MODEL 1
REMARK minimizedAffinity 7.78599787
REMARK minimizedRMSD -1
REMARK  0 active torsions:
REMARK  status: ('A' for Active; 'I' for Inactive)
ROOT
ATOM      1  O1  BZF d   1       1.415   0.553   3.003  0.00  0.00    -0.204 OA
ATOM      2  C2  BZF d   1       0.597   1.462   2.360  0.00  0.00     0.174 A 
ATOM      3  C3  BZF d   1       1.260   2.080   1.362  0.00  0.00    -0.012 A 
ATOM      4  C3A BZF d   1       2.547   1.456   1.322  0.00  0.00    -0.107 A 
ATOM      5  C4  BZF d   1       3.649   1.625   0.533  0.00  0.00     0.055 A 
ATOM      6  C5  BZF d   1       4.770   0.906   0.802  0.00  0.00    -0.016 A 
ATOM      7  C6  BZF d   1       4.827   0.015   1.853  0.00  0.00     0.022 A 
ATOM      8  C7  BZF d   1       3.758  -0.190   2.661  0.00  0.00     0.029 A 
ATOM      9  C7A BZF d   1       2.613   0.510   2.371  0.00  0.00     0.058 A 
ENDROOT
TORSDOF 0
ENDMDL
