MODEL 1
REMARK minimizedAffinity -1.21642053
REMARK minimizedRMSD -1
REMARK  0 active torsions:
REMARK  status: ('A' for Active; 'I' for Inactive)
ROOT
ATOM      1  O1  BZF d   1      -4.820   3.469   5.079  0.00  0.00    -0.204 OA
ATOM      2  C2  BZF d   1      -4.920   4.496   5.998  0.00  0.00     0.174 A 
ATOM      3  C3  BZF d   1      -5.297   5.642   5.396  0.00  0.00    -0.012 A 
ATOM      4  C3A BZF d   1      -5.531   5.289   4.029  0.00  0.00    -0.107 A 
ATOM      5  C4  BZF d   1      -5.942   5.995   2.934  0.00  0.00     0.055 A 
ATOM      6  C5  BZF d   1      -5.999   5.370   1.729  0.00  0.00    -0.016 A 
ATOM      7  C6  BZF d   1      -5.649   4.044   1.581  0.00  0.00     0.022 A 
ATOM      8  C7  BZF d   1      -5.240   3.302   2.639  0.00  0.00     0.029 A 
ATOM      9  C7A BZF d   1      -5.212   3.922   3.864  0.00  0.00     0.058 A 
ENDROOT
TORSDOF 0
ENDMDL
