MODEL 1
REMARK minimizedAffinity 22.242775
REMARK minimizedRMSD -1
REMARK  0 active torsions:
REMARK  status: ('A' for Active; 'I' for Inactive)
ROOT
ATOM      1  O1  BZF d   1      -0.199   1.841   3.887  0.00  0.00    -0.204 OA
ATOM      2  C2  BZF d   1       0.451   0.639   4.090  0.00  0.00     0.174 A 
ATOM      3  C3  BZF d   1      -0.391  -0.398   3.906  0.00  0.00    -0.012 A 
ATOM      4  C3A BZF d   1      -1.623   0.189   3.476  0.00  0.00    -0.107 A 
ATOM      5  C4  BZF d   1      -2.836  -0.328   3.121  0.00  0.00     0.055 A 
ATOM      6  C5  BZF d   1      -3.854   0.521   2.822  0.00  0.00    -0.016 A 
ATOM      7  C6  BZF d   1      -3.696   1.891   2.873  0.00  0.00     0.022 A 
ATOM      8  C7  BZF d   1      -2.510   2.450   3.215  0.00  0.00     0.029 A 
ATOM      9  C7A BZF d   1      -1.470   1.595   3.486  0.00  0.00     0.058 A 
ENDROOT
TORSDOF 0
ENDMDL
