MODEL 1
REMARK minimizedAffinity 17.2935829
REMARK minimizedRMSD -1
REMARK  0 active torsions:
REMARK  status: ('A' for Active; 'I' for Inactive)
ROOT
ATOM      1  O1  BZF d   1      -3.502  -1.795  -0.382  0.00  0.00    -0.204 OA
ATOM      2  C2  BZF d   1      -2.898  -2.277   0.763  0.00  0.00     0.174 A 
ATOM      3  C3  BZF d   1      -2.603  -3.587   0.634  0.00  0.00    -0.012 A 
ATOM      4  C3A BZF d   1      -2.968  -3.924  -0.708  0.00  0.00    -0.107 A 
ATOM      5  C4  BZF d   1      -2.901  -5.076  -1.437  0.00  0.00     0.055 A 
ATOM      6  C5  BZF d   1      -3.409  -5.090  -2.698  0.00  0.00    -0.016 A 
ATOM      7  C6  BZF d   1      -3.994  -3.973  -3.257  0.00  0.00     0.022 A 
ATOM      8  C7  BZF d   1      -4.080  -2.806  -2.574  0.00  0.00     0.029 A 
ATOM      9  C7A BZF d   1      -3.538  -2.779  -1.312  0.00  0.00     0.058 A 
ENDROOT
TORSDOF 0
ENDMDL
