MODEL 1
REMARK minimizedAffinity 16.981184
REMARK minimizedRMSD -1
REMARK  0 active torsions:
REMARK  status: ('A' for Active; 'I' for Inactive)
ROOT
ATOM      1  O1  BZF d   1      -4.384   3.048   4.838  0.00  0.00    -0.204 OA
ATOM      2  C2  BZF d   1      -4.364   3.801   5.996  0.00  0.00     0.174 A 
ATOM      3  C3  BZF d   1      -4.819   5.049   5.764  0.00  0.00    -0.012 A 
ATOM      4  C3A BZF d   1      -5.231   5.050   4.394  0.00  0.00    -0.107 A 
ATOM      5  C4  BZF d   1      -5.785   5.997   3.581  0.00  0.00     0.055 A 
ATOM      6  C5  BZF d   1      -6.000   5.701   2.272  0.00  0.00    -0.016 A 
ATOM      7  C6  BZF d   1      -5.670   4.471   1.743  0.00  0.00     0.022 A 
ATOM      8  C7  BZF d   1      -5.123   3.497   2.511  0.00  0.00     0.029 A 
ATOM      9  C7A BZF d   1      -4.935   3.782   3.842  0.00  0.00     0.058 A 
ENDROOT
TORSDOF 0
ENDMDL
