MODEL 1
REMARK minimizedAffinity 11.5495558
REMARK minimizedRMSD -1
REMARK  0 active torsions:
REMARK  status: ('A' for Active; 'I' for Inactive)
ROOT
ATOM      1  O1  BZF d   1       2.289   4.888   2.271  0.00  0.00    -0.204 OA
ATOM      2  C2  BZF d   1       3.623   5.200   2.094  0.00  0.00     0.174 A 
ATOM      3  C3  BZF d   1       4.339   4.094   1.806  0.00  0.00    -0.012 A 
ATOM      4  C3A BZF d   1       3.379   3.038   1.711  0.00  0.00    -0.107 A 
ATOM      5  C4  BZF d   1       3.475   1.704   1.433  0.00  0.00     0.055 A 
ATOM      6  C5  BZF d   1       2.355   0.936   1.491  0.00  0.00    -0.016 A 
ATOM      7  C6  BZF d   1       1.127   1.465   1.829  0.00  0.00     0.022 A 
ATOM      8  C7  BZF d   1       0.982   2.784   2.108  0.00  0.00     0.029 A 
ATOM      9  C7A BZF d   1       2.105   3.569   2.018  0.00  0.00     0.058 A 
ENDROOT
TORSDOF 0
ENDMDL
