MODEL 1
REMARK minimizedAffinity 5.76203632
REMARK minimizedRMSD -1
REMARK  0 active torsions:
REMARK  status: ('A' for Active; 'I' for Inactive)
ROOT
ATOM      1  O1  BZF d   1       1.701   5.073  -4.778  0.00  0.00    -0.204 OA
ATOM      2  C2  BZF d   1       1.564   4.225  -3.697  0.00  0.00     0.174 A 
ATOM      3  C3  BZF d   1       2.770   3.808  -3.260  0.00  0.00    -0.012 A 
ATOM      4  C3A BZF d   1       3.724   4.507  -4.065  0.00  0.00    -0.107 A 
ATOM      5  C4  BZF d   1       5.089   4.527  -4.099  0.00  0.00     0.055 A 
ATOM      6  C5  BZF d   1       5.716   5.263  -5.055  0.00  0.00    -0.016 A 
ATOM      7  C6  BZF d   1       5.009   5.984  -5.994  0.00  0.00     0.022 A 
ATOM      8  C7  BZF d   1       3.654   5.999  -5.998  0.00  0.00     0.029 A 
ATOM      9  C7A BZF d   1       3.019   5.284  -5.013  0.00  0.00     0.058 A 
ENDROOT
TORSDOF 0
ENDMDL
