MODEL 1
REMARK minimizedAffinity 12.2014475
REMARK minimizedRMSD -1
REMARK  0 active torsions:
REMARK  status: ('A' for Active; 'I' for Inactive)
ROOT
ATOM      1  O1  BZF d   1      -0.450   5.454  -1.914  0.00  0.00    -0.204 OA
ATOM      2  C2  BZF d   1      -1.650   5.176  -1.288  0.00  0.00     0.174 A 
ATOM      3  C3  BZF d   1      -1.881   3.847  -1.264  0.00  0.00    -0.012 A 
ATOM      4  C3A BZF d   1      -0.711   3.252  -1.833  0.00  0.00    -0.107 A 
ATOM      5  C4  BZF d   1      -0.334   1.960  -2.067  0.00  0.00     0.055 A 
ATOM      6  C5  BZF d   1       0.842   1.721  -2.705  0.00  0.00    -0.016 A 
ATOM      7  C6  BZF d   1       1.661   2.747  -3.126  0.00  0.00     0.022 A 
ATOM      8  C7  BZF d   1       1.332   4.045  -2.912  0.00  0.00     0.029 A 
ATOM      9  C7A BZF d   1       0.161   4.289  -2.239  0.00  0.00     0.058 A 
ENDROOT
TORSDOF 0
ENDMDL
