MODEL 1
REMARK minimizedAffinity 8.8771553
REMARK minimizedRMSD -1
REMARK  0 active torsions:
REMARK  status: ('A' for Active; 'I' for Inactive)
ROOT
ATOM      1  O1  BZF d   1       1.783   2.729   1.148  0.00  0.00    -0.204 OA
ATOM      2  C2  BZF d   1       0.493   3.212   1.259  0.00  0.00     0.174 A 
ATOM      3  C3  BZF d   1       0.495   4.482   1.711  0.00  0.00    -0.012 A 
ATOM      4  C3A BZF d   1       1.875   4.846   1.806  0.00  0.00    -0.107 A 
ATOM      5  C4  BZF d   1       2.521   5.990   2.180  0.00  0.00     0.055 A 
ATOM      6  C5  BZF d   1       3.879   5.994   2.232  0.00  0.00    -0.016 A 
ATOM      7  C6  BZF d   1       4.621   4.873   1.922  0.00  0.00     0.022 A 
ATOM      8  C7  BZF d   1       4.025   3.718   1.540  0.00  0.00     0.029 A 
ATOM      9  C7A BZF d   1       2.654   3.720   1.455  0.00  0.00     0.058 A 
ENDROOT
TORSDOF 0
ENDMDL
