MODEL 1
REMARK minimizedAffinity 12.4970694
REMARK minimizedRMSD -1
REMARK  0 active torsions:
REMARK  status: ('A' for Active; 'I' for Inactive)
ROOT
ATOM      1  O1  BZF d   1      -3.327  -1.945  -0.850  0.00  0.00    -0.204 OA
ATOM      2  C2  BZF d   1      -2.900  -2.499   0.341  0.00  0.00     0.174 A 
ATOM      3  C3  BZF d   1      -2.734  -3.832   0.216  0.00  0.00    -0.012 A 
ATOM      4  C3A BZF d   1      -2.989  -4.116  -1.163  0.00  0.00    -0.107 A 
ATOM      5  C4  BZF d   1      -2.967  -5.262  -1.905  0.00  0.00     0.055 A 
ATOM      6  C5  BZF d   1      -3.338  -5.210  -3.211  0.00  0.00    -0.016 A 
ATOM      7  C6  BZF d   1      -3.741  -4.031  -3.805  0.00  0.00     0.022 A 
ATOM      8  C7  BZF d   1      -3.774  -2.868  -3.111  0.00  0.00     0.029 A 
ATOM      9  C7A BZF d   1      -3.368  -2.911  -1.799  0.00  0.00     0.058 A 
ENDROOT
TORSDOF 0
ENDMDL
