MODEL 1
REMARK minimizedAffinity -0.950373113
REMARK minimizedRMSD -1
REMARK  0 active torsions:
REMARK  status: ('A' for Active; 'I' for Inactive)
ROOT
ATOM      1  O1  BZF d   1       1.508   3.932  -5.409  0.00  0.00    -0.204 OA
ATOM      2  C2  BZF d   1       1.135   5.126  -5.994  0.00  0.00     0.174 A 
ATOM      3  C3  BZF d   1       2.163   5.998  -5.998  0.00  0.00    -0.012 A 
ATOM      4  C3A BZF d   1       3.274   5.274  -5.461  0.00  0.00    -0.107 A 
ATOM      5  C4  BZF d   1       4.580   5.595  -5.226  0.00  0.00     0.055 A 
ATOM      6  C5  BZF d   1       5.387   4.683  -4.623  0.00  0.00    -0.016 A 
ATOM      7  C6  BZF d   1       4.920   3.443  -4.237  0.00  0.00     0.022 A 
ATOM      8  C7  BZF d   1       3.633   3.077  -4.454  0.00  0.00     0.029 A 
ATOM      9  C7A BZF d   1       2.824   3.985  -5.092  0.00  0.00     0.058 A 
ENDROOT
TORSDOF 0
ENDMDL
