MODEL 1
REMARK minimizedAffinity 11.7542257
REMARK minimizedRMSD -1
REMARK  0 active torsions:
REMARK  status: ('A' for Active; 'I' for Inactive)
ROOT
ATOM      1  O1  BZF d   1       0.152   1.500   3.384  0.00  0.00    -0.204 OA
ATOM      2  C2  BZF d   1       0.388   0.827   4.567  0.00  0.00     0.174 A 
ATOM      3  C3  BZF d   1       1.456   0.012   4.449  0.00  0.00    -0.012 A 
ATOM      4  C3A BZF d   1       1.973   0.257   3.137  0.00  0.00    -0.107 A 
ATOM      5  C4  BZF d   1       3.038  -0.238   2.440  0.00  0.00     0.055 A 
ATOM      6  C5  BZF d   1       3.224   0.154   1.153  0.00  0.00    -0.016 A 
ATOM      7  C6  BZF d   1       2.364   1.035   0.530  0.00  0.00     0.022 A 
ATOM      8  C7  BZF d   1       1.297   1.557   1.183  0.00  0.00     0.029 A 
ATOM      9  C7A BZF d   1       1.125   1.188   2.494  0.00  0.00     0.058 A 
ENDROOT
TORSDOF 0
ENDMDL
