MODEL 1
REMARK minimizedAffinity 19.2586746
REMARK minimizedRMSD -1
REMARK  0 active torsions:
REMARK  status: ('A' for Active; 'I' for Inactive)
ROOT
ATOM      1  O1  BZF d   1      -0.231   1.925   3.814  0.00  0.00    -0.204 OA
ATOM      2  C2  BZF d   1       0.195   0.940   4.685  0.00  0.00     0.174 A 
ATOM      3  C3  BZF d   1       1.325   0.360   4.234  0.00  0.00    -0.012 A 
ATOM      4  C3A BZF d   1       1.675   1.086   3.051  0.00  0.00    -0.107 A 
ATOM      5  C4  BZF d   1       2.709   0.992   2.163  0.00  0.00     0.055 A 
ATOM      6  C5  BZF d   1       2.719   1.804   1.074  0.00  0.00    -0.016 A 
ATOM      7  C6  BZF d   1       1.711   2.716   0.838  0.00  0.00     0.022 A 
ATOM      8  C7  BZF d   1       0.668   2.849   1.694  0.00  0.00     0.029 A 
ATOM      9  C7A BZF d   1       0.672   2.053   2.813  0.00  0.00     0.058 A 
ENDROOT
TORSDOF 0
ENDMDL
