MODEL 1
REMARK minimizedAffinity 14.465971
REMARK minimizedRMSD -1
REMARK  0 active torsions:
REMARK  status: ('A' for Active; 'I' for Inactive)
ROOT
ATOM      1  O1  BZF d   1       4.819  -0.575   1.354  0.00  0.00    -0.204 OA
ATOM      2  C2  BZF d   1       4.592  -0.627   2.716  0.00  0.00     0.174 A 
ATOM      3  C3  BZF d   1       3.553   0.163   3.058  0.00  0.00    -0.012 A 
ATOM      4  C3A BZF d   1       3.044   0.672   1.822  0.00  0.00    -0.107 A 
ATOM      5  C4  BZF d   1       2.006   1.499   1.504  0.00  0.00     0.055 A 
ATOM      6  C5  BZF d   1       1.821   1.859   0.207  0.00  0.00    -0.016 A 
ATOM      7  C6  BZF d   1       2.658   1.415  -0.796  0.00  0.00     0.022 A 
ATOM      8  C7  BZF d   1       3.699   0.589  -0.530  0.00  0.00     0.029 A 
ATOM      9  C7A BZF d   1       3.868   0.197   0.775  0.00  0.00     0.058 A 
ENDROOT
TORSDOF 0
ENDMDL
