MODEL 1
REMARK minimizedAffinity 16.6624069
REMARK minimizedRMSD -1
REMARK  0 active torsions:
REMARK  status: ('A' for Active; 'I' for Inactive)
ROOT
ATOM      1  O1  BZF d   1       3.966   0.140  -6.000  0.00  0.00    -0.204 OA
ATOM      2  C2  BZF d   1       4.928  -0.842  -5.858  0.00  0.00     0.174 A 
ATOM      3  C3  BZF d   1       5.778  -0.538  -4.857  0.00  0.00    -0.012 A 
ATOM      4  C3A BZF d   1       5.264   0.666  -4.279  0.00  0.00    -0.107 A 
ATOM      5  C4  BZF d   1       5.663   1.453  -3.237  0.00  0.00     0.055 A 
ATOM      6  C5  BZF d   1       4.984   2.601  -2.977  0.00  0.00    -0.016 A 
ATOM      7  C6  BZF d   1       3.905   2.995  -3.742  0.00  0.00     0.022 A 
ATOM      8  C7  BZF d   1       3.469   2.245  -4.783  0.00  0.00     0.029 A 
ATOM      9  C7A BZF d   1       4.133   1.068  -5.028  0.00  0.00     0.058 A 
ENDROOT
TORSDOF 0
ENDMDL
