MODEL 1
REMARK minimizedAffinity 4.56383991
REMARK minimizedRMSD -1
REMARK  0 active torsions:
REMARK  status: ('A' for Active; 'I' for Inactive)
ROOT
ATOM      1  O1  BZF d   1       0.807  -3.200  -1.289  0.00  0.00    -0.204 OA
ATOM      2  C2  BZF d   1       0.604  -2.595  -0.064  0.00  0.00     0.174 A 
ATOM      3  C3  BZF d   1      -0.637  -2.070   0.010  0.00  0.00    -0.012 A 
ATOM      4  C3A BZF d   1      -1.278  -2.446  -1.212  0.00  0.00    -0.107 A 
ATOM      5  C4  BZF d   1      -2.527  -2.235  -1.721  0.00  0.00     0.055 A 
ATOM      6  C5  BZF d   1      -2.813  -2.673  -2.975  0.00  0.00    -0.016 A 
ATOM      7  C6  BZF d   1      -1.873  -3.320  -3.750  0.00  0.00     0.022 A 
ATOM      8  C7  BZF d   1      -0.621  -3.557  -3.286  0.00  0.00     0.029 A 
ATOM      9  C7A BZF d   1      -0.340  -3.145  -2.007  0.00  0.00     0.058 A 
ENDROOT
TORSDOF 0
ENDMDL
