MODEL 1
REMARK minimizedAffinity 12.5621977
REMARK minimizedRMSD -1
REMARK  0 active torsions:
REMARK  status: ('A' for Active; 'I' for Inactive)
ROOT
ATOM      1  O1  BZF d   1      -4.543  -4.357  -3.736  0.00  0.00    -0.204 OA
ATOM      2  C2  BZF d   1      -5.334  -4.780  -2.685  0.00  0.00     0.174 A 
ATOM      3  C3  BZF d   1      -4.809  -4.393  -1.505  0.00  0.00    -0.012 A 
ATOM      4  C3A BZF d   1      -3.664  -3.603  -1.844  0.00  0.00    -0.107 A 
ATOM      5  C4  BZF d   1      -2.738  -2.927  -1.103  0.00  0.00     0.055 A 
ATOM      6  C5  BZF d   1      -1.703  -2.316  -1.737  0.00  0.00    -0.016 A 
ATOM      7  C6  BZF d   1      -1.561  -2.365  -3.108  0.00  0.00     0.022 A 
ATOM      8  C7  BZF d   1      -2.457  -3.020  -3.886  0.00  0.00     0.029 A 
ATOM      9  C7A BZF d   1      -3.522  -3.610  -3.251  0.00  0.00     0.058 A 
ENDROOT
TORSDOF 0
ENDMDL
