MODEL 1
REMARK minimizedAffinity 13.669425
REMARK minimizedRMSD -1
REMARK  0 active torsions:
REMARK  status: ('A' for Active; 'I' for Inactive)
ROOT
ATOM      1  O1  BZF d   1      -1.885  -3.288  -5.790  0.00  0.00    -0.204 OA
ATOM      2  C2  BZF d   1      -0.789  -2.475  -5.999  0.00  0.00     0.174 A 
ATOM      3  C3  BZF d   1      -0.446  -1.832  -4.864  0.00  0.00    -0.012 A 
ATOM      4  C3A BZF d   1      -1.331  -2.341  -3.862  0.00  0.00    -0.107 A 
ATOM      5  C4  BZF d   1      -1.473  -2.100  -2.525  0.00  0.00     0.055 A 
ATOM      6  C5  BZF d   1      -2.483  -2.708  -1.848  0.00  0.00    -0.016 A 
ATOM      7  C6  BZF d   1      -3.369  -3.558  -2.477  0.00  0.00     0.022 A 
ATOM      8  C7  BZF d   1      -3.265  -3.832  -3.800  0.00  0.00     0.029 A 
ATOM      9  C7A BZF d   1      -2.226  -3.245  -4.480  0.00  0.00     0.058 A 
ENDROOT
TORSDOF 0
ENDMDL
