MODEL 1
REMARK minimizedAffinity 12.865284
REMARK minimizedRMSD -1
REMARK  0 active torsions:
REMARK  status: ('A' for Active; 'I' for Inactive)
ROOT
ATOM      1  O1  BZF d   1      -1.761  -2.735   0.233  0.00  0.00    -0.204 OA
ATOM      2  C2  BZF d   1      -0.518  -2.148   0.370  0.00  0.00     0.174 A 
ATOM      3  C3  BZF d   1      -0.038  -1.757  -0.828  0.00  0.00    -0.012 A 
ATOM      4  C3A BZF d   1      -1.085  -2.039  -1.762  0.00  0.00    -0.107 A 
ATOM      5  C4  BZF d   1      -1.214  -1.860  -3.110  0.00  0.00     0.055 A 
ATOM      6  C5  BZF d   1      -2.336  -2.310  -3.731  0.00  0.00    -0.016 A 
ATOM      7  C6  BZF d   1      -3.344  -2.948  -3.038  0.00  0.00     0.022 A 
ATOM      8  C7  BZF d   1      -3.263  -3.145  -1.700  0.00  0.00     0.029 A 
ATOM      9  C7A BZF d   1      -2.146  -2.661  -1.063  0.00  0.00     0.058 A 
ENDROOT
TORSDOF 0
ENDMDL
