MODEL 1
REMARK minimizedAffinity 6.09173059
REMARK minimizedRMSD -1
REMARK  1 active torsions:
REMARK  status: ('A' for Active; 'I' for Inactive)
REMARK    1  A    between atoms: C3_4  and  O_7 
ROOT
ATOM      1  C   UNL d   1       0.266   4.363  -3.082  0.00  0.00    -0.033 A 
ATOM      2  C1  UNL d   1      -0.191   4.292  -4.400  0.00  0.00     0.039 A 
ATOM      3  C2  UNL d   1      -1.370   3.605  -4.695  0.00  0.00    -0.080 A 
ATOM      4  C3  UNL d   1      -2.082   2.995  -3.665  0.00  0.00     0.150 A 
ATOM      5  C4  UNL d   1      -1.634   3.066  -2.350  0.00  0.00    -0.007 A 
ATOM      6  C5  UNL d   1      -0.456   3.751  -2.057  0.00  0.00     0.039 A 
ENDROOT
BRANCH   4   7
ATOM      7  O   UNL d   1      -3.236   2.309  -3.906  0.00  0.00    -0.526 OA
ATOM      8  H5  UNL d   1      -3.407   2.320  -4.862  0.00  0.00     0.418 HD
ENDBRANCH   4   7
TORSDOF 1
ENDMDL
