MODEL 1
REMARK minimizedAffinity 1.00944102
REMARK minimizedRMSD -1
REMARK  1 active torsions:
REMARK  status: ('A' for Active; 'I' for Inactive)
REMARK    1  A    between atoms: C3_4  and  O_7 
ROOT
ATOM      1  C   UNL d   1       3.902  -5.991  -4.884  0.00  0.00    -0.033 A 
ATOM      2  C1  UNL d   1       3.200  -4.788  -4.785  0.00  0.00     0.039 A 
ATOM      3  C2  UNL d   1       3.891  -3.585  -4.625  0.00  0.00    -0.080 A 
ATOM      4  C3  UNL d   1       5.282  -3.599  -4.567  0.00  0.00     0.150 A 
ATOM      5  C4  UNL d   1       5.988  -4.793  -4.669  0.00  0.00    -0.007 A 
ATOM      6  C5  UNL d   1       5.296  -5.993  -4.827  0.00  0.00     0.039 A 
ENDROOT
BRANCH   4   7
ATOM      7  O   UNL d   1       6.000  -2.451  -4.407  0.00  0.00    -0.526 OA
ATOM      8  H5  UNL d   1       5.379  -1.709  -4.322  0.00  0.00     0.418 HD
ENDBRANCH   4   7
TORSDOF 1
ENDMDL
