MODEL 1
REMARK minimizedAffinity 3.25876641
REMARK minimizedRMSD -1
REMARK  1 active torsions:
REMARK  status: ('A' for Active; 'I' for Inactive)
REMARK    1  A    between atoms: C3_4  and  O_7 
ROOT
ATOM      1  C   UNL d   1       2.866   3.098  -0.594  0.00  0.00    -0.033 A 
ATOM      2  C1  UNL d   1       2.296   1.876  -0.955  0.00  0.00     0.039 A 
ATOM      3  C2  UNL d   1       1.089   1.845  -1.656  0.00  0.00    -0.080 A 
ATOM      4  C3  UNL d   1       0.463   3.043  -1.990  0.00  0.00     0.150 A 
ATOM      5  C4  UNL d   1       1.026   4.265  -1.637  0.00  0.00    -0.007 A 
ATOM      6  C5  UNL d   1       2.232   4.293  -0.936  0.00  0.00     0.039 A 
ENDROOT
BRANCH   4   7
ATOM      7  O   UNL d   1      -0.719   3.064  -2.669  0.00  0.00    -0.526 OA
ATOM      8  H5  UNL d   1      -1.003   2.147  -2.821  0.00  0.00     0.418 HD
ENDBRANCH   4   7
TORSDOF 1
ENDMDL
