MODEL 1
REMARK minimizedAffinity 0.0843896717
REMARK minimizedRMSD -1
REMARK  1 active torsions:
REMARK  status: ('A' for Active; 'I' for Inactive)
REMARK    1  A    between atoms: C3_4  and  O_7 
ROOT
ATOM      1  C   UNL d   1       3.910  -5.994  -4.888  0.00  0.00    -0.033 A 
ATOM      2  C1  UNL d   1       3.208  -4.839  -4.537  0.00  0.00     0.039 A 
ATOM      3  C2  UNL d   1       3.895  -3.649  -4.291  0.00  0.00    -0.080 A 
ATOM      4  C3  UNL d   1       5.283  -3.627  -4.402  0.00  0.00     0.150 A 
ATOM      5  C4  UNL d   1       5.988  -4.772  -4.756  0.00  0.00    -0.007 A 
ATOM      6  C5  UNL d   1       5.300  -5.960  -4.999  0.00  0.00     0.039 A 
ENDROOT
BRANCH   4   7
ATOM      7  O   UNL d   1       5.998  -2.490  -4.167  0.00  0.00    -0.526 OA
ATOM      8  H5  UNL d   1       5.381  -1.787  -3.905  0.00  0.00     0.418 HD
ENDBRANCH   4   7
TORSDOF 1
ENDMDL
