MODEL 1
REMARK minimizedAffinity -3.46564865
REMARK minimizedRMSD -1
REMARK  1 active torsions:
REMARK  status: ('A' for Active; 'I' for Inactive)
REMARK    1  A    between atoms: C3_4  and  O_7 
ROOT
ATOM      1  C   UNL d   1       0.362  -1.098   2.111  0.00  0.00    -0.033 A 
ATOM      2  C1  UNL d   1       0.563  -1.099   0.730  0.00  0.00     0.039 A 
ATOM      3  C2  UNL d   1      -0.339  -1.758  -0.108  0.00  0.00    -0.080 A 
ATOM      4  C3  UNL d   1      -1.437  -2.410   0.447  0.00  0.00     0.150 A 
ATOM      5  C4  UNL d   1      -1.645  -2.409   1.823  0.00  0.00    -0.007 A 
ATOM      6  C5  UNL d   1      -0.743  -1.751   2.658  0.00  0.00     0.039 A 
ENDROOT
BRANCH   4   7
ATOM      7  O   UNL d   1      -2.341  -3.071  -0.330  0.00  0.00    -0.526 OA
ATOM      8  H5  UNL d   1      -2.053  -3.011  -1.256  0.00  0.00     0.418 HD
ENDBRANCH   4   7
TORSDOF 1
ENDMDL
