MODEL 1
REMARK minimizedAffinity -1.14785397
REMARK minimizedRMSD -1
REMARK  1 active torsions:
REMARK  status: ('A' for Active; 'I' for Inactive)
REMARK    1  A    between atoms: C3_4  and  O_7 
ROOT
ATOM      1  C   UNL d   1      -0.088   0.688  -1.902  0.00  0.00    -0.033 A 
ATOM      2  C1  UNL d   1       0.777  -0.407  -1.863  0.00  0.00     0.039 A 
ATOM      3  C2  UNL d   1       0.901  -1.159  -0.693  0.00  0.00    -0.080 A 
ATOM      4  C3  UNL d   1       0.156  -0.806   0.428  0.00  0.00     0.150 A 
ATOM      5  C4  UNL d   1      -0.711   0.281   0.395  0.00  0.00    -0.007 A 
ATOM      6  C5  UNL d   1      -0.833   1.032  -0.774  0.00  0.00     0.039 A 
ENDROOT
BRANCH   4   7
ATOM      7  O   UNL d   1       0.247  -1.507   1.594  0.00  0.00    -0.526 OA
ATOM      8  H5  UNL d   1       0.905  -2.213   1.478  0.00  0.00     0.418 HD
ENDBRANCH   4   7
TORSDOF 1
ENDMDL
