MODEL 1
REMARK minimizedAffinity 4.52015257
REMARK minimizedRMSD -1
REMARK  1 active torsions:
REMARK  status: ('A' for Active; 'I' for Inactive)
REMARK    1  A    between atoms: C3_4  and  O_7 
ROOT
ATOM      1  C   UNL d   1       2.360   2.331  -1.385  0.00  0.00    -0.033 A 
ATOM      2  C1  UNL d   1       3.708   2.447  -1.039  0.00  0.00     0.039 A 
ATOM      3  C2  UNL d   1       4.104   3.365  -0.065  0.00  0.00    -0.080 A 
ATOM      4  C3  UNL d   1       3.143   4.160   0.556  0.00  0.00     0.150 A 
ATOM      5  C4  UNL d   1       1.799   4.047   0.218  0.00  0.00    -0.007 A 
ATOM      6  C5  UNL d   1       1.405   3.130  -0.755  0.00  0.00     0.039 A 
ENDROOT
BRANCH   4   7
ATOM      7  O   UNL d   1       3.482   5.074   1.509  0.00  0.00    -0.526 OA
ATOM      8  H5  UNL d   1       4.448   5.061   1.618  0.00  0.00     0.418 HD
ENDBRANCH   4   7
TORSDOF 1
ENDMDL
