MODEL 1
REMARK minimizedAffinity 6.49270678
REMARK minimizedRMSD -1
REMARK  1 active torsions:
REMARK  status: ('A' for Active; 'I' for Inactive)
REMARK    1  A    between atoms: C3_4  and  O_7 
ROOT
ATOM      1  C   UNL d   1      -2.065   2.798  -0.215  0.00  0.00    -0.033 A 
ATOM      2  C1  UNL d   1      -3.237   3.123  -0.902  0.00  0.00     0.039 A 
ATOM      3  C2  UNL d   1      -4.376   2.328  -0.758  0.00  0.00    -0.080 A 
ATOM      4  C3  UNL d   1      -4.330   1.213   0.073  0.00  0.00     0.150 A 
ATOM      5  C4  UNL d   1      -3.167   0.885   0.763  0.00  0.00    -0.007 A 
ATOM      6  C5  UNL d   1      -2.031   1.679   0.618  0.00  0.00     0.039 A 
ENDROOT
BRANCH   4   7
ATOM      7  O   UNL d   1      -5.415   0.404   0.241  0.00  0.00    -0.526 OA
ATOM      8  H5  UNL d   1      -6.136   0.736  -0.319  0.00  0.00     0.418 HD
ENDBRANCH   4   7
TORSDOF 1
ENDMDL
