MODEL 1
REMARK minimizedAffinity 1.31615233
REMARK minimizedRMSD -1
REMARK  1 active torsions:
REMARK  status: ('A' for Active; 'I' for Inactive)
REMARK    1  A    between atoms: C3_4  and  O_7 
ROOT
ATOM      1  C   UNL d   1      -5.250  -5.064  -0.534  0.00  0.00    -0.033 A 
ATOM      2  C1  UNL d   1      -4.371  -4.126  -1.079  0.00  0.00     0.039 A 
ATOM      3  C2  UNL d   1      -4.110  -4.125  -2.450  0.00  0.00    -0.080 A 
ATOM      4  C3  UNL d   1      -4.734  -5.065  -3.265  0.00  0.00     0.150 A 
ATOM      5  C4  UNL d   1      -5.615  -6.000  -2.730  0.00  0.00    -0.007 A 
ATOM      6  C5  UNL d   1      -5.873  -6.000  -1.360  0.00  0.00     0.039 A 
ENDROOT
BRANCH   4   7
ATOM      7  O   UNL d   1      -4.507  -5.107  -4.609  0.00  0.00    -0.526 OA
ATOM      8  H5  UNL d   1      -3.856  -4.421  -4.832  0.00  0.00     0.418 HD
ENDBRANCH   4   7
TORSDOF 1
ENDMDL
