MODEL 1
REMARK minimizedAffinity 0.195022032
REMARK minimizedRMSD -1
REMARK  1 active torsions:
REMARK  status: ('A' for Active; 'I' for Inactive)
REMARK    1  A    between atoms: C3_4  and  O_7 
ROOT
ATOM      1  C   UNL d   1      -0.254  -0.576   0.197  0.00  0.00    -0.033 A 
ATOM      2  C1  UNL d   1      -0.813   0.697   0.064  0.00  0.00     0.039 A 
ATOM      3  C2  UNL d   1      -0.001   1.789  -0.250  0.00  0.00    -0.080 A 
ATOM      4  C3  UNL d   1       1.366   1.594  -0.430  0.00  0.00     0.150 A 
ATOM      5  C4  UNL d   1       1.929   0.328  -0.302  0.00  0.00    -0.007 A 
ATOM      6  C5  UNL d   1       1.116  -0.760   0.012  0.00  0.00     0.039 A 
ENDROOT
BRANCH   4   7
ATOM      7  O   UNL d   1       2.199   2.629  -0.733  0.00  0.00    -0.526 OA
ATOM      8  H5  UNL d   1       1.676   3.448  -0.760  0.00  0.00     0.418 HD
ENDBRANCH   4   7
TORSDOF 1
ENDMDL
