MODEL 1
REMARK minimizedAffinity 0.368471712
REMARK minimizedRMSD -1
REMARK  1 active torsions:
REMARK  status: ('A' for Active; 'I' for Inactive)
REMARK    1  A    between atoms: C3_4  and  O_7 
ROOT
ATOM      1  C   UNL d   1      -0.226   0.206   0.318  0.00  0.00    -0.033 A 
ATOM      2  C1  UNL d   1      -0.250   1.559  -0.027  0.00  0.00     0.039 A 
ATOM      3  C2  UNL d   1       0.880   2.159  -0.585  0.00  0.00    -0.080 A 
ATOM      4  C3  UNL d   1       2.027   1.397  -0.793  0.00  0.00     0.150 A 
ATOM      5  C4  UNL d   1       2.057   0.048  -0.455  0.00  0.00    -0.007 A 
ATOM      6  C5  UNL d   1       0.927  -0.550   0.102  0.00  0.00     0.039 A 
ENDROOT
BRANCH   4   7
ATOM      7  O   UNL d   1       3.156   1.940  -1.330  0.00  0.00    -0.526 OA
ATOM      8  H5  UNL d   1       2.998   2.886  -1.487  0.00  0.00     0.418 HD
ENDBRANCH   4   7
TORSDOF 1
ENDMDL
