MODEL 1
REMARK minimizedAffinity 5.53332329
REMARK minimizedRMSD -1
REMARK  0 active torsions:
REMARK  status: ('A' for Active; 'I' for Inactive)
ROOT
ATOM      1  C   UNL d   1      -2.623   5.984  -2.835  0.00  0.00    -0.002 A 
ATOM      2  C1  UNL d   1      -1.599   5.994  -1.899  0.00  0.00     0.010 A 
ATOM      3  C2  UNL d   1      -0.263   5.997  -2.308  0.00  0.00     0.041 A 
ATOM      4  C3  UNL d   1       0.028   5.993  -3.686  0.00  0.00    -0.075 A 
ATOM      5  S   UNL d   1       1.588   5.998  -4.419  0.00  0.00     0.015 SA
ATOM      6  C4  UNL d   1       0.932   5.988  -5.992  0.00  0.00     0.022 A 
ATOM      7  C5  UNL d   1      -0.443   5.981  -5.977  0.00  0.00     0.026 A 
ATOM      8  C6  UNL d   1      -0.987   5.985  -4.648  0.00  0.00    -0.082 A 
ATOM      9  C7  UNL d   1      -2.330   5.980  -4.202  0.00  0.00     0.045 A 
ENDROOT
TORSDOF 0
ENDMDL
