MODEL 1
REMARK minimizedAffinity 8.17865181
REMARK minimizedRMSD -1
REMARK  0 active torsions:
REMARK  status: ('A' for Active; 'I' for Inactive)
ROOT
ATOM      1  C   UNL d   1       0.721   5.306  -5.890  0.00  0.00    -0.002 A 
ATOM      2  C1  UNL d   1       0.655   4.102  -5.203  0.00  0.00     0.010 A 
ATOM      3  C2  UNL d   1       1.796   3.563  -4.604  0.00  0.00     0.041 A 
ATOM      4  C3  UNL d   1       3.014   4.263  -4.706  0.00  0.00    -0.075 A 
ATOM      5  S   UNL d   1       4.539   3.795  -4.052  0.00  0.00     0.015 SA
ATOM      6  C4  UNL d   1       5.313   5.183  -4.668  0.00  0.00     0.022 A 
ATOM      7  C5  UNL d   1       4.445   5.994  -5.359  0.00  0.00     0.026 A 
ATOM      8  C6  UNL d   1       3.105   5.477  -5.392  0.00  0.00    -0.082 A 
ATOM      9  C7  UNL d   1       1.932   5.997  -5.989  0.00  0.00     0.045 A 
ENDROOT
TORSDOF 0
ENDMDL
