MODEL 1
REMARK minimizedAffinity 0.902143657
REMARK minimizedRMSD -1
REMARK  0 active torsions:
REMARK  status: ('A' for Active; 'I' for Inactive)
ROOT
ATOM      1  C   UNL d   1      -2.967   6.000  -1.886  0.00  0.00    -0.002 A 
ATOM      2  C1  UNL d   1      -3.630   5.999  -3.106  0.00  0.00     0.010 A 
ATOM      3  C2  UNL d   1      -2.913   6.000  -4.304  0.00  0.00     0.041 A 
ATOM      4  C3  UNL d   1      -1.505   5.999  -4.255  0.00  0.00    -0.075 A 
ATOM      5  S   UNL d   1      -0.419   5.999  -5.594  0.00  0.00     0.015 SA
ATOM      6  C4  UNL d   1       0.951   5.999  -4.579  0.00  0.00     0.022 A 
ATOM      7  C5  UNL d   1       0.606   6.000  -3.249  0.00  0.00     0.026 A 
ATOM      8  C6  UNL d   1      -0.815   5.999  -3.040  0.00  0.00    -0.082 A 
ATOM      9  C7  UNL d   1      -1.570   6.000  -1.842  0.00  0.00     0.045 A 
ENDROOT
TORSDOF 0
ENDMDL
