MODEL 1
REMARK minimizedAffinity 4.77553988
REMARK minimizedRMSD -1
REMARK  0 active torsions:
REMARK  status: ('A' for Active; 'I' for Inactive)
ROOT
ATOM      1  C   UNL d   1      -0.887   5.999  -5.132  0.00  0.00    -0.002 A 
ATOM      2  C1  UNL d   1       0.246   5.998  -4.330  0.00  0.00     0.010 A 
ATOM      3  C2  UNL d   1       0.132   5.998  -2.939  0.00  0.00     0.041 A 
ATOM      4  C3  UNL d   1      -1.153   5.998  -2.360  0.00  0.00    -0.075 A 
ATOM      5  S   UNL d   1      -1.536   5.997  -0.680  0.00  0.00     0.015 SA
ATOM      6  C4  UNL d   1      -3.213   5.998  -0.986  0.00  0.00     0.022 A 
ATOM      7  C5  UNL d   1      -3.491   5.999  -2.332  0.00  0.00     0.026 A 
ATOM      8  C6  UNL d   1      -2.309   5.999  -3.146  0.00  0.00    -0.082 A 
ATOM      9  C7  UNL d   1      -2.159   5.999  -4.554  0.00  0.00     0.045 A 
ENDROOT
TORSDOF 0
ENDMDL
