MODEL 1
REMARK minimizedAffinity 4.00083923
REMARK minimizedRMSD -1
REMARK  0 active torsions:
REMARK  status: ('A' for Active; 'I' for Inactive)
ROOT
ATOM      1  C   UNL d   1       1.454   5.976  -5.614  0.00  0.00    -0.002 A 
ATOM      2  C1  UNL d   1       1.952   5.976  -4.318  0.00  0.00     0.010 A 
ATOM      3  C2  UNL d   1       1.084   5.983  -3.224  0.00  0.00     0.041 A 
ATOM      4  C3  UNL d   1      -0.305   5.988  -3.456  0.00  0.00    -0.075 A 
ATOM      5  S   UNL d   1      -1.557   5.996  -2.270  0.00  0.00     0.015 SA
ATOM      6  C4  UNL d   1      -2.782   5.998  -3.456  0.00  0.00     0.022 A 
ATOM      7  C5  UNL d   1      -2.266   5.994  -4.730  0.00  0.00     0.026 A 
ATOM      8  C6  UNL d   1      -0.831   5.987  -4.751  0.00  0.00    -0.082 A 
ATOM      9  C7  UNL d   1       0.075   5.981  -5.840  0.00  0.00     0.045 A 
ENDROOT
TORSDOF 0
ENDMDL
