MODEL 1
REMARK minimizedAffinity 0.649642766
REMARK minimizedRMSD -1
REMARK  0 active torsions:
REMARK  status: ('A' for Active; 'I' for Inactive)
ROOT
ATOM      1  C   UNL d   1       0.156   5.991  -3.642  0.00  0.00    -0.002 A 
ATOM      2  C1  UNL d   1      -0.397   5.994  -4.915  0.00  0.00     0.010 A 
ATOM      3  C2  UNL d   1      -1.782   5.995  -5.088  0.00  0.00     0.041 A 
ATOM      4  C3  UNL d   1      -2.611   5.997  -3.949  0.00  0.00    -0.075 A 
ATOM      5  S   UNL d   1      -4.335   6.000  -3.918  0.00  0.00     0.015 SA
ATOM      6  C4  UNL d   1      -4.379   5.999  -2.215  0.00  0.00     0.022 A 
ATOM      7  C5  UNL d   1      -3.118   5.996  -1.666  0.00  0.00     0.026 A 
ATOM      8  C6  UNL d   1      -2.079   5.995  -2.657  0.00  0.00    -0.082 A 
ATOM      9  C7  UNL d   1      -0.670   5.992  -2.515  0.00  0.00     0.045 A 
ENDROOT
TORSDOF 0
ENDMDL
