MODEL 1
REMARK minimizedAffinity -2.46538377
REMARK minimizedRMSD -1
REMARK  0 active torsions:
REMARK  status: ('A' for Active; 'I' for Inactive)
ROOT
ATOM      1  C   UNL d   1       3.715   1.073   1.948  0.00  0.00    -0.002 A 
ATOM      2  C1  UNL d   1       3.254   0.546   3.146  0.00  0.00     0.010 A 
ATOM      3  C2  UNL d   1       1.885   0.399   3.377  0.00  0.00     0.041 A 
ATOM      4  C3  UNL d   1       0.978   0.791   2.373  0.00  0.00    -0.075 A 
ATOM      5  S   UNL d   1      -0.743   0.702   2.434  0.00  0.00     0.015 SA
ATOM      6  C4  UNL d   1      -0.907   1.359   0.870  0.00  0.00     0.022 A 
ATOM      7  C5  UNL d   1       0.311   1.646   0.301  0.00  0.00     0.026 A 
ATOM      8  C6  UNL d   1       1.418   1.323   1.158  0.00  0.00    -0.082 A 
ATOM      9  C7  UNL d   1       2.812   1.461   0.954  0.00  0.00     0.045 A 
ENDROOT
TORSDOF 0
ENDMDL
