MODEL 1
REMARK minimizedAffinity 6.59825706
REMARK minimizedRMSD -1
REMARK  0 active torsions:
REMARK  status: ('A' for Active; 'I' for Inactive)
ROOT
ATOM      1  C   UNL d   1       1.184   5.987  -3.740  0.00  0.00    -0.002 A 
ATOM      2  C1  UNL d   1       0.475   5.994  -4.932  0.00  0.00     0.010 A 
ATOM      3  C2  UNL d   1      -0.922   5.996  -4.928  0.00  0.00     0.041 A 
ATOM      4  C3  UNL d   1      -1.599   5.993  -3.693  0.00  0.00    -0.075 A 
ATOM      5  S   UNL d   1      -3.305   5.995  -3.443  0.00  0.00     0.015 SA
ATOM      6  C4  UNL d   1      -3.132   5.988  -1.747  0.00  0.00     0.022 A 
ATOM      7  C5  UNL d   1      -1.812   5.983  -1.364  0.00  0.00     0.026 A 
ATOM      8  C6  UNL d   1      -0.907   5.987  -2.478  0.00  0.00    -0.082 A 
ATOM      9  C7  UNL d   1       0.509   5.984  -2.516  0.00  0.00     0.045 A 
ENDROOT
TORSDOF 0
ENDMDL
