MODEL 1
REMARK minimizedAffinity -1.0527786
REMARK minimizedRMSD -1
REMARK  0 active torsions:
REMARK  status: ('A' for Active; 'I' for Inactive)
ROOT
ATOM      1  C   UNL d   1       0.809   5.999  -5.996  0.00  0.00    -0.002 A 
ATOM      2  C1  UNL d   1       1.554   5.999  -4.825  0.00  0.00     0.010 A 
ATOM      3  C2  UNL d   1       0.921   6.000  -3.581  0.00  0.00     0.041 A 
ATOM      4  C3  UNL d   1      -0.486   5.999  -3.532  0.00  0.00    -0.075 A 
ATOM      5  S   UNL d   1      -1.477   6.000  -2.121  0.00  0.00     0.015 SA
ATOM      6  C4  UNL d   1      -2.913   6.000  -3.039  0.00  0.00     0.022 A 
ATOM      7  C5  UNL d   1      -2.662   6.000  -4.390  0.00  0.00     0.026 A 
ATOM      8  C6  UNL d   1      -1.259   5.999  -4.697  0.00  0.00    -0.082 A 
ATOM      9  C7  UNL d   1      -0.588   5.999  -5.943  0.00  0.00     0.045 A 
ENDROOT
TORSDOF 0
ENDMDL
