MODEL 1
REMARK minimizedAffinity 8.54177856
REMARK minimizedRMSD -1
REMARK  0 active torsions:
REMARK  status: ('A' for Active; 'I' for Inactive)
ROOT
ATOM      1  C   UNL d   1      -3.477   5.674  -1.940  0.00  0.00    -0.002 A 
ATOM      2  C1  UNL d   1      -2.501   5.715  -0.955  0.00  0.00     0.010 A 
ATOM      3  C2  UNL d   1      -1.150   5.813  -1.296  0.00  0.00     0.041 A 
ATOM      4  C3  UNL d   1      -0.794   5.872  -2.658  0.00  0.00    -0.075 A 
ATOM      5  S   UNL d   1       0.796   5.995  -3.312  0.00  0.00     0.015 SA
ATOM      6  C4  UNL d   1       0.217   5.997  -4.915  0.00  0.00     0.022 A 
ATOM      7  C5  UNL d   1      -1.154   5.906  -4.969  0.00  0.00     0.026 A 
ATOM      8  C6  UNL d   1      -1.759   5.833  -3.669  0.00  0.00    -0.082 A 
ATOM      9  C7  UNL d   1      -3.120   5.733  -3.290  0.00  0.00     0.045 A 
ENDROOT
TORSDOF 0
ENDMDL
