MODEL 1
REMARK minimizedAffinity -1.70623171
REMARK minimizedRMSD -1
REMARK  0 active torsions:
REMARK  status: ('A' for Active; 'I' for Inactive)
ROOT
ATOM      1  C   UNL d   1       0.933   5.974  -3.898  0.00  0.00    -0.002 A 
ATOM      2  C1  UNL d   1       0.929   5.979  -5.286  0.00  0.00     0.010 A 
ATOM      3  C2  UNL d   1       2.128   5.983  -6.000  0.00  0.00     0.041 A 
ATOM      4  C3  UNL d   1       3.345   5.980  -5.289  0.00  0.00    -0.075 A 
ATOM      5  S   UNL d   1       4.936   5.983  -5.953  0.00  0.00     0.015 SA
ATOM      6  C4  UNL d   1       5.660   5.977  -4.409  0.00  0.00     0.022 A 
ATOM      7  C5  UNL d   1       4.725   5.973  -3.401  0.00  0.00     0.026 A 
ATOM      8  C6  UNL d   1       3.375   5.974  -3.892  0.00  0.00    -0.082 A 
ATOM      9  C7  UNL d   1       2.142   5.971  -3.196  0.00  0.00     0.045 A 
ENDROOT
TORSDOF 0
ENDMDL
