MODEL 1
REMARK minimizedAffinity 8.3773756
REMARK minimizedRMSD -1
REMARK  0 active torsions:
REMARK  status: ('A' for Active; 'I' for Inactive)
ROOT
ATOM      1  C   UNL d   1      -3.942  -2.126  -0.530  0.00  0.00    -0.002 A 
ATOM      2  C1  UNL d   1      -4.912  -2.704  -1.336  0.00  0.00     0.010 A 
ATOM      3  C2  UNL d   1      -4.797  -2.661  -2.727  0.00  0.00     0.041 A 
ATOM      4  C3  UNL d   1      -3.679  -2.022  -3.299  0.00  0.00    -0.075 A 
ATOM      5  S   UNL d   1      -3.328  -1.847  -4.978  0.00  0.00     0.015 SA
ATOM      6  C4  UNL d   1      -1.882  -1.002  -4.664  0.00  0.00     0.022 A 
ATOM      7  C5  UNL d   1      -1.657  -0.847  -3.317  0.00  0.00     0.026 A 
ATOM      8  C6  UNL d   1      -2.689  -1.433  -2.508  0.00  0.00    -0.082 A 
ATOM      9  C7  UNL d   1      -2.835  -1.493  -1.101  0.00  0.00     0.045 A 
ENDROOT
TORSDOF 0
ENDMDL
