MODEL 1
REMARK minimizedAffinity 16.6997318
REMARK minimizedRMSD -1
REMARK  0 active torsions:
REMARK  status: ('A' for Active; 'I' for Inactive)
ROOT
ATOM      1  C   UNL d   1      -4.170  -1.909  -0.356  0.00  0.00    -0.002 A 
ATOM      2  C1  UNL d   1      -4.675  -3.034  -0.992  0.00  0.00     0.010 A 
ATOM      3  C2  UNL d   1      -4.312  -3.330  -2.307  0.00  0.00     0.041 A 
ATOM      4  C3  UNL d   1      -3.422  -2.467  -2.978  0.00  0.00    -0.075 A 
ATOM      5  S   UNL d   1      -2.836  -2.629  -4.592  0.00  0.00     0.015 SA
ATOM      6  C4  UNL d   1      -1.901  -1.209  -4.474  0.00  0.00     0.022 A 
ATOM      7  C5  UNL d   1      -2.022  -0.613  -3.241  0.00  0.00     0.026 A 
ATOM      8  C6  UNL d   1      -2.900  -1.329  -2.358  0.00  0.00    -0.082 A 
ATOM      9  C7  UNL d   1      -3.288  -1.056  -1.025  0.00  0.00     0.045 A 
ENDROOT
TORSDOF 0
ENDMDL
