MODEL 1
REMARK minimizedAffinity 10.5586452
REMARK minimizedRMSD -1
REMARK  0 active torsions:
REMARK  status: ('A' for Active; 'I' for Inactive)
ROOT
ATOM      1  C   UNL d   1      -1.700  -1.172  -0.146  0.00  0.00     0.077 C 
ATOM      2  C1  UNL d   1      -1.562  -1.257   1.345  0.00  0.00    -0.074 A 
ATOM      3  C2  UNL d   1      -1.951  -2.407   2.039  0.00  0.00    -0.005 A 
ATOM      4  C3  UNL d   1      -1.808  -2.475   3.425  0.00  0.00     0.006 A 
ATOM      5  C4  UNL d   1      -1.275  -1.394   4.130  0.00  0.00    -0.005 A 
ATOM      6  C5  UNL d   1      -0.880  -0.236   3.453  0.00  0.00    -0.074 A 
ATOM      7  C6  UNL d   1      -0.297   0.930   4.194  0.00  0.00     0.077 C 
ATOM      8  C7  UNL d   1      -1.021  -0.179   2.060  0.00  0.00    -0.001 A 
ENDROOT
TORSDOF 0
ENDMDL
