MODEL 1
REMARK minimizedAffinity 4.3141284
REMARK minimizedRMSD -1
REMARK  0 active torsions:
REMARK  status: ('A' for Active; 'I' for Inactive)
ROOT
ATOM      1  C   UNL d   1       0.537   4.825  -2.778  0.00  0.00     0.077 C 
ATOM      2  C1  UNL d   1       1.529   4.805  -3.903  0.00  0.00    -0.074 A 
ATOM      3  C2  UNL d   1       2.033   5.994  -4.439  0.00  0.00    -0.005 A 
ATOM      4  C3  UNL d   1       2.962   5.960  -5.478  0.00  0.00     0.006 A 
ATOM      5  C4  UNL d   1       3.398   4.737  -5.991  0.00  0.00    -0.005 A 
ATOM      6  C5  UNL d   1       2.906   3.537  -5.467  0.00  0.00    -0.074 A 
ATOM      7  C6  UNL d   1       3.371   2.214  -6.000  0.00  0.00     0.077 C 
ATOM      8  C7  UNL d   1       1.977   3.580  -4.418  0.00  0.00    -0.001 A 
ENDROOT
TORSDOF 0
ENDMDL
