MODEL 1
REMARK minimizedAffinity 4.42858219
REMARK minimizedRMSD -1
REMARK  0 active torsions:
REMARK  status: ('A' for Active; 'I' for Inactive)
ROOT
ATOM      1  C   UNL d   1       3.427   2.274  -6.000  0.00  0.00     0.077 C 
ATOM      2  C1  UNL d   1       2.741   3.495  -5.464  0.00  0.00    -0.074 A 
ATOM      3  C2  UNL d   1       3.004   4.760  -6.000  0.00  0.00    -0.005 A 
ATOM      4  C3  UNL d   1       2.351   5.886  -5.497  0.00  0.00     0.006 A 
ATOM      5  C4  UNL d   1       1.432   5.759  -4.455  0.00  0.00    -0.005 A 
ATOM      6  C5  UNL d   1       1.156   4.502  -3.907  0.00  0.00    -0.074 A 
ATOM      7  C6  UNL d   1       0.163   4.346  -2.794  0.00  0.00     0.077 C 
ATOM      8  C7  UNL d   1       1.810   3.375  -4.423  0.00  0.00    -0.001 A 
ENDROOT
TORSDOF 0
ENDMDL
