MODEL 1
REMARK minimizedAffinity 7.13152742
REMARK minimizedRMSD -1
REMARK  0 active torsions:
REMARK  status: ('A' for Active; 'I' for Inactive)
ROOT
ATOM      1  C   UNL d   1       1.500   3.379  -1.739  0.00  0.00     0.077 C 
ATOM      2  C1  UNL d   1       1.703   3.427  -3.224  0.00  0.00    -0.074 A 
ATOM      3  C2  UNL d   1       1.516   2.287  -4.012  0.00  0.00    -0.005 A 
ATOM      4  C3  UNL d   1       1.700   2.348  -5.394  0.00  0.00     0.006 A 
ATOM      5  C4  UNL d   1       2.072   3.549  -6.000  0.00  0.00    -0.005 A 
ATOM      6  C5  UNL d   1       2.263   4.699  -5.228  0.00  0.00    -0.074 A 
ATOM      7  C6  UNL d   1       2.653   6.000  -5.865  0.00  0.00     0.077 C 
ATOM      8  C7  UNL d   1       2.070   4.631  -3.842  0.00  0.00    -0.001 A 
ENDROOT
TORSDOF 0
ENDMDL
