MODEL 1
REMARK minimizedAffinity 3.51640153
REMARK minimizedRMSD -1
REMARK  0 active torsions:
REMARK  status: ('A' for Active; 'I' for Inactive)
ROOT
ATOM      1  C   UNL d   1      -0.078   5.679  -5.984  0.00  0.00     0.077 C 
ATOM      2  C1  UNL d   1       1.321   5.138  -5.975  0.00  0.00    -0.074 A 
ATOM      3  C2  UNL d   1       2.423   5.998  -5.934  0.00  0.00    -0.005 A 
ATOM      4  C3  UNL d   1       3.718   5.480  -5.917  0.00  0.00     0.006 A 
ATOM      5  C4  UNL d   1       3.924   4.100  -5.940  0.00  0.00    -0.005 A 
ATOM      6  C5  UNL d   1       2.834   3.225  -5.980  0.00  0.00    -0.074 A 
ATOM      7  C6  UNL d   1       3.037   1.739  -5.996  0.00  0.00     0.077 C 
ATOM      8  C7  UNL d   1       1.535   3.753  -5.991  0.00  0.00    -0.001 A 
ENDROOT
TORSDOF 0
ENDMDL
