MODEL 1
REMARK minimizedAffinity 7.00481367
REMARK minimizedRMSD -1
REMARK  0 active torsions:
REMARK  status: ('A' for Active; 'I' for Inactive)
ROOT
ATOM      1  C   UNL d   1      -1.100  -0.935   4.981  0.00  0.00     0.077 C 
ATOM      2  C1  UNL d   1      -0.671  -1.050   3.548  0.00  0.00    -0.074 A 
ATOM      3  C2  UNL d   1      -1.318  -1.929   2.673  0.00  0.00    -0.005 A 
ATOM      4  C3  UNL d   1      -0.915  -2.018   1.341  0.00  0.00     0.006 A 
ATOM      5  C4  UNL d   1       0.137  -1.231   0.871  0.00  0.00    -0.005 A 
ATOM      6  C5  UNL d   1       0.795  -0.346   1.731  0.00  0.00    -0.074 A 
ATOM      7  C6  UNL d   1       1.921   0.515   1.239  0.00  0.00     0.077 C 
ATOM      8  C7  UNL d   1       0.379  -0.257   3.066  0.00  0.00    -0.001 A 
ENDROOT
TORSDOF 0
ENDMDL
