MODEL 1
REMARK minimizedAffinity 3.35503793
REMARK minimizedRMSD -1
REMARK  0 active torsions:
REMARK  status: ('A' for Active; 'I' for Inactive)
ROOT
ATOM      1  C   UNL d   1      -2.613  -1.299  -0.383  0.00  0.00     0.077 C 
ATOM      2  C1  UNL d   1      -3.127  -2.187  -1.478  0.00  0.00    -0.074 A 
ATOM      3  C2  UNL d   1      -4.229  -3.022  -1.268  0.00  0.00    -0.005 A 
ATOM      4  C3  UNL d   1      -4.701  -3.835  -2.299  0.00  0.00     0.006 A 
ATOM      5  C4  UNL d   1      -4.076  -3.822  -3.547  0.00  0.00    -0.005 A 
ATOM      6  C5  UNL d   1      -2.974  -2.993  -3.775  0.00  0.00    -0.074 A 
ATOM      7  C6  UNL d   1      -2.297  -2.959  -5.113  0.00  0.00     0.077 C 
ATOM      8  C7  UNL d   1      -2.510  -2.173  -2.737  0.00  0.00    -0.001 A 
ENDROOT
TORSDOF 0
ENDMDL
