MODEL 1
REMARK minimizedAffinity 2.28273988
REMARK minimizedRMSD -1
REMARK  0 active torsions:
REMARK  status: ('A' for Active; 'I' for Inactive)
ROOT
ATOM      1  C   UNL d   1       2.815   1.299  -6.000  0.00  0.00     0.077 C 
ATOM      2  C1  UNL d   1       2.558   2.777  -5.997  0.00  0.00    -0.074 A 
ATOM      3  C2  UNL d   1       1.252   3.279  -5.997  0.00  0.00    -0.005 A 
ATOM      4  C3  UNL d   1       1.029   4.656  -5.984  0.00  0.00     0.006 A 
ATOM      5  C4  UNL d   1       2.106   5.543  -5.972  0.00  0.00    -0.005 A 
ATOM      6  C5  UNL d   1       3.418   5.058  -5.971  0.00  0.00    -0.074 A 
ATOM      7  C6  UNL d   1       4.588   5.998  -5.948  0.00  0.00     0.077 C 
ATOM      8  C7  UNL d   1       3.635   3.674  -5.977  0.00  0.00    -0.001 A 
ENDROOT
TORSDOF 0
ENDMDL
