MODEL 1
REMARK minimizedAffinity 6.99846172
REMARK minimizedRMSD -1
REMARK  0 active torsions:
REMARK  status: ('A' for Active; 'I' for Inactive)
ROOT
ATOM      1  C   UNL d   1       0.365  -4.118  -0.301  0.00  0.00     0.077 C 
ATOM      2  C1  UNL d   1      -0.561  -3.208  -1.052  0.00  0.00    -0.074 A 
ATOM      3  C2  UNL d   1      -0.975  -1.990  -0.502  0.00  0.00    -0.005 A 
ATOM      4  C3  UNL d   1      -1.829  -1.150  -1.217  0.00  0.00     0.006 A 
ATOM      5  C4  UNL d   1      -2.277  -1.518  -2.486  0.00  0.00    -0.005 A 
ATOM      6  C5  UNL d   1      -1.873  -2.731  -3.052  0.00  0.00    -0.074 A 
ATOM      7  C6  UNL d   1      -2.337  -3.137  -4.419  0.00  0.00     0.077 C 
ATOM      8  C7  UNL d   1      -1.009  -3.567  -2.331  0.00  0.00    -0.001 A 
ENDROOT
TORSDOF 0
ENDMDL
