MODEL 1
REMARK minimizedAffinity 6.90843916
REMARK minimizedRMSD -1
REMARK  0 active torsions:
REMARK  status: ('A' for Active; 'I' for Inactive)
ROOT
ATOM      1  C   UNL d   1       0.824   2.971  -6.000  0.00  0.00     0.077 C 
ATOM      2  C1  UNL d   1       1.727   3.957  -5.321  0.00  0.00    -0.074 A 
ATOM      3  C2  UNL d   1       2.198   5.086  -5.999  0.00  0.00    -0.005 A 
ATOM      4  C3  UNL d   1       3.030   6.000  -5.351  0.00  0.00     0.006 A 
ATOM      5  C4  UNL d   1       3.398   5.794  -4.021  0.00  0.00    -0.005 A 
ATOM      6  C5  UNL d   1       2.936   4.672  -3.326  0.00  0.00    -0.074 A 
ATOM      7  C6  UNL d   1       3.314   4.441  -1.893  0.00  0.00     0.077 C 
ATOM      8  C7  UNL d   1       2.095   3.762  -3.982  0.00  0.00    -0.001 A 
ENDROOT
TORSDOF 0
ENDMDL
