MODEL 1
REMARK minimizedAffinity 12.0366678
REMARK minimizedRMSD -1
REMARK  0 active torsions:
REMARK  status: ('A' for Active; 'I' for Inactive)
ROOT
ATOM      1  C   UNL d   1      -2.533   5.185   0.387  0.00  0.00     0.077 C 
ATOM      2  C1  UNL d   1      -1.582   4.377   1.218  0.00  0.00    -0.074 A 
ATOM      3  C2  UNL d   1      -2.031   3.657   2.330  0.00  0.00    -0.005 A 
ATOM      4  C3  UNL d   1      -1.135   2.902   3.087  0.00  0.00     0.006 A 
ATOM      5  C4  UNL d   1       0.216   2.859   2.741  0.00  0.00    -0.005 A 
ATOM      6  C5  UNL d   1       0.683   3.571   1.632  0.00  0.00    -0.074 A 
ATOM      7  C6  UNL d   1       2.130   3.528   1.240  0.00  0.00     0.077 C 
ATOM      8  C7  UNL d   1      -0.224   4.322   0.872  0.00  0.00    -0.001 A 
ENDROOT
TORSDOF 0
ENDMDL
