MODEL 1
REMARK minimizedAffinity 8.23303032
REMARK minimizedRMSD -1
REMARK  0 active torsions:
REMARK  status: ('A' for Active; 'I' for Inactive)
ROOT
ATOM      1  C   UNL d   1       2.543   1.612  -5.890  0.00  0.00     0.077 C 
ATOM      2  C1  UNL d   1       3.334   0.495  -5.278  0.00  0.00    -0.074 A 
ATOM      3  C2  UNL d   1       4.513   0.751  -4.571  0.00  0.00    -0.005 A 
ATOM      4  C3  UNL d   1       5.232  -0.298  -3.999  0.00  0.00     0.006 A 
ATOM      5  C4  UNL d   1       4.781  -1.612  -4.127  0.00  0.00    -0.005 A 
ATOM      6  C5  UNL d   1       3.603  -1.888  -4.829  0.00  0.00    -0.074 A 
ATOM      7  C6  UNL d   1       3.098  -3.293  -4.968  0.00  0.00     0.077 C 
ATOM      8  C7  UNL d   1       2.882  -0.827  -5.395  0.00  0.00    -0.001 A 
ENDROOT
TORSDOF 0
ENDMDL
