MODEL 1
REMARK minimizedAffinity 3.4393611
REMARK minimizedRMSD -1
REMARK  0 active torsions:
REMARK  status: ('A' for Active; 'I' for Inactive)
ROOT
ATOM      1  C   UNL d   1       0.631   4.262   1.732  0.00  0.00     0.077 C 
ATOM      2  C1  UNL d   1       1.581   3.203   1.258  0.00  0.00    -0.074 A 
ATOM      3  C2  UNL d   1       1.961   3.128  -0.086  0.00  0.00    -0.005 A 
ATOM      4  C3  UNL d   1       2.854   2.144  -0.511  0.00  0.00     0.006 A 
ATOM      5  C4  UNL d   1       3.374   1.226   0.403  0.00  0.00    -0.005 A 
ATOM      6  C5  UNL d   1       3.006   1.286   1.751  0.00  0.00    -0.074 A 
ATOM      7  C6  UNL d   1       3.563   0.313   2.747  0.00  0.00     0.077 C 
ATOM      8  C7  UNL d   1       2.114   2.282   2.171  0.00  0.00    -0.001 A 
ENDROOT
TORSDOF 0
ENDMDL
