MODEL 1
REMARK minimizedAffinity 9.3094368
REMARK minimizedRMSD -1
REMARK  0 active torsions:
REMARK  status: ('A' for Active; 'I' for Inactive)
ROOT
ATOM      1  C   UNL d   1      -2.868  -1.342   4.522  0.00  0.00     0.077 C 
ATOM      2  C1  UNL d   1      -2.162  -1.808   3.284  0.00  0.00    -0.074 A 
ATOM      3  C2  UNL d   1      -1.098  -2.713   3.361  0.00  0.00    -0.005 A 
ATOM      4  C3  UNL d   1      -0.457  -3.145   2.200  0.00  0.00     0.006 A 
ATOM      5  C4  UNL d   1      -0.871  -2.677   0.953  0.00  0.00    -0.005 A 
ATOM      6  C5  UNL d   1      -1.933  -1.773   0.856  0.00  0.00    -0.074 A 
ATOM      7  C6  UNL d   1      -2.398  -1.268  -0.478  0.00  0.00     0.077 C 
ATOM      8  C7  UNL d   1      -2.577  -1.349   2.027  0.00  0.00    -0.001 A 
ENDROOT
TORSDOF 0
ENDMDL
