MODEL 1
REMARK minimizedAffinity 9.54592419
REMARK minimizedRMSD -1
REMARK  0 active torsions:
REMARK  status: ('A' for Active; 'I' for Inactive)
ROOT
ATOM      1  C   UNL d   1      -5.290  -4.492  -4.125  0.00  0.00     0.077 C 
ATOM      2  C1  UNL d   1      -3.969  -3.840  -4.408  0.00  0.00    -0.074 A 
ATOM      3  C2  UNL d   1      -3.500  -3.704  -5.719  0.00  0.00    -0.005 A 
ATOM      4  C3  UNL d   1      -2.274  -3.087  -5.968  0.00  0.00     0.006 A 
ATOM      5  C4  UNL d   1      -1.506  -2.601  -4.910  0.00  0.00    -0.005 A 
ATOM      6  C5  UNL d   1      -1.958  -2.726  -3.593  0.00  0.00    -0.074 A 
ATOM      7  C6  UNL d   1      -1.149  -2.200  -2.445  0.00  0.00     0.077 C 
ATOM      8  C7  UNL d   1      -3.194  -3.341  -3.352  0.00  0.00    -0.001 A 
ENDROOT
TORSDOF 0
ENDMDL
