MODEL 1
REMARK minimizedAffinity 3.50174308
REMARK minimizedRMSD -1
REMARK  0 active torsions:
REMARK  status: ('A' for Active; 'I' for Inactive)
ROOT
ATOM      1  C   UNL d   1      -2.226   5.997  -0.909  0.00  0.00     0.077 C 
ATOM      2  C1  UNL d   1      -0.965   5.194  -0.788  0.00  0.00    -0.074 A 
ATOM      3  C2  UNL d   1      -0.564   4.327  -1.810  0.00  0.00    -0.005 A 
ATOM      4  C3  UNL d   1       0.617   3.594  -1.687  0.00  0.00     0.006 A 
ATOM      5  C4  UNL d   1       1.406   3.719  -0.543  0.00  0.00    -0.005 A 
ATOM      6  C5  UNL d   1       1.022   4.581   0.488  0.00  0.00    -0.074 A 
ATOM      7  C6  UNL d   1       1.864   4.736   1.720  0.00  0.00     0.077 C 
ATOM      8  C7  UNL d   1      -0.162   5.320   0.355  0.00  0.00    -0.001 A 
ENDROOT
TORSDOF 0
ENDMDL
