MODEL 1
REMARK minimizedAffinity 17.1462078
REMARK minimizedRMSD -1
REMARK  0 active torsions:
REMARK  status: ('A' for Active; 'I' for Inactive)
ROOT
ATOM      1  C   UNL d   1      -5.516  -1.465   2.100  0.00  0.00     0.077 C 
ATOM      2  C1  UNL d   1      -4.542  -2.601   2.002  0.00  0.00    -0.074 A 
ATOM      3  C2  UNL d   1      -3.547  -2.780   2.969  0.00  0.00    -0.005 A 
ATOM      4  C3  UNL d   1      -2.654  -3.847   2.870  0.00  0.00     0.006 A 
ATOM      5  C4  UNL d   1      -2.745  -4.743   1.804  0.00  0.00    -0.005 A 
ATOM      6  C5  UNL d   1      -3.733  -4.580   0.828  0.00  0.00    -0.074 A 
ATOM      7  C6  UNL d   1      -3.851  -5.540  -0.319  0.00  0.00     0.077 C 
ATOM      8  C7  UNL d   1      -4.632  -3.510   0.938  0.00  0.00    -0.001 A 
ENDROOT
TORSDOF 0
ENDMDL
