MODEL 1
REMARK minimizedAffinity 3.8260498
REMARK minimizedRMSD -1
REMARK  0 active torsions:
REMARK  status: ('A' for Active; 'I' for Inactive)
ROOT
ATOM      1  C   UNL d   1      -2.467  -3.652   3.944  0.00  0.00     0.077 C 
ATOM      2  C1  UNL d   1      -1.426  -2.575   4.022  0.00  0.00    -0.074 A 
ATOM      3  C2  UNL d   1      -1.342  -1.737   5.138  0.00  0.00    -0.005 A 
ATOM      4  C3  UNL d   1      -0.362  -0.746   5.200  0.00  0.00     0.006 A 
ATOM      5  C4  UNL d   1       0.541  -0.583   4.149  0.00  0.00    -0.005 A 
ATOM      6  C5  UNL d   1       0.472  -1.413   3.025  0.00  0.00    -0.074 A 
ATOM      7  C6  UNL d   1       1.441  -1.258   1.891  0.00  0.00     0.077 C 
ATOM      8  C7  UNL d   1      -0.511  -2.411   2.973  0.00  0.00    -0.001 A 
ENDROOT
TORSDOF 0
ENDMDL
