MODEL 1
REMARK minimizedAffinity 4.38316345
REMARK minimizedRMSD -1
REMARK  0 active torsions:
REMARK  status: ('A' for Active; 'I' for Inactive)
ROOT
ATOM      1  C   UNL d   1       0.390  -0.186   5.472  0.00  0.00     0.077 C 
ATOM      2  C1  UNL d   1       0.147  -0.979   4.222  0.00  0.00    -0.074 A 
ATOM      3  C2  UNL d   1       1.153  -1.135   3.263  0.00  0.00    -0.005 A 
ATOM      4  C3  UNL d   1       0.915  -1.883   2.110  0.00  0.00     0.006 A 
ATOM      5  C4  UNL d   1      -0.328  -2.482   1.904  0.00  0.00    -0.005 A 
ATOM      6  C5  UNL d   1      -1.346  -2.338   2.853  0.00  0.00    -0.074 A 
ATOM      7  C6  UNL d   1      -2.685  -2.983   2.652  0.00  0.00     0.077 C 
ATOM      8  C7  UNL d   1      -1.097  -1.590   4.012  0.00  0.00    -0.001 A 
ENDROOT
TORSDOF 0
ENDMDL
