MODEL 1
REMARK minimizedAffinity 7.2119875
REMARK minimizedRMSD -1
REMARK  0 active torsions:
REMARK  status: ('A' for Active; 'I' for Inactive)
ROOT
ATOM      1  C   UNL d   1       1.559  -5.999   3.327  0.00  0.00     0.077 C 
ATOM      2  C1  UNL d   1       0.716  -4.813   2.965  0.00  0.00    -0.074 A 
ATOM      3  C2  UNL d   1       0.963  -4.084   1.798  0.00  0.00    -0.005 A 
ATOM      4  C3  UNL d   1       0.164  -2.989   1.470  0.00  0.00     0.006 A 
ATOM      5  C4  UNL d   1      -0.889  -2.612   2.305  0.00  0.00    -0.005 A 
ATOM      6  C5  UNL d   1      -1.152  -3.329   3.476  0.00  0.00    -0.074 A 
ATOM      7  C6  UNL d   1      -2.285  -2.943   4.379  0.00  0.00     0.077 C 
ATOM      8  C7  UNL d   1      -0.349  -4.433   3.795  0.00  0.00    -0.001 A 
ENDROOT
TORSDOF 0
ENDMDL
