MODEL 1
REMARK minimizedAffinity 1.44624221
REMARK minimizedRMSD -1
REMARK  0 active torsions:
REMARK  status: ('A' for Active; 'I' for Inactive)
ROOT
ATOM      1  C   UNL d   1       1.459   0.334   1.376  0.00  0.00     0.077 C 
ATOM      2  C1  UNL d   1       0.784  -0.654   2.281  0.00  0.00    -0.074 A 
ATOM      3  C2  UNL d   1       0.506  -1.954   1.845  0.00  0.00    -0.005 A 
ATOM      4  C3  UNL d   1      -0.114  -2.865   2.700  0.00  0.00     0.006 A 
ATOM      5  C4  UNL d   1      -0.460  -2.486   3.998  0.00  0.00    -0.005 A 
ATOM      6  C5  UNL d   1      -0.188  -1.192   4.452  0.00  0.00    -0.074 A 
ATOM      7  C6  UNL d   1      -0.545  -0.772   5.847  0.00  0.00     0.077 C 
ATOM      8  C7  UNL d   1       0.441  -0.284   3.588  0.00  0.00    -0.001 A 
ENDROOT
TORSDOF 0
ENDMDL
