MODEL 1
REMARK minimizedAffinity 12.3503571
REMARK minimizedRMSD -1
REMARK  0 active torsions:
REMARK  status: ('A' for Active; 'I' for Inactive)
ROOT
ATOM      1  C   UNL d   1       3.724   0.993   3.514  0.00  0.00     0.077 C 
ATOM      2  C1  UNL d   1       2.489   0.159   3.347  0.00  0.00    -0.074 A 
ATOM      3  C2  UNL d   1       2.371  -0.746   2.287  0.00  0.00    -0.005 A 
ATOM      4  C3  UNL d   1       1.220  -1.522   2.149  0.00  0.00     0.006 A 
ATOM      5  C4  UNL d   1       0.178  -1.401   3.069  0.00  0.00    -0.005 A 
ATOM      6  C5  UNL d   1       0.278  -0.503   4.136  0.00  0.00    -0.074 A 
ATOM      7  C6  UNL d   1      -0.829  -0.369   5.139  0.00  0.00     0.077 C 
ATOM      8  C7  UNL d   1       1.441   0.268   4.271  0.00  0.00    -0.001 A 
ENDROOT
TORSDOF 0
ENDMDL
