MODEL 1
REMARK minimizedAffinity 6.18583775
REMARK minimizedRMSD -1
REMARK  0 active torsions:
REMARK  status: ('A' for Active; 'I' for Inactive)
ROOT
ATOM      1  C   UNL d   1      -1.890   4.486  -4.370  0.00  0.00     0.077 C 
ATOM      2  C1  UNL d   1      -1.527   3.675  -3.161  0.00  0.00    -0.074 A 
ATOM      3  C2  UNL d   1      -2.435   2.771  -2.602  0.00  0.00    -0.005 A 
ATOM      4  C3  UNL d   1      -2.079   2.018  -1.483  0.00  0.00     0.006 A 
ATOM      5  C4  UNL d   1      -0.813   2.160  -0.914  0.00  0.00    -0.005 A 
ATOM      6  C5  UNL d   1       0.109   3.058  -1.461  0.00  0.00    -0.074 A 
ATOM      7  C6  UNL d   1       1.478   3.216  -0.867  0.00  0.00     0.077 C 
ATOM      8  C7  UNL d   1      -0.254   3.807  -2.589  0.00  0.00    -0.001 A 
ENDROOT
TORSDOF 0
ENDMDL
