MODEL 1
REMARK minimizedAffinity 8.06873894
REMARK minimizedRMSD -1
REMARK  0 active torsions:
REMARK  status: ('A' for Active; 'I' for Inactive)
ROOT
ATOM      1  C   UNL d   1       2.145  -0.257   1.653  0.00  0.00     0.077 C 
ATOM      2  C1  UNL d   1       1.057  -0.951   2.418  0.00  0.00    -0.074 A 
ATOM      3  C2  UNL d   1       0.384  -2.050   1.874  0.00  0.00    -0.005 A 
ATOM      4  C3  UNL d   1      -0.619  -2.691   2.601  0.00  0.00     0.006 A 
ATOM      5  C4  UNL d   1      -0.958  -2.241   3.877  0.00  0.00    -0.005 A 
ATOM      6  C5  UNL d   1      -0.296  -1.145   4.438  0.00  0.00    -0.074 A 
ATOM      7  C6  UNL d   1      -0.641  -0.654   5.813  0.00  0.00     0.077 C 
ATOM      8  C7  UNL d   1       0.716  -0.510   3.704  0.00  0.00    -0.001 A 
ENDROOT
TORSDOF 0
ENDMDL
