MODEL 1
REMARK minimizedAffinity 12.4129086
REMARK minimizedRMSD -1
REMARK  0 active torsions:
REMARK  status: ('A' for Active; 'I' for Inactive)
ROOT
ATOM      1  C   UNL d   1      -5.975  -6.000  -1.866  0.00  0.00     0.077 C 
ATOM      2  C1  UNL d   1      -5.222  -5.387  -0.723  0.00  0.00    -0.074 A 
ATOM      3  C2  UNL d   1      -3.827  -5.459  -0.661  0.00  0.00    -0.005 A 
ATOM      4  C3  UNL d   1      -3.139  -4.876   0.403  0.00  0.00     0.006 A 
ATOM      5  C4  UNL d   1      -3.838  -4.216   1.414  0.00  0.00    -0.005 A 
ATOM      6  C5  UNL d   1      -5.234  -4.132   1.368  0.00  0.00    -0.074 A 
ATOM      7  C6  UNL d   1      -6.000  -3.417   2.441  0.00  0.00     0.077 C 
ATOM      8  C7  UNL d   1      -5.917  -4.715   0.292  0.00  0.00    -0.001 A 
ENDROOT
TORSDOF 0
ENDMDL
