MODEL 1
REMARK minimizedAffinity 12.9338074
REMARK minimizedRMSD -1
REMARK  0 active torsions:
REMARK  status: ('A' for Active; 'I' for Inactive)
ROOT
ATOM      1  C   UNL d   1       1.671  -1.379   1.089  0.00  0.00     0.077 C 
ATOM      2  C1  UNL d   1       0.541  -1.352   2.075  0.00  0.00    -0.074 A 
ATOM      3  C2  UNL d   1       0.466  -0.358   3.056  0.00  0.00    -0.005 A 
ATOM      4  C3  UNL d   1      -0.596  -0.341   3.960  0.00  0.00     0.006 A 
ATOM      5  C4  UNL d   1      -1.592  -1.316   3.892  0.00  0.00    -0.005 A 
ATOM      6  C5  UNL d   1      -1.534  -2.317   2.918  0.00  0.00    -0.074 A 
ATOM      7  C6  UNL d   1      -2.602  -3.366   2.825  0.00  0.00     0.077 C 
ATOM      8  C7  UNL d   1      -0.468  -2.324   2.008  0.00  0.00    -0.001 A 
ENDROOT
TORSDOF 0
ENDMDL
