MODEL 1
REMARK minimizedAffinity 14.4494963
REMARK minimizedRMSD -1
REMARK  0 active torsions:
REMARK  status: ('A' for Active; 'I' for Inactive)
ROOT
ATOM      1  C   UNL d   1      -0.778  -1.508   1.871  0.00  0.00     0.077 C 
ATOM      2  C1  UNL d   1       0.669  -1.685   1.518  0.00  0.00    -0.074 A 
ATOM      3  C2  UNL d   1       1.071  -2.666   0.605  0.00  0.00    -0.005 A 
ATOM      4  C3  UNL d   1       2.419  -2.812   0.279  0.00  0.00     0.006 A 
ATOM      5  C4  UNL d   1       3.377  -1.981   0.861  0.00  0.00    -0.005 A 
ATOM      6  C5  UNL d   1       2.993  -0.994   1.775  0.00  0.00    -0.074 A 
ATOM      7  C6  UNL d   1       4.009  -0.086   2.402  0.00  0.00     0.077 C 
ATOM      8  C7  UNL d   1       1.636  -0.849   2.092  0.00  0.00    -0.001 A 
ENDROOT
TORSDOF 0
ENDMDL
