MODEL 1
REMARK minimizedAffinity 20.8867455
REMARK minimizedRMSD -1
REMARK  0 active torsions:
REMARK  status: ('A' for Active; 'I' for Inactive)
ROOT
ATOM      1  C   UNL d   1       5.999  -1.912  -3.249  0.00  0.00     0.077 C 
ATOM      2  C1  UNL d   1       5.318  -0.591  -3.050  0.00  0.00    -0.074 A 
ATOM      3  C2  UNL d   1       4.076  -0.511  -2.411  0.00  0.00    -0.005 A 
ATOM      4  C3  UNL d   1       3.459   0.726  -2.225  0.00  0.00     0.006 A 
ATOM      5  C4  UNL d   1       4.076   1.894  -2.676  0.00  0.00    -0.005 A 
ATOM      6  C5  UNL d   1       5.318   1.834  -3.317  0.00  0.00    -0.074 A 
ATOM      7  C6  UNL d   1       5.999   3.080  -3.799  0.00  0.00     0.077 C 
ATOM      8  C7  UNL d   1       5.935   0.588  -3.494  0.00  0.00    -0.001 A 
ENDROOT
TORSDOF 0
ENDMDL
