MODEL 1
REMARK minimizedAffinity 13.4210835
REMARK minimizedRMSD -1
REMARK  0 active torsions:
REMARK  status: ('A' for Active; 'I' for Inactive)
ROOT
ATOM      1  C   UNL d   1      -0.311  -0.524   3.852  0.00  0.00     0.077 C 
ATOM      2  C1  UNL d   1       0.974  -0.513   3.080  0.00  0.00    -0.074 A 
ATOM      3  C2  UNL d   1       2.011   0.361   3.421  0.00  0.00    -0.005 A 
ATOM      4  C3  UNL d   1       3.205   0.352   2.699  0.00  0.00     0.006 A 
ATOM      5  C4  UNL d   1       3.373  -0.529   1.630  0.00  0.00    -0.005 A 
ATOM      6  C5  UNL d   1       2.347  -1.411   1.275  0.00  0.00    -0.074 A 
ATOM      7  C6  UNL d   1       2.516  -2.371   0.135  0.00  0.00     0.077 C 
ATOM      8  C7  UNL d   1       1.154  -1.401   2.009  0.00  0.00    -0.001 A 
ENDROOT
TORSDOF 0
ENDMDL
