MODEL 1
REMARK minimizedAffinity 5.38999367
REMARK minimizedRMSD -1
REMARK  0 active torsions:
REMARK  status: ('A' for Active; 'I' for Inactive)
ROOT
ATOM      1  C   UNL d   1      -4.875  -1.962   1.884  0.00  0.00     0.077 C 
ATOM      2  C1  UNL d   1      -4.378  -3.368   1.719  0.00  0.00    -0.074 A 
ATOM      3  C2  UNL d   1      -3.798  -4.056   2.789  0.00  0.00    -0.005 A 
ATOM      4  C3  UNL d   1      -3.349  -5.366   2.623  0.00  0.00     0.006 A 
ATOM      5  C4  UNL d   1      -3.475  -6.000   1.386  0.00  0.00    -0.005 A 
ATOM      6  C5  UNL d   1      -4.053  -5.328   0.304  0.00  0.00    -0.074 A 
ATOM      7  C6  UNL d   1      -4.204  -5.998  -1.029  0.00  0.00     0.077 C 
ATOM      8  C7  UNL d   1      -4.508  -4.014   0.481  0.00  0.00    -0.001 A 
ENDROOT
TORSDOF 0
ENDMDL
