MODEL 1
REMARK minimizedAffinity 14.128376
REMARK minimizedRMSD -1
REMARK  0 active torsions:
REMARK  status: ('A' for Active; 'I' for Inactive)
ROOT
ATOM      1  C   UNL d   1      -1.621   2.567  -2.623  0.00  0.00     0.077 C 
ATOM      2  C1  UNL d   1      -2.534   2.730  -3.802  0.00  0.00    -0.074 A 
ATOM      3  C2  UNL d   1      -2.152   3.497  -4.907  0.00  0.00    -0.005 A 
ATOM      4  C3  UNL d   1      -3.007   3.632  -6.000  0.00  0.00     0.006 A 
ATOM      5  C4  UNL d   1      -4.252   3.001  -6.000  0.00  0.00    -0.005 A 
ATOM      6  C5  UNL d   1      -4.651   2.229  -4.904  0.00  0.00    -0.074 A 
ATOM      7  C6  UNL d   1      -5.982   1.536  -4.892  0.00  0.00     0.077 C 
ATOM      8  C7  UNL d   1      -3.783   2.093  -3.813  0.00  0.00    -0.001 A 
ENDROOT
TORSDOF 0
ENDMDL
