MODEL 1
REMARK minimizedAffinity 15.3289413
REMARK minimizedRMSD -1
REMARK  0 active torsions:
REMARK  status: ('A' for Active; 'I' for Inactive)
ROOT
ATOM      1  C   UNL d   1      -5.277   4.492  -0.477  0.00  0.00     0.077 C 
ATOM      2  C1  UNL d   1      -4.147   4.157  -1.405  0.00  0.00    -0.074 A 
ATOM      3  C2  UNL d   1      -3.911   2.838  -1.803  0.00  0.00    -0.005 A 
ATOM      4  C3  UNL d   1      -2.862   2.543  -2.674  0.00  0.00     0.006 A 
ATOM      5  C4  UNL d   1      -2.041   3.563  -3.156  0.00  0.00    -0.005 A 
ATOM      6  C5  UNL d   1      -2.263   4.889  -2.770  0.00  0.00    -0.074 A 
ATOM      7  C6  UNL d   1      -1.396   5.999  -3.286  0.00  0.00     0.077 C 
ATOM      8  C7  UNL d   1      -3.323   5.178  -1.899  0.00  0.00    -0.001 A 
ENDROOT
TORSDOF 0
ENDMDL
