MODEL 1
REMARK minimizedAffinity -0.618597329
REMARK minimizedRMSD -1
REMARK  0 active torsions:
REMARK  status: ('A' for Active; 'I' for Inactive)
ROOT
ATOM      1  C   UNL d   1       0.709   0.608   2.733  0.00  0.00     0.124 A 
ATOM      2  C1  UNL d   1      -0.119   1.396   1.944  0.00  0.00     0.062 A 
ATOM      3  C2  UNL d   1      -0.278   1.108   0.592  0.00  0.00     0.162 A 
ATOM      4  C3  UNL d   1       0.392   0.027   0.019  0.00  0.00    -0.034 A 
ATOM      5  C4  UNL d   1       1.223  -0.760   0.818  0.00  0.00     0.162 A 
ATOM      6  C5  UNL d   1       1.379  -0.468   2.169  0.00  0.00     0.062 A 
ATOM      7  F   UNL d   1       2.179  -1.230   2.929  0.00  0.00    -0.097 F 
ATOM      8  F1  UNL d   1       1.881  -1.807   0.299  0.00  0.00    -0.096 F 
ATOM      9  I   UNL d   1       0.156  -0.407  -2.003  0.00  0.00    -0.060 I 
ATOM     10  F2  UNL d   1      -1.084   1.886  -0.146  0.00  0.00    -0.096 F 
ATOM     11  F3  UNL d   1      -0.766   2.437   2.486  0.00  0.00    -0.097 F 
ATOM     12  F4  UNL d   1       0.861   0.888   4.033  0.00  0.00    -0.092 F 
ENDROOT
TORSDOF 0
ENDMDL
