MODEL 1
REMARK minimizedAffinity -3.48519516
REMARK minimizedRMSD -1
REMARK  0 active torsions:
REMARK  status: ('A' for Active; 'I' for Inactive)
ROOT
ATOM      1  C   UNL d   1      -0.066  -0.251   2.582  0.00  0.00     0.124 A 
ATOM      2  C1  UNL d   1      -1.078   0.130   1.712  0.00  0.00     0.062 A 
ATOM      3  C2  UNL d   1      -0.888   0.044   0.336  0.00  0.00     0.162 A 
ATOM      4  C3  UNL d   1       0.319  -0.426  -0.179  0.00  0.00    -0.034 A 
ATOM      5  C4  UNL d   1       1.333  -0.807   0.702  0.00  0.00     0.162 A 
ATOM      6  C5  UNL d   1       1.138  -0.719   2.076  0.00  0.00     0.062 A 
ATOM      7  F   UNL d   1       2.118  -1.088   2.915  0.00  0.00    -0.097 F 
ATOM      8  F1  UNL d   1       2.507  -1.263   0.240  0.00  0.00    -0.096 F 
ATOM      9  I   UNL d   1       0.608  -0.556  -2.236  0.00  0.00    -0.060 I 
ATOM     10  F2  UNL d   1      -1.884   0.420  -0.481  0.00  0.00    -0.096 F 
ATOM     11  F3  UNL d   1      -2.243   0.584   2.199  0.00  0.00    -0.097 F 
ATOM     12  F4  UNL d   1      -0.251  -0.166   3.906  0.00  0.00    -0.092 F 
ENDROOT
TORSDOF 0
ENDMDL
