MODEL 1
REMARK minimizedAffinity 0.288927406
REMARK minimizedRMSD -1
REMARK  0 active torsions:
REMARK  status: ('A' for Active; 'I' for Inactive)
ROOT
ATOM      1  C   UNL d   1      -0.040   0.023   2.459  0.00  0.00     0.124 A 
ATOM      2  C1  UNL d   1       1.094  -0.564   1.914  0.00  0.00     0.062 A 
ATOM      3  C2  UNL d   1       1.188  -0.764   0.540  0.00  0.00     0.162 A 
ATOM      4  C3  UNL d   1       0.144  -0.376  -0.300  0.00  0.00    -0.034 A 
ATOM      5  C4  UNL d   1      -0.993   0.213   0.255  0.00  0.00     0.162 A 
ATOM      6  C5  UNL d   1      -1.082   0.411   1.629  0.00  0.00     0.062 A 
ATOM      7  F   UNL d   1      -2.179   0.977   2.153  0.00  0.00    -0.097 F 
ATOM      8  F1  UNL d   1      -2.015   0.598  -0.524  0.00  0.00    -0.096 F 
ATOM      9  I   UNL d   1       0.280  -0.673  -2.356  0.00  0.00    -0.060 I 
ATOM     10  F2  UNL d   1       2.295  -1.333   0.042  0.00  0.00    -0.096 F 
ATOM     11  F3  UNL d   1       2.102  -0.940   2.714  0.00  0.00    -0.097 F 
ATOM     12  F4  UNL d   1      -0.128   0.213   3.781  0.00  0.00    -0.092 F 
ENDROOT
TORSDOF 0
ENDMDL
