MODEL 1
REMARK minimizedAffinity -3.57378435
REMARK minimizedRMSD -1
REMARK  0 active torsions:
REMARK  status: ('A' for Active; 'I' for Inactive)
ROOT
ATOM      1  C   UNL d   1       0.277  -0.250   3.035  0.00  0.00     0.124 A 
ATOM      2  C1  UNL d   1      -0.807   0.092   2.238  0.00  0.00     0.062 A 
ATOM      3  C2  UNL d   1      -0.755  -0.109   0.862  0.00  0.00     0.162 A 
ATOM      4  C3  UNL d   1       0.385  -0.656   0.273  0.00  0.00    -0.034 A 
ATOM      5  C4  UNL d   1       1.472  -0.996   1.081  0.00  0.00     0.162 A 
ATOM      6  C5  UNL d   1       1.415  -0.793   2.456  0.00  0.00     0.062 A 
ATOM      7  F   UNL d   1       2.463  -1.124   3.224  0.00  0.00    -0.097 F 
ATOM      8  F1  UNL d   1       2.584  -1.524   0.548  0.00  0.00    -0.096 F 
ATOM      9  I   UNL d   1       0.467  -0.959  -1.785  0.00  0.00    -0.060 I 
ATOM     10  F2  UNL d   1      -1.817   0.230   0.116  0.00  0.00    -0.096 F 
ATOM     11  F3  UNL d   1      -1.907   0.618   2.795  0.00  0.00    -0.097 F 
ATOM     12  F4  UNL d   1       0.224  -0.054   4.359  0.00  0.00    -0.092 F 
ENDROOT
TORSDOF 0
ENDMDL
