MODEL 1
REMARK minimizedAffinity 2.22015834
REMARK minimizedRMSD -1
REMARK  0 active torsions:
REMARK  status: ('A' for Active; 'I' for Inactive)
ROOT
ATOM      1  C   UNL d   1       1.425   0.088  -3.297  0.00  0.00     0.124 A 
ATOM      2  C1  UNL d   1       2.125   0.866  -2.385  0.00  0.00     0.062 A 
ATOM      3  C2  UNL d   1       1.687   0.965  -1.068  0.00  0.00     0.162 A 
ATOM      4  C3  UNL d   1       0.542   0.285  -0.653  0.00  0.00    -0.034 A 
ATOM      5  C4  UNL d   1      -0.158  -0.495  -1.577  0.00  0.00     0.162 A 
ATOM      6  C5  UNL d   1       0.284  -0.591  -2.892  0.00  0.00     0.062 A 
ATOM      7  F   UNL d   1      -0.394  -1.343  -3.772  0.00  0.00    -0.097 F 
ATOM      8  F1  UNL d   1      -1.263  -1.162  -1.212  0.00  0.00    -0.096 F 
ATOM      9  I   UNL d   1      -0.117   0.431   1.315  0.00  0.00    -0.060 I 
ATOM     10  F2  UNL d   1       2.383   1.724  -0.208  0.00  0.00    -0.096 F 
ATOM     11  F3  UNL d   1       3.227   1.524  -2.774  0.00  0.00    -0.097 F 
ATOM     12  F4  UNL d   1       1.848  -0.005  -4.564  0.00  0.00    -0.092 F 
ENDROOT
TORSDOF 0
ENDMDL
