MODEL 1
REMARK minimizedAffinity -2.96860957
REMARK minimizedRMSD -1
REMARK  0 active torsions:
REMARK  status: ('A' for Active; 'I' for Inactive)
ROOT
ATOM      1  C   UNL d   1       1.339   0.487   2.952  0.00  0.00     0.124 A 
ATOM      2  C1  UNL d   1       1.698  -0.369   1.920  0.00  0.00     0.062 A 
ATOM      3  C2  UNL d   1       0.763  -0.731   0.954  0.00  0.00     0.162 A 
ATOM      4  C3  UNL d   1      -0.540  -0.237   1.016  0.00  0.00    -0.034 A 
ATOM      5  C4  UNL d   1      -0.894   0.622   2.058  0.00  0.00     0.162 A 
ATOM      6  C5  UNL d   1       0.045   0.981   3.020  0.00  0.00     0.062 A 
ATOM      7  F   UNL d   1      -0.303   1.808   4.017  0.00  0.00    -0.097 F 
ATOM      8  F1  UNL d   1      -2.138   1.116   2.148  0.00  0.00    -0.096 F 
ATOM      9  I   UNL d   1      -1.942  -0.777  -0.425  0.00  0.00    -0.060 I 
ATOM     10  F2  UNL d   1       1.137  -1.560  -0.032  0.00  0.00    -0.096 F 
ATOM     11  F3  UNL d   1       2.948  -0.849   1.852  0.00  0.00    -0.097 F 
ATOM     12  F4  UNL d   1       2.241   0.833   3.880  0.00  0.00    -0.092 F 
ENDROOT
TORSDOF 0
ENDMDL
