MODEL 1
REMARK minimizedAffinity -3.35493016
REMARK minimizedRMSD -1
REMARK  0 active torsions:
REMARK  status: ('A' for Active; 'I' for Inactive)
ROOT
ATOM      1  C   UNL d   1      -1.091   0.105   0.922  0.00  0.00     0.124 A 
ATOM      2  C1  UNL d   1       0.085   0.180   0.187  0.00  0.00     0.062 A 
ATOM      3  C2  UNL d   1       1.289   0.472   0.822  0.00  0.00     0.162 A 
ATOM      4  C3  UNL d   1       1.324   0.690   2.199  0.00  0.00    -0.034 A 
ATOM      5  C4  UNL d   1       0.137   0.614   2.931  0.00  0.00     0.162 A 
ATOM      6  C5  UNL d   1      -1.064   0.323   2.292  0.00  0.00     0.062 A 
ATOM      7  F   UNL d   1      -2.198   0.251   3.003  0.00  0.00    -0.097 F 
ATOM      8  F1  UNL d   1       0.135   0.819   4.256  0.00  0.00    -0.096 F 
ATOM      9  I   UNL d   1       3.122   1.127   3.151  0.00  0.00    -0.060 I 
ATOM     10  F2  UNL d   1       2.409   0.537   0.087  0.00  0.00    -0.096 F 
ATOM     11  F3  UNL d   1       0.061  -0.029  -1.137  0.00  0.00    -0.097 F 
ATOM     12  F4  UNL d   1      -2.248  -0.175   0.309  0.00  0.00    -0.092 F 
ENDROOT
TORSDOF 0
ENDMDL
