MODEL 1
REMARK minimizedAffinity -2.65654683
REMARK minimizedRMSD -1
REMARK  0 active torsions:
REMARK  status: ('A' for Active; 'I' for Inactive)
ROOT
ATOM      1  C   UNL d   1       4.924   1.979   4.303  0.00  0.00     0.124 A 
ATOM      2  C1  UNL d   1       5.419   3.188   4.773  0.00  0.00     0.062 A 
ATOM      3  C2  UNL d   1       5.314   4.337   3.995  0.00  0.00     0.162 A 
ATOM      4  C3  UNL d   1       4.711   4.284   2.738  0.00  0.00    -0.034 A 
ATOM      5  C4  UNL d   1       4.217   3.064   2.271  0.00  0.00     0.162 A 
ATOM      6  C5  UNL d   1       4.324   1.918   3.053  0.00  0.00     0.062 A 
ATOM      7  F   UNL d   1       3.846   0.751   2.597  0.00  0.00    -0.097 F 
ATOM      8  F1  UNL d   1       3.632   2.977   1.068  0.00  0.00    -0.096 F 
ATOM      9  I   UNL d   1       4.552   6.000   1.571  0.00  0.00    -0.060 I 
ATOM     10  F2  UNL d   1       5.800   5.492   4.474  0.00  0.00    -0.096 F 
ATOM     11  F3  UNL d   1       6.000   3.250   5.980  0.00  0.00    -0.097 F 
ATOM     12  F4  UNL d   1       5.027   0.875   5.053  0.00  0.00    -0.092 F 
ENDROOT
TORSDOF 0
ENDMDL
