MODEL 1
REMARK minimizedAffinity 31.5547714
REMARK minimizedRMSD -1
REMARK  0 active torsions:
REMARK  status: ('A' for Active; 'I' for Inactive)
ROOT
ATOM      1  C   UNL d   1       2.492   1.005   0.343  0.00  0.00     0.124 A 
ATOM      2  C1  UNL d   1       2.392  -0.163   1.086  0.00  0.00     0.062 A 
ATOM      3  C2  UNL d   1       1.262  -0.405   1.861  0.00  0.00     0.162 A 
ATOM      4  C3  UNL d   1       0.220   0.522   1.896  0.00  0.00    -0.034 A 
ATOM      5  C4  UNL d   1       0.328   1.695   1.146  0.00  0.00     0.162 A 
ATOM      6  C5  UNL d   1       1.460   1.933   0.374  0.00  0.00     0.062 A 
ATOM      7  F   UNL d   1       1.554   3.062  -0.344  0.00  0.00    -0.097 F 
ATOM      8  F1  UNL d   1      -0.655   2.608   1.157  0.00  0.00    -0.096 F 
ATOM      9  I   UNL d   1      -1.472   0.163   3.053  0.00  0.00    -0.060 I 
ATOM     10  F2  UNL d   1       1.192  -1.543   2.569  0.00  0.00    -0.096 F 
ATOM     11  F3  UNL d   1       3.388  -1.060   1.058  0.00  0.00    -0.097 F 
ATOM     12  F4  UNL d   1       3.581   1.236  -0.401  0.00  0.00    -0.092 F 
ENDROOT
TORSDOF 0
ENDMDL
