MODEL 1
REMARK minimizedAffinity 28.3967381
REMARK minimizedRMSD -1
REMARK  0 active torsions:
REMARK  status: ('A' for Active; 'I' for Inactive)
ROOT
ATOM      1  C   UNL d   1       0.854   2.399  -0.136  0.00  0.00     0.124 A 
ATOM      2  C1  UNL d   1       1.239   3.710   0.107  0.00  0.00     0.062 A 
ATOM      3  C2  UNL d   1       0.765   4.740  -0.701  0.00  0.00     0.162 A 
ATOM      4  C3  UNL d   1      -0.100   4.463  -1.759  0.00  0.00    -0.034 A 
ATOM      5  C4  UNL d   1      -0.483   3.141  -1.997  0.00  0.00     0.162 A 
ATOM      6  C5  UNL d   1      -0.006   2.116  -1.187  0.00  0.00     0.062 A 
ATOM      7  F   UNL d   1      -0.379   0.849  -1.424  0.00  0.00    -0.097 F 
ATOM      8  F1  UNL d   1      -1.314   2.840  -3.006  0.00  0.00    -0.096 F 
ATOM      9  I   UNL d   1      -0.812   6.000  -2.969  0.00  0.00    -0.060 I 
ATOM     10  F2  UNL d   1       1.154   5.997  -0.443  0.00  0.00    -0.096 F 
ATOM     11  F3  UNL d   1       2.071   3.986   1.121  0.00  0.00    -0.097 F 
ATOM     12  F4  UNL d   1       1.313   1.410   0.642  0.00  0.00    -0.092 F 
ENDROOT
TORSDOF 0
ENDMDL
