MODEL 1
REMARK minimizedAffinity 24.0192642
REMARK minimizedRMSD -1
REMARK  0 active torsions:
REMARK  status: ('A' for Active; 'I' for Inactive)
ROOT
ATOM      1  C   UNL d   1      -4.317   3.745  -1.107  0.00  0.00     0.124 A 
ATOM      2  C1  UNL d   1      -3.626   4.887  -1.489  0.00  0.00     0.062 A 
ATOM      3  C2  UNL d   1      -2.849   4.882  -2.643  0.00  0.00     0.162 A 
ATOM      4  C3  UNL d   1      -2.760   3.731  -3.427  0.00  0.00    -0.034 A 
ATOM      5  C4  UNL d   1      -3.457   2.587  -3.036  0.00  0.00     0.162 A 
ATOM      6  C5  UNL d   1      -4.232   2.597  -1.881  0.00  0.00     0.062 A 
ATOM      7  F   UNL d   1      -4.898   1.493  -1.514  0.00  0.00    -0.097 F 
ATOM      8  F1  UNL d   1      -3.393   1.463  -3.765  0.00  0.00    -0.096 F 
ATOM      9  I   UNL d   1      -1.600   3.720  -5.154  0.00  0.00    -0.060 I 
ATOM     10  F2  UNL d   1      -2.192   6.000  -2.988  0.00  0.00    -0.096 F 
ATOM     11  F3  UNL d   1      -3.706   5.998  -0.742  0.00  0.00    -0.097 F 
ATOM     12  F4  UNL d   1      -5.063   3.753   0.005  0.00  0.00    -0.092 F 
ENDROOT
TORSDOF 0
ENDMDL
