MODEL 1
REMARK minimizedAffinity 29.5921459
REMARK minimizedRMSD -1
REMARK  0 active torsions:
REMARK  status: ('A' for Active; 'I' for Inactive)
ROOT
ATOM      1  C   UNL d   1      -2.097   4.249  -2.367  0.00  0.00     0.124 A 
ATOM      2  C1  UNL d   1      -3.336   4.698  -1.931  0.00  0.00     0.062 A 
ATOM      3  C2  UNL d   1      -4.390   3.802  -1.775  0.00  0.00     0.162 A 
ATOM      4  C3  UNL d   1      -4.209   2.447  -2.055  0.00  0.00    -0.034 A 
ATOM      5  C4  UNL d   1      -2.960   2.004  -2.494  0.00  0.00     0.162 A 
ATOM      6  C5  UNL d   1      -1.910   2.903  -2.648  0.00  0.00     0.062 A 
ATOM      7  F   UNL d   1      -0.714   2.469  -3.070  0.00  0.00    -0.097 F 
ATOM      8  F1  UNL d   1      -2.752   0.708  -2.773  0.00  0.00    -0.096 F 
ATOM      9  I   UNL d   1      -5.782   1.104  -1.824  0.00  0.00    -0.060 I 
ATOM     10  F2  UNL d   1      -5.576   4.263  -1.352  0.00  0.00    -0.096 F 
ATOM     11  F3  UNL d   1      -3.520   5.998  -1.659  0.00  0.00    -0.097 F 
ATOM     12  F4  UNL d   1      -1.086   5.114  -2.517  0.00  0.00    -0.092 F 
ENDROOT
TORSDOF 0
ENDMDL
