MODEL 1
REMARK minimizedAffinity 24.9253559
REMARK minimizedRMSD -1
REMARK  0 active torsions:
REMARK  status: ('A' for Active; 'I' for Inactive)
ROOT
ATOM      1  C   UNL d   1       1.925   1.321  -0.165  0.00  0.00     0.124 A 
ATOM      2  C1  UNL d   1       2.713   2.314   0.400  0.00  0.00     0.062 A 
ATOM      3  C2  UNL d   1       2.341   3.651   0.288  0.00  0.00     0.162 A 
ATOM      4  C3  UNL d   1       1.174   4.002  -0.391  0.00  0.00    -0.034 A 
ATOM      5  C4  UNL d   1       0.388   2.997  -0.957  0.00  0.00     0.162 A 
ATOM      6  C5  UNL d   1       0.764   1.663  -0.843  0.00  0.00     0.062 A 
ATOM      7  F   UNL d   1       0.001   0.705  -1.389  0.00  0.00    -0.097 F 
ATOM      8  F1  UNL d   1      -0.740   3.300  -1.617  0.00  0.00    -0.096 F 
ATOM      9  I   UNL d   1       0.615   5.999  -0.560  0.00  0.00    -0.060 I 
ATOM     10  F2  UNL d   1       3.121   4.590   0.843  0.00  0.00    -0.096 F 
ATOM     11  F3  UNL d   1       3.836   1.986   1.054  0.00  0.00    -0.097 F 
ATOM     12  F4  UNL d   1       2.286   0.035  -0.057  0.00  0.00    -0.092 F 
ENDROOT
TORSDOF 0
ENDMDL
