MODEL 1
REMARK minimizedAffinity 13.3903828
REMARK minimizedRMSD -1
REMARK  0 active torsions:
REMARK  status: ('A' for Active; 'I' for Inactive)
ROOT
ATOM      1  C   UNL d   1       0.941  -0.548   3.506  0.00  0.00     0.124 A 
ATOM      2  C1  UNL d   1      -0.277  -0.833   4.107  0.00  0.00     0.062 A 
ATOM      3  C2  UNL d   1      -1.128  -1.782   3.548  0.00  0.00     0.162 A 
ATOM      4  C3  UNL d   1      -0.765  -2.454   2.381  0.00  0.00    -0.034 A 
ATOM      5  C4  UNL d   1       0.462  -2.161   1.782  0.00  0.00     0.162 A 
ATOM      6  C5  UNL d   1       1.310  -1.212   2.344  0.00  0.00     0.062 A 
ATOM      7  F   UNL d   1       2.486  -0.938   1.762  0.00  0.00    -0.097 F 
ATOM      8  F1  UNL d   1       0.843  -2.789   0.659  0.00  0.00    -0.096 F 
ATOM      9  I   UNL d   1      -2.035  -3.872   1.542  0.00  0.00    -0.060 I 
ATOM     10  F2  UNL d   1      -2.299  -2.037   4.150  0.00  0.00    -0.096 F 
ATOM     11  F3  UNL d   1      -0.635  -0.192   5.229  0.00  0.00    -0.097 F 
ATOM     12  F4  UNL d   1       1.759   0.365   4.045  0.00  0.00    -0.092 F 
ENDROOT
TORSDOF 0
ENDMDL
