MODEL 1
REMARK minimizedAffinity 30.9172363
REMARK minimizedRMSD -1
REMARK  0 active torsions:
REMARK  status: ('A' for Active; 'I' for Inactive)
ROOT
ATOM      1  C   UNL d   1       0.886  -0.116   4.479  0.00  0.00     0.124 A 
ATOM      2  C1  UNL d   1       0.339  -0.390   3.233  0.00  0.00     0.062 A 
ATOM      3  C2  UNL d   1       1.148  -0.401   2.101  0.00  0.00     0.162 A 
ATOM      4  C3  UNL d   1       2.514  -0.137   2.209  0.00  0.00    -0.034 A 
ATOM      5  C4  UNL d   1       3.056   0.139   3.466  0.00  0.00     0.162 A 
ATOM      6  C5  UNL d   1       2.243   0.148   4.594  0.00  0.00     0.062 A 
ATOM      7  F   UNL d   1       2.773   0.414   5.797  0.00  0.00    -0.097 F 
ATOM      8  F1  UNL d   1       4.365   0.397   3.605  0.00  0.00    -0.096 F 
ATOM      9  I   UNL d   1       3.727  -0.152   0.518  0.00  0.00    -0.060 I 
ATOM     10  F2  UNL d   1       0.593  -0.669   0.910  0.00  0.00    -0.096 F 
ATOM     11  F3  UNL d   1      -0.973  -0.645   3.120  0.00  0.00    -0.097 F 
ATOM     12  F4  UNL d   1       0.105  -0.105   5.567  0.00  0.00    -0.092 F 
ENDROOT
TORSDOF 0
ENDMDL
