MODEL 1
REMARK minimizedAffinity 23.8896141
REMARK minimizedRMSD -1
REMARK  0 active torsions:
REMARK  status: ('A' for Active; 'I' for Inactive)
ROOT
ATOM      1  C   UNL d   1      -1.291  -1.938   3.862  0.00  0.00     0.124 A 
ATOM      2  C1  UNL d   1      -0.578  -0.926   4.489  0.00  0.00     0.062 A 
ATOM      3  C2  UNL d   1       0.594  -0.437   3.917  0.00  0.00     0.162 A 
ATOM      4  C3  UNL d   1       1.059  -0.960   2.710  0.00  0.00    -0.034 A 
ATOM      5  C4  UNL d   1       0.336  -1.979   2.086  0.00  0.00     0.162 A 
ATOM      6  C5  UNL d   1      -0.834  -2.463   2.662  0.00  0.00     0.062 A 
ATOM      7  F   UNL d   1      -1.522  -3.441   2.055  0.00  0.00    -0.097 F 
ATOM      8  F1  UNL d   1       0.755  -2.504   0.925  0.00  0.00    -0.096 F 
ATOM      9  I   UNL d   1       2.809  -0.233   1.851  0.00  0.00    -0.060 I 
ATOM     10  F2  UNL d   1       1.263   0.541   4.544  0.00  0.00    -0.096 F 
ATOM     11  F3  UNL d   1      -1.017  -0.417   5.649  0.00  0.00    -0.097 F 
ATOM     12  F4  UNL d   1      -2.417  -2.406   4.415  0.00  0.00    -0.092 F 
ENDROOT
TORSDOF 0
ENDMDL
