MODEL 1
REMARK minimizedAffinity 14.6868658
REMARK minimizedRMSD -1
REMARK  0 active torsions:
REMARK  status: ('A' for Active; 'I' for Inactive)
ROOT
ATOM      1  C   UNL d   1      -1.554  -1.976   3.935  0.00  0.00     0.124 A 
ATOM      2  C1  UNL d   1      -1.250  -2.533   2.700  0.00  0.00     0.062 A 
ATOM      3  C2  UNL d   1      -0.081  -2.172   2.038  0.00  0.00     0.162 A 
ATOM      4  C3  UNL d   1       0.795  -1.249   2.609  0.00  0.00    -0.034 A 
ATOM      5  C4  UNL d   1       0.483  -0.692   3.850  0.00  0.00     0.162 A 
ATOM      6  C5  UNL d   1      -0.687  -1.056   4.508  0.00  0.00     0.062 A 
ATOM      7  F   UNL d   1      -0.979  -0.517   5.701  0.00  0.00    -0.097 F 
ATOM      8  F1  UNL d   1       1.303   0.198   4.428  0.00  0.00    -0.096 F 
ATOM      9  I   UNL d   1       2.545  -0.706   1.621  0.00  0.00    -0.060 I 
ATOM     10  F2  UNL d   1       0.187  -2.726   0.846  0.00  0.00    -0.096 F 
ATOM     11  F3  UNL d   1      -2.086  -3.421   2.143  0.00  0.00    -0.097 F 
ATOM     12  F4  UNL d   1      -2.680  -2.324   4.569  0.00  0.00    -0.092 F 
ENDROOT
TORSDOF 0
ENDMDL
