MODEL 1
REMARK minimizedAffinity 19.9624329
REMARK minimizedRMSD -1
REMARK  0 active torsions:
REMARK  status: ('A' for Active; 'I' for Inactive)
ROOT
ATOM      1  C   UNL d   1      -1.427  -1.710   3.488  0.00  0.00     0.124 A 
ATOM      2  C1  UNL d   1      -0.535  -0.828   4.083  0.00  0.00     0.062 A 
ATOM      3  C2  UNL d   1       0.693  -0.563   3.483  0.00  0.00     0.162 A 
ATOM      4  C3  UNL d   1       1.036  -1.181   2.280  0.00  0.00    -0.034 A 
ATOM      5  C4  UNL d   1       0.134  -2.067   1.689  0.00  0.00     0.162 A 
ATOM      6  C5  UNL d   1      -1.092  -2.328   2.292  0.00  0.00     0.062 A 
ATOM      7  F   UNL d   1      -1.952  -3.180   1.716  0.00  0.00    -0.097 F 
ATOM      8  F1  UNL d   1       0.432  -2.678   0.532  0.00  0.00    -0.096 F 
ATOM      9  I   UNL d   1       2.871  -0.788   1.380  0.00  0.00    -0.060 I 
ATOM     10  F2  UNL d   1       1.535   0.293   4.080  0.00  0.00    -0.096 F 
ATOM     11  F3  UNL d   1      -0.856  -0.230   5.239  0.00  0.00    -0.097 F 
ATOM     12  F4  UNL d   1      -2.607  -1.963   4.068  0.00  0.00    -0.092 F 
ENDROOT
TORSDOF 0
ENDMDL
