MODEL 1
REMARK minimizedAffinity 20.307045
REMARK minimizedRMSD -1
REMARK  0 active torsions:
REMARK  status: ('A' for Active; 'I' for Inactive)
ROOT
ATOM      1  C   UNL d   1       2.272  -2.392   1.087  0.00  0.00     0.124 A 
ATOM      2  C1  UNL d   1       1.237  -1.797   1.794  0.00  0.00     0.062 A 
ATOM      3  C2  UNL d   1       1.054  -0.418   1.740  0.00  0.00     0.162 A 
ATOM      4  C3  UNL d   1       1.908   0.376   0.975  0.00  0.00    -0.034 A 
ATOM      5  C4  UNL d   1       2.948  -0.230   0.267  0.00  0.00     0.162 A 
ATOM      6  C5  UNL d   1       3.127  -1.608   0.324  0.00  0.00     0.062 A 
ATOM      7  F   UNL d   1       4.128  -2.181  -0.360  0.00  0.00    -0.097 F 
ATOM      8  F1  UNL d   1       3.788   0.504  -0.478  0.00  0.00    -0.096 F 
ATOM      9  I   UNL d   1       1.639   2.438   0.892  0.00  0.00    -0.060 I 
ATOM     10  F2  UNL d   1       0.045   0.130   2.434  0.00  0.00    -0.096 F 
ATOM     11  F3  UNL d   1       0.410  -2.552   2.532  0.00  0.00    -0.097 F 
ATOM     12  F4  UNL d   1       2.446  -3.719   1.141  0.00  0.00    -0.092 F 
ENDROOT
TORSDOF 0
ENDMDL
