MODEL 1
REMARK minimizedAffinity 14.7351065
REMARK minimizedRMSD -1
REMARK  0 active torsions:
REMARK  status: ('A' for Active; 'I' for Inactive)
ROOT
ATOM      1  C   UNL d   1      -2.338   5.049  -3.823  0.00  0.00     0.124 A 
ATOM      2  C1  UNL d   1      -2.981   4.987  -2.594  0.00  0.00     0.062 A 
ATOM      3  C2  UNL d   1      -3.932   4.000  -2.350  0.00  0.00     0.162 A 
ATOM      4  C3  UNL d   1      -4.245   3.066  -3.337  0.00  0.00    -0.034 A 
ATOM      5  C4  UNL d   1      -3.595   3.135  -4.570  0.00  0.00     0.162 A 
ATOM      6  C5  UNL d   1      -2.646   4.123  -4.809  0.00  0.00     0.062 A 
ATOM      7  F   UNL d   1      -2.026   4.181  -5.997  0.00  0.00    -0.097 F 
ATOM      8  F1  UNL d   1      -3.873   2.252  -5.541  0.00  0.00    -0.096 F 
ATOM      9  I   UNL d   1      -5.666   1.589  -2.976  0.00  0.00    -0.060 I 
ATOM     10  F2  UNL d   1      -4.537   3.965  -1.153  0.00  0.00    -0.096 F 
ATOM     11  F3  UNL d   1      -2.686   5.881  -1.639  0.00  0.00    -0.097 F 
ATOM     12  F4  UNL d   1      -1.424   6.000  -4.055  0.00  0.00    -0.092 F 
ENDROOT
TORSDOF 0
ENDMDL
