MODEL 1
REMARK minimizedAffinity 8.35531712
REMARK minimizedRMSD -1
REMARK  0 active torsions:
REMARK  status: ('A' for Active; 'I' for Inactive)
ROOT
ATOM      1  C   UNL d   1       0.245  -1.389   2.780  0.00  0.00     0.124 A 
ATOM      2  C1  UNL d   1       0.032  -0.896   4.060  0.00  0.00     0.062 A 
ATOM      3  C2  UNL d   1      -1.124  -1.235   4.757  0.00  0.00     0.162 A 
ATOM      4  C3  UNL d   1      -2.077  -2.072   4.175  0.00  0.00    -0.034 A 
ATOM      5  C4  UNL d   1      -1.855  -2.563   2.887  0.00  0.00     0.162 A 
ATOM      6  C5  UNL d   1      -0.698  -2.221   2.195  0.00  0.00     0.062 A 
ATOM      7  F   UNL d   1      -0.494  -2.698   0.958  0.00  0.00    -0.097 F 
ATOM      8  F1  UNL d   1      -2.750  -3.371   2.298  0.00  0.00    -0.096 F 
ATOM      9  I   UNL d   1      -3.807  -2.582   5.214  0.00  0.00    -0.060 I 
ATOM     10  F2  UNL d   1      -1.304  -0.744   5.992  0.00  0.00    -0.096 F 
ATOM     11  F3  UNL d   1       0.941  -0.090   4.627  0.00  0.00    -0.097 F 
ATOM     12  F4  UNL d   1       1.358  -1.060   2.111  0.00  0.00    -0.092 F 
ENDROOT
TORSDOF 0
ENDMDL
