MODEL 1
REMARK minimizedAffinity 11.7303963
REMARK minimizedRMSD -1
REMARK  0 active torsions:
REMARK  status: ('A' for Active; 'I' for Inactive)
ROOT
ATOM      1  C   UNL d   1       0.677  -1.426   3.017  0.00  0.00     0.124 A 
ATOM      2  C1  UNL d   1       0.001  -2.563   2.596  0.00  0.00     0.062 A 
ATOM      3  C2  UNL d   1      -1.087  -3.040   3.321  0.00  0.00     0.162 A 
ATOM      4  C3  UNL d   1      -1.506  -2.379   4.476  0.00  0.00    -0.034 A 
ATOM      5  C4  UNL d   1      -0.821  -1.237   4.894  0.00  0.00     0.162 A 
ATOM      6  C5  UNL d   1       0.266  -0.765   4.165  0.00  0.00     0.062 A 
ATOM      7  F   UNL d   1       0.918   0.333   4.574  0.00  0.00    -0.097 F 
ATOM      8  F1  UNL d   1      -1.197  -0.578   6.000  0.00  0.00    -0.096 F 
ATOM      9  I   UNL d   1      -3.133  -3.089   5.564  0.00  0.00    -0.060 I 
ATOM     10  F2  UNL d   1      -1.722  -4.140   2.891  0.00  0.00    -0.096 F 
ATOM     11  F3  UNL d   1       0.397  -3.204   1.487  0.00  0.00    -0.097 F 
ATOM     12  F4  UNL d   1       1.724  -0.970   2.317  0.00  0.00    -0.092 F 
ENDROOT
TORSDOF 0
ENDMDL
