MODEL 1
REMARK minimizedAffinity 23.4954071
REMARK minimizedRMSD -1
REMARK  0 active torsions:
REMARK  status: ('A' for Active; 'I' for Inactive)
ROOT
ATOM      1  C   UNL d   1      -3.814   2.458  -2.275  0.00  0.00     0.124 A 
ATOM      2  C1  UNL d   1      -4.125   3.749  -1.870  0.00  0.00     0.062 A 
ATOM      3  C2  UNL d   1      -3.175   4.762  -1.971  0.00  0.00     0.162 A 
ATOM      4  C3  UNL d   1      -1.906   4.488  -2.480  0.00  0.00    -0.034 A 
ATOM      5  C4  UNL d   1      -1.601   3.187  -2.884  0.00  0.00     0.162 A 
ATOM      6  C5  UNL d   1      -2.553   2.179  -2.781  0.00  0.00     0.062 A 
ATOM      7  F   UNL d   1      -2.251   0.932  -3.173  0.00  0.00    -0.097 F 
ATOM      8  F1  UNL d   1      -0.390   2.889  -3.379  0.00  0.00    -0.096 F 
ATOM      9  I   UNL d   1      -0.484   6.000  -2.633  0.00  0.00    -0.060 I 
ATOM     10  F2  UNL d   1      -3.503   6.000  -1.573  0.00  0.00    -0.096 F 
ATOM     11  F3  UNL d   1      -5.342   4.022  -1.379  0.00  0.00    -0.097 F 
ATOM     12  F4  UNL d   1      -4.729   1.485  -2.175  0.00  0.00    -0.092 F 
ENDROOT
TORSDOF 0
ENDMDL
