MODEL 1
REMARK minimizedAffinity 21.3115025
REMARK minimizedRMSD -1
REMARK  0 active torsions:
REMARK  status: ('A' for Active; 'I' for Inactive)
ROOT
ATOM      1  C   UNL d   1      -1.614  -2.023   3.717  0.00  0.00     0.124 A 
ATOM      2  C1  UNL d   1      -0.794  -1.135   4.399  0.00  0.00     0.062 A 
ATOM      3  C2  UNL d   1       0.416  -0.730   3.842  0.00  0.00     0.162 A 
ATOM      4  C3  UNL d   1       0.812  -1.213   2.594  0.00  0.00    -0.034 A 
ATOM      5  C4  UNL d   1      -0.017  -2.107   1.915  0.00  0.00     0.162 A 
ATOM      6  C5  UNL d   1      -1.225  -2.508   2.477  0.00  0.00     0.062 A 
ATOM      7  F   UNL d   1      -2.016  -3.367   1.817  0.00  0.00    -0.097 F 
ATOM      8  F1  UNL d   1       0.333  -2.591   0.715  0.00  0.00    -0.096 F 
ATOM      9  I   UNL d   1       2.620  -0.610   1.757  0.00  0.00    -0.060 I 
ATOM     10  F2  UNL d   1       1.188   0.130   4.522  0.00  0.00    -0.096 F 
ATOM     11  F3  UNL d   1      -1.167  -0.665   5.598  0.00  0.00    -0.097 F 
ATOM     12  F4  UNL d   1      -2.777  -2.411   4.257  0.00  0.00    -0.092 F 
ENDROOT
TORSDOF 0
ENDMDL
