MODEL 1
REMARK minimizedAffinity 22.5888786
REMARK minimizedRMSD -1
REMARK  0 active torsions:
REMARK  status: ('A' for Active; 'I' for Inactive)
ROOT
ATOM      1  C   UNL d   1      -1.453  -1.812   3.951  0.00  0.00     0.124 A 
ATOM      2  C1  UNL d   1      -0.723  -0.805   4.569  0.00  0.00     0.062 A 
ATOM      3  C2  UNL d   1       0.462  -0.349   3.999  0.00  0.00     0.162 A 
ATOM      4  C3  UNL d   1       0.924  -0.897   2.803  0.00  0.00    -0.034 A 
ATOM      5  C4  UNL d   1       0.186  -1.910   2.188  0.00  0.00     0.162 A 
ATOM      6  C5  UNL d   1      -0.998  -2.363   2.761  0.00  0.00     0.062 A 
ATOM      7  F   UNL d   1      -1.701  -3.335   2.163  0.00  0.00    -0.097 F 
ATOM      8  F1  UNL d   1       0.602  -2.459   1.037  0.00  0.00    -0.096 F 
ATOM      9  I   UNL d   1       2.695  -0.217   1.947  0.00  0.00    -0.060 I 
ATOM     10  F2  UNL d   1       1.146   0.625   4.618  0.00  0.00    -0.096 F 
ATOM     11  F3  UNL d   1      -1.160  -0.272   5.719  0.00  0.00    -0.097 F 
ATOM     12  F4  UNL d   1      -2.592  -2.250   4.502  0.00  0.00    -0.092 F 
ENDROOT
TORSDOF 0
ENDMDL
