MODEL 1
REMARK minimizedAffinity -3.10899854
REMARK minimizedRMSD -1
REMARK  0 active torsions:
REMARK  status: ('A' for Active; 'I' for Inactive)
ROOT
ATOM      1  C1  DEN d   1      -0.284   1.387   0.052  0.00  0.00     0.130 A 
ATOM      2  C2  DEN d   1      -1.435   0.764   0.700  0.00  0.00    -0.031 A 
ATOM      3  C3  DEN d   1      -1.210  -0.695   0.725  0.00  0.00     0.027 A 
ATOM      4  C4  DEN d   1       0.800  -2.043  -0.166  0.00  0.00     0.027 A 
ATOM      5  C5  DEN d   1       2.016  -1.954  -0.808  0.00  0.00    -0.003 A 
ATOM      6  C6  DEN d   1       2.530  -0.758  -1.235  0.00  0.00     0.001 A 
ATOM      7  C7  DEN d   1       1.846   0.403  -0.985  0.00  0.00     0.017 A 
ATOM      8  C8  DEN d   1       0.617   0.320  -0.345  0.00  0.00    -0.094 A 
ATOM      9  C9  DEN d   1       0.120  -0.897   0.090  0.00  0.00    -0.072 A 
ENDROOT
TORSDOF 0
ENDMDL
