MODEL 1
REMARK minimizedAffinity -6.44973373
REMARK minimizedRMSD -1
REMARK  0 active torsions:
REMARK  status: ('A' for Active; 'I' for Inactive)
ROOT
ATOM      1  C1  DEN d   1      -0.500   1.899  -1.108  0.00  0.00     0.130 A 
ATOM      2  C2  DEN d   1      -1.210   1.223  -0.026  0.00  0.00    -0.031 A 
ATOM      3  C3  DEN d   1      -0.460  -0.002   0.318  0.00  0.00     0.027 A 
ATOM      4  C4  DEN d   1       1.724  -0.909  -0.712  0.00  0.00     0.027 A 
ATOM      5  C5  DEN d   1       2.691  -0.688  -1.667  0.00  0.00    -0.003 A 
ATOM      6  C6  DEN d   1       2.645   0.385  -2.518  0.00  0.00     0.001 A 
ATOM      7  C7  DEN d   1       1.634   1.301  -2.401  0.00  0.00     0.017 A 
ATOM      8  C8  DEN d   1       0.650   1.080  -1.446  0.00  0.00    -0.094 A 
ATOM      9  C9  DEN d   1       0.721  -0.003  -0.587  0.00  0.00    -0.072 A 
ENDROOT
TORSDOF 0
ENDMDL
