MODEL 1
REMARK minimizedAffinity -2.66932964
REMARK minimizedRMSD -1
REMARK  0 active torsions:
REMARK  status: ('A' for Active; 'I' for Inactive)
ROOT
ATOM      1  C1  DEN d   1      -0.573   0.890  -0.729  0.00  0.00     0.130 A 
ATOM      2  C2  DEN d   1      -1.632   0.593   0.231  0.00  0.00    -0.031 A 
ATOM      3  C3  DEN d   1      -1.294  -0.675   0.906  0.00  0.00     0.027 A 
ATOM      4  C4  DEN d   1       0.760  -2.198   0.565  0.00  0.00     0.027 A 
ATOM      5  C5  DEN d   1       1.925  -2.367  -0.150  0.00  0.00    -0.003 A 
ATOM      6  C6  DEN d   1       2.320  -1.488  -1.123  0.00  0.00     0.001 A 
ATOM      7  C7  DEN d   1       1.564  -0.374  -1.378  0.00  0.00     0.017 A 
ATOM      8  C8  DEN d   1       0.384  -0.200  -0.667  0.00  0.00    -0.094 A 
ATOM      9  C9  DEN d   1       0.009  -1.094   0.322  0.00  0.00    -0.072 A 
ENDROOT
TORSDOF 0
ENDMDL
