MODEL 1
REMARK minimizedAffinity -3.23075962
REMARK minimizedRMSD -1
REMARK  0 active torsions:
REMARK  status: ('A' for Active; 'I' for Inactive)
ROOT
ATOM      1  C1  DEN d   1      -0.167   0.637   0.655  0.00  0.00     0.130 A 
ATOM      2  C2  DEN d   1      -1.084  -0.453   0.333  0.00  0.00    -0.031 A 
ATOM      3  C3  DEN d   1      -0.333  -1.473  -0.425  0.00  0.00     0.027 A 
ATOM      4  C4  DEN d   1       2.151  -1.475  -1.122  0.00  0.00     0.027 A 
ATOM      5  C5  DEN d   1       3.327  -0.760  -1.086  0.00  0.00    -0.003 A 
ATOM      6  C6  DEN d   1       3.413   0.476  -0.502  0.00  0.00     0.001 A 
ATOM      7  C7  DEN d   1       2.312   1.015   0.111  0.00  0.00     0.017 A 
ATOM      8  C8  DEN d   1       1.120   0.303   0.072  0.00  0.00    -0.094 A 
ATOM      9  C9  DEN d   1       1.057  -0.950  -0.513  0.00  0.00    -0.072 A 
ENDROOT
TORSDOF 0
ENDMDL
