MODEL 1
REMARK minimizedAffinity -6.16327667
REMARK minimizedRMSD -1
REMARK  0 active torsions:
REMARK  status: ('A' for Active; 'I' for Inactive)
ROOT
ATOM      1  C1  DEN d   1       0.862  -0.790   0.690  0.00  0.00     0.130 A 
ATOM      2  C2  DEN d   1      -0.250   0.101   1.013  0.00  0.00    -0.031 A 
ATOM      3  C3  DEN d   1      -0.267   1.190   0.016  0.00  0.00     0.027 A 
ATOM      4  C4  DEN d   1       1.309   1.579  -1.989  0.00  0.00     0.027 A 
ATOM      5  C5  DEN d   1       2.410   1.096  -2.661  0.00  0.00    -0.003 A 
ATOM      6  C6  DEN d   1       3.087  -0.020  -2.248  0.00  0.00     0.001 A 
ATOM      7  C7  DEN d   1       2.642  -0.718  -1.156  0.00  0.00     0.017 A 
ATOM      8  C8  DEN d   1       1.537  -0.233  -0.468  0.00  0.00    -0.094 A 
ATOM      9  C9  DEN d   1       0.859   0.890  -0.909  0.00  0.00    -0.072 A 
ENDROOT
TORSDOF 0
ENDMDL
