MODEL 1
REMARK minimizedAffinity -6.81532049
REMARK minimizedRMSD -1
REMARK  0 active torsions:
REMARK  status: ('A' for Active; 'I' for Inactive)
ROOT
ATOM      1  C1  DEN d   1       0.454  -1.438   0.262  0.00  0.00     0.130 A 
ATOM      2  C2  DEN d   1      -0.713  -0.591   0.494  0.00  0.00    -0.031 A 
ATOM      3  C3  DEN d   1      -0.498   0.686  -0.215  0.00  0.00     0.027 A 
ATOM      4  C4  DEN d   1       1.516   1.430  -1.644  0.00  0.00     0.027 A 
ATOM      5  C5  DEN d   1       2.754   1.057  -2.120  0.00  0.00    -0.003 A 
ATOM      6  C6  DEN d   1       3.322  -0.150  -1.810  0.00  0.00     0.001 A 
ATOM      7  C7  DEN d   1       2.631  -1.047  -1.038  0.00  0.00     0.017 A 
ATOM      8  C8  DEN d   1       1.386  -0.675  -0.548  0.00  0.00    -0.094 A 
ATOM      9  C9  DEN d   1       0.824   0.545  -0.883  0.00  0.00    -0.072 A 
ENDROOT
TORSDOF 0
ENDMDL
