MODEL 1
REMARK minimizedAffinity -4.45036793
REMARK minimizedRMSD -1
REMARK  0 active torsions:
REMARK  status: ('A' for Active; 'I' for Inactive)
ROOT
ATOM      1  C1  DEN d   1       0.559   1.853  -1.783  0.00  0.00     0.130 A 
ATOM      2  C2  DEN d   1       1.694   1.940  -2.698  0.00  0.00    -0.031 A 
ATOM      3  C3  DEN d   1       2.484   0.700  -2.565  0.00  0.00     0.027 A 
ATOM      4  C4  DEN d   1       2.061  -1.338  -1.042  0.00  0.00     0.027 A 
ATOM      5  C5  DEN d   1       1.230  -1.867  -0.080  0.00  0.00    -0.003 A 
ATOM      6  C6  DEN d   1       0.144  -1.185   0.402  0.00  0.00     0.001 A 
ATOM      7  C7  DEN d   1      -0.165   0.048  -0.109  0.00  0.00     0.017 A 
ATOM      8  C8  DEN d   1       0.674   0.591  -1.074  0.00  0.00    -0.094 A 
ATOM      9  C9  DEN d   1       1.759  -0.119  -1.557  0.00  0.00    -0.072 A 
ENDROOT
TORSDOF 0
ENDMDL
