MODEL 1
REMARK minimizedAffinity -3.5801971
REMARK minimizedRMSD -1
REMARK  0 active torsions:
REMARK  status: ('A' for Active; 'I' for Inactive)
ROOT
ATOM      1  C1  DEN d   1       0.825   0.444   0.841  0.00  0.00     0.130 A 
ATOM      2  C2  DEN d   1       0.624  -0.553  -0.207  0.00  0.00    -0.031 A 
ATOM      3  C3  DEN d   1      -0.784  -0.995  -0.154  0.00  0.00     0.027 A 
ATOM      4  C4  DEN d   1      -2.664  -0.233   1.438  0.00  0.00     0.027 A 
ATOM      5  C5  DEN d   1      -2.971   0.587   2.502  0.00  0.00    -0.003 A 
ATOM      6  C6  DEN d   1      -2.033   1.384   3.104  0.00  0.00     0.001 A 
ATOM      7  C7  DEN d   1      -0.753   1.413   2.616  0.00  0.00     0.017 A 
ATOM      8  C8  DEN d   1      -0.435   0.584   1.549  0.00  0.00    -0.094 A 
ATOM      9  C9  DEN d   1      -1.400  -0.206   0.946  0.00  0.00    -0.072 A 
ENDROOT
TORSDOF 0
ENDMDL
