MODEL 1
REMARK minimizedAffinity -5.52542877
REMARK minimizedRMSD -1
REMARK  0 active torsions:
REMARK  status: ('A' for Active; 'I' for Inactive)
ROOT
ATOM      1  C1  DEN d   1       2.184   1.718  -2.960  0.00  0.00     0.130 A 
ATOM      2  C2  DEN d   1       1.141   2.716  -2.734  0.00  0.00    -0.031 A 
ATOM      3  C3  DEN d   1       0.302   2.253  -1.611  0.00  0.00     0.027 A 
ATOM      4  C4  DEN d   1       0.517   0.103  -0.202  0.00  0.00     0.027 A 
ATOM      5  C5  DEN d   1       1.240  -1.056  -0.027  0.00  0.00    -0.003 A 
ATOM      6  C6  DEN d   1       2.298  -1.386  -0.832  0.00  0.00     0.001 A 
ATOM      7  C7  DEN d   1       2.692  -0.525  -1.821  0.00  0.00     0.017 A 
ATOM      8  C8  DEN d   1       1.964   0.643  -2.009  0.00  0.00    -0.094 A 
ATOM      9  C9  DEN d   1       0.905   0.964  -1.177  0.00  0.00    -0.072 A 
ENDROOT
TORSDOF 0
ENDMDL
