MODEL 1
REMARK minimizedAffinity -6.34447908
REMARK minimizedRMSD -1
REMARK  0 active torsions:
REMARK  status: ('A' for Active; 'I' for Inactive)
ROOT
ATOM      1  C1  DEN d   1      -0.353   1.091  -0.650  0.00  0.00     0.130 A 
ATOM      2  C2  DEN d   1      -0.985  -0.048   0.011  0.00  0.00    -0.031 A 
ATOM      3  C3  DEN d   1      -0.093  -1.215  -0.141  0.00  0.00     0.027 A 
ATOM      4  C4  DEN d   1       2.193  -1.368  -1.325  0.00  0.00     0.027 A 
ATOM      5  C5  DEN d   1       3.134  -0.664  -2.043  0.00  0.00    -0.003 A 
ATOM      6  C6  DEN d   1       2.965   0.654  -2.374  0.00  0.00     0.001 A 
ATOM      7  C7  DEN d   1       1.848   1.323  -1.947  0.00  0.00     0.017 A 
ATOM      8  C8  DEN d   1       0.891   0.618  -1.229  0.00  0.00    -0.094 A 
ATOM      9  C9  DEN d   1       1.087  -0.711  -0.894  0.00  0.00    -0.072 A 
ENDROOT
TORSDOF 0
ENDMDL
