MODEL 1
REMARK minimizedAffinity -5.70510149
REMARK minimizedRMSD -1
REMARK  0 active torsions:
REMARK  status: ('A' for Active; 'I' for Inactive)
ROOT
ATOM      1  C1  DEN d   1       3.078   0.231  -2.225  0.00  0.00     0.130 A 
ATOM      2  C2  DEN d   1       2.739   1.483  -2.897  0.00  0.00    -0.031 A 
ATOM      3  C3  DEN d   1       1.364   1.853  -2.506  0.00  0.00     0.027 A 
ATOM      4  C4  DEN d   1      -0.262   0.620  -0.929  0.00  0.00     0.027 A 
ATOM      5  C5  DEN d   1      -0.426  -0.490  -0.131  0.00  0.00    -0.003 A 
ATOM      6  C6  DEN d   1       0.545  -1.448  -0.003  0.00  0.00     0.001 A 
ATOM      7  C7  DEN d   1       1.743  -1.290  -0.648  0.00  0.00     0.017 A 
ATOM      8  C8  DEN d   1       1.913  -0.176  -1.461  0.00  0.00    -0.094 A 
ATOM      9  C9  DEN d   1       0.924   0.786  -1.567  0.00  0.00    -0.072 A 
ENDROOT
TORSDOF 0
ENDMDL
