MODEL 1
REMARK minimizedAffinity -4.09438324
REMARK minimizedRMSD -1
REMARK  0 active torsions:
REMARK  status: ('A' for Active; 'I' for Inactive)
ROOT
ATOM      1  C2' OXE d   1      -2.369  -4.122  -4.949  0.00  0.00     0.078 C 
ATOM      2  C1' OXE d   1      -4.844  -5.258  -5.631  0.00  0.00     0.078 C 
ATOM      3  C1  OXE d   1      -4.816  -3.792  -5.276  0.00  0.00    -0.078 A 
ATOM      4  C2  OXE d   1      -3.609  -3.256  -4.899  0.00  0.00    -0.078 A 
ATOM      5  C3  OXE d   1      -3.517  -1.896  -4.614  0.00  0.00     0.003 A 
ATOM      6  C4  OXE d   1      -4.670  -1.104  -4.560  0.00  0.00    -0.002 A 
ATOM      7  C5  OXE d   1      -5.916  -1.640  -4.902  0.00  0.00    -0.002 A 
ATOM      8  C6  OXE d   1      -6.000  -2.969  -5.303  0.00  0.00     0.003 A 
ENDROOT
TORSDOF 0
ENDMDL
