MODEL 1
REMARK minimizedAffinity -2.60767865
REMARK minimizedRMSD -1
REMARK  0 active torsions:
REMARK  status: ('A' for Active; 'I' for Inactive)
ROOT
ATOM      1  C2' OXE d   1      -6.000  -1.883  -3.178  0.00  0.00     0.078 C 
ATOM      2  C1' OXE d   1      -5.997  -1.880  -5.985  0.00  0.00     0.078 C 
ATOM      3  C1  OXE d   1      -5.412  -3.080  -5.282  0.00  0.00    -0.078 A 
ATOM      4  C2  OXE d   1      -5.375  -3.052  -3.909  0.00  0.00    -0.078 A 
ATOM      5  C3  OXE d   1      -4.896  -4.156  -3.210  0.00  0.00     0.003 A 
ATOM      6  C4  OXE d   1      -4.312  -5.229  -3.893  0.00  0.00    -0.002 A 
ATOM      7  C5  OXE d   1      -4.303  -5.260  -5.292  0.00  0.00    -0.002 A 
ATOM      8  C6  OXE d   1      -4.886  -4.215  -6.000  0.00  0.00     0.003 A 
ENDROOT
TORSDOF 0
ENDMDL
