MODEL 1
REMARK minimizedAffinity -1.0256573
REMARK minimizedRMSD -1
REMARK  0 active torsions:
REMARK  status: ('A' for Active; 'I' for Inactive)
ROOT
ATOM      1  C2' OXE d   1      -3.758  -5.186  -3.291  0.00  0.00     0.078 C 
ATOM      2  C1' OXE d   1      -5.129  -5.991  -5.604  0.00  0.00     0.078 C 
ATOM      3  C1  OXE d   1      -5.201  -4.536  -5.214  0.00  0.00    -0.078 A 
ATOM      4  C2  OXE d   1      -4.566  -4.159  -4.056  0.00  0.00    -0.078 A 
ATOM      5  C3  OXE d   1      -4.554  -2.819  -3.680  0.00  0.00     0.003 A 
ATOM      6  C4  OXE d   1      -5.312  -1.878  -4.387  0.00  0.00    -0.002 A 
ATOM      7  C5  OXE d   1      -6.000  -2.248  -5.548  0.00  0.00    -0.002 A 
ATOM      8  C6  OXE d   1      -5.920  -3.562  -5.998  0.00  0.00     0.003 A 
ENDROOT
TORSDOF 0
ENDMDL
