MODEL 1
REMARK minimizedAffinity -2.55852699
REMARK minimizedRMSD -1
REMARK  0 active torsions:
REMARK  status: ('A' for Active; 'I' for Inactive)
ROOT
ATOM      1  C2' OXE d   1      -2.770  -6.000  -4.112  0.00  0.00     0.078 C 
ATOM      2  C1' OXE d   1      -1.247  -4.566  -5.985  0.00  0.00     0.078 C 
ATOM      3  C1  OXE d   1      -2.552  -3.962  -5.529  0.00  0.00    -0.078 A 
ATOM      4  C2  OXE d   1      -3.313  -4.692  -4.647  0.00  0.00    -0.078 A 
ATOM      5  C3  OXE d   1      -4.499  -4.157  -4.153  0.00  0.00     0.003 A 
ATOM      6  C4  OXE d   1      -4.999  -2.952  -4.661  0.00  0.00    -0.002 A 
ATOM      7  C5  OXE d   1      -4.259  -2.211  -5.589  0.00  0.00    -0.002 A 
ATOM      8  C6  OXE d   1      -3.016  -2.681  -6.000  0.00  0.00     0.003 A 
ENDROOT
TORSDOF 0
ENDMDL
