MODEL 1
REMARK minimizedAffinity -2.34039903
REMARK minimizedRMSD -1
REMARK  0 active torsions:
REMARK  status: ('A' for Active; 'I' for Inactive)
ROOT
ATOM      1  C2' OXE d   1      -5.995  -3.014  -5.650  0.00  0.00     0.078 C 
ATOM      2  C1' OXE d   1      -6.000  -5.821  -5.703  0.00  0.00     0.078 C 
ATOM      3  C1  OXE d   1      -4.668  -5.117  -5.785  0.00  0.00    -0.078 A 
ATOM      4  C2  OXE d   1      -4.679  -3.743  -5.805  0.00  0.00    -0.078 A 
ATOM      5  C3  OXE d   1      -3.475  -3.045  -5.825  0.00  0.00     0.003 A 
ATOM      6  C4  OXE d   1      -2.262  -3.727  -5.978  0.00  0.00    -0.002 A 
ATOM      7  C5  OXE d   1      -2.231  -5.125  -5.999  0.00  0.00    -0.002 A 
ATOM      8  C6  OXE d   1      -3.419  -5.835  -5.861  0.00  0.00     0.003 A 
ENDROOT
TORSDOF 0
ENDMDL
