MODEL 1
REMARK minimizedAffinity -1.0217551
REMARK minimizedRMSD -1
REMARK  0 active torsions:
REMARK  status: ('A' for Active; 'I' for Inactive)
ROOT
ATOM      1  C2' OXE d   1      -5.233  -3.446  -4.762  0.00  0.00     0.078 C 
ATOM      2  C1' OXE d   1      -5.108  -5.963  -5.998  0.00  0.00     0.078 C 
ATOM      3  C1  OXE d   1      -3.813  -5.338  -5.544  0.00  0.00    -0.078 A 
ATOM      4  C2  OXE d   1      -3.879  -4.085  -4.982  0.00  0.00    -0.078 A 
ATOM      5  C3  OXE d   1      -2.720  -3.486  -4.496  0.00  0.00     0.003 A 
ATOM      6  C4  OXE d   1      -1.471  -4.080  -4.713  0.00  0.00    -0.002 A 
ATOM      7  C5  OXE d   1      -1.378  -5.337  -5.319  0.00  0.00    -0.002 A 
ATOM      8  C6  OXE d   1      -2.541  -5.997  -5.701  0.00  0.00     0.003 A 
ENDROOT
TORSDOF 0
ENDMDL
