MODEL 1
REMARK minimizedAffinity -0.224004015
REMARK minimizedRMSD -1
REMARK  0 active torsions:
REMARK  status: ('A' for Active; 'I' for Inactive)
ROOT
ATOM      1  C2' OXE d   1      -2.425  -1.277   0.078  0.00  0.00     0.078 C 
ATOM      2  C1' OXE d   1      -2.844  -0.727   2.799  0.00  0.00     0.078 C 
ATOM      3  C1  OXE d   1      -1.505  -1.290   2.393  0.00  0.00    -0.078 A 
ATOM      4  C2  OXE d   1      -1.325  -1.600   1.066  0.00  0.00    -0.078 A 
ATOM      5  C3  OXE d   1      -0.090  -2.071   0.630  0.00  0.00     0.003 A 
ATOM      6  C4  OXE d   1       0.918  -2.377   1.552  0.00  0.00    -0.002 A 
ATOM      7  C5  OXE d   1       0.742  -2.106   2.913  0.00  0.00    -0.002 A 
ATOM      8  C6  OXE d   1      -0.446  -1.524   3.344  0.00  0.00     0.003 A 
ENDROOT
TORSDOF 0
ENDMDL
