MODEL 1
REMARK minimizedAffinity -3.72607207
REMARK minimizedRMSD -1
REMARK  0 active torsions:
REMARK  status: ('A' for Active; 'I' for Inactive)
ROOT
ATOM      1  C2' OXE d   1      -2.253  -4.500  -5.204  0.00  0.00     0.078 C 
ATOM      2  C1' OXE d   1      -4.575  -5.999  -5.693  0.00  0.00     0.078 C 
ATOM      3  C1  OXE d   1      -4.696  -4.496  -5.688  0.00  0.00    -0.078 A 
ATOM      4  C2  OXE d   1      -3.564  -3.771  -5.402  0.00  0.00    -0.078 A 
ATOM      5  C3  OXE d   1      -3.608  -2.381  -5.438  0.00  0.00     0.003 A 
ATOM      6  C4  OXE d   1      -4.828  -1.714  -5.612  0.00  0.00    -0.002 A 
ATOM      7  C5  OXE d   1      -6.000  -2.434  -5.866  0.00  0.00    -0.002 A 
ATOM      8  C6  OXE d   1      -5.944  -3.821  -5.950  0.00  0.00     0.003 A 
ENDROOT
TORSDOF 0
ENDMDL
