MODEL 1
REMARK minimizedAffinity -1.91551352
REMARK minimizedRMSD -1
REMARK  0 active torsions:
REMARK  status: ('A' for Active; 'I' for Inactive)
ROOT
ATOM      1  C2' OXE d   1      -5.224  -3.121  -4.488  0.00  0.00     0.078 C 
ATOM      2  C1' OXE d   1      -5.717  -5.438  -5.995  0.00  0.00     0.078 C 
ATOM      3  C1  OXE d   1      -4.287  -5.128  -5.627  0.00  0.00    -0.078 A 
ATOM      4  C2  OXE d   1      -4.050  -3.968  -4.930  0.00  0.00    -0.078 A 
ATOM      5  C3  OXE d   1      -2.756  -3.662  -4.518  0.00  0.00     0.003 A 
ATOM      6  C4  OXE d   1      -1.675  -4.446  -4.940  0.00  0.00    -0.002 A 
ATOM      7  C5  OXE d   1      -1.890  -5.610  -5.685  0.00  0.00    -0.002 A 
ATOM      8  C6  OXE d   1      -3.190  -5.987  -6.000  0.00  0.00     0.003 A 
ENDROOT
TORSDOF 0
ENDMDL
