MODEL 1
REMARK minimizedAffinity -0.281151205
REMARK minimizedRMSD -1
REMARK  0 active torsions:
REMARK  status: ('A' for Active; 'I' for Inactive)
ROOT
ATOM      1  C2' OXE d   1      -2.707  -5.998  -4.960  0.00  0.00     0.078 C 
ATOM      2  C1' OXE d   1      -3.005  -4.272  -2.766  0.00  0.00     0.078 C 
ATOM      3  C1  OXE d   1      -4.021  -4.180  -3.877  0.00  0.00    -0.078 A 
ATOM      4  C2  OXE d   1      -3.842  -4.996  -4.968  0.00  0.00    -0.078 A 
ATOM      5  C3  OXE d   1      -4.781  -4.991  -5.995  0.00  0.00     0.003 A 
ATOM      6  C4  OXE d   1      -5.821  -4.054  -5.999  0.00  0.00    -0.002 A 
ATOM      7  C5  OXE d   1      -5.999  -3.186  -4.917  0.00  0.00    -0.002 A 
ATOM      8  C6  OXE d   1      -5.135  -3.265  -3.830  0.00  0.00     0.003 A 
ENDROOT
TORSDOF 0
ENDMDL
