MODEL 1
REMARK minimizedAffinity 5.38840723
REMARK minimizedRMSD -1
REMARK  0 active torsions:
REMARK  status: ('A' for Active; 'I' for Inactive)
ROOT
ATOM      1  C2' OXE d   1      -3.356  -4.086  -2.327  0.00  0.00     0.078 C 
ATOM      2  C1' OXE d   1      -4.800  -3.708  -4.704  0.00  0.00     0.078 C 
ATOM      3  C1  OXE d   1      -3.539  -4.532  -4.771  0.00  0.00    -0.078 A 
ATOM      4  C2  OXE d   1      -2.814  -4.673  -3.612  0.00  0.00    -0.078 A 
ATOM      5  C3  OXE d   1      -1.671  -5.469  -3.606  0.00  0.00     0.003 A 
ATOM      6  C4  OXE d   1      -1.171  -6.000  -4.801  0.00  0.00    -0.002 A 
ATOM      7  C5  OXE d   1      -1.873  -5.835  -6.000  0.00  0.00    -0.002 A 
ATOM      8  C6  OXE d   1      -3.078  -5.141  -5.994  0.00  0.00     0.003 A 
ENDROOT
TORSDOF 0
ENDMDL
