MODEL 1
REMARK minimizedAffinity 0.272132844
REMARK minimizedRMSD -1
REMARK  0 active torsions:
REMARK  status: ('A' for Active; 'I' for Inactive)
ROOT
ATOM      1  C2' OXE d   1      -5.747  -2.648  -4.151  0.00  0.00     0.078 C 
ATOM      2  C1' OXE d   1      -6.000  -4.746  -6.000  0.00  0.00     0.078 C 
ATOM      3  C1  OXE d   1      -4.908  -4.848  -4.964  0.00  0.00    -0.078 A 
ATOM      4  C2  OXE d   1      -4.761  -3.795  -4.093  0.00  0.00    -0.078 A 
ATOM      5  C3  OXE d   1      -3.805  -3.863  -3.084  0.00  0.00     0.003 A 
ATOM      6  C4  OXE d   1      -2.891  -4.923  -3.044  0.00  0.00    -0.002 A 
ATOM      7  C5  OXE d   1      -2.997  -5.987  -3.946  0.00  0.00    -0.002 A 
ATOM      8  C6  OXE d   1      -4.024  -5.985  -4.884  0.00  0.00     0.003 A 
ENDROOT
TORSDOF 0
ENDMDL
