MODEL 1
REMARK minimizedAffinity -0.178092301
REMARK minimizedRMSD -1
REMARK  0 active torsions:
REMARK  status: ('A' for Active; 'I' for Inactive)
ROOT
ATOM      1  C2' OXE d   1      -1.806  -5.275  -4.881  0.00  0.00     0.078 C 
ATOM      2  C1' OXE d   1      -2.431  -3.864  -2.536  0.00  0.00     0.078 C 
ATOM      3  C1  OXE d   1      -3.336  -3.682  -3.729  0.00  0.00    -0.078 A 
ATOM      4  C2  OXE d   1      -2.996  -4.340  -4.887  0.00  0.00    -0.078 A 
ATOM      5  C3  OXE d   1      -3.827  -4.250  -6.000  0.00  0.00     0.003 A 
ATOM      6  C4  OXE d   1      -4.920  -3.375  -6.000  0.00  0.00    -0.002 A 
ATOM      7  C5  OXE d   1      -5.261  -2.665  -4.844  0.00  0.00    -0.002 A 
ATOM      8  C6  OXE d   1      -4.505  -2.839  -3.689  0.00  0.00     0.003 A 
ENDROOT
TORSDOF 0
ENDMDL
