MODEL 1
REMARK minimizedAffinity -3.48795533
REMARK minimizedRMSD -1
REMARK  0 active torsions:
REMARK  status: ('A' for Active; 'I' for Inactive)
ROOT
ATOM      1  C2' OXE d   1      -2.197  -4.503  -5.632  0.00  0.00     0.078 C 
ATOM      2  C1' OXE d   1      -4.573  -5.998  -5.659  0.00  0.00     0.078 C 
ATOM      3  C1  OXE d   1      -4.688  -4.494  -5.637  0.00  0.00    -0.078 A 
ATOM      4  C2  OXE d   1      -3.521  -3.772  -5.577  0.00  0.00    -0.078 A 
ATOM      5  C3  OXE d   1      -3.569  -2.381  -5.611  0.00  0.00     0.003 A 
ATOM      6  C4  OXE d   1      -4.797  -1.712  -5.550  0.00  0.00    -0.002 A 
ATOM      7  C5  OXE d   1      -5.998  -2.430  -5.570  0.00  0.00    -0.002 A 
ATOM      8  C6  OXE d   1      -5.961  -3.817  -5.657  0.00  0.00     0.003 A 
ENDROOT
TORSDOF 0
ENDMDL
