MODEL 1
REMARK minimizedAffinity 2.90307236
REMARK minimizedRMSD -1
REMARK  0 active torsions:
REMARK  status: ('A' for Active; 'I' for Inactive)
ROOT
ATOM      1  C2' OXE d   1      -4.791  -5.781  -5.250  0.00  0.00     0.078 C 
ATOM      2  C1' OXE d   1      -2.346  -4.456  -4.868  0.00  0.00     0.078 C 
ATOM      3  C1  OXE d   1      -3.611  -3.640  -4.769  0.00  0.00    -0.078 A 
ATOM      4  C2  OXE d   1      -4.800  -4.288  -5.004  0.00  0.00    -0.078 A 
ATOM      5  C3  OXE d   1      -6.000  -3.595  -4.871  0.00  0.00     0.003 A 
ATOM      6  C4  OXE d   1      -5.999  -2.212  -4.653  0.00  0.00    -0.002 A 
ATOM      7  C5  OXE d   1      -4.797  -1.525  -4.451  0.00  0.00    -0.002 A 
ATOM      8  C6  OXE d   1      -3.599  -2.231  -4.463  0.00  0.00     0.003 A 
ENDROOT
TORSDOF 0
ENDMDL
