MODEL 1
REMARK minimizedAffinity 6.18951702
REMARK minimizedRMSD -1
REMARK  0 active torsions:
REMARK  status: ('A' for Active; 'I' for Inactive)
ROOT
ATOM      1  C2' OXE d   1      -2.655  -4.507  -3.268  0.00  0.00     0.078 C 
ATOM      2  C1' OXE d   1      -3.747  -2.183  -4.401  0.00  0.00     0.078 C 
ATOM      3  C1  OXE d   1      -4.373  -3.506  -4.768  0.00  0.00    -0.078 A 
ATOM      4  C2  OXE d   1      -3.803  -4.641  -4.246  0.00  0.00    -0.078 A 
ATOM      5  C3  OXE d   1      -4.374  -5.883  -4.508  0.00  0.00     0.003 A 
ATOM      6  C4  OXE d   1      -5.429  -5.999  -5.421  0.00  0.00    -0.002 A 
ATOM      7  C5  OXE d   1      -6.000  -4.858  -5.996  0.00  0.00    -0.002 A 
ATOM      8  C6  OXE d   1      -5.512  -3.604  -5.647  0.00  0.00     0.003 A 
ENDROOT
TORSDOF 0
ENDMDL
