MODEL 1
REMARK minimizedAffinity -2.19109249
REMARK minimizedRMSD -1
REMARK  0 active torsions:
REMARK  status: ('A' for Active; 'I' for Inactive)
ROOT
ATOM      1  C2' OXE d   1      -6.000  -4.875  -4.086  0.00  0.00     0.078 C 
ATOM      2  C1' OXE d   1      -5.113  -3.005  -5.982  0.00  0.00     0.078 C 
ATOM      3  C1  OXE d   1      -4.127  -4.041  -5.501  0.00  0.00    -0.078 A 
ATOM      4  C2  OXE d   1      -4.556  -4.923  -4.539  0.00  0.00    -0.078 A 
ATOM      5  C3  OXE d   1      -3.705  -5.933  -4.101  0.00  0.00     0.003 A 
ATOM      6  C4  OXE d   1      -2.368  -5.964  -4.518  0.00  0.00    -0.002 A 
ATOM      7  C5  OXE d   1      -1.900  -5.050  -5.468  0.00  0.00    -0.002 A 
ATOM      8  C6  OXE d   1      -2.776  -4.111  -6.000  0.00  0.00     0.003 A 
ENDROOT
TORSDOF 0
ENDMDL
