MODEL 1
REMARK minimizedAffinity -1.97227716
REMARK minimizedRMSD -1
REMARK  0 active torsions:
REMARK  status: ('A' for Active; 'I' for Inactive)
ROOT
ATOM      1  C2' OXE d   1      -5.991  -5.411  -5.999  0.00  0.00     0.078 C 
ATOM      2  C1' OXE d   1      -5.482  -3.316  -4.201  0.00  0.00     0.078 C 
ATOM      3  C1  OXE d   1      -4.315  -4.165  -4.640  0.00  0.00    -0.078 A 
ATOM      4  C2  OXE d   1      -4.581  -5.217  -5.483  0.00  0.00    -0.078 A 
ATOM      5  C3  OXE d   1      -3.533  -5.998  -5.962  0.00  0.00     0.003 A 
ATOM      6  C4  OXE d   1      -2.234  -5.818  -5.473  0.00  0.00    -0.002 A 
ATOM      7  C5  OXE d   1      -1.948  -4.778  -4.583  0.00  0.00    -0.002 A 
ATOM      8  C6  OXE d   1      -2.968  -3.917  -4.191  0.00  0.00     0.003 A 
ENDROOT
TORSDOF 0
ENDMDL
