MODEL 1
REMARK minimizedAffinity -4.96300364
REMARK minimizedRMSD -1
REMARK  0 active torsions:
REMARK  status: ('A' for Active; 'I' for Inactive)
ROOT
ATOM      1  C2' OXE d   1      -4.253  -3.451  -4.794  0.00  0.00     0.078 C 
ATOM      2  C1' OXE d   1      -2.812  -3.832  -2.416  0.00  0.00     0.078 C 
ATOM      3  C1  OXE d   1      -2.311  -4.522  -3.660  0.00  0.00    -0.078 A 
ATOM      4  C2  OXE d   1      -3.049  -4.368  -4.809  0.00  0.00    -0.078 A 
ATOM      5  C3  OXE d   1      -2.602  -4.939  -5.997  0.00  0.00     0.003 A 
ATOM      6  C4  OXE d   1      -1.493  -5.793  -5.999  0.00  0.00    -0.002 A 
ATOM      7  C5  OXE d   1      -0.750  -5.996  -4.831  0.00  0.00    -0.002 A 
ATOM      8  C6  OXE d   1      -1.120  -5.335  -3.665  0.00  0.00     0.003 A 
ENDROOT
TORSDOF 0
ENDMDL
