MODEL 1
REMARK minimizedAffinity -2.70324874
REMARK minimizedRMSD -1
REMARK  0 active torsions:
REMARK  status: ('A' for Active; 'I' for Inactive)
ROOT
ATOM      1  C2' OXE d   1      -5.268  -5.968  -6.000  0.00  0.00     0.078 C 
ATOM      2  C1' OXE d   1      -5.213  -4.066  -3.936  0.00  0.00     0.078 C 
ATOM      3  C1  OXE d   1      -3.893  -4.573  -4.461  0.00  0.00    -0.078 A 
ATOM      4  C2  OXE d   1      -3.929  -5.538  -5.439  0.00  0.00    -0.078 A 
ATOM      5  C3  OXE d   1      -2.741  -6.000  -5.996  0.00  0.00     0.003 A 
ATOM      6  C4  OXE d   1      -1.507  -5.604  -5.465  0.00  0.00    -0.002 A 
ATOM      7  C5  OXE d   1      -1.448  -4.651  -4.442  0.00  0.00    -0.002 A 
ATOM      8  C6  OXE d   1      -2.628  -4.096  -3.959  0.00  0.00     0.003 A 
ENDROOT
TORSDOF 0
ENDMDL
