MODEL 1
REMARK minimizedAffinity -1.90010083
REMARK minimizedRMSD -1
REMARK  0 active torsions:
REMARK  status: ('A' for Active; 'I' for Inactive)
ROOT
ATOM      1  C   UNL d   1       0.203   1.681  -0.469  0.00  0.00     0.172 C 
ATOM      2  N   UNL d   1       0.138   0.277  -0.137  0.00  0.00    -0.070 N 
ATOM      3  C1  UNL d   1      -0.592  -0.269   0.884  0.00  0.00    -0.004 A 
ATOM      4  C2  UNL d   1      -0.389  -1.632   0.867  0.00  0.00    -0.047 A 
ATOM      5  C3  UNL d   1       0.496  -1.914  -0.201  0.00  0.00    -0.047 A 
ATOM      6  C4  UNL d   1       0.806  -0.714  -0.806  0.00  0.00    -0.004 A 
ENDROOT
TORSDOF 0
ENDMDL
