MODEL 1
REMARK minimizedAffinity -2.26300406
REMARK minimizedRMSD -1
REMARK  0 active torsions:
REMARK  status: ('A' for Active; 'I' for Inactive)
ROOT
ATOM      1  C   UNL d   1      -0.307  -2.428   0.519  0.00  0.00     0.172 C 
ATOM      2  N   UNL d   1      -0.094  -1.031   0.219  0.00  0.00    -0.070 N 
ATOM      3  C1  UNL d   1       0.564  -0.542  -0.877  0.00  0.00    -0.004 A 
ATOM      4  C2  UNL d   1       0.552   0.834  -0.797  0.00  0.00    -0.047 A 
ATOM      5  C3  UNL d   1      -0.136   1.183   0.389  0.00  0.00    -0.047 A 
ATOM      6  C4  UNL d   1      -0.525   0.009   0.999  0.00  0.00    -0.004 A 
ENDROOT
TORSDOF 0
ENDMDL
