MODEL 1
REMARK minimizedAffinity -3.10135722
REMARK minimizedRMSD -1
REMARK  0 active torsions:
REMARK  status: ('A' for Active; 'I' for Inactive)
ROOT
ATOM      1  C   UNL d   1       0.367   0.608   0.029  0.00  0.00     0.172 C 
ATOM      2  N   UNL d   1       0.010  -0.778   0.215  0.00  0.00    -0.070 N 
ATOM      3  C1  UNL d   1       0.626  -1.848  -0.378  0.00  0.00    -0.004 A 
ATOM      4  C2  UNL d   1      -0.007  -2.993   0.054  0.00  0.00    -0.047 A 
ATOM      5  C3  UNL d   1      -1.040  -2.598   0.937  0.00  0.00    -0.047 A 
ATOM      6  C4  UNL d   1      -1.007  -1.222   1.018  0.00  0.00    -0.004 A 
ENDROOT
TORSDOF 0
ENDMDL
