MODEL 1
REMARK minimizedAffinity -2.76417804
REMARK minimizedRMSD -1
REMARK  0 active torsions:
REMARK  status: ('A' for Active; 'I' for Inactive)
ROOT
ATOM      1  C   UNL d   1       0.503  -2.585   0.382  0.00  0.00     0.172 C 
ATOM      2  N   UNL d   1       0.351  -1.213  -0.041  0.00  0.00    -0.070 N 
ATOM      3  C1  UNL d   1       0.811  -0.684  -1.217  0.00  0.00    -0.004 A 
ATOM      4  C2  UNL d   1       0.466   0.650  -1.244  0.00  0.00    -0.047 A 
ATOM      5  C3  UNL d   1      -0.225   0.933  -0.041  0.00  0.00    -0.047 A 
ATOM      6  C4  UNL d   1      -0.282  -0.238   0.685  0.00  0.00    -0.004 A 
ENDROOT
TORSDOF 0
ENDMDL
