MODEL 1
REMARK minimizedAffinity -3.40993071
REMARK minimizedRMSD -1
REMARK  0 active torsions:
REMARK  status: ('A' for Active; 'I' for Inactive)
ROOT
ATOM      1  C   UNL d   1       0.436   0.998  -1.288  0.00  0.00     0.172 C 
ATOM      2  N   UNL d   1       0.471  -0.283  -0.623  0.00  0.00    -0.070 N 
ATOM      3  C1  UNL d   1       1.118  -1.401  -1.077  0.00  0.00    -0.004 A 
ATOM      4  C2  UNL d   1       0.912  -2.410  -0.161  0.00  0.00    -0.047 A 
ATOM      5  C3  UNL d   1       0.112  -1.880   0.879  0.00  0.00    -0.047 A 
ATOM      6  C4  UNL d   1      -0.146  -0.562   0.568  0.00  0.00    -0.004 A 
ENDROOT
TORSDOF 0
ENDMDL
