MODEL 1
REMARK minimizedAffinity -2.17875576
REMARK minimizedRMSD -1
REMARK  0 active torsions:
REMARK  status: ('A' for Active; 'I' for Inactive)
ROOT
ATOM      1  C   UNL d   1      -0.012   1.364  -0.189  0.00  0.00     0.172 C 
ATOM      2  N   UNL d   1      -0.097  -0.071  -0.059  0.00  0.00    -0.070 N 
ATOM      3  C1  UNL d   1       0.026  -0.974  -1.082  0.00  0.00    -0.004 A 
ATOM      4  C2  UNL d   1      -0.115  -2.237  -0.549  0.00  0.00    -0.047 A 
ATOM      5  C3  UNL d   1      -0.331  -2.089   0.842  0.00  0.00    -0.047 A 
ATOM      6  C4  UNL d   1      -0.315  -0.738   1.118  0.00  0.00    -0.004 A 
ENDROOT
TORSDOF 0
ENDMDL
