MODEL 1
REMARK minimizedAffinity -4.24725151
REMARK minimizedRMSD -1
REMARK  0 active torsions:
REMARK  status: ('A' for Active; 'I' for Inactive)
ROOT
ATOM      1  C   UNL d   1      -0.039   0.461  -0.682  0.00  0.00     0.172 C 
ATOM      2  N   UNL d   1      -0.011  -0.983  -0.645  0.00  0.00    -0.070 N 
ATOM      3  C1  UNL d   1       0.164  -1.805  -1.726  0.00  0.00    -0.004 A 
ATOM      4  C2  UNL d   1       0.129  -3.107  -1.275  0.00  0.00    -0.047 A 
ATOM      5  C3  UNL d   1      -0.074  -3.065   0.124  0.00  0.00    -0.047 A 
ATOM      6  C4  UNL d   1      -0.157  -1.738   0.488  0.00  0.00    -0.004 A 
ENDROOT
TORSDOF 0
ENDMDL
