MODEL 1
REMARK minimizedAffinity -2.31947303
REMARK minimizedRMSD -1
REMARK  0 active torsions:
REMARK  status: ('A' for Active; 'I' for Inactive)
ROOT
ATOM      1  C   UNL d   1      -0.105   1.200  -0.907  0.00  0.00     0.172 C 
ATOM      2  N   UNL d   1      -0.137  -0.168  -0.447  0.00  0.00    -0.070 N 
ATOM      3  C1  UNL d   1      -0.936  -0.656   0.552  0.00  0.00    -0.004 A 
ATOM      4  C2  UNL d   1      -0.668  -2.001   0.688  0.00  0.00    -0.047 A 
ATOM      5  C3  UNL d   1       0.327  -2.333  -0.261  0.00  0.00    -0.047 A 
ATOM      6  C4  UNL d   1       0.638  -1.180  -0.950  0.00  0.00    -0.004 A 
ENDROOT
TORSDOF 0
ENDMDL
