MODEL 1
REMARK minimizedAffinity -2.64019585
REMARK minimizedRMSD -1
REMARK  0 active torsions:
REMARK  status: ('A' for Active; 'I' for Inactive)
ROOT
ATOM      1  C   UNL d   1      -0.020   0.357  -0.713  0.00  0.00     0.172 C 
ATOM      2  N   UNL d   1      -0.258  -1.030  -0.391  0.00  0.00    -0.070 N 
ATOM      3  C1  UNL d   1      -0.556  -1.521   0.853  0.00  0.00    -0.004 A 
ATOM      4  C2  UNL d   1      -0.710  -2.886   0.741  0.00  0.00    -0.047 A 
ATOM      5  C3  UNL d   1      -0.497  -3.228  -0.615  0.00  0.00    -0.047 A 
ATOM      6  C4  UNL d   1      -0.219  -2.060  -1.294  0.00  0.00    -0.004 A 
ENDROOT
TORSDOF 0
ENDMDL
