MODEL 1
REMARK minimizedAffinity -3.56415653
REMARK minimizedRMSD -1
REMARK  0 active torsions:
REMARK  status: ('A' for Active; 'I' for Inactive)
ROOT
ATOM      1  C   UNL d   1       0.059   0.599  -0.194  0.00  0.00     0.172 C 
ATOM      2  N   UNL d   1       0.124  -0.825   0.036  0.00  0.00    -0.070 N 
ATOM      3  C1  UNL d   1      -0.652  -1.528   0.918  0.00  0.00    -0.004 A 
ATOM      4  C2  UNL d   1      -0.285  -2.854   0.839  0.00  0.00    -0.047 A 
ATOM      5  C3  UNL d   1       0.748  -2.952  -0.123  0.00  0.00    -0.047 A 
ATOM      6  C4  UNL d   1       0.981  -1.681  -0.605  0.00  0.00    -0.004 A 
ENDROOT
TORSDOF 0
ENDMDL
