MODEL 1
REMARK minimizedAffinity -3.67185688
REMARK minimizedRMSD -1
REMARK  0 active torsions:
REMARK  status: ('A' for Active; 'I' for Inactive)
ROOT
ATOM      1  C   UNL d   1       0.578   1.188   0.333  0.00  0.00     0.172 C 
ATOM      2  N   UNL d   1       0.153  -0.192   0.378  0.00  0.00    -0.070 N 
ATOM      3  C1  UNL d   1       0.982  -1.282   0.395  0.00  0.00    -0.004 A 
ATOM      4  C2  UNL d   1       0.193  -2.411   0.441  0.00  0.00    -0.047 A 
ATOM      5  C3  UNL d   1      -1.157  -1.985   0.451  0.00  0.00    -0.047 A 
ATOM      6  C4  UNL d   1      -1.152  -0.606   0.411  0.00  0.00    -0.004 A 
ENDROOT
TORSDOF 0
ENDMDL
