MODEL 1
REMARK minimizedAffinity -3.16981411
REMARK minimizedRMSD -1
REMARK  0 active torsions:
REMARK  status: ('A' for Active; 'I' for Inactive)
ROOT
ATOM      1  C   UNL d   1      -0.262  -2.339   0.789  0.00  0.00     0.172 C 
ATOM      2  N   UNL d   1      -0.191  -1.060   0.122  0.00  0.00    -0.070 N 
ATOM      3  C1  UNL d   1       0.338  -0.838  -1.122  0.00  0.00    -0.004 A 
ATOM      4  C2  UNL d   1       0.217   0.507  -1.397  0.00  0.00    -0.047 A 
ATOM      5  C3  UNL d   1      -0.406   1.114  -0.280  0.00  0.00    -0.047 A 
ATOM      6  C4  UNL d   1      -0.647   0.120   0.645  0.00  0.00    -0.004 A 
ENDROOT
TORSDOF 0
ENDMDL
