MODEL 1
REMARK minimizedAffinity -2.98374844
REMARK minimizedRMSD -1
REMARK  0 active torsions:
REMARK  status: ('A' for Active; 'I' for Inactive)
ROOT
ATOM      1  C   UNL d   1      -0.576  -2.520   0.762  0.00  0.00     0.172 C 
ATOM      2  N   UNL d   1      -0.418  -1.134   0.391  0.00  0.00    -0.070 N 
ATOM      3  C1  UNL d   1      -0.870  -0.059   1.108  0.00  0.00    -0.004 A 
ATOM      4  C2  UNL d   1      -0.522   1.084   0.420  0.00  0.00    -0.047 A 
ATOM      5  C3  UNL d   1       0.162   0.681  -0.751  0.00  0.00    -0.047 A 
ATOM      6  C4  UNL d   1       0.212  -0.697  -0.744  0.00  0.00    -0.004 A 
ENDROOT
TORSDOF 0
ENDMDL
