MODEL 1
REMARK minimizedAffinity -2.99626923
REMARK minimizedRMSD -1
REMARK  0 active torsions:
REMARK  status: ('A' for Active; 'I' for Inactive)
ROOT
ATOM      1  C   UNL d   1      -0.530   1.243  -0.790  0.00  0.00     0.172 C 
ATOM      2  N   UNL d   1      -0.544  -0.075  -0.202  0.00  0.00    -0.070 N 
ATOM      3  C1  UNL d   1      -1.392  -0.500   0.786  0.00  0.00    -0.004 A 
ATOM      4  C2  UNL d   1      -1.086  -1.814   1.069  0.00  0.00    -0.047 A 
ATOM      5  C3  UNL d   1      -0.016  -2.191   0.223  0.00  0.00    -0.047 A 
ATOM      6  C4  UNL d   1       0.300  -1.096  -0.553  0.00  0.00    -0.004 A 
ENDROOT
TORSDOF 0
ENDMDL
