MODEL 1
REMARK minimizedAffinity -1.99614859
REMARK minimizedRMSD -1
REMARK  0 active torsions:
REMARK  status: ('A' for Active; 'I' for Inactive)
ROOT
ATOM      1  C1  BNZ d   1      -2.676   1.834   1.805  0.00  0.00     0.000 A 
ATOM      2  C2  BNZ d   1      -1.385   1.679   1.374  0.00  0.00     0.000 A 
ATOM      3  C3  BNZ d   1      -1.109   1.001   0.220  0.00  0.00     0.000 A 
ATOM      4  C4  BNZ d   1      -2.118   0.445  -0.480  0.00  0.00     0.000 A 
ATOM      5  C5  BNZ d   1      -3.424   0.585  -0.054  0.00  0.00     0.000 A 
ATOM      6  C6  BNZ d   1      -3.702   1.301   1.087  0.00  0.00     0.000 A 
ENDROOT
TORSDOF 0
ENDMDL
