MODEL 1
REMARK minimizedAffinity -3.92917085
REMARK minimizedRMSD -1
REMARK  0 active torsions:
REMARK  status: ('A' for Active; 'I' for Inactive)
ROOT
ATOM      1  C1  BNZ d   1       1.313  -1.679  -0.301  0.00  0.00     0.000 A 
ATOM      2  C2  BNZ d   1      -0.012  -1.592  -0.637  0.00  0.00     0.000 A 
ATOM      3  C3  BNZ d   1      -0.695  -0.417  -0.493  0.00  0.00     0.000 A 
ATOM      4  C4  BNZ d   1      -0.064   0.657   0.025  0.00  0.00     0.000 A 
ATOM      5  C5  BNZ d   1       1.269   0.582   0.377  0.00  0.00     0.000 A 
ATOM      6  C6  BNZ d   1       1.963  -0.591   0.194  0.00  0.00     0.000 A 
ENDROOT
TORSDOF 0
ENDMDL
