MODEL 1
REMARK minimizedAffinity -0.636449337
REMARK minimizedRMSD -1
REMARK  0 active torsions:
REMARK  status: ('A' for Active; 'I' for Inactive)
ROOT
ATOM      1  C1  BNZ d   1       0.316  -1.843   0.504  0.00  0.00     0.000 A 
ATOM      2  C2  BNZ d   1       1.552  -1.984   1.077  0.00  0.00     0.000 A 
ATOM      3  C3  BNZ d   1       2.682  -1.990   0.309  0.00  0.00     0.000 A 
ATOM      4  C4  BNZ d   1       2.573  -1.896  -1.032  0.00  0.00     0.000 A 
ATOM      5  C5  BNZ d   1       1.334  -1.763  -1.625  0.00  0.00     0.000 A 
ATOM      6  C6  BNZ d   1       0.201  -1.718  -0.846  0.00  0.00     0.000 A 
ENDROOT
TORSDOF 0
ENDMDL
