MODEL 1
REMARK minimizedAffinity -3.79844427
REMARK minimizedRMSD -1
REMARK  0 active torsions:
REMARK  status: ('A' for Active; 'I' for Inactive)
ROOT
ATOM      1  C1  BNZ d   1      -0.697  -0.579  -0.474  0.00  0.00     0.000 A 
ATOM      2  C2  BNZ d   1       0.031  -1.737  -0.413  0.00  0.00     0.000 A 
ATOM      3  C3  BNZ d   1       1.303  -1.739   0.086  0.00  0.00     0.000 A 
ATOM      4  C4  BNZ d   1       1.860  -0.578   0.486  0.00  0.00     0.000 A 
ATOM      5  C5  BNZ d   1       1.143   0.600   0.422  0.00  0.00     0.000 A 
ATOM      6  C6  BNZ d   1      -0.151   0.592  -0.044  0.00  0.00     0.000 A 
ENDROOT
TORSDOF 0
ENDMDL
