MODEL 1
REMARK minimizedAffinity -3.15062284
REMARK minimizedRMSD -1
REMARK  0 active torsions:
REMARK  status: ('A' for Active; 'I' for Inactive)
ROOT
ATOM      1  C1  BNZ d   1       1.734  -2.056  -0.288  0.00  0.00     0.000 A 
ATOM      2  C2  BNZ d   1       0.409  -1.790  -0.514  0.00  0.00     0.000 A 
ATOM      3  C3  BNZ d   1      -0.046  -0.503  -0.574  0.00  0.00     0.000 A 
ATOM      4  C4  BNZ d   1       0.815   0.515  -0.367  0.00  0.00     0.000 A 
ATOM      5  C5  BNZ d   1       2.151   0.263  -0.129  0.00  0.00     0.000 A 
ATOM      6  C6  BNZ d   1       2.613  -1.033  -0.108  0.00  0.00     0.000 A 
ENDROOT
TORSDOF 0
ENDMDL
