MODEL 1
REMARK minimizedAffinity -2.48403478
REMARK minimizedRMSD -1
REMARK  0 active torsions:
REMARK  status: ('A' for Active; 'I' for Inactive)
ROOT
ATOM      1  C1  BNZ d   1      -2.844   0.871   1.929  0.00  0.00     0.000 A 
ATOM      2  C2  BNZ d   1      -1.599   0.305   1.860  0.00  0.00     0.000 A 
ATOM      3  C3  BNZ d   1      -0.959   0.167   0.660  0.00  0.00     0.000 A 
ATOM      4  C4  BNZ d   1      -1.580   0.558  -0.472  0.00  0.00     0.000 A 
ATOM      5  C5  BNZ d   1      -2.839   1.122  -0.419  0.00  0.00     0.000 A 
ATOM      6  C6  BNZ d   1      -3.465   1.295   0.795  0.00  0.00     0.000 A 
ENDROOT
TORSDOF 0
ENDMDL
