MODEL 1
REMARK minimizedAffinity -3.1678946
REMARK minimizedRMSD -1
REMARK  0 active torsions:
REMARK  status: ('A' for Active; 'I' for Inactive)
ROOT
ATOM      1  C1  BNZ d   1      -1.003   0.493  -0.437  0.00  0.00     0.000 A 
ATOM      2  C2  BNZ d   1      -0.865  -0.796  -0.878  0.00  0.00     0.000 A 
ATOM      3  C3  BNZ d   1       0.239  -1.533  -0.551  0.00  0.00     0.000 A 
ATOM      4  C4  BNZ d   1       1.220  -0.968   0.182  0.00  0.00     0.000 A 
ATOM      5  C5  BNZ d   1       1.099   0.333   0.627  0.00  0.00     0.000 A 
ATOM      6  C6  BNZ d   1      -0.031   1.060   0.328  0.00  0.00     0.000 A 
ENDROOT
TORSDOF 0
ENDMDL
