MODEL 1
REMARK minimizedAffinity 22.2386742
REMARK minimizedRMSD -1
REMARK  0 active torsions:
REMARK  status: ('A' for Active; 'I' for Inactive)
ROOT
ATOM      1  C   UNL d   1       1.561   0.785  -2.175  0.00  0.00    -0.002 A 
ATOM      2  C1  UNL d   1       2.124  -0.398  -1.717  0.00  0.00     0.010 A 
ATOM      3  C2  UNL d   1       3.133  -0.378  -0.752  0.00  0.00     0.041 A 
ATOM      4  C3  UNL d   1       3.570   0.864  -0.249  0.00  0.00    -0.075 A 
ATOM      5  S   UNL d   1       4.792   1.132   0.937  0.00  0.00     0.015 SA
ATOM      6  C4  UNL d   1       4.595   2.823   0.865  0.00  0.00     0.022 A 
ATOM      7  C5  UNL d   1       3.625   3.192  -0.037  0.00  0.00     0.026 A 
ATOM      8  C6  UNL d   1       3.018   2.068  -0.694  0.00  0.00    -0.082 A 
ATOM      9  C7  UNL d   1       1.997   2.014  -1.673  0.00  0.00     0.045 A 
ENDROOT
TORSDOF 0
ENDMDL
