MODEL 1
REMARK minimizedAffinity 13.2258549
REMARK minimizedRMSD -1
REMARK  0 active torsions:
REMARK  status: ('A' for Active; 'I' for Inactive)
ROOT
ATOM      1  C   UNL d   1      -3.438  -2.243   5.376  0.00  0.00    -0.002 A 
ATOM      2  C1  UNL d   1      -2.248  -1.532   5.456  0.00  0.00     0.010 A 
ATOM      3  C2  UNL d   1      -2.259  -0.149   5.647  0.00  0.00     0.041 A 
ATOM      4  C3  UNL d   1      -3.496   0.514   5.759  0.00  0.00    -0.075 A 
ATOM      5  S   UNL d   1      -3.753   2.202   5.997  0.00  0.00     0.015 SA
ATOM      6  C4  UNL d   1      -5.448   2.020   5.999  0.00  0.00     0.022 A 
ATOM      7  C5  UNL d   1      -5.826   0.710   5.823  0.00  0.00     0.026 A 
ATOM      8  C6  UNL d   1      -4.707  -0.179   5.683  0.00  0.00    -0.082 A 
ATOM      9  C7  UNL d   1      -4.664  -1.581   5.488  0.00  0.00     0.045 A 
ENDROOT
TORSDOF 0
ENDMDL
