MODEL 1
REMARK minimizedAffinity 11.4740257
REMARK minimizedRMSD -1
REMARK  0 active torsions:
REMARK  status: ('A' for Active; 'I' for Inactive)
ROOT
ATOM      1  C   UNL d   1       5.989   0.687  -4.147  0.00  0.00    -0.002 A 
ATOM      2  C1  UNL d   1       6.000  -0.656  -3.799  0.00  0.00     0.010 A 
ATOM      3  C2  UNL d   1       4.930  -1.217  -3.098  0.00  0.00     0.041 A 
ATOM      4  C3  UNL d   1       3.838  -0.397  -2.751  0.00  0.00    -0.075 A 
ATOM      5  S   UNL d   1       2.418  -0.866  -1.894  0.00  0.00     0.015 SA
ATOM      6  C4  UNL d   1       1.763   0.706  -1.971  0.00  0.00     0.022 A 
ATOM      7  C5  UNL d   1       2.594   1.579  -2.631  0.00  0.00     0.026 A 
ATOM      8  C6  UNL d   1       3.804   0.958  -3.092  0.00  0.00    -0.082 A 
ATOM      9  C7  UNL d   1       4.904   1.497  -3.802  0.00  0.00     0.045 A 
ENDROOT
TORSDOF 0
ENDMDL
