MODEL 1
REMARK minimizedAffinity 12.7087336
REMARK minimizedRMSD -1
REMARK  0 active torsions:
REMARK  status: ('A' for Active; 'I' for Inactive)
ROOT
ATOM      1  C   UNL d   1      -3.962   5.860   5.826  0.00  0.00    -0.002 A 
ATOM      2  C1  UNL d   1      -5.346   5.788   5.762  0.00  0.00     0.010 A 
ATOM      3  C2  UNL d   1      -5.994   4.551   5.776  0.00  0.00     0.041 A 
ATOM      4  C3  UNL d   1      -5.220   3.377   5.857  0.00  0.00    -0.075 A 
ATOM      5  S   UNL d   1      -5.796   1.752   5.890  0.00  0.00     0.015 SA
ATOM      6  C4  UNL d   1      -4.218   1.116   5.991  0.00  0.00     0.022 A 
ATOM      7  C5  UNL d   1      -3.263   2.105   6.000  0.00  0.00     0.026 A 
ATOM      8  C6  UNL d   1      -3.824   3.424   5.924  0.00  0.00    -0.082 A 
ATOM      9  C7  UNL d   1      -3.197   4.693   5.907  0.00  0.00     0.045 A 
ENDROOT
TORSDOF 0
ENDMDL
