MODEL 1
REMARK minimizedAffinity 16.5724354
REMARK minimizedRMSD -1
REMARK  0 active torsions:
REMARK  status: ('A' for Active; 'I' for Inactive)
ROOT
ATOM      1  C   UNL d   1       0.908   1.212  -2.706  0.00  0.00    -0.002 A 
ATOM      2  C1  UNL d   1       1.468   0.025  -2.252  0.00  0.00     0.010 A 
ATOM      3  C2  UNL d   1       2.510   0.041  -1.323  0.00  0.00     0.041 A 
ATOM      4  C3  UNL d   1       2.984   1.281  -0.852  0.00  0.00    -0.075 A 
ATOM      5  S   UNL d   1       4.250   1.545   0.288  0.00  0.00     0.015 SA
ATOM      6  C4  UNL d   1       4.078   3.238   0.200  0.00  0.00     0.022 A 
ATOM      7  C5  UNL d   1       3.083   3.611  -0.672  0.00  0.00     0.026 A 
ATOM      8  C6  UNL d   1       2.436   2.489  -1.293  0.00  0.00    -0.082 A 
ATOM      9  C7  UNL d   1       1.381   2.440  -2.235  0.00  0.00     0.045 A 
ENDROOT
TORSDOF 0
ENDMDL
