MODEL 1
REMARK minimizedAffinity 23.1282864
REMARK minimizedRMSD -1
REMARK  0 active torsions:
REMARK  status: ('A' for Active; 'I' for Inactive)
ROOT
ATOM      1  C   UNL d   1      -0.082  -4.368   0.869  0.00  0.00    -0.002 A 
ATOM      2  C1  UNL d   1      -0.211  -5.391  -0.060  0.00  0.00     0.010 A 
ATOM      3  C2  UNL d   1      -0.528  -5.107  -1.390  0.00  0.00     0.041 A 
ATOM      4  C3  UNL d   1      -0.712  -3.764  -1.775  0.00  0.00    -0.075 A 
ATOM      5  S   UNL d   1      -1.104  -3.178  -3.348  0.00  0.00     0.015 SA
ATOM      6  C4  UNL d   1      -1.109  -1.556  -2.825  0.00  0.00     0.022 A 
ATOM      7  C5  UNL d   1      -0.821  -1.446  -1.485  0.00  0.00     0.026 A 
ATOM      8  C6  UNL d   1      -0.587  -2.717  -0.858  0.00  0.00    -0.082 A 
ATOM      9  C7  UNL d   1      -0.266  -3.038   0.483  0.00  0.00     0.045 A 
ENDROOT
TORSDOF 0
ENDMDL
