MODEL 1
REMARK minimizedAffinity 15.2708941
REMARK minimizedRMSD -1
REMARK  0 active torsions:
REMARK  status: ('A' for Active; 'I' for Inactive)
ROOT
ATOM      1  C   UNL d   1      -2.234  -2.490   5.329  0.00  0.00    -0.002 A 
ATOM      2  C1  UNL d   1      -1.277  -1.507   5.119  0.00  0.00     0.010 A 
ATOM      3  C2  UNL d   1      -1.619  -0.155   5.199  0.00  0.00     0.041 A 
ATOM      4  C3  UNL d   1      -2.950   0.195   5.497  0.00  0.00    -0.075 A 
ATOM      5  S   UNL d   1      -3.598   1.786   5.646  0.00  0.00     0.015 SA
ATOM      6  C4  UNL d   1      -5.160   1.198   5.993  0.00  0.00     0.022 A 
ATOM      7  C5  UNL d   1      -5.204  -0.176   5.998  0.00  0.00     0.026 A 
ATOM      8  C6  UNL d   1      -3.931  -0.777   5.713  0.00  0.00    -0.082 A 
ATOM      9  C7  UNL d   1      -3.553  -2.138   5.625  0.00  0.00     0.045 A 
ENDROOT
TORSDOF 0
ENDMDL
