MODEL 1
REMARK minimizedAffinity 12.3378706
REMARK minimizedRMSD -1
REMARK  0 active torsions:
REMARK  status: ('A' for Active; 'I' for Inactive)
ROOT
ATOM      1  C   UNL d   1      -2.725  -2.242   4.682  0.00  0.00    -0.002 A 
ATOM      2  C1  UNL d   1      -1.692  -1.331   4.854  0.00  0.00     0.010 A 
ATOM      3  C2  UNL d   1      -1.959  -0.022   5.260  0.00  0.00     0.041 A 
ATOM      4  C3  UNL d   1      -3.295   0.359   5.494  0.00  0.00    -0.075 A 
ATOM      5  S   UNL d   1      -3.860   1.908   5.999  0.00  0.00     0.015 SA
ATOM      6  C4  UNL d   1      -5.486   1.397   5.999  0.00  0.00     0.022 A 
ATOM      7  C5  UNL d   1      -5.613   0.080   5.626  0.00  0.00     0.026 A 
ATOM      8  C6  UNL d   1      -4.352  -0.540   5.329  0.00  0.00    -0.082 A 
ATOM      9  C7  UNL d   1      -4.049  -1.859   4.915  0.00  0.00     0.045 A 
ENDROOT
TORSDOF 0
ENDMDL
