MODEL 1
REMARK minimizedAffinity 15.5689173
REMARK minimizedRMSD -1
REMARK  0 active torsions:
REMARK  status: ('A' for Active; 'I' for Inactive)
ROOT
ATOM      1  C   UNL d   1      -5.690   1.428   5.510  0.00  0.00    -0.002 A 
ATOM      2  C1  UNL d   1      -4.579   2.110   5.987  0.00  0.00     0.010 A 
ATOM      3  C2  UNL d   1      -3.319   1.508   5.978  0.00  0.00     0.041 A 
ATOM      4  C3  UNL d   1      -3.192   0.198   5.475  0.00  0.00    -0.075 A 
ATOM      5  S   UNL d   1      -1.749  -0.738   5.365  0.00  0.00     0.015 SA
ATOM      6  C4  UNL d   1      -2.573  -2.065   4.682  0.00  0.00     0.022 A 
ATOM      7  C5  UNL d   1      -3.917  -1.816   4.534  0.00  0.00     0.026 A 
ATOM      8  C6  UNL d   1      -4.296  -0.508   4.989  0.00  0.00    -0.082 A 
ATOM      9  C7  UNL d   1      -5.560   0.129   5.012  0.00  0.00     0.045 A 
ENDROOT
TORSDOF 0
ENDMDL
