MODEL 1
REMARK minimizedAffinity 9.7084074
REMARK minimizedRMSD -1
REMARK  0 active torsions:
REMARK  status: ('A' for Active; 'I' for Inactive)
ROOT
ATOM      1  C   UNL d   1      -1.277  -1.173   0.060  0.00  0.00    -0.002 A 
ATOM      2  C1  UNL d   1      -2.139  -1.160   1.147  0.00  0.00     0.010 A 
ATOM      3  C2  UNL d   1      -2.267  -2.283   1.966  0.00  0.00     0.041 A 
ATOM      4  C3  UNL d   1      -1.504  -3.431   1.673  0.00  0.00    -0.075 A 
ATOM      5  S   UNL d   1      -1.496  -4.923   2.537  0.00  0.00     0.015 SA
ATOM      6  C4  UNL d   1      -0.347  -5.612   1.484  0.00  0.00     0.022 A 
ATOM      7  C5  UNL d   1       0.032  -4.740   0.492  0.00  0.00     0.026 A 
ATOM      8  C6  UNL d   1      -0.628  -3.468   0.584  0.00  0.00    -0.082 A 
ATOM      9  C7  UNL d   1      -0.522  -2.313  -0.228  0.00  0.00     0.045 A 
ENDROOT
TORSDOF 0
ENDMDL
