MODEL 1
REMARK minimizedAffinity 16.5636654
REMARK minimizedRMSD -1
REMARK  0 active torsions:
REMARK  status: ('A' for Active; 'I' for Inactive)
ROOT
ATOM      1  C   UNL d   1      -2.561  -0.503  -2.845  0.00  0.00    -0.002 A 
ATOM      2  C1  UNL d   1      -3.483  -0.187  -1.857  0.00  0.00     0.010 A 
ATOM      3  C2  UNL d   1      -3.375  -0.742  -0.581  0.00  0.00     0.041 A 
ATOM      4  C3  UNL d   1      -2.314  -1.629  -0.311  0.00  0.00    -0.075 A 
ATOM      5  S   UNL d   1      -1.982  -2.429   1.180  0.00  0.00     0.015 SA
ATOM      6  C4  UNL d   1      -0.608  -3.209   0.540  0.00  0.00     0.022 A 
ATOM      7  C5  UNL d   1      -0.393  -2.879  -0.777  0.00  0.00     0.026 A 
ATOM      8  C6  UNL d   1      -1.373  -1.962  -1.289  0.00  0.00    -0.082 A 
ATOM      9  C7  UNL d   1      -1.510  -1.382  -2.573  0.00  0.00     0.045 A 
ENDROOT
TORSDOF 0
ENDMDL
