MODEL 1
REMARK minimizedAffinity -3.83773637
REMARK minimizedRMSD -1
REMARK  0 active torsions:
REMARK  status: ('A' for Active; 'I' for Inactive)
ROOT
ATOM      1  C1  BNZ d   1      -1.942   0.941   1.394  0.00  0.00     0.000 A 
ATOM      2  C2  BNZ d   1      -1.920   0.806   0.031  0.00  0.00     0.000 A 
ATOM      3  C3  BNZ d   1      -0.809   0.332  -0.607  0.00  0.00     0.000 A 
ATOM      4  C4  BNZ d   1       0.292   0.032   0.112  0.00  0.00     0.000 A 
ATOM      5  C5  BNZ d   1       0.289   0.173   1.485  0.00  0.00     0.000 A 
ATOM      6  C6  BNZ d   1      -0.844   0.613   2.129  0.00  0.00     0.000 A 
ENDROOT
TORSDOF 0
ENDMDL
