MODEL 1
REMARK minimizedAffinity -2.50417829
REMARK minimizedRMSD -1
REMARK  0 active torsions:
REMARK  status: ('A' for Active; 'I' for Inactive)
ROOT
ATOM      1  C1  BNZ d   1      -0.985   0.398  -0.388  0.00  0.00     0.000 A 
ATOM      2  C2  BNZ d   1      -1.982   1.158   0.164  0.00  0.00     0.000 A 
ATOM      3  C3  BNZ d   1      -2.081   1.305   1.519  0.00  0.00     0.000 A 
ATOM      4  C4  BNZ d   1      -1.209   0.661   2.322  0.00  0.00     0.000 A 
ATOM      5  C5  BNZ d   1      -0.204  -0.116   1.781  0.00  0.00     0.000 A 
ATOM      6  C6  BNZ d   1      -0.083  -0.230   0.415  0.00  0.00     0.000 A 
ENDROOT
TORSDOF 0
ENDMDL
