MODEL 1
REMARK minimizedAffinity -3.72030616
REMARK minimizedRMSD -1
REMARK  0 active torsions:
REMARK  status: ('A' for Active; 'I' for Inactive)
ROOT
ATOM      1  C1  BNZ d   1       0.578  -0.574   0.944  0.00  0.00     0.000 A 
ATOM      2  C2  BNZ d   1       0.279  -0.444   2.274  0.00  0.00     0.000 A 
ATOM      3  C3  BNZ d   1      -0.765   0.339   2.683  0.00  0.00     0.000 A 
ATOM      4  C4  BNZ d   1      -1.481   1.021   1.766  0.00  0.00     0.000 A 
ATOM      5  C5  BNZ d   1      -1.185   0.908   0.423  0.00  0.00     0.000 A 
ATOM      6  C6  BNZ d   1      -0.159   0.089   0.011  0.00  0.00     0.000 A 
ENDROOT
TORSDOF 0
ENDMDL
