MODEL 1
REMARK minimizedAffinity -0.914467335
REMARK minimizedRMSD -1
REMARK  0 active torsions:
REMARK  status: ('A' for Active; 'I' for Inactive)
ROOT
ATOM      1  C1  BNZ d   1      -1.714   0.722   2.000  0.00  0.00     0.000 A 
ATOM      2  C2  BNZ d   1      -1.682   0.640   0.634  0.00  0.00     0.000 A 
ATOM      3  C3  BNZ d   1      -0.589   0.132  -0.011  0.00  0.00     0.000 A 
ATOM      4  C4  BNZ d   1       0.485  -0.255   0.708  0.00  0.00     0.000 A 
ATOM      5  C5  BNZ d   1       0.471  -0.169   2.086  0.00  0.00     0.000 A 
ATOM      6  C6  BNZ d   1      -0.646   0.306   2.733  0.00  0.00     0.000 A 
ENDROOT
TORSDOF 0
ENDMDL
