MODEL 1
REMARK minimizedAffinity 0.867187321
REMARK minimizedRMSD -1
REMARK  0 active torsions:
REMARK  status: ('A' for Active; 'I' for Inactive)
ROOT
ATOM      1  C1  BNZ d   1      -1.057  -0.929  -0.783  0.00  0.00     0.000 A 
ATOM      2  C2  BNZ d   1      -2.378  -0.983  -1.140  0.00  0.00     0.000 A 
ATOM      3  C3  BNZ d   1      -3.306  -0.202  -0.509  0.00  0.00     0.000 A 
ATOM      4  C4  BNZ d   1      -2.918   0.602   0.502  0.00  0.00     0.000 A 
ATOM      5  C5  BNZ d   1      -1.592   0.661   0.879  0.00  0.00     0.000 A 
ATOM      6  C6  BNZ d   1      -0.655  -0.098   0.217  0.00  0.00     0.000 A 
ENDROOT
TORSDOF 0
ENDMDL
