MODEL 1
REMARK minimizedAffinity -1.65786135
REMARK minimizedRMSD -1
REMARK  0 active torsions:
REMARK  status: ('A' for Active; 'I' for Inactive)
ROOT
ATOM      1  C1  BNZ d   1       2.181   0.884  -2.905  0.00  0.00     0.000 A 
ATOM      2  C2  BNZ d   1       1.639   0.346  -1.768  0.00  0.00     0.000 A 
ATOM      3  C3  BNZ d   1       0.507  -0.417  -1.825  0.00  0.00     0.000 A 
ATOM      4  C4  BNZ d   1      -0.105  -0.607  -3.012  0.00  0.00     0.000 A 
ATOM      5  C5  BNZ d   1       0.424  -0.063  -4.166  0.00  0.00     0.000 A 
ATOM      6  C6  BNZ d   1       1.586   0.672  -4.110  0.00  0.00     0.000 A 
ENDROOT
TORSDOF 0
ENDMDL
