MODEL 1
REMARK minimizedAffinity -1.45220661
REMARK minimizedRMSD -1
REMARK  0 active torsions:
REMARK  status: ('A' for Active; 'I' for Inactive)
ROOT
ATOM      1  C1  BNZ d   1      -2.069   1.546   1.597  0.00  0.00     0.000 A 
ATOM      2  C2  BNZ d   1      -2.920   1.604   0.525  0.00  0.00     0.000 A 
ATOM      3  C3  BNZ d   1      -3.071   0.531  -0.308  0.00  0.00     0.000 A 
ATOM      4  C4  BNZ d   1      -2.342  -0.583  -0.092  0.00  0.00     0.000 A 
ATOM      5  C5  BNZ d   1      -1.473  -0.654   0.978  0.00  0.00     0.000 A 
ATOM      6  C6  BNZ d   1      -1.352   0.414   1.837  0.00  0.00     0.000 A 
ENDROOT
TORSDOF 0
ENDMDL
