MODEL 1
REMARK minimizedAffinity 6.56509972
REMARK minimizedRMSD -1
REMARK  2 active torsions:
REMARK  status: ('A' for Active; 'I' for Inactive)
REMARK    1  A    between atoms: C2'_3  and  C1'_4 
REMARK    2  A    between atoms: C1'_4  and  C1_5 
ROOT
ATOM      1  C1  I4B d   1       4.373   4.572  -2.257  0.00  0.00    -0.075 A 
ATOM      2  C2  I4B d   1       5.269   5.609  -2.186  0.00  0.00     0.003 A 
ATOM      3  C3  I4B d   1       5.999   6.000  -3.335  0.00  0.00     0.002 A 
ATOM      4  C4  I4B d   1       5.840   5.299  -4.513  0.00  0.00    -0.004 A 
ATOM      5  C5  I4B d   1       4.914   4.263  -4.589  0.00  0.00     0.002 A 
ATOM      6  C6  I4B d   1       4.166   3.904  -3.458  0.00  0.00     0.003 A 
ENDROOT
BRANCH   1   7
ATOM      7  C1' I4B d   1       3.643   4.164  -1.017  0.00  0.00     0.060 C 
BRANCH   7   8
ATOM      8  C2' I4B d   1       2.157   4.234  -1.305  0.00  0.00    -0.013 C 
ATOM      9  C4' I4B d   1       1.791   3.385  -2.494  0.00  0.00     0.013 C 
ATOM     10  C3' I4B d   1       1.425   3.788  -0.075  0.00  0.00     0.013 C 
ENDBRANCH   7   8
ENDBRANCH   1   7
TORSDOF 2
ENDMDL
