MODEL 1
REMARK minimizedAffinity 2.39225245
REMARK minimizedRMSD -1
REMARK  2 active torsions:
REMARK  status: ('A' for Active; 'I' for Inactive)
REMARK    1  A    between atoms: C2'_3  and  C1'_4 
REMARK    2  A    between atoms: C1'_4  and  C1_5 
ROOT
ATOM      1  C1  I4B d   1       3.449   5.058  -2.420  0.00  0.00    -0.075 A 
ATOM      2  C2  I4B d   1       3.781   4.447  -3.603  0.00  0.00     0.003 A 
ATOM      3  C3  I4B d   1       5.082   4.595  -4.142  0.00  0.00     0.002 A 
ATOM      4  C4  I4B d   1       5.998   5.398  -3.494  0.00  0.00    -0.004 A 
ATOM      5  C5  I4B d   1       5.668   5.998  -2.283  0.00  0.00     0.002 A 
ATOM      6  C6  I4B d   1       4.389   5.817  -1.735  0.00  0.00     0.003 A 
ENDROOT
BRANCH   1   7
ATOM      7  C1' I4B d   1       2.056   4.907  -1.896  0.00  0.00     0.060 C 
BRANCH   7   8
ATOM      8  C2' I4B d   1       2.133   4.802  -0.387  0.00  0.00    -0.013 C 
ATOM      9  C4' I4B d   1       1.385   5.929   0.277  0.00  0.00     0.013 C 
ATOM     10  C3' I4B d   1       1.574   3.470   0.014  0.00  0.00     0.013 C 
ENDBRANCH   7   8
ENDBRANCH   1   7
TORSDOF 2
ENDMDL
