MODEL 1
REMARK minimizedAffinity 2.97775936
REMARK minimizedRMSD -1
REMARK  2 active torsions:
REMARK  status: ('A' for Active; 'I' for Inactive)
REMARK    1  A    between atoms: C2'_3  and  C1'_4 
REMARK    2  A    between atoms: C1'_4  and  C1_5 
ROOT
ATOM      1  C1  I4B d   1       2.680   4.274  -1.561  0.00  0.00    -0.075 A 
ATOM      2  C2  I4B d   1       4.035   4.492  -1.542  0.00  0.00     0.003 A 
ATOM      3  C3  I4B d   1       4.665   5.159  -2.621  0.00  0.00     0.002 A 
ATOM      4  C4  I4B d   1       3.915   5.543  -3.714  0.00  0.00    -0.004 A 
ATOM      5  C5  I4B d   1       2.537   5.342  -3.721  0.00  0.00     0.002 A 
ATOM      6  C6  I4B d   1       1.914   4.715  -2.633  0.00  0.00     0.003 A 
ENDROOT
BRANCH   1   7
ATOM      7  C1' I4B d   1       2.052   3.538  -0.421  0.00  0.00     0.060 C 
BRANCH   7   8
ATOM      8  C2' I4B d   1       0.696   4.159  -0.154  0.00  0.00    -0.013 C 
ATOM      9  C4' I4B d   1      -0.415   3.181  -0.428  0.00  0.00     0.013 C 
ATOM     10  C3' I4B d   1       0.671   4.621   1.273  0.00  0.00     0.013 C 
ENDBRANCH   7   8
ENDBRANCH   1   7
TORSDOF 2
ENDMDL
