MODEL 1
REMARK minimizedAffinity -0.336292446
REMARK minimizedRMSD -1
REMARK  2 active torsions:
REMARK  status: ('A' for Active; 'I' for Inactive)
REMARK    1  A    between atoms: C2'_3  and  C1'_4 
REMARK    2  A    between atoms: C1'_4  and  C1_5 
ROOT
ATOM      1  C1  I4B d   1       4.798   4.719  -3.323  0.00  0.00    -0.075 A 
ATOM      2  C2  I4B d   1       4.503   3.735  -4.233  0.00  0.00     0.003 A 
ATOM      3  C3  I4B d   1       4.969   3.834  -5.566  0.00  0.00     0.002 A 
ATOM      4  C4  I4B d   1       5.679   4.951  -5.957  0.00  0.00    -0.004 A 
ATOM      5  C5  I4B d   1       5.997   5.937  -5.027  0.00  0.00     0.002 A 
ATOM      6  C6  I4B d   1       5.565   5.815  -3.699  0.00  0.00     0.003 A 
ENDROOT
BRANCH   1   7
ATOM      7  C1' I4B d   1       4.262   4.599  -1.931  0.00  0.00     0.060 C 
BRANCH   7   8
ATOM      8  C2' I4B d   1       2.749   4.585  -2.014  0.00  0.00    -0.013 C 
ATOM      9  C4' I4B d   1       2.134   4.256  -0.679  0.00  0.00     0.013 C 
ATOM     10  C3' I4B d   1       2.300   5.930  -2.500  0.00  0.00     0.013 C 
ENDBRANCH   7   8
ENDBRANCH   1   7
TORSDOF 2
ENDMDL
