MODEL 1
REMARK minimizedAffinity 2.46332455
REMARK minimizedRMSD -1
REMARK  2 active torsions:
REMARK  status: ('A' for Active; 'I' for Inactive)
REMARK    1  A    between atoms: C2'_3  and  C1'_4 
REMARK    2  A    between atoms: C1'_4  and  C1_5 
ROOT
ATOM      1  C1  I4B d   1       4.717   4.705  -3.297  0.00  0.00    -0.075 A 
ATOM      2  C2  I4B d   1       3.565   4.734  -2.551  0.00  0.00     0.003 A 
ATOM      3  C3  I4B d   1       3.539   5.409  -1.306  0.00  0.00     0.002 A 
ATOM      4  C4  I4B d   1       4.692   5.994  -0.826  0.00  0.00    -0.004 A 
ATOM      5  C5  I4B d   1       5.853   5.985  -1.595  0.00  0.00     0.002 A 
ATOM      6  C6  I4B d   1       5.862   5.347  -2.844  0.00  0.00     0.003 A 
ENDROOT
BRANCH   1   7
ATOM      7  C1' I4B d   1       4.719   3.956  -4.592  0.00  0.00     0.060 C 
BRANCH   7   8
ATOM      8  C2' I4B d   1       4.648   4.967  -5.717  0.00  0.00    -0.013 C 
ATOM      9  C4' I4B d   1       3.583   6.000  -5.456  0.00  0.00     0.013 C 
ATOM     10  C3' I4B d   1       5.999   5.604  -5.853  0.00  0.00     0.013 C 
ENDBRANCH   7   8
ENDBRANCH   1   7
TORSDOF 2
ENDMDL
