MODEL 1
REMARK minimizedAffinity -0.640410602
REMARK minimizedRMSD -1
REMARK  2 active torsions:
REMARK  status: ('A' for Active; 'I' for Inactive)
REMARK    1  A    between atoms: C2'_3  and  C1'_4 
REMARK    2  A    between atoms: C1'_4  and  C1_5 
ROOT
ATOM      1  C1  I4B d   1       4.581   4.850  -3.132  0.00  0.00    -0.075 A 
ATOM      2  C2  I4B d   1       5.396   3.829  -3.553  0.00  0.00     0.003 A 
ATOM      3  C3  I4B d   1       5.998   3.880  -4.833  0.00  0.00     0.002 A 
ATOM      4  C4  I4B d   1       5.720   4.938  -5.674  0.00  0.00    -0.004 A 
ATOM      5  C5  I4B d   1       4.912   5.984  -5.236  0.00  0.00     0.002 A 
ATOM      6  C6  I4B d   1       4.348   5.945  -3.953  0.00  0.00     0.003 A 
ENDROOT
BRANCH   1   7
ATOM      7  C1' I4B d   1       3.935   4.748  -1.786  0.00  0.00     0.060 C 
BRANCH   7   8
ATOM      8  C2' I4B d   1       2.456   4.494  -1.997  0.00  0.00    -0.013 C 
ATOM      9  C4' I4B d   1       2.228   3.443  -3.051  0.00  0.00     0.013 C 
ATOM     10  C3' I4B d   1       1.866   4.080  -0.682  0.00  0.00     0.013 C 
ENDBRANCH   7   8
ENDBRANCH   1   7
TORSDOF 2
ENDMDL
