MODEL 1
REMARK minimizedAffinity 0.827325284
REMARK minimizedRMSD -1
REMARK  2 active torsions:
REMARK  status: ('A' for Active; 'I' for Inactive)
REMARK    1  A    between atoms: C2'_3  and  C1'_4 
REMARK    2  A    between atoms: C1'_4  and  C1_5 
ROOT
ATOM      1  C1  I4B d   1       4.868   5.100  -3.711  0.00  0.00    -0.075 A 
ATOM      2  C2  I4B d   1       5.875   5.301  -4.622  0.00  0.00     0.003 A 
ATOM      3  C3  I4B d   1       6.000   4.447  -5.745  0.00  0.00     0.002 A 
ATOM      4  C4  I4B d   1       5.134   3.382  -5.889  0.00  0.00    -0.004 A 
ATOM      5  C5  I4B d   1       4.101   3.194  -4.976  0.00  0.00     0.002 A 
ATOM      6  C6  I4B d   1       3.959   4.065  -3.886  0.00  0.00     0.003 A 
ENDROOT
BRANCH   1   7
ATOM      7  C1' I4B d   1       4.785   6.000  -2.519  0.00  0.00     0.060 C 
BRANCH   7   8
ATOM      8  C2' I4B d   1       5.053   5.165  -1.283  0.00  0.00    -0.013 C 
ATOM      9  C4' I4B d   1       5.999   5.866  -0.345  0.00  0.00     0.013 C 
ATOM     10  C3' I4B d   1       3.738   4.887  -0.618  0.00  0.00     0.013 C 
ENDBRANCH   7   8
ENDBRANCH   1   7
TORSDOF 2
ENDMDL
