MODEL 1
REMARK minimizedAffinity 12.2121792
REMARK minimizedRMSD -1
REMARK  2 active torsions:
REMARK  status: ('A' for Active; 'I' for Inactive)
REMARK    1  A    between atoms: C2'_3  and  C1'_4 
REMARK    2  A    between atoms: C1'_4  and  C1_5 
ROOT
ATOM      1  C1  I4B d   1       3.582   5.776  -2.997  0.00  0.00    -0.075 A 
ATOM      2  C2  I4B d   1       4.767   5.725  -2.307  0.00  0.00     0.003 A 
ATOM      3  C3  I4B d   1       5.999   5.825  -2.999  0.00  0.00     0.002 A 
ATOM      4  C4  I4B d   1       6.000   5.924  -4.375  0.00  0.00    -0.004 A 
ATOM      5  C5  I4B d   1       4.796   5.999  -5.071  0.00  0.00     0.002 A 
ATOM      6  C6  I4B d   1       3.579   5.937  -4.377  0.00  0.00     0.003 A 
ENDROOT
BRANCH   1   7
ATOM      7  C1' I4B d   1       2.300   5.634  -2.239  0.00  0.00     0.060 C 
BRANCH   7   8
ATOM      8  C2' I4B d   1       1.969   4.158  -2.155  0.00  0.00    -0.013 C 
ATOM      9  C4' I4B d   1       2.784   3.359  -3.137  0.00  0.00     0.013 C 
ATOM     10  C3' I4B d   1       2.221   3.706  -0.747  0.00  0.00     0.013 C 
ENDBRANCH   7   8
ENDBRANCH   1   7
TORSDOF 2
ENDMDL
