MODEL 1
REMARK minimizedAffinity 5.49693918
REMARK minimizedRMSD -1
REMARK  2 active torsions:
REMARK  status: ('A' for Active; 'I' for Inactive)
REMARK    1  A    between atoms: C2'_3  and  C1'_4 
REMARK    2  A    between atoms: C1'_4  and  C1_5 
ROOT
ATOM      1  C1  I4B d   1       3.655   4.849  -2.639  0.00  0.00    -0.075 A 
ATOM      2  C2  I4B d   1       3.641   4.023  -3.736  0.00  0.00     0.003 A 
ATOM      3  C3  I4B d   1       4.827   3.808  -4.480  0.00  0.00     0.002 A 
ATOM      4  C4  I4B d   1       5.983   4.472  -4.125  0.00  0.00    -0.004 A 
ATOM      5  C5  I4B d   1       6.000   5.291  -3.000  0.00  0.00     0.002 A 
ATOM      6  C6  I4B d   1       4.832   5.471  -2.244  0.00  0.00     0.003 A 
ENDROOT
BRANCH   1   7
ATOM      7  C1' I4B d   1       2.378   5.080  -1.896  0.00  0.00     0.060 C 
BRANCH   7   8
ATOM      8  C2' I4B d   1       1.884   3.741  -1.388  0.00  0.00    -0.013 C 
ATOM      9  C4' I4B d   1       1.308   3.861  -0.002  0.00  0.00     0.013 C 
ATOM     10  C3' I4B d   1       0.861   3.227  -2.357  0.00  0.00     0.013 C 
ENDBRANCH   7   8
ENDBRANCH   1   7
TORSDOF 2
ENDMDL
