MODEL 1
REMARK minimizedAffinity 12.5957928
REMARK minimizedRMSD -1
REMARK  2 active torsions:
REMARK  status: ('A' for Active; 'I' for Inactive)
REMARK    1  A    between atoms: C2'_3  and  C1'_4 
REMARK    2  A    between atoms: C1'_4  and  C1_5 
ROOT
ATOM      1  C1  I4B d   1       2.711   4.908  -1.713  0.00  0.00    -0.075 A 
ATOM      2  C2  I4B d   1       2.854   5.265  -3.031  0.00  0.00     0.003 A 
ATOM      3  C3  I4B d   1       4.135   5.263  -3.635  0.00  0.00     0.002 A 
ATOM      4  C4  I4B d   1       5.244   4.948  -2.876  0.00  0.00    -0.004 A 
ATOM      5  C5  I4B d   1       5.094   4.564  -1.546  0.00  0.00     0.002 A 
ATOM      6  C6  I4B d   1       3.819   4.532  -0.964  0.00  0.00     0.003 A 
ENDROOT
BRANCH   1   7
ATOM      7  C1' I4B d   1       1.348   4.954  -1.098  0.00  0.00     0.060 C 
BRANCH   7   8
ATOM      8  C2' I4B d   1       1.487   4.608   0.371  0.00  0.00    -0.013 C 
ATOM      9  C4' I4B d   1       1.187   5.800   1.242  0.00  0.00     0.013 C 
ATOM     10  C3' I4B d   1       0.556   3.471   0.669  0.00  0.00     0.013 C 
ENDBRANCH   7   8
ENDBRANCH   1   7
TORSDOF 2
ENDMDL
