MODEL 1
REMARK minimizedAffinity 4.87312365
REMARK minimizedRMSD -1
REMARK  2 active torsions:
REMARK  status: ('A' for Active; 'I' for Inactive)
REMARK    1  A    between atoms: C2'_3  and  C1'_4 
REMARK    2  A    between atoms: C1'_4  and  C1_5 
ROOT
ATOM      1  C1  I4B d   1       5.220   5.100  -3.836  0.00  0.00    -0.075 A 
ATOM      2  C2  I4B d   1       5.991   4.002  -4.126  0.00  0.00     0.003 A 
ATOM      3  C3  I4B d   1       5.606   3.114  -5.160  0.00  0.00     0.002 A 
ATOM      4  C4  I4B d   1       4.425   3.334  -5.840  0.00  0.00    -0.004 A 
ATOM      5  C5  I4B d   1       3.657   4.460  -5.560  0.00  0.00     0.002 A 
ATOM      6  C6  I4B d   1       4.063   5.356  -4.560  0.00  0.00     0.003 A 
ENDROOT
BRANCH   1   7
ATOM      7  C1' I4B d   1       5.639   5.999  -2.716  0.00  0.00     0.060 C 
BRANCH   7   8
ATOM      8  C2' I4B d   1       5.301   5.306  -1.411  0.00  0.00    -0.013 C 
ATOM      9  C4' I4B d   1       5.996   5.965  -0.249  0.00  0.00     0.013 C 
ATOM     10  C3' I4B d   1       3.811   5.341  -1.241  0.00  0.00     0.013 C 
ENDBRANCH   7   8
ENDBRANCH   1   7
TORSDOF 2
ENDMDL
