MODEL 1
REMARK minimizedAffinity 15.6160517
REMARK minimizedRMSD -1
REMARK  2 active torsions:
REMARK  status: ('A' for Active; 'I' for Inactive)
REMARK    1  A    between atoms: C2'_3  and  C1'_4 
REMARK    2  A    between atoms: C1'_4  and  C1_5 
ROOT
ATOM      1  C1  I4B d   1       3.432   5.255  -2.655  0.00  0.00    -0.075 A 
ATOM      2  C2  I4B d   1       3.434   5.795  -1.393  0.00  0.00     0.003 A 
ATOM      3  C3  I4B d   1       2.772   5.130  -0.332  0.00  0.00     0.002 A 
ATOM      4  C4  I4B d   1       2.081   3.963  -0.587  0.00  0.00    -0.004 A 
ATOM      5  C5  I4B d   1       2.099   3.405  -1.862  0.00  0.00     0.002 A 
ATOM      6  C6  I4B d   1       2.789   4.049  -2.900  0.00  0.00     0.003 A 
ENDROOT
BRANCH   1   7
ATOM      7  C1' I4B d   1       4.113   6.000  -3.758  0.00  0.00     0.060 C 
BRANCH   7   8
ATOM      8  C2' I4B d   1       5.609   5.842  -3.574  0.00  0.00    -0.013 C 
ATOM      9  C4' I4B d   1       5.999   5.999  -2.128  0.00  0.00     0.013 C 
ATOM     10  C3' I4B d   1       6.000   4.492  -4.097  0.00  0.00     0.013 C 
ENDBRANCH   7   8
ENDBRANCH   1   7
TORSDOF 2
ENDMDL
