MODEL 1
REMARK minimizedAffinity -1.64877379
REMARK minimizedRMSD -1
REMARK  1 active torsions:
REMARK  status: ('A' for Active; 'I' for Inactive)
REMARK    1  A    between atoms: C1_2  and  C2_3 
ROOT
ATOM      1  C2  UNL d   1       0.967  -0.339  -0.708  0.00  0.00    -0.076 A 
ATOM      2  C3  UNL d   1       0.858   1.059  -0.799  0.00  0.00     0.004 A 
ATOM      3  C4  UNL d   1      -0.225   1.733  -0.237  0.00  0.00    -0.003 A 
ATOM      4  C5  UNL d   1      -1.216   1.018   0.427  0.00  0.00     0.000 A 
ATOM      5  C6  UNL d   1      -1.115  -0.368   0.543  0.00  0.00     0.000 A 
ATOM      6  C7  UNL d   1      -0.021  -1.060  -0.004  0.00  0.00    -0.073 A 
ATOM      7  C8  UNL d   1       0.034  -2.556   0.145  0.00  0.00     0.078 C 
ENDROOT
BRANCH   1   8
ATOM      8  C1  UNL d   1       2.150  -1.018  -1.361  0.00  0.00     0.053 C 
ATOM      9  C   UNL d   1       2.731  -0.203  -2.506  0.00  0.00     0.018 C 
ENDBRANCH   1   8
TORSDOF 1
ENDMDL
