MODEL 1
REMARK minimizedAffinity -5.45782518
REMARK minimizedRMSD -1
REMARK  1 active torsions:
REMARK  status: ('A' for Active; 'I' for Inactive)
REMARK    1  A    between atoms: C1_2  and  C2_3 
ROOT
ATOM      1  C2  UNL d   1       0.877  -0.749  -0.668  0.00  0.00    -0.076 A 
ATOM      2  C3  UNL d   1       2.012  -1.000  -1.458  0.00  0.00     0.004 A 
ATOM      3  C4  UNL d   1       2.419  -0.095  -2.437  0.00  0.00    -0.003 A 
ATOM      4  C5  UNL d   1       1.697   1.077  -2.641  0.00  0.00     0.000 A 
ATOM      5  C6  UNL d   1       0.579   1.350  -1.854  0.00  0.00     0.000 A 
ATOM      6  C7  UNL d   1       0.165   0.456  -0.852  0.00  0.00    -0.073 A 
ATOM      7  C8  UNL d   1      -1.052   0.798  -0.037  0.00  0.00     0.078 C 
ENDROOT
BRANCH   1   8
ATOM      8  C1  UNL d   1       0.467  -1.780   0.360  0.00  0.00     0.053 C 
ATOM      9  C   UNL d   1      -0.764  -2.566  -0.062  0.00  0.00     0.018 C 
ENDBRANCH   1   8
TORSDOF 1
ENDMDL
