MODEL 1
REMARK minimizedAffinity -4.94173574
REMARK minimizedRMSD -1
REMARK  1 active torsions:
REMARK  status: ('A' for Active; 'I' for Inactive)
REMARK    1  A    between atoms: C1_2  and  C2_3 
ROOT
ATOM      1  C2  UNL d   1      -0.819  -0.026   1.742  0.00  0.00    -0.076 A 
ATOM      2  C3  UNL d   1      -0.105  -1.004   2.455  0.00  0.00     0.004 A 
ATOM      3  C4  UNL d   1       0.535  -2.051   1.793  0.00  0.00    -0.003 A 
ATOM      4  C5  UNL d   1       0.472  -2.135   0.407  0.00  0.00     0.000 A 
ATOM      5  C6  UNL d   1      -0.217  -1.164  -0.318  0.00  0.00     0.000 A 
ATOM      6  C7  UNL d   1      -0.853  -0.093   0.332  0.00  0.00    -0.073 A 
ATOM      7  C8  UNL d   1      -1.587   0.924  -0.499  0.00  0.00     0.078 C 
ENDROOT
BRANCH   1   8
ATOM      8  C1  UNL d   1      -1.515   1.071   2.515  0.00  0.00     0.053 C 
ATOM      9  C   UNL d   1      -1.195   1.029   4.002  0.00  0.00     0.018 C 
ENDBRANCH   1   8
TORSDOF 1
ENDMDL
