MODEL 1
REMARK minimizedAffinity -1.75648463
REMARK minimizedRMSD -1
REMARK  1 active torsions:
REMARK  status: ('A' for Active; 'I' for Inactive)
REMARK    1  A    between atoms: C1_2  and  C2_3 
ROOT
ATOM      1  C2  UNL d   1      -0.161  -0.101   0.145  0.00  0.00    -0.076 A 
ATOM      2  C3  UNL d   1       0.344  -1.371   0.476  0.00  0.00     0.004 A 
ATOM      3  C4  UNL d   1       1.349  -1.964  -0.286  0.00  0.00    -0.003 A 
ATOM      4  C5  UNL d   1       1.868  -1.297  -1.390  0.00  0.00     0.000 A 
ATOM      5  C6  UNL d   1       1.392  -0.029  -1.722  0.00  0.00     0.000 A 
ATOM      6  C7  UNL d   1       0.390   0.590  -0.956  0.00  0.00    -0.073 A 
ATOM      7  C8  UNL d   1      -0.091   1.956  -1.363  0.00  0.00     0.078 C 
ENDROOT
BRANCH   1   8
ATOM      8  C1  UNL d   1      -1.270   0.481   0.991  0.00  0.00     0.053 C 
ATOM      9  C   UNL d   1      -0.895   0.571   2.462  0.00  0.00     0.018 C 
ENDBRANCH   1   8
TORSDOF 1
ENDMDL
