MODEL 1
REMARK minimizedAffinity -0.166205317
REMARK minimizedRMSD -1
REMARK  1 active torsions:
REMARK  status: ('A' for Active; 'I' for Inactive)
REMARK    1  A    between atoms: C1_2  and  C2_3 
ROOT
ATOM      1  C2  UNL d   1      -1.302   0.289   0.938  0.00  0.00    -0.076 A 
ATOM      2  C3  UNL d   1      -1.632   1.376   0.111  0.00  0.00     0.004 A 
ATOM      3  C4  UNL d   1      -0.814   1.739  -0.958  0.00  0.00    -0.003 A 
ATOM      4  C5  UNL d   1       0.347   1.020  -1.217  0.00  0.00     0.000 A 
ATOM      5  C6  UNL d   1       0.681  -0.073  -0.418  0.00  0.00     0.000 A 
ATOM      6  C7  UNL d   1      -0.141  -0.462   0.654  0.00  0.00    -0.073 A 
ATOM      7  C8  UNL d   1       0.271  -1.644   1.487  0.00  0.00     0.078 C 
ENDROOT
BRANCH   1   8
ATOM      8  C1  UNL d   1      -2.213  -0.041   2.099  0.00  0.00     0.053 C 
ATOM      9  C   UNL d   1      -2.228   1.052   3.156  0.00  0.00     0.018 C 
ENDBRANCH   1   8
TORSDOF 1
ENDMDL
