MODEL 1
REMARK minimizedAffinity -4.73453093
REMARK minimizedRMSD -1
REMARK  1 active torsions:
REMARK  status: ('A' for Active; 'I' for Inactive)
REMARK    1  A    between atoms: C1_2  and  C2_3 
ROOT
ATOM      1  C2  UNL d   1       0.603   0.452  -1.373  0.00  0.00    -0.076 A 
ATOM      2  C3  UNL d   1      -0.480   1.126  -0.781  0.00  0.00     0.004 A 
ATOM      3  C4  UNL d   1      -1.226   0.533   0.235  0.00  0.00    -0.003 A 
ATOM      4  C5  UNL d   1      -0.901  -0.745   0.678  0.00  0.00     0.000 A 
ATOM      5  C6  UNL d   1       0.181  -1.421   0.115  0.00  0.00     0.000 A 
ATOM      6  C7  UNL d   1       0.953  -0.831  -0.900  0.00  0.00    -0.073 A 
ATOM      7  C8  UNL d   1       2.105  -1.608  -1.476  0.00  0.00     0.078 C 
ENDROOT
BRANCH   1   8
ATOM      8  C1  UNL d   1       1.358   1.135  -2.490  0.00  0.00     0.053 C 
ATOM      9  C   UNL d   1       0.923   2.579  -2.690  0.00  0.00     0.018 C 
ENDBRANCH   1   8
TORSDOF 1
ENDMDL
