MODEL 1
REMARK minimizedAffinity -1.74687338
REMARK minimizedRMSD -1
REMARK  1 active torsions:
REMARK  status: ('A' for Active; 'I' for Inactive)
REMARK    1  A    between atoms: C1_2  and  C2_3 
ROOT
ATOM      1  C2  UNL d   1      -0.405  -0.220   0.021  0.00  0.00    -0.076 A 
ATOM      2  C3  UNL d   1       0.147   0.832  -0.732  0.00  0.00     0.004 A 
ATOM      3  C4  UNL d   1       1.251   0.622  -1.557  0.00  0.00    -0.003 A 
ATOM      4  C5  UNL d   1       1.821  -0.644  -1.643  0.00  0.00     0.000 A 
ATOM      5  C6  UNL d   1       1.276  -1.702  -0.917  0.00  0.00     0.000 A 
ATOM      6  C7  UNL d   1       0.153  -1.511  -0.093  0.00  0.00    -0.073 A 
ATOM      7  C8  UNL d   1      -0.390  -2.687   0.672  0.00  0.00     0.078 C 
ENDROOT
BRANCH   1   8
ATOM      8  C1  UNL d   1      -1.585   0.074   0.919  0.00  0.00     0.053 C 
ATOM      9  C   UNL d   1      -1.224   0.998   2.072  0.00  0.00     0.018 C 
ENDBRANCH   1   8
TORSDOF 1
ENDMDL
