MODEL 1
REMARK minimizedAffinity 1.23331594
REMARK minimizedRMSD -1
REMARK  1 active torsions:
REMARK  status: ('A' for Active; 'I' for Inactive)
REMARK    1  A    between atoms: C1_2  and  C2_3 
ROOT
ATOM      1  C2  UNL d   1       0.162  -0.542   0.090  0.00  0.00    -0.076 A 
ATOM      2  C3  UNL d   1       0.595   0.362  -0.895  0.00  0.00     0.004 A 
ATOM      3  C4  UNL d   1       1.435  -0.050  -1.928  0.00  0.00    -0.003 A 
ATOM      4  C5  UNL d   1       1.853  -1.374  -1.995  0.00  0.00     0.000 A 
ATOM      5  C6  UNL d   1       1.419  -2.289  -1.036  0.00  0.00     0.000 A 
ATOM      6  C7  UNL d   1       0.559  -1.894   0.003  0.00  0.00    -0.073 A 
ATOM      7  C8  UNL d   1       0.127  -2.921   1.013  0.00  0.00     0.078 C 
ENDROOT
BRANCH   1   8
ATOM      8  C1  UNL d   1      -0.726  -0.032   1.202  0.00  0.00     0.053 C 
ATOM      9  C   UNL d   1      -1.674   1.063   0.735  0.00  0.00     0.018 C 
ENDBRANCH   1   8
TORSDOF 1
ENDMDL
