MODEL 1
REMARK minimizedAffinity -0.203398675
REMARK minimizedRMSD -1
REMARK  1 active torsions:
REMARK  status: ('A' for Active; 'I' for Inactive)
REMARK    1  A    between atoms: C1_2  and  C2_3 
ROOT
ATOM      1  C2  UNL d   1       0.058   0.303  -0.196  0.00  0.00    -0.076 A 
ATOM      2  C3  UNL d   1       0.220  -0.990   0.330  0.00  0.00     0.004 A 
ATOM      3  C4  UNL d   1       1.102  -1.897  -0.254  0.00  0.00    -0.003 A 
ATOM      4  C5  UNL d   1       1.838  -1.525  -1.374  0.00  0.00     0.000 A 
ATOM      5  C6  UNL d   1       1.703  -0.240  -1.899  0.00  0.00     0.000 A 
ATOM      6  C7  UNL d   1       0.830   0.692  -1.312  0.00  0.00    -0.073 A 
ATOM      7  C8  UNL d   1       0.720   2.062  -1.923  0.00  0.00     0.078 C 
ENDROOT
BRANCH   1   8
ATOM      8  C1  UNL d   1      -0.934   1.235   0.463  0.00  0.00     0.053 C 
ATOM      9  C   UNL d   1      -1.783   0.534   1.513  0.00  0.00     0.018 C 
ENDBRANCH   1   8
TORSDOF 1
ENDMDL
