MODEL 1
REMARK minimizedAffinity -3.86710548
REMARK minimizedRMSD -1
REMARK  1 active torsions:
REMARK  status: ('A' for Active; 'I' for Inactive)
REMARK    1  A    between atoms: C1_2  and  C2_3 
ROOT
ATOM      1  C2  UNL d   1       0.741   0.317  -1.327  0.00  0.00    -0.076 A 
ATOM      2  C3  UNL d   1       1.843  -0.545  -1.466  0.00  0.00     0.004 A 
ATOM      3  C4  UNL d   1       1.916  -1.737  -0.748  0.00  0.00    -0.003 A 
ATOM      4  C5  UNL d   1       0.888  -2.088   0.121  0.00  0.00     0.000 A 
ATOM      5  C6  UNL d   1      -0.221  -1.253   0.257  0.00  0.00     0.000 A 
ATOM      6  C7  UNL d   1      -0.318  -0.056  -0.472  0.00  0.00    -0.073 A 
ATOM      7  C8  UNL d   1      -1.534   0.809  -0.281  0.00  0.00     0.078 C 
ENDROOT
BRANCH   1   8
ATOM      8  C1  UNL d   1       0.729   1.609  -2.112  0.00  0.00     0.053 C 
ATOM      9  C   UNL d   1       1.742   1.612  -3.246  0.00  0.00     0.018 C 
ENDBRANCH   1   8
TORSDOF 1
ENDMDL
