MODEL 1
REMARK minimizedAffinity -2.84451342
REMARK minimizedRMSD -1
REMARK  1 active torsions:
REMARK  status: ('A' for Active; 'I' for Inactive)
REMARK    1  A    between atoms: C1_2  and  C2_3 
ROOT
ATOM      1  C2  UNL d   1      -0.656   0.265   1.236  0.00  0.00    -0.076 A 
ATOM      2  C3  UNL d   1      -0.372   0.142   2.607  0.00  0.00     0.004 A 
ATOM      3  C4  UNL d   1      -1.205   0.717   3.566  0.00  0.00    -0.003 A 
ATOM      4  C5  UNL d   1      -2.334   1.423   3.170  0.00  0.00     0.000 A 
ATOM      5  C6  UNL d   1      -2.641   1.541   1.814  0.00  0.00     0.000 A 
ATOM      6  C7  UNL d   1      -1.821   0.954   0.835  0.00  0.00    -0.073 A 
ATOM      7  C8  UNL d   1      -2.196   1.117  -0.613  0.00  0.00     0.078 C 
ENDROOT
BRANCH   1   8
ATOM      8  C1  UNL d   1       0.298  -0.356   0.240  0.00  0.00     0.053 C 
ATOM      9  C   UNL d   1      -0.200  -1.693  -0.287  0.00  0.00     0.018 C 
ENDBRANCH   1   8
TORSDOF 1
ENDMDL
