MODEL 1
REMARK minimizedAffinity -2.92607665
REMARK minimizedRMSD -1
REMARK  1 active torsions:
REMARK  status: ('A' for Active; 'I' for Inactive)
REMARK    1  A    between atoms: C1_2  and  C2_3 
ROOT
ATOM      1  C2  UNL d   1       0.428  -0.064  -0.372  0.00  0.00    -0.076 A 
ATOM      2  C3  UNL d   1       0.401   1.035  -1.248  0.00  0.00     0.004 A 
ATOM      3  C4  UNL d   1       1.092   1.006  -2.458  0.00  0.00    -0.003 A 
ATOM      4  C5  UNL d   1       1.821  -0.124  -2.813  0.00  0.00     0.000 A 
ATOM      5  C6  UNL d   1       1.845  -1.230  -1.964  0.00  0.00     0.000 A 
ATOM      6  C7  UNL d   1       1.140  -1.223  -0.748  0.00  0.00    -0.073 A 
ATOM      7  C8  UNL d   1       1.205  -2.442   0.131  0.00  0.00     0.078 C 
ENDROOT
BRANCH   1   8
ATOM      8  C1  UNL d   1      -0.318   0.036   0.939  0.00  0.00     0.053 C 
ATOM      9  C   UNL d   1       0.610   0.269   2.121  0.00  0.00     0.018 C 
ENDBRANCH   1   8
TORSDOF 1
ENDMDL
