MODEL 1
REMARK minimizedAffinity -3.18196702
REMARK minimizedRMSD -1
REMARK  1 active torsions:
REMARK  status: ('A' for Active; 'I' for Inactive)
REMARK    1  A    between atoms: C1_2  and  C2_3 
ROOT
ATOM      1  C2  UNL d   1       0.454  -1.082  -0.515  0.00  0.00    -0.076 A 
ATOM      2  C3  UNL d   1       0.178   0.295  -0.572  0.00  0.00     0.004 A 
ATOM      3  C4  UNL d   1      -0.715   0.885   0.320  0.00  0.00    -0.003 A 
ATOM      4  C5  UNL d   1      -1.347   0.108   1.284  0.00  0.00     0.000 A 
ATOM      5  C6  UNL d   1      -1.072  -1.257   1.366  0.00  0.00     0.000 A 
ATOM      6  C7  UNL d   1      -0.161  -1.864   0.485  0.00  0.00    -0.073 A 
ATOM      7  C8  UNL d   1       0.093  -3.341   0.615  0.00  0.00     0.078 C 
ENDROOT
BRANCH   1   8
ATOM      8  C1  UNL d   1       1.411  -1.671  -1.527  0.00  0.00     0.053 C 
ATOM      9  C   UNL d   1       1.909  -0.640  -2.528  0.00  0.00     0.018 C 
ENDBRANCH   1   8
TORSDOF 1
ENDMDL
