MODEL 1
REMARK minimizedAffinity -5.34183693
REMARK minimizedRMSD -1
REMARK  1 active torsions:
REMARK  status: ('A' for Active; 'I' for Inactive)
REMARK    1  A    between atoms: C1_2  and  C2_3 
ROOT
ATOM      1  C2  UNL d   1      -0.417  -0.083  -0.426  0.00  0.00    -0.076 A 
ATOM      2  C3  UNL d   1      -0.247  -1.415  -0.009  0.00  0.00     0.004 A 
ATOM      3  C4  UNL d   1       0.901  -2.131  -0.343  0.00  0.00    -0.003 A 
ATOM      4  C5  UNL d   1       1.899  -1.526  -1.099  0.00  0.00     0.000 A 
ATOM      5  C6  UNL d   1       1.756  -0.200  -1.506  0.00  0.00     0.000 A 
ATOM      6  C7  UNL d   1       0.612   0.541  -1.165  0.00  0.00    -0.073 A 
ATOM      7  C8  UNL d   1       0.507   1.965  -1.636  0.00  0.00     0.078 C 
ENDROOT
BRANCH   1   8
ATOM      8  C1  UNL d   1      -1.696   0.634  -0.057  0.00  0.00     0.053 C 
ATOM      9  C   UNL d   1      -2.055   0.467   1.411  0.00  0.00     0.018 C 
ENDBRANCH   1   8
TORSDOF 1
ENDMDL
