MODEL 1
REMARK minimizedAffinity 0.38418299
REMARK minimizedRMSD -1
REMARK  1 active torsions:
REMARK  status: ('A' for Active; 'I' for Inactive)
REMARK    1  A    between atoms: C1_2  and  C2_3 
ROOT
ATOM      1  C2  UNL d   1      -0.051  -0.263  -0.578  0.00  0.00    -0.076 A 
ATOM      2  C3  UNL d   1       0.760   0.288  -1.586  0.00  0.00     0.004 A 
ATOM      3  C4  UNL d   1       0.551   1.588  -2.044  0.00  0.00    -0.003 A 
ATOM      4  C5  UNL d   1      -0.472   2.358  -1.501  0.00  0.00     0.000 A 
ATOM      5  C6  UNL d   1      -1.275   1.834  -0.489  0.00  0.00     0.000 A 
ATOM      6  C7  UNL d   1      -1.067   0.531  -0.004  0.00  0.00    -0.073 A 
ATOM      7  C8  UNL d   1      -1.967   0.014   1.085  0.00  0.00     0.078 C 
ENDROOT
BRANCH   1   8
ATOM      8  C1  UNL d   1       0.205  -1.687  -0.141  0.00  0.00     0.053 C 
ATOM      9  C   UNL d   1       1.590  -2.177  -0.533  0.00  0.00     0.018 C 
ENDBRANCH   1   8
TORSDOF 1
ENDMDL
