MODEL 1
REMARK minimizedAffinity -2.52137542
REMARK minimizedRMSD -1
REMARK  1 active torsions:
REMARK  status: ('A' for Active; 'I' for Inactive)
REMARK    1  A    between atoms: C1_2  and  C2_3 
ROOT
ATOM      1  C2  UNL d   1      -0.061  -0.224  -0.254  0.00  0.00    -0.076 A 
ATOM      2  C3  UNL d   1       0.192  -1.438   0.409  0.00  0.00     0.004 A 
ATOM      3  C4  UNL d   1       1.324  -2.196   0.110  0.00  0.00    -0.003 A 
ATOM      4  C5  UNL d   1       2.221  -1.751  -0.855  0.00  0.00     0.000 A 
ATOM      5  C6  UNL d   1       1.995  -0.541  -1.509  0.00  0.00     0.000 A 
ATOM      6  C7  UNL d   1       0.867   0.243  -1.209  0.00  0.00    -0.073 A 
ATOM      7  C8  UNL d   1       0.670   1.537  -1.950  0.00  0.00     0.078 C 
ENDROOT
BRANCH   1   8
ATOM      8  C1  UNL d   1      -1.318   0.541   0.092  0.00  0.00     0.053 C 
ATOM      9  C   UNL d   1      -1.726   0.365   1.547  0.00  0.00     0.018 C 
ENDBRANCH   1   8
TORSDOF 1
ENDMDL
