MODEL 1
REMARK minimizedAffinity 1.12550426
REMARK minimizedRMSD -1
REMARK  0 active torsions:
REMARK  status: ('A' for Active; 'I' for Inactive)
ROOT
ATOM      1  C1  DEN d   1      -2.443  -1.161   1.401  0.00  0.00     0.130 A 
ATOM      2  C2  DEN d   1      -2.826   0.229   1.632  0.00  0.00    -0.031 A 
ATOM      3  C3  DEN d   1      -1.850   1.093   0.936  0.00  0.00     0.027 A 
ATOM      4  C4  DEN d   1       0.202   0.416  -0.471  0.00  0.00     0.027 A 
ATOM      5  C5  DEN d   1       0.940  -0.649  -0.941  0.00  0.00    -0.003 A 
ATOM      6  C6  DEN d   1       0.624  -1.947  -0.637  0.00  0.00     0.001 A 
ATOM      7  C7  DEN d   1      -0.485  -2.216   0.121  0.00  0.00     0.017 A 
ATOM      8  C8  DEN d   1      -1.229  -1.147   0.605  0.00  0.00    -0.094 A 
ATOM      9  C9  DEN d   1      -0.900   0.157   0.277  0.00  0.00    -0.072 A 
ENDROOT
TORSDOF 0
ENDMDL
