MODEL 1
REMARK minimizedAffinity 0.0190129913
REMARK minimizedRMSD -1
REMARK  0 active torsions:
REMARK  status: ('A' for Active; 'I' for Inactive)
ROOT
ATOM      1  C1  DEN d   1       0.345   1.422  -0.372  0.00  0.00     0.130 A 
ATOM      2  C2  DEN d   1      -1.088   1.499  -0.099  0.00  0.00    -0.031 A 
ATOM      3  C3  DEN d   1      -1.592   0.124   0.084  0.00  0.00     0.027 A 
ATOM      4  C4  DEN d   1      -0.300  -2.106  -0.023  0.00  0.00     0.027 A 
ATOM      5  C5  DEN d   1       0.934  -2.679  -0.237  0.00  0.00    -0.003 A 
ATOM      6  C6  DEN d   1       2.042  -1.934  -0.543  0.00  0.00     0.001 A 
ATOM      7  C7  DEN d   1       1.947  -0.569  -0.598  0.00  0.00     0.017 A 
ATOM      8  C8  DEN d   1       0.705   0.016  -0.390  0.00  0.00    -0.094 A 
ATOM      9  C9  DEN d   1      -0.401  -0.753  -0.070  0.00  0.00    -0.072 A 
ENDROOT
TORSDOF 0
ENDMDL
