MODEL 1
REMARK minimizedAffinity -6.68979788
REMARK minimizedRMSD -1
REMARK  0 active torsions:
REMARK  status: ('A' for Active; 'I' for Inactive)
ROOT
ATOM      1  C1  DEN d   1       2.685  -1.076   0.168  0.00  0.00     0.130 A 
ATOM      2  C2  DEN d   1       1.688  -2.137   0.055  0.00  0.00    -0.031 A 
ATOM      3  C3  DEN d   1       0.365  -1.503  -0.118  0.00  0.00     0.027 A 
ATOM      4  C4  DEN d   1      -0.232   1.004  -0.224  0.00  0.00     0.027 A 
ATOM      5  C5  DEN d   1       0.277   2.282  -0.162  0.00  0.00    -0.003 A 
ATOM      6  C6  DEN d   1       1.608   2.530   0.046  0.00  0.00     0.001 A 
ATOM      7  C7  DEN d   1       2.484   1.482   0.155  0.00  0.00     0.017 A 
ATOM      8  C8  DEN d   1       1.977   0.190   0.102  0.00  0.00    -0.094 A 
ATOM      9  C9  DEN d   1       0.630  -0.039  -0.121  0.00  0.00    -0.072 A 
ENDROOT
TORSDOF 0
ENDMDL
