MODEL 1
REMARK minimizedAffinity -6.21075678
REMARK minimizedRMSD -1
REMARK  0 active torsions:
REMARK  status: ('A' for Active; 'I' for Inactive)
ROOT
ATOM      1  C1  DEN d   1       2.881  -0.710   0.169  0.00  0.00     0.130 A 
ATOM      2  C2  DEN d   1       3.091   0.703   0.474  0.00  0.00    -0.031 A 
ATOM      3  C3  DEN d   1       1.837   1.424   0.178  0.00  0.00     0.027 A 
ATOM      4  C4  DEN d   1      -0.399   0.495  -0.713  0.00  0.00     0.027 A 
ATOM      5  C5  DEN d   1      -1.055  -0.641  -1.131  0.00  0.00    -0.003 A 
ATOM      6  C6  DEN d   1      -0.440  -1.864  -1.177  0.00  0.00     0.001 A 
ATOM      7  C7  DEN d   1       0.858  -1.988  -0.756  0.00  0.00     0.017 A 
ATOM      8  C8  DEN d   1       1.528  -0.845  -0.339  0.00  0.00    -0.094 A 
ATOM      9  C9  DEN d   1       0.885   0.380  -0.288  0.00  0.00    -0.072 A 
ENDROOT
TORSDOF 0
ENDMDL
