MODEL 1
REMARK minimizedAffinity -3.0473175
REMARK minimizedRMSD -1
REMARK  0 active torsions:
REMARK  status: ('A' for Active; 'I' for Inactive)
ROOT
ATOM      1  C1  DEN d   1      -1.028   0.233  -1.114  0.00  0.00     0.130 A 
ATOM      2  C2  DEN d   1      -1.933   0.617  -0.034  0.00  0.00    -0.031 A 
ATOM      3  C3  DEN d   1      -1.331   0.183   1.242  0.00  0.00     0.027 A 
ATOM      4  C4  DEN d   1       0.906  -1.035   1.649  0.00  0.00     0.027 A 
ATOM      5  C5  DEN d   1       2.013  -1.582   1.040  0.00  0.00    -0.003 A 
ATOM      6  C6  DEN d   1       2.168  -1.591  -0.321  0.00  0.00     0.001 A 
ATOM      7  C7  DEN d   1       1.220  -1.004  -1.116  0.00  0.00     0.017 A 
ATOM      8  C8  DEN d   1       0.096  -0.458  -0.509  0.00  0.00    -0.094 A 
ATOM      9  C9  DEN d   1      -0.036  -0.447   0.869  0.00  0.00    -0.072 A 
ENDROOT
TORSDOF 0
ENDMDL
