MODEL 1
REMARK minimizedAffinity -1.19069767
REMARK minimizedRMSD -1
REMARK  0 active torsions:
REMARK  status: ('A' for Active; 'I' for Inactive)
ROOT
ATOM      1  C1  DEN d   1       0.972  -1.811  -0.474  0.00  0.00     0.130 A 
ATOM      2  C2  DEN d   1       2.406  -2.030  -0.302  0.00  0.00    -0.031 A 
ATOM      3  C3  DEN d   1       3.039  -0.723  -0.036  0.00  0.00     0.027 A 
ATOM      4  C4  DEN d   1       1.944   1.607   0.129  0.00  0.00     0.027 A 
ATOM      5  C5  DEN d   1       0.755   2.297   0.043  0.00  0.00    -0.003 A 
ATOM      6  C6  DEN d   1      -0.430   1.676  -0.252  0.00  0.00     0.001 A 
ATOM      7  C7  DEN d   1      -0.460   0.318  -0.427  0.00  0.00     0.017 A 
ATOM      8  C8  DEN d   1       0.736  -0.384  -0.350  0.00  0.00    -0.094 A 
ATOM      9  C9  DEN d   1       1.922   0.260  -0.039  0.00  0.00    -0.072 A 
ENDROOT
TORSDOF 0
ENDMDL
