MODEL 1
REMARK minimizedAffinity -0.340492904
REMARK minimizedRMSD -1
REMARK  0 active torsions:
REMARK  status: ('A' for Active; 'I' for Inactive)
ROOT
ATOM      1  C   UNL d   1      -0.128  -1.757   0.634  0.00  0.00     0.124 A 
ATOM      2  C1  UNL d   1       0.380  -0.497   0.918  0.00  0.00     0.062 A 
ATOM      3  C2  UNL d   1       1.747  -0.254   0.819  0.00  0.00     0.162 A 
ATOM      4  C3  UNL d   1       2.616  -1.274   0.432  0.00  0.00    -0.034 A 
ATOM      5  C4  UNL d   1       2.099  -2.539   0.149  0.00  0.00     0.162 A 
ATOM      6  C5  UNL d   1       0.732  -2.777   0.250  0.00  0.00     0.062 A 
ATOM      7  F   UNL d   1       0.244  -3.995  -0.024  0.00  0.00    -0.097 F 
ATOM      8  F1  UNL d   1       2.907  -3.542  -0.225  0.00  0.00    -0.096 F 
ATOM      9  I   UNL d   1       4.661  -0.914   0.282  0.00  0.00    -0.060 I 
ATOM     10  F2  UNL d   1       2.209   0.974   1.099  0.00  0.00    -0.096 F 
ATOM     11  F3  UNL d   1      -0.449   0.489   1.291  0.00  0.00    -0.097 F 
ATOM     12  F4  UNL d   1      -1.443  -1.989   0.732  0.00  0.00    -0.092 F 
ENDROOT
TORSDOF 0
ENDMDL
