MODEL 1
REMARK minimizedAffinity 2.36682534
REMARK minimizedRMSD -1
REMARK  0 active torsions:
REMARK  status: ('A' for Active; 'I' for Inactive)
ROOT
ATOM      1  C   UNL d   1       0.598  -1.233   0.976  0.00  0.00     0.124 A 
ATOM      2  C1  UNL d   1       0.163  -2.441   0.448  0.00  0.00     0.062 A 
ATOM      3  C2  UNL d   1       1.085  -3.369  -0.028  0.00  0.00     0.162 A 
ATOM      4  C3  UNL d   1       2.451  -3.093   0.022  0.00  0.00    -0.034 A 
ATOM      5  C4  UNL d   1       2.881  -1.876   0.553  0.00  0.00     0.162 A 
ATOM      6  C5  UNL d   1       1.956  -0.952   1.028  0.00  0.00     0.062 A 
ATOM      7  F   UNL d   1       2.377   0.215   1.537  0.00  0.00    -0.097 F 
ATOM      8  F1  UNL d   1       4.187  -1.578   0.616  0.00  0.00    -0.096 F 
ATOM      9  I   UNL d   1       3.833  -4.478  -0.689  0.00  0.00    -0.060 I 
ATOM     10  F2  UNL d   1       0.637  -4.528  -0.532  0.00  0.00    -0.096 F 
ATOM     11  F3  UNL d   1      -1.148  -2.715   0.396  0.00  0.00    -0.097 F 
ATOM     12  F4  UNL d   1      -0.291  -0.342   1.432  0.00  0.00    -0.092 F 
ENDROOT
TORSDOF 0
ENDMDL
