MODEL 1
REMARK minimizedAffinity 1.96081531
REMARK minimizedRMSD -1
REMARK  0 active torsions:
REMARK  status: ('A' for Active; 'I' for Inactive)
ROOT
ATOM      1  C   UNL d   1       2.614  -2.927  -0.693  0.00  0.00     0.124 A 
ATOM      2  C1  UNL d   1       2.886  -1.566  -0.699  0.00  0.00     0.062 A 
ATOM      3  C2  UNL d   1       2.035  -0.679  -0.045  0.00  0.00     0.162 A 
ATOM      4  C3  UNL d   1       0.904  -1.151   0.622  0.00  0.00    -0.034 A 
ATOM      5  C4  UNL d   1       0.637  -2.522   0.623  0.00  0.00     0.162 A 
ATOM      6  C5  UNL d   1       1.491  -3.404  -0.032  0.00  0.00     0.062 A 
ATOM      7  F   UNL d   1       1.227  -4.718  -0.024  0.00  0.00    -0.097 F 
ATOM      8  F1  UNL d   1      -0.441  -3.009   1.254  0.00  0.00    -0.096 F 
ATOM      9  I   UNL d   1      -0.370   0.171   1.600  0.00  0.00    -0.060 I 
ATOM     10  F2  UNL d   1       2.322   0.631  -0.068  0.00  0.00    -0.096 F 
ATOM     11  F3  UNL d   1       3.970  -1.103  -1.338  0.00  0.00    -0.097 F 
ATOM     12  F4  UNL d   1       3.434  -3.778  -1.323  0.00  0.00    -0.092 F 
ENDROOT
TORSDOF 0
ENDMDL
