MODEL 1
REMARK minimizedAffinity 6.63638687
REMARK minimizedRMSD -1
REMARK  0 active torsions:
REMARK  status: ('A' for Active; 'I' for Inactive)
ROOT
ATOM      1  C   UNL d   1      -0.392  -2.392   0.357  0.00  0.00     0.124 A 
ATOM      2  C1  UNL d   1       0.330  -3.292  -0.415  0.00  0.00     0.062 A 
ATOM      3  C2  UNL d   1       1.722  -3.273  -0.392  0.00  0.00     0.162 A 
ATOM      4  C3  UNL d   1       2.400  -2.351   0.405  0.00  0.00    -0.034 A 
ATOM      5  C4  UNL d   1       1.667  -1.449   1.177  0.00  0.00     0.162 A 
ATOM      6  C5  UNL d   1       0.276  -1.472   1.151  0.00  0.00     0.062 A 
ATOM      7  F   UNL d   1      -0.420  -0.602   1.897  0.00  0.00    -0.097 F 
ATOM      8  F1  UNL d   1       2.287  -0.550   1.955  0.00  0.00    -0.096 F 
ATOM      9  I   UNL d   1       4.481  -2.320   0.441  0.00  0.00    -0.060 I 
ATOM     10  F2  UNL d   1       2.394  -4.154  -1.148  0.00  0.00    -0.096 F 
ATOM     11  F3  UNL d   1      -0.313  -4.181  -1.184  0.00  0.00    -0.097 F 
ATOM     12  F4  UNL d   1      -1.731  -2.412   0.332  0.00  0.00    -0.092 F 
ENDROOT
TORSDOF 0
ENDMDL
