MODEL 1
REMARK minimizedAffinity 1.91678834
REMARK minimizedRMSD -1
REMARK  0 active torsions:
REMARK  status: ('A' for Active; 'I' for Inactive)
ROOT
ATOM      1  C   UNL d   1       3.028  -2.644   0.017  0.00  0.00     0.124 A 
ATOM      2  C1  UNL d   1       3.130  -1.340   0.481  0.00  0.00     0.062 A 
ATOM      3  C2  UNL d   1       1.992  -0.653   0.894  0.00  0.00     0.162 A 
ATOM      4  C3  UNL d   1       0.741  -1.269   0.845  0.00  0.00    -0.034 A 
ATOM      5  C4  UNL d   1       0.646  -2.580   0.376  0.00  0.00     0.162 A 
ATOM      6  C5  UNL d   1       1.787  -3.263  -0.035  0.00  0.00     0.062 A 
ATOM      7  F   UNL d   1       1.686  -4.523  -0.483  0.00  0.00    -0.097 F 
ATOM      8  F1  UNL d   1      -0.540  -3.203   0.316  0.00  0.00    -0.096 F 
ATOM      9  I   UNL d   1      -0.963  -0.244   1.460  0.00  0.00    -0.060 I 
ATOM     10  F2  UNL d   1       2.120   0.606   1.338  0.00  0.00    -0.096 F 
ATOM     11  F3  UNL d   1       4.328  -0.740   0.532  0.00  0.00    -0.097 F 
ATOM     12  F4  UNL d   1       4.124  -3.303  -0.379  0.00  0.00    -0.092 F 
ENDROOT
TORSDOF 0
ENDMDL
