MODEL 1
REMARK minimizedAffinity 4.16342545
REMARK minimizedRMSD -1
REMARK  0 active torsions:
REMARK  status: ('A' for Active; 'I' for Inactive)
ROOT
ATOM      1  C   UNL d   1       2.252  -2.533   0.752  0.00  0.00     0.124 A 
ATOM      2  C1  UNL d   1       3.298  -2.297  -0.130  0.00  0.00     0.062 A 
ATOM      3  C2  UNL d   1       4.249  -3.285  -0.368  0.00  0.00     0.162 A 
ATOM      4  C3  UNL d   1       4.159  -4.519   0.276  0.00  0.00    -0.034 A 
ATOM      5  C4  UNL d   1       3.105  -4.748   1.162  0.00  0.00     0.162 A 
ATOM      6  C5  UNL d   1       2.157  -3.758   1.397  0.00  0.00     0.062 A 
ATOM      7  F   UNL d   1       1.147  -3.987   2.249  0.00  0.00    -0.097 F 
ATOM      8  F1  UNL d   1       2.988  -5.923   1.798  0.00  0.00    -0.096 F 
ATOM      9  I   UNL d   1       5.579  -5.999  -0.078  0.00  0.00    -0.060 I 
ATOM     10  F2  UNL d   1       5.249  -3.029  -1.226  0.00  0.00    -0.096 F 
ATOM     11  F3  UNL d   1       3.393  -1.114  -0.754  0.00  0.00    -0.097 F 
ATOM     12  F4  UNL d   1       1.339  -1.580   0.980  0.00  0.00    -0.092 F 
ENDROOT
TORSDOF 0
ENDMDL
