MODEL 1
REMARK minimizedAffinity -1.30719042
REMARK minimizedRMSD -1
REMARK  0 active torsions:
REMARK  status: ('A' for Active; 'I' for Inactive)
ROOT
ATOM      1  C   UNL d   1      -0.121  -0.817   0.846  0.00  0.00     0.124 A 
ATOM      2  C1  UNL d   1       1.208  -0.509   0.590  0.00  0.00     0.062 A 
ATOM      3  C2  UNL d   1       2.106  -1.514   0.244  0.00  0.00     0.162 A 
ATOM      4  C3  UNL d   1       1.677  -2.839   0.150  0.00  0.00    -0.034 A 
ATOM      5  C4  UNL d   1       0.339  -3.141   0.410  0.00  0.00     0.162 A 
ATOM      6  C5  UNL d   1      -0.554  -2.132   0.756  0.00  0.00     0.062 A 
ATOM      7  F   UNL d   1      -1.838  -2.432   1.003  0.00  0.00    -0.097 F 
ATOM      8  F1  UNL d   1      -0.107  -4.403   0.330  0.00  0.00    -0.096 F 
ATOM      9  I   UNL d   1       3.016  -4.346  -0.367  0.00  0.00    -0.060 I 
ATOM     10  F2  UNL d   1       3.384  -1.188   0.001  0.00  0.00    -0.096 F 
ATOM     11  F3  UNL d   1       1.629   0.761   0.677  0.00  0.00    -0.097 F 
ATOM     12  F4  UNL d   1      -0.982   0.153   1.180  0.00  0.00    -0.092 F 
ENDROOT
TORSDOF 0
ENDMDL
