MODEL 1
REMARK minimizedAffinity 8.93523216
REMARK minimizedRMSD -1
REMARK  0 active torsions:
REMARK  status: ('A' for Active; 'I' for Inactive)
ROOT
ATOM      1  C   UNL d   1      -0.345  -2.251   1.010  0.00  0.00     0.124 A 
ATOM      2  C1  UNL d   1       0.415  -2.919   0.060  0.00  0.00     0.062 A 
ATOM      3  C2  UNL d   1       1.774  -2.645  -0.069  0.00  0.00     0.162 A 
ATOM      4  C3  UNL d   1       2.382  -1.698   0.755  0.00  0.00    -0.034 A 
ATOM      5  C4  UNL d   1       1.611  -1.029   1.707  0.00  0.00     0.162 A 
ATOM      6  C5  UNL d   1       0.254  -1.307   1.833  0.00  0.00     0.062 A 
ATOM      7  F   UNL d   1      -0.479  -0.660   2.751  0.00  0.00    -0.097 F 
ATOM      8  F1  UNL d   1       2.164  -0.113   2.516  0.00  0.00    -0.096 F 
ATOM      9  I   UNL d   1       4.413  -1.285   0.565  0.00  0.00    -0.060 I 
ATOM     10  F2  UNL d   1       2.483  -3.306  -0.996  0.00  0.00    -0.096 F 
ATOM     11  F3  UNL d   1      -0.161  -3.831  -0.736  0.00  0.00    -0.097 F 
ATOM     12  F4  UNL d   1      -1.652  -2.516   1.132  0.00  0.00    -0.092 F 
ENDROOT
TORSDOF 0
ENDMDL
