MODEL 1
REMARK minimizedAffinity 13.95471
REMARK minimizedRMSD -1
REMARK  0 active torsions:
REMARK  status: ('A' for Active; 'I' for Inactive)
ROOT
ATOM      1  C   UNL d   1      -1.229  -1.714   1.404  0.00  0.00     0.124 A 
ATOM      2  C1  UNL d   1      -0.543  -2.546   0.529  0.00  0.00     0.062 A 
ATOM      3  C2  UNL d   1       0.812  -2.341   0.286  0.00  0.00     0.162 A 
ATOM      4  C3  UNL d   1       1.491  -1.301   0.919  0.00  0.00    -0.034 A 
ATOM      5  C4  UNL d   1       0.795  -0.468   1.797  0.00  0.00     0.162 A 
ATOM      6  C5  UNL d   1      -0.559  -0.676   2.037  0.00  0.00     0.062 A 
ATOM      7  F   UNL d   1      -1.219   0.128   2.882  0.00  0.00    -0.097 F 
ATOM      8  F1  UNL d   1       1.418   0.542   2.422  0.00  0.00    -0.096 F 
ATOM      9  I   UNL d   1       3.518  -0.992   0.557  0.00  0.00    -0.060 I 
ATOM     10  F2  UNL d   1       1.449  -3.161  -0.564  0.00  0.00    -0.096 F 
ATOM     11  F3  UNL d   1      -1.188  -3.549  -0.084  0.00  0.00    -0.097 F 
ATOM     12  F4  UNL d   1      -2.533  -1.912   1.636  0.00  0.00    -0.092 F 
ENDROOT
TORSDOF 0
ENDMDL
