MODEL 1
REMARK minimizedAffinity 10.8402328
REMARK minimizedRMSD -1
REMARK  0 active torsions:
REMARK  status: ('A' for Active; 'I' for Inactive)
ROOT
ATOM      1  C   UNL d   1       1.763  -2.414   0.249  0.00  0.00     0.124 A 
ATOM      2  C1  UNL d   1       1.779  -3.774  -0.029  0.00  0.00     0.062 A 
ATOM      3  C2  UNL d   1       2.988  -4.462  -0.085  0.00  0.00     0.162 A 
ATOM      4  C3  UNL d   1       4.190  -3.792   0.140  0.00  0.00    -0.034 A 
ATOM      5  C4  UNL d   1       4.166  -2.425   0.419  0.00  0.00     0.162 A 
ATOM      6  C5  UNL d   1       2.955  -1.741   0.473  0.00  0.00     0.062 A 
ATOM      7  F   UNL d   1       2.941  -0.428   0.742  0.00  0.00    -0.097 F 
ATOM      8  F1  UNL d   1       5.304  -1.750   0.640  0.00  0.00    -0.096 F 
ATOM      9  I   UNL d   1       5.999  -4.818   0.058  0.00  0.00    -0.060 I 
ATOM     10  F2  UNL d   1       2.974  -5.776  -0.356  0.00  0.00    -0.096 F 
ATOM     11  F3  UNL d   1       0.628  -4.426  -0.247  0.00  0.00    -0.097 F 
ATOM     12  F4  UNL d   1       0.599  -1.754   0.301  0.00  0.00    -0.092 F 
ENDROOT
TORSDOF 0
ENDMDL
