MODEL 1
REMARK minimizedAffinity 4.707304
REMARK minimizedRMSD -1
REMARK  0 active torsions:
REMARK  status: ('A' for Active; 'I' for Inactive)
ROOT
ATOM      1  C   UNL d   1       0.201  -0.705   0.944  0.00  0.00     0.124 A 
ATOM      2  C1  UNL d   1       1.569  -0.482   0.857  0.00  0.00     0.062 A 
ATOM      3  C2  UNL d   1       2.422  -1.509   0.463  0.00  0.00     0.162 A 
ATOM      4  C3  UNL d   1       1.911  -2.769   0.153  0.00  0.00    -0.034 A 
ATOM      5  C4  UNL d   1       0.535  -2.986   0.243  0.00  0.00     0.162 A 
ATOM      6  C5  UNL d   1      -0.314  -1.957   0.637  0.00  0.00     0.062 A 
ATOM      7  F   UNL d   1      -1.635  -2.174   0.720  0.00  0.00    -0.097 F 
ATOM      8  F1  UNL d   1       0.009  -4.185  -0.048  0.00  0.00    -0.096 F 
ATOM      9  I   UNL d   1       3.183  -4.307  -0.436  0.00  0.00    -0.060 I 
ATOM     10  F2  UNL d   1       3.739  -1.265   0.388  0.00  0.00    -0.096 F 
ATOM     11  F3  UNL d   1       2.069   0.726   1.154  0.00  0.00    -0.097 F 
ATOM     12  F4  UNL d   1      -0.617   0.284   1.323  0.00  0.00    -0.092 F 
ENDROOT
TORSDOF 0
ENDMDL
