MODEL 1
REMARK minimizedAffinity 24.4427299
REMARK minimizedRMSD -1
REMARK  0 active torsions:
REMARK  status: ('A' for Active; 'I' for Inactive)
ROOT
ATOM      1  C   UNL d   1      -1.008  -3.153  -0.249  0.00  0.00     0.124 A 
ATOM      2  C1  UNL d   1       0.262  -3.612   0.074  0.00  0.00     0.062 A 
ATOM      3  C2  UNL d   1       1.139  -2.801   0.787  0.00  0.00     0.162 A 
ATOM      4  C3  UNL d   1       0.750  -1.521   1.183  0.00  0.00    -0.034 A 
ATOM      5  C4  UNL d   1      -0.528  -1.066   0.854  0.00  0.00     0.162 A 
ATOM      6  C5  UNL d   1      -1.401  -1.881   0.141  0.00  0.00     0.062 A 
ATOM      7  F   UNL d   1      -2.627  -1.435  -0.170  0.00  0.00    -0.097 F 
ATOM      8  F1  UNL d   1      -0.934   0.159   1.219  0.00  0.00    -0.096 F 
ATOM      9  I   UNL d   1       2.060  -0.304   2.250  0.00  0.00    -0.060 I 
ATOM     10  F2  UNL d   1       2.360  -3.270   1.086  0.00  0.00    -0.096 F 
ATOM     11  F3  UNL d   1       0.645  -4.841  -0.302  0.00  0.00    -0.097 F 
ATOM     12  F4  UNL d   1      -1.850  -3.936  -0.936  0.00  0.00    -0.092 F 
ENDROOT
TORSDOF 0
ENDMDL
