MODEL 1
REMARK minimizedAffinity 12.1677704
REMARK minimizedRMSD -1
REMARK  0 active torsions:
REMARK  status: ('A' for Active; 'I' for Inactive)
ROOT
ATOM      1  C   UNL d   1       0.553  -1.044   0.986  0.00  0.00     0.124 A 
ATOM      2  C1  UNL d   1       1.933  -0.898   1.012  0.00  0.00     0.062 A 
ATOM      3  C2  UNL d   1       2.755  -1.921   0.548  0.00  0.00     0.162 A 
ATOM      4  C3  UNL d   1       2.198  -3.100   0.053  0.00  0.00    -0.034 A 
ATOM      5  C4  UNL d   1       0.809  -3.240   0.030  0.00  0.00     0.162 A 
ATOM      6  C5  UNL d   1      -0.007  -2.214   0.495  0.00  0.00     0.062 A 
ATOM      7  F   UNL d   1      -1.341  -2.357   0.469  0.00  0.00    -0.097 F 
ATOM      8  F1  UNL d   1       0.241  -4.361  -0.440  0.00  0.00    -0.096 F 
ATOM      9  I   UNL d   1       3.422  -4.633  -0.642  0.00  0.00    -0.060 I 
ATOM     10  F2  UNL d   1       4.085  -1.753   0.585  0.00  0.00    -0.096 F 
ATOM     11  F3  UNL d   1       2.478   0.232   1.486  0.00  0.00    -0.097 F 
ATOM     12  F4  UNL d   1      -0.234  -0.058   1.433  0.00  0.00    -0.092 F 
ENDROOT
TORSDOF 0
ENDMDL
