MODEL 1
REMARK minimizedAffinity 3.89332008
REMARK minimizedRMSD -1
REMARK  0 active torsions:
REMARK  status: ('A' for Active; 'I' for Inactive)
ROOT
ATOM      1  C   UNL d   1       0.794  -1.618   0.213  0.00  0.00     0.124 A 
ATOM      2  C1  UNL d   1       0.582  -2.988   0.285  0.00  0.00     0.062 A 
ATOM      3  C2  UNL d   1       1.660  -3.866   0.240  0.00  0.00     0.162 A 
ATOM      4  C3  UNL d   1       2.962  -3.378   0.124  0.00  0.00    -0.034 A 
ATOM      5  C4  UNL d   1       3.167  -1.999   0.051  0.00  0.00     0.162 A 
ATOM      6  C5  UNL d   1       2.086  -1.125   0.096  0.00  0.00     0.062 A 
ATOM      7  F   UNL d   1       2.292   0.198   0.026  0.00  0.00    -0.097 F 
ATOM      8  F1  UNL d   1       4.405  -1.495  -0.061  0.00  0.00    -0.096 F 
ATOM      9  I   UNL d   1       4.577  -4.688   0.057  0.00  0.00    -0.060 I 
ATOM     10  F2  UNL d   1       1.426  -5.185   0.312  0.00  0.00    -0.096 F 
ATOM     11  F3  UNL d   1      -0.666  -3.467   0.397  0.00  0.00    -0.097 F 
ATOM     12  F4  UNL d   1      -0.246  -0.775   0.255  0.00  0.00    -0.092 F 
ENDROOT
TORSDOF 0
ENDMDL
