MODEL 1
REMARK minimizedAffinity 4.38822746
REMARK minimizedRMSD -1
REMARK  0 active torsions:
REMARK  status: ('A' for Active; 'I' for Inactive)
ROOT
ATOM      1  C   UNL d   1       0.535  -0.694   1.407  0.00  0.00     0.124 A 
ATOM      2  C1  UNL d   1       1.902  -0.480   1.306  0.00  0.00     0.062 A 
ATOM      3  C2  UNL d   1       2.730  -1.472   0.788  0.00  0.00     0.162 A 
ATOM      4  C3  UNL d   1       2.192  -2.687   0.365  0.00  0.00    -0.034 A 
ATOM      5  C4  UNL d   1       0.815  -2.896   0.471  0.00  0.00     0.162 A 
ATOM      6  C5  UNL d   1      -0.007  -1.901   0.989  0.00  0.00     0.062 A 
ATOM      7  F   UNL d   1      -1.329  -2.110   1.086  0.00  0.00    -0.097 F 
ATOM      8  F1  UNL d   1       0.265  -4.052   0.074  0.00  0.00    -0.096 F 
ATOM      9  I   UNL d   1       3.425  -4.173  -0.410  0.00  0.00    -0.060 I 
ATOM     10  F2  UNL d   1       4.048  -1.238   0.702  0.00  0.00    -0.096 F 
ATOM     11  F3  UNL d   1       2.429   0.685   1.710  0.00  0.00    -0.097 F 
ATOM     12  F4  UNL d   1      -0.259   0.262   1.907  0.00  0.00    -0.092 F 
ENDROOT
TORSDOF 0
ENDMDL
