MODEL 1
REMARK minimizedAffinity 8.31220722
REMARK minimizedRMSD -1
REMARK  0 active torsions:
REMARK  status: ('A' for Active; 'I' for Inactive)
ROOT
ATOM      1  C   UNL d   1       3.720  -1.990   1.062  0.00  0.00     0.124 A 
ATOM      2  C1  UNL d   1       3.498  -3.066   0.215  0.00  0.00     0.062 A 
ATOM      3  C2  UNL d   1       2.203  -3.527  -0.006  0.00  0.00     0.162 A 
ATOM      4  C3  UNL d   1       1.120  -2.910   0.621  0.00  0.00    -0.034 A 
ATOM      5  C4  UNL d   1       1.352  -1.829   1.472  0.00  0.00     0.162 A 
ATOM      6  C5  UNL d   1       2.648  -1.372   1.689  0.00  0.00     0.062 A 
ATOM      7  F   UNL d   1       2.861  -0.332   2.508  0.00  0.00    -0.097 F 
ATOM      8  F1  UNL d   1       0.334  -1.213   2.091  0.00  0.00    -0.096 F 
ATOM      9  I   UNL d   1      -0.817  -3.596   0.293  0.00  0.00    -0.060 I 
ATOM     10  F2  UNL d   1       2.017  -4.569  -0.830  0.00  0.00    -0.096 F 
ATOM     11  F3  UNL d   1       4.532  -3.665  -0.392  0.00  0.00    -0.097 F 
ATOM     12  F4  UNL d   1       4.967  -1.549   1.273  0.00  0.00    -0.092 F 
ENDROOT
TORSDOF 0
ENDMDL
