MODEL 1
REMARK minimizedAffinity 13.9046698
REMARK minimizedRMSD -1
REMARK  0 active torsions:
REMARK  status: ('A' for Active; 'I' for Inactive)
ROOT
ATOM      1  C   UNL d   1      -2.413   2.241   2.238  0.00  0.00     0.124 A 
ATOM      2  C1  UNL d   1      -2.130   1.489   3.371  0.00  0.00     0.062 A 
ATOM      3  C2  UNL d   1      -3.152   1.124   4.242  0.00  0.00     0.162 A 
ATOM      4  C3  UNL d   1      -4.468   1.508   3.984  0.00  0.00    -0.034 A 
ATOM      5  C4  UNL d   1      -4.745   2.265   2.844  0.00  0.00     0.162 A 
ATOM      6  C5  UNL d   1      -3.720   2.627   1.976  0.00  0.00     0.062 A 
ATOM      7  F   UNL d   1      -3.996   3.353   0.883  0.00  0.00    -0.097 F 
ATOM      8  F1  UNL d   1      -5.999   2.651   2.566  0.00  0.00    -0.096 F 
ATOM      9  I   UNL d   1      -5.998   0.964   5.285  0.00  0.00    -0.060 I 
ATOM     10  F2  UNL d   1      -2.849   0.397   5.328  0.00  0.00    -0.096 F 
ATOM     11  F3  UNL d   1      -0.868   1.115   3.627  0.00  0.00    -0.097 F 
ATOM     12  F4  UNL d   1      -1.428   2.592   1.402  0.00  0.00    -0.092 F 
ENDROOT
TORSDOF 0
ENDMDL
