MODEL 1
REMARK minimizedAffinity -1.61827803
REMARK minimizedRMSD -1
REMARK  0 active torsions:
REMARK  status: ('A' for Active; 'I' for Inactive)
ROOT
ATOM      1  C4' PXY d   1      -1.069   5.974  -6.000  0.00  0.00     0.077 C 
ATOM      2  C1' PXY d   1      -5.246   5.984  -2.004  0.00  0.00     0.077 C 
ATOM      3  C1  PXY d   1      -4.159   5.976  -3.061  0.00  0.00    -0.082 A 
ATOM      4  C2  PXY d   1      -2.888   5.974  -2.692  0.00  0.00     0.003 A 
ATOM      5  C3  PXY d   1      -1.892   6.000  -3.634  0.00  0.00     0.003 A 
ATOM      6  C4  PXY d   1      -2.200   5.973  -4.968  0.00  0.00    -0.082 A 
ATOM      7  C5  PXY d   1      -3.494   5.964  -5.352  0.00  0.00     0.003 A 
ATOM      8  C6  PXY d   1      -4.490   5.980  -4.381  0.00  0.00     0.003 A 
ENDROOT
TORSDOF 0
ENDMDL
