MODEL 1
REMARK minimizedAffinity 5.99836731
REMARK minimizedRMSD -1
REMARK  0 active torsions:
REMARK  status: ('A' for Active; 'I' for Inactive)
ROOT
ATOM      1  C4' PXY d   1      -2.296   1.296   5.181  0.00  0.00     0.077 C 
ATOM      2  C1' PXY d   1      -5.061  -2.535   1.850  0.00  0.00     0.077 C 
ATOM      3  C1  PXY d   1      -4.326  -1.530   2.715  0.00  0.00    -0.082 A 
ATOM      4  C2  PXY d   1      -4.627  -1.430   4.000  0.00  0.00     0.003 A 
ATOM      5  C3  PXY d   1      -3.994  -0.505   4.790  0.00  0.00     0.003 A 
ATOM      6  C4  PXY d   1      -3.006   0.289   4.271  0.00  0.00    -0.082 A 
ATOM      7  C5  PXY d   1      -2.686   0.185   2.964  0.00  0.00     0.003 A 
ATOM      8  C6  PXY d   1      -3.369  -0.731   2.170  0.00  0.00     0.003 A 
ENDROOT
TORSDOF 0
ENDMDL
