MODEL 1
REMARK minimizedAffinity 7.21188211
REMARK minimizedRMSD -1
REMARK  0 active torsions:
REMARK  status: ('A' for Active; 'I' for Inactive)
ROOT
ATOM      1  C4' PXY d   1      -3.649   1.090   6.000  0.00  0.00     0.077 C 
ATOM      2  C1' PXY d   1      -5.434  -2.699   2.016  0.00  0.00     0.077 C 
ATOM      3  C1  PXY d   1      -4.976  -1.708   3.068  0.00  0.00    -0.082 A 
ATOM      4  C2  PXY d   1      -4.129  -0.747   2.737  0.00  0.00     0.003 A 
ATOM      5  C3  PXY d   1      -3.680   0.138   3.683  0.00  0.00     0.003 A 
ATOM      6  C4  PXY d   1      -4.145   0.073   4.969  0.00  0.00    -0.082 A 
ATOM      7  C5  PXY d   1      -5.018  -0.898   5.312  0.00  0.00     0.003 A 
ATOM      8  C6  PXY d   1      -5.430  -1.812   4.346  0.00  0.00     0.003 A 
ENDROOT
TORSDOF 0
ENDMDL
