MODEL 1
REMARK minimizedAffinity 15.2649584
REMARK minimizedRMSD -1
REMARK  0 active torsions:
REMARK  status: ('A' for Active; 'I' for Inactive)
ROOT
ATOM      1  C4' PXY d   1      -6.000   0.072  -4.547  0.00  0.00     0.077 C 
ATOM      2  C1' PXY d   1      -5.463   0.617   1.183  0.00  0.00     0.077 C 
ATOM      3  C1  PXY d   1      -5.601   0.461  -0.318  0.00  0.00    -0.082 A 
ATOM      4  C2  PXY d   1      -5.455   1.518  -1.101  0.00  0.00     0.003 A 
ATOM      5  C3  PXY d   1      -5.608   1.401  -2.459  0.00  0.00     0.003 A 
ATOM      6  C4  PXY d   1      -5.860   0.181  -3.026  0.00  0.00    -0.082 A 
ATOM      7  C5  PXY d   1      -6.000  -0.904  -2.234  0.00  0.00     0.003 A 
ATOM      8  C6  PXY d   1      -5.882  -0.757  -0.855  0.00  0.00     0.003 A 
ENDROOT
TORSDOF 0
ENDMDL
