MODEL 1
REMARK minimizedAffinity 18.8869209
REMARK minimizedRMSD -1
REMARK  0 active torsions:
REMARK  status: ('A' for Active; 'I' for Inactive)
ROOT
ATOM      1  C4' PXY d   1      -2.020   0.839   1.941  0.00  0.00     0.077 C 
ATOM      2  C1' PXY d   1       1.857  -2.958   3.931  0.00  0.00     0.077 C 
ATOM      3  C1  PXY d   1       0.843  -1.966   3.397  0.00  0.00    -0.082 A 
ATOM      4  C2  PXY d   1       0.507  -0.916   4.129  0.00  0.00     0.003 A 
ATOM      5  C3  PXY d   1      -0.432  -0.026   3.675  0.00  0.00     0.003 A 
ATOM      6  C4  PXY d   1      -0.994  -0.183   2.436  0.00  0.00    -0.082 A 
ATOM      7  C5  PXY d   1      -0.648  -1.246   1.678  0.00  0.00     0.003 A 
ATOM      8  C6  PXY d   1       0.277  -2.160   2.175  0.00  0.00     0.003 A 
ENDROOT
TORSDOF 0
ENDMDL
