MODEL 1
REMARK minimizedAffinity 13.5669003
REMARK minimizedRMSD -1
REMARK  0 active torsions:
REMARK  status: ('A' for Active; 'I' for Inactive)
ROOT
ATOM      1  C4' PXY d   1      -4.306   2.521   5.790  0.00  0.00     0.077 C 
ATOM      2  C1' PXY d   1      -1.225  -0.838   2.236  0.00  0.00     0.077 C 
ATOM      3  C1  PXY d   1      -2.038   0.049   3.157  0.00  0.00    -0.082 A 
ATOM      4  C2  PXY d   1      -1.640   0.234   4.406  0.00  0.00     0.003 A 
ATOM      5  C3  PXY d   1      -2.381   1.007   5.262  0.00  0.00     0.003 A 
ATOM      6  C4  PXY d   1      -3.511   1.641   4.821  0.00  0.00    -0.082 A 
ATOM      7  C5  PXY d   1      -3.917   1.467   3.546  0.00  0.00     0.003 A 
ATOM      8  C6  PXY d   1      -3.174   0.644   2.704  0.00  0.00     0.003 A 
ENDROOT
TORSDOF 0
ENDMDL
