MODEL 1
REMARK minimizedAffinity 6.04737949
REMARK minimizedRMSD -1
REMARK  0 active torsions:
REMARK  status: ('A' for Active; 'I' for Inactive)
ROOT
ATOM      1  C4' PXY d   1      -4.556  -2.219   1.869  0.00  0.00     0.077 C 
ATOM      2  C1' PXY d   1      -5.997  -5.999   5.999  0.00  0.00     0.077 C 
ATOM      3  C1  PXY d   1      -5.613  -5.017   4.909  0.00  0.00    -0.082 A 
ATOM      4  C2  PXY d   1      -5.557  -3.724   5.184  0.00  0.00     0.003 A 
ATOM      5  C3  PXY d   1      -5.242  -2.819   4.203  0.00  0.00     0.003 A 
ATOM      6  C4  PXY d   1      -4.930  -3.248   2.940  0.00  0.00    -0.082 A 
ATOM      7  C5  PXY d   1      -4.974  -4.566   2.655  0.00  0.00     0.003 A 
ATOM      8  C6  PXY d   1      -5.336  -5.465   3.655  0.00  0.00     0.003 A 
ENDROOT
TORSDOF 0
ENDMDL
