MODEL 1
REMARK minimizedAffinity 4.27488136
REMARK minimizedRMSD -1
REMARK  0 active torsions:
REMARK  status: ('A' for Active; 'I' for Inactive)
ROOT
ATOM      1  C4' PXY d   1       1.816  -2.497   3.108  0.00  0.00     0.077 C 
ATOM      2  C1' PXY d   1      -2.888   0.853   2.865  0.00  0.00     0.077 C 
ATOM      3  C1  PXY d   1      -1.660  -0.034   2.921  0.00  0.00    -0.082 A 
ATOM      4  C2  PXY d   1      -0.851   0.034   3.965  0.00  0.00     0.003 A 
ATOM      5  C3  PXY d   1       0.281  -0.738   4.017  0.00  0.00     0.003 A 
ATOM      6  C4  PXY d   1       0.560  -1.627   3.013  0.00  0.00    -0.082 A 
ATOM      7  C5  PXY d   1      -0.267  -1.710   1.949  0.00  0.00     0.003 A 
ATOM      8  C6  PXY d   1      -1.389  -0.888   1.897  0.00  0.00     0.003 A 
ENDROOT
TORSDOF 0
ENDMDL
