MODEL 1
REMARK minimizedAffinity 17.7915993
REMARK minimizedRMSD -1
REMARK  0 active torsions:
REMARK  status: ('A' for Active; 'I' for Inactive)
ROOT
ATOM      1  C4' PXY d   1       1.328   0.935  -0.737  0.00  0.00     0.077 C 
ATOM      2  C1' PXY d   1       5.997   3.185   1.822  0.00  0.00     0.077 C 
ATOM      3  C1  PXY d   1       4.780   2.589   1.142  0.00  0.00    -0.082 A 
ATOM      4  C2  PXY d   1       3.608   3.192   1.254  0.00  0.00     0.003 A 
ATOM      5  C3  PXY d   1       2.491   2.649   0.672  0.00  0.00     0.003 A 
ATOM      6  C4  PXY d   1       2.585   1.506  -0.076  0.00  0.00    -0.082 A 
ATOM      7  C5  PXY d   1       3.780   0.891  -0.203  0.00  0.00     0.003 A 
ATOM      8  C6  PXY d   1       4.894   1.435   0.429  0.00  0.00     0.003 A 
ENDROOT
TORSDOF 0
ENDMDL
