MODEL 1
REMARK minimizedAffinity 12.6355705
REMARK minimizedRMSD -1
REMARK  0 active torsions:
REMARK  status: ('A' for Active; 'I' for Inactive)
ROOT
ATOM      1  C4' PXY d   1      -1.792   1.081   3.996  0.00  0.00     0.077 C 
ATOM      2  C1' PXY d   1      -1.285  -3.063  -0.001  0.00  0.00     0.077 C 
ATOM      3  C1  PXY d   1      -1.407  -1.981   1.053  0.00  0.00    -0.082 A 
ATOM      4  C2  PXY d   1      -2.590  -1.445   1.307  0.00  0.00     0.003 A 
ATOM      5  C3  PXY d   1      -2.713  -0.443   2.234  0.00  0.00     0.003 A 
ATOM      6  C4  PXY d   1      -1.623  -0.021   2.947  0.00  0.00    -0.082 A 
ATOM      7  C5  PXY d   1      -0.414  -0.570   2.702  0.00  0.00     0.003 A 
ATOM      8  C6  PXY d   1      -0.303  -1.557   1.727  0.00  0.00     0.003 A 
ENDROOT
TORSDOF 0
ENDMDL
