MODEL 1
REMARK minimizedAffinity 13.1129665
REMARK minimizedRMSD -1
REMARK  0 active torsions:
REMARK  status: ('A' for Active; 'I' for Inactive)
ROOT
ATOM      1  C4' PXY d   1      -5.686   2.284   3.662  0.00  0.00     0.077 C 
ATOM      2  C1' PXY d   1      -0.677  -0.533   3.040  0.00  0.00     0.077 C 
ATOM      3  C1  PXY d   1      -1.991   0.207   3.190  0.00  0.00    -0.082 A 
ATOM      4  C2  PXY d   1      -2.278   0.806   4.335  0.00  0.00     0.003 A 
ATOM      5  C3  PXY d   1      -3.476   1.452   4.498  0.00  0.00     0.003 A 
ATOM      6  C4  PXY d   1      -4.367   1.533   3.462  0.00  0.00    -0.082 A 
ATOM      7  C5  PXY d   1      -4.078   0.934   2.287  0.00  0.00     0.003 A 
ATOM      8  C6  PXY d   1      -2.874   0.247   2.155  0.00  0.00     0.003 A 
ENDROOT
TORSDOF 0
ENDMDL
