MODEL 1
REMARK minimizedAffinity 4.56476259
REMARK minimizedRMSD -1
REMARK  0 active torsions:
REMARK  status: ('A' for Active; 'I' for Inactive)
ROOT
ATOM      1  C4' PXY d   1      -2.503  -0.576   0.810  0.00  0.00     0.077 C 
ATOM      2  C1' PXY d   1       1.255  -3.299   4.257  0.00  0.00     0.077 C 
ATOM      3  C1  PXY d   1       0.276  -2.590   3.343  0.00  0.00    -0.082 A 
ATOM      4  C2  PXY d   1      -0.352  -1.507   3.771  0.00  0.00     0.003 A 
ATOM      5  C3  PXY d   1      -1.265  -0.872   2.969  0.00  0.00     0.003 A 
ATOM      6  C4  PXY d   1      -1.498  -1.319   1.696  0.00  0.00    -0.082 A 
ATOM      7  C5  PXY d   1      -0.854  -2.417   1.248  0.00  0.00     0.003 A 
ATOM      8  C6  PXY d   1       0.039  -3.072   2.092  0.00  0.00     0.003 A 
ENDROOT
TORSDOF 0
ENDMDL
