MODEL 1
REMARK minimizedAffinity 4.7059269
REMARK minimizedRMSD -1
REMARK  0 active torsions:
REMARK  status: ('A' for Active; 'I' for Inactive)
ROOT
ATOM      1  C4' PXY d   1      -1.792   5.922  -6.000  0.00  0.00     0.077 C 
ATOM      2  C1' PXY d   1      -5.317   5.898  -1.418  0.00  0.00     0.077 C 
ATOM      3  C1  PXY d   1      -4.402   5.900  -2.627  0.00  0.00    -0.082 A 
ATOM      4  C2  PXY d   1      -3.093   5.813  -2.457  0.00  0.00     0.003 A 
ATOM      5  C3  PXY d   1      -2.249   5.845  -3.538  0.00  0.00     0.003 A 
ATOM      6  C4  PXY d   1      -2.754   5.914  -4.809  0.00  0.00    -0.082 A 
ATOM      7  C5  PXY d   1      -4.089   5.992  -4.991  0.00  0.00     0.003 A 
ATOM      8  C6  PXY d   1      -4.926   5.999  -3.879  0.00  0.00     0.003 A 
ENDROOT
TORSDOF 0
ENDMDL
