MODEL 1
REMARK minimizedAffinity 12.4673014
REMARK minimizedRMSD -1
REMARK  0 active torsions:
REMARK  status: ('A' for Active; 'I' for Inactive)
ROOT
ATOM      1  C4' PXY d   1       0.845  -1.058   1.759  0.00  0.00     0.077 C 
ATOM      2  C1' PXY d   1      -4.713   0.487   1.380  0.00  0.00     0.077 C 
ATOM      3  C1  PXY d   1      -3.259   0.069   1.478  0.00  0.00    -0.082 A 
ATOM      4  C2  PXY d   1      -2.381   0.884   2.039  0.00  0.00     0.003 A 
ATOM      5  C3  PXY d   1      -1.056   0.536   2.108  0.00  0.00     0.003 A 
ATOM      6  C4  PXY d   1      -0.635  -0.682   1.646  0.00  0.00    -0.082 A 
ATOM      7  C5  PXY d   1      -1.527  -1.524   1.082  0.00  0.00     0.003 A 
ATOM      8  C6  PXY d   1      -2.860  -1.134   0.984  0.00  0.00     0.003 A 
ENDROOT
TORSDOF 0
ENDMDL
