MODEL 1
REMARK minimizedAffinity 16.2529469
REMARK minimizedRMSD -1
REMARK  0 active torsions:
REMARK  status: ('A' for Active; 'I' for Inactive)
ROOT
ATOM      1  C4' PXY d   1       5.254   5.497  -0.902  0.00  0.00     0.077 C 
ATOM      2  C1' PXY d   1       3.940   3.109  -6.000  0.00  0.00     0.077 C 
ATOM      3  C1  PXY d   1       4.297   3.734  -4.665  0.00  0.00    -0.082 A 
ATOM      4  C2  PXY d   1       3.412   3.728  -3.682  0.00  0.00     0.003 A 
ATOM      5  C3  PXY d   1       3.707   4.316  -2.479  0.00  0.00     0.003 A 
ATOM      6  C4  PXY d   1       4.940   4.870  -2.263  0.00  0.00    -0.082 A 
ATOM      7  C5  PXY d   1       5.853   4.871  -3.258  0.00  0.00     0.003 A 
ATOM      8  C6  PXY d   1       5.519   4.304  -4.485  0.00  0.00     0.003 A 
ENDROOT
TORSDOF 0
ENDMDL
