MODEL 1
REMARK minimizedAffinity 4.89987183
REMARK minimizedRMSD -1
REMARK  0 active torsions:
REMARK  status: ('A' for Active; 'I' for Inactive)
ROOT
ATOM      1  C4' PXY d   1      -5.998  -5.974   5.943  0.00  0.00     0.077 C 
ATOM      2  C1' PXY d   1      -3.880  -2.415   1.910  0.00  0.00     0.077 C 
ATOM      3  C1  PXY d   1      -4.442  -3.355   2.959  0.00  0.00    -0.082 A 
ATOM      4  C2  PXY d   1      -4.508  -2.963   4.221  0.00  0.00     0.003 A 
ATOM      5  C3  PXY d   1      -4.984  -3.812   5.187  0.00  0.00     0.003 A 
ATOM      6  C4  PXY d   1      -5.447  -5.055   4.849  0.00  0.00    -0.082 A 
ATOM      7  C5  PXY d   1      -5.393  -5.459   3.562  0.00  0.00     0.003 A 
ATOM      8  C6  PXY d   1      -4.868  -4.597   2.603  0.00  0.00     0.003 A 
ENDROOT
TORSDOF 0
ENDMDL
