MODEL 1
REMARK minimizedAffinity 12.0582247
REMARK minimizedRMSD -1
REMARK  0 active torsions:
REMARK  status: ('A' for Active; 'I' for Inactive)
ROOT
ATOM      1  C4' PXY d   1      -5.952   0.695   1.173  0.00  0.00     0.077 C 
ATOM      2  C1' PXY d   1      -6.000  -0.349  -4.512  0.00  0.00     0.077 C 
ATOM      3  C1  PXY d   1      -5.993  -0.087  -3.019  0.00  0.00    -0.082 A 
ATOM      4  C2  PXY d   1      -5.975   1.159  -2.574  0.00  0.00     0.003 A 
ATOM      5  C3  PXY d   1      -5.936   1.414  -1.227  0.00  0.00     0.003 A 
ATOM      6  C4  PXY d   1      -5.970   0.384  -0.326  0.00  0.00    -0.082 A 
ATOM      7  C5  PXY d   1      -5.999  -0.890  -0.772  0.00  0.00     0.003 A 
ATOM      8  C6  PXY d   1      -5.996  -1.128  -2.144  0.00  0.00     0.003 A 
ENDROOT
TORSDOF 0
ENDMDL
