MODEL 1
REMARK minimizedAffinity 11.8993711
REMARK minimizedRMSD -1
REMARK  0 active torsions:
REMARK  status: ('A' for Active; 'I' for Inactive)
ROOT
ATOM      1  C4' PXY d   1       0.409   6.000  -1.509  0.00  0.00     0.077 C 
ATOM      2  C1' PXY d   1       3.876   2.625  -4.672  0.00  0.00     0.077 C 
ATOM      3  C1  PXY d   1       2.976   3.511  -3.833  0.00  0.00    -0.082 A 
ATOM      4  C2  PXY d   1       1.664   3.448  -3.992  0.00  0.00     0.003 A 
ATOM      5  C3  PXY d   1       0.837   4.265  -3.265  0.00  0.00     0.003 A 
ATOM      6  C4  PXY d   1       1.355   5.117  -2.327  0.00  0.00    -0.082 A 
ATOM      7  C5  PXY d   1       2.692   5.179  -2.151  0.00  0.00     0.003 A 
ATOM      8  C6  PXY d   1       3.517   4.371  -2.928  0.00  0.00     0.003 A 
ENDROOT
TORSDOF 0
ENDMDL
