MODEL 1
REMARK minimizedAffinity 12.392149
REMARK minimizedRMSD -1
REMARK  0 active torsions:
REMARK  status: ('A' for Active; 'I' for Inactive)
ROOT
ATOM      1  C4' PXY d   1      -0.538  -1.279   1.511  0.00  0.00     0.077 C 
ATOM      2  C1' PXY d   1      -5.701  -3.673   0.495  0.00  0.00     0.077 C 
ATOM      3  C1  PXY d   1      -4.349  -3.036   0.752  0.00  0.00    -0.082 A 
ATOM      4  C2  PXY d   1      -3.375  -3.759   1.281  0.00  0.00     0.003 A 
ATOM      5  C3  PXY d   1      -2.157  -3.191   1.550  0.00  0.00     0.003 A 
ATOM      6  C4  PXY d   1      -1.916  -1.883   1.225  0.00  0.00    -0.082 A 
ATOM      7  C5  PXY d   1      -2.901  -1.141   0.676  0.00  0.00     0.003 A 
ATOM      8  C6  PXY d   1      -4.144  -1.726   0.449  0.00  0.00     0.003 A 
ENDROOT
TORSDOF 0
ENDMDL
