MODEL 1
REMARK minimizedAffinity 11.2955818
REMARK minimizedRMSD -1
REMARK  0 active torsions:
REMARK  status: ('A' for Active; 'I' for Inactive)
ROOT
ATOM      1  C4' PXY d   1       5.997   5.036  -4.875  0.00  0.00     0.077 C 
ATOM      2  C1' PXY d   1       1.594   2.204  -2.425  0.00  0.00     0.077 C 
ATOM      3  C1  PXY d   1       2.747   2.956  -3.058  0.00  0.00    -0.082 A 
ATOM      4  C2  PXY d   1       3.054   2.737  -4.327  0.00  0.00     0.003 A 
ATOM      5  C3  PXY d   1       4.114   3.385  -4.907  0.00  0.00     0.003 A 
ATOM      6  C4  PXY d   1       4.835   4.307  -4.196  0.00  0.00    -0.082 A 
ATOM      7  C5  PXY d   1       4.522   4.544  -2.905  0.00  0.00     0.003 A 
ATOM      8  C6  PXY d   1       3.468   3.846  -2.323  0.00  0.00     0.003 A 
ENDROOT
TORSDOF 0
ENDMDL
