MODEL 1
REMARK minimizedAffinity -4.18174887
REMARK minimizedRMSD -1
REMARK  3 active torsions:
REMARK  status: ('A' for Active; 'I' for Inactive)
REMARK    1  A    between atoms: C3'_2  and  C2'_3 
REMARK    2  A    between atoms: C2'_3  and  C1'_4 
REMARK    3  A    between atoms: C1'_4  and  C1_5 
ROOT
ATOM      1  C1  N4B d   1      -2.531   1.162   2.732  0.00  0.00    -0.075 A 
ATOM      2  C2  N4B d   1      -2.264  -0.105   2.168  0.00  0.00     0.002 A 
ATOM      3  C3  N4B d   1      -1.109  -0.308   1.452  0.00  0.00     0.002 A 
ATOM      4  C4  N4B d   1      -0.221   0.741   1.272  0.00  0.00    -0.004 A 
ATOM      5  C5  N4B d   1      -0.474   1.955   1.842  0.00  0.00     0.002 A 
ATOM      6  C6  N4B d   1      -1.628   2.172   2.567  0.00  0.00     0.002 A 
ENDROOT
BRANCH   1   7
ATOM      7  C1' N4B d   1      -3.820   1.456   3.449  0.00  0.00     0.057 C 
BRANCH   7   8
ATOM      8  C2' N4B d   1      -3.600   2.611   4.421  0.00  0.00     0.009 C 
BRANCH   8   9
ATOM      9  C3' N4B d   1      -4.596   2.586   5.568  0.00  0.00     0.004 C 
ATOM     10  C4' N4B d   1      -5.106   3.951   5.925  0.00  0.00     0.003 C 
ENDBRANCH   8   9
ENDBRANCH   7   8
ENDBRANCH   1   7
TORSDOF 3
ENDMDL
