MODEL 1
REMARK minimizedAffinity -3.06938052
REMARK minimizedRMSD -1
REMARK  3 active torsions:
REMARK  status: ('A' for Active; 'I' for Inactive)
REMARK    1  A    between atoms: C3'_2  and  C2'_3 
REMARK    2  A    between atoms: C2'_3  and  C1'_4 
REMARK    3  A    between atoms: C1'_4  and  C1_5 
ROOT
ATOM      1  C1  N4B d   1      -1.936   1.214   2.837  0.00  0.00    -0.075 A 
ATOM      2  C2  N4B d   1      -0.831   1.855   2.235  0.00  0.00     0.002 A 
ATOM      3  C3  N4B d   1       0.104   1.116   1.553  0.00  0.00     0.002 A 
ATOM      4  C4  N4B d   1      -0.035  -0.262   1.476  0.00  0.00    -0.004 A 
ATOM      5  C5  N4B d   1      -1.118  -0.871   2.038  0.00  0.00     0.002 A 
ATOM      6  C6  N4B d   1      -2.068  -0.140   2.724  0.00  0.00     0.002 A 
ENDROOT
BRANCH   1   7
ATOM      7  C1' N4B d   1      -2.938   1.970   3.666  0.00  0.00     0.057 C 
BRANCH   7   8
ATOM      8  C2' N4B d   1      -3.994   0.998   4.185  0.00  0.00     0.009 C 
BRANCH   8   9
ATOM      9  C3' N4B d   1      -5.118   1.716   4.912  0.00  0.00     0.004 C 
ATOM     10  C4' N4B d   1      -4.619   2.686   5.941  0.00  0.00     0.003 C 
ENDBRANCH   8   9
ENDBRANCH   7   8
ENDBRANCH   1   7
TORSDOF 3
ENDMDL
