MODEL 1
REMARK minimizedAffinity -0.644241571
REMARK minimizedRMSD -1
REMARK  3 active torsions:
REMARK  status: ('A' for Active; 'I' for Inactive)
REMARK    1  A    between atoms: C3'_2  and  C2'_3 
REMARK    2  A    between atoms: C2'_3  and  C1'_4 
REMARK    3  A    between atoms: C1'_4  and  C1_5 
ROOT
ATOM      1  C1  N4B d   1      -2.101   1.911   3.097  0.00  0.00    -0.075 A 
ATOM      2  C2  N4B d   1      -0.983   2.551   2.519  0.00  0.00     0.002 A 
ATOM      3  C3  N4B d   1      -0.059   1.818   1.816  0.00  0.00     0.002 A 
ATOM      4  C4  N4B d   1      -0.221   0.446   1.695  0.00  0.00    -0.004 A 
ATOM      5  C5  N4B d   1      -1.317  -0.162   2.235  0.00  0.00     0.002 A 
ATOM      6  C6  N4B d   1      -2.256   0.564   2.941  0.00  0.00     0.002 A 
ENDROOT
BRANCH   1   7
ATOM      7  C1' N4B d   1      -3.092   2.657   3.947  0.00  0.00     0.057 C 
BRANCH   7   8
ATOM      8  C2' N4B d   1      -4.334   1.793   4.145  0.00  0.00     0.009 C 
BRANCH   8   9
ATOM      9  C3' N4B d   1      -4.978   2.026   5.501  0.00  0.00     0.004 C 
ATOM     10  C4' N4B d   1      -4.823   3.437   5.983  0.00  0.00     0.003 C 
ENDBRANCH   8   9
ENDBRANCH   7   8
ENDBRANCH   1   7
TORSDOF 3
ENDMDL
