MODEL 1
REMARK minimizedAffinity -1.99233532
REMARK minimizedRMSD -1
REMARK  3 active torsions:
REMARK  status: ('A' for Active; 'I' for Inactive)
REMARK    1  A    between atoms: C3'_2  and  C2'_3 
REMARK    2  A    between atoms: C2'_3  and  C1'_4 
REMARK    3  A    between atoms: C1'_4  and  C1_5 
ROOT
ATOM      1  C1  N4B d   1      -2.001   0.793   2.440  0.00  0.00    -0.075 A 
ATOM      2  C2  N4B d   1      -1.368   2.054   2.513  0.00  0.00     0.002 A 
ATOM      3  C3  N4B d   1      -0.182   2.265   1.854  0.00  0.00     0.002 A 
ATOM      4  C4  N4B d   1       0.398   1.230   1.136  0.00  0.00    -0.004 A 
ATOM      5  C5  N4B d   1      -0.232   0.023   1.050  0.00  0.00     0.002 A 
ATOM      6  C6  N4B d   1      -1.427  -0.202   1.704  0.00  0.00     0.002 A 
ENDROOT
BRANCH   1   7
ATOM      7  C1' N4B d   1      -3.255   0.488   3.213  0.00  0.00     0.057 C 
BRANCH   7   8
ATOM      8  C2' N4B d   1      -3.588  -0.993   3.063  0.00  0.00     0.009 C 
BRANCH   8   9
ATOM      9  C3' N4B d   1      -3.507  -1.731   4.389  0.00  0.00     0.004 C 
ATOM     10  C4' N4B d   1      -4.258  -3.028   4.379  0.00  0.00     0.003 C 
ENDBRANCH   8   9
ENDBRANCH   7   8
ENDBRANCH   1   7
TORSDOF 3
ENDMDL
