MODEL 1
REMARK minimizedAffinity -5.33018875
REMARK minimizedRMSD -1
REMARK  3 active torsions:
REMARK  status: ('A' for Active; 'I' for Inactive)
REMARK    1  A    between atoms: C3'_2  and  C2'_3 
REMARK    2  A    between atoms: C2'_3  and  C1'_4 
REMARK    3  A    between atoms: C1'_4  and  C1_5 
ROOT
ATOM      1  C1  N4B d   1      -2.201   1.738   2.202  0.00  0.00    -0.075 A 
ATOM      2  C2  N4B d   1      -2.286   0.447   1.636  0.00  0.00     0.002 A 
ATOM      3  C3  N4B d   1      -1.185  -0.114   1.037  0.00  0.00     0.002 A 
ATOM      4  C4  N4B d   1       0.002   0.602   0.976  0.00  0.00    -0.004 A 
ATOM      5  C5  N4B d   1       0.083   1.838   1.547  0.00  0.00     0.002 A 
ATOM      6  C6  N4B d   1      -1.015   2.412   2.156  0.00  0.00     0.002 A 
ENDROOT
BRANCH   1   7
ATOM      7  C1' N4B d   1      -3.401   2.427   2.792  0.00  0.00     0.057 C 
BRANCH   7   8
ATOM      8  C2' N4B d   1      -4.014   1.534   3.866  0.00  0.00     0.009 C 
BRANCH   8   9
ATOM      9  C3' N4B d   1      -4.139   2.252   5.199  0.00  0.00     0.004 C 
ATOM     10  C4' N4B d   1      -5.379   1.870   5.950  0.00  0.00     0.003 C 
ENDBRANCH   8   9
ENDBRANCH   7   8
ENDBRANCH   1   7
TORSDOF 3
ENDMDL
