MODEL 1
REMARK minimizedAffinity -3.44435692
REMARK minimizedRMSD -1
REMARK  3 active torsions:
REMARK  status: ('A' for Active; 'I' for Inactive)
REMARK    1  A    between atoms: C3'_2  and  C2'_3 
REMARK    2  A    between atoms: C2'_3  and  C1'_4 
REMARK    3  A    between atoms: C1'_4  and  C1_5 
ROOT
ATOM      1  C1  N4B d   1      -2.002   1.461   1.803  0.00  0.00    -0.075 A 
ATOM      2  C2  N4B d   1      -1.947   0.095   1.449  0.00  0.00     0.002 A 
ATOM      3  C3  N4B d   1      -0.745  -0.478   1.113  0.00  0.00     0.002 A 
ATOM      4  C4  N4B d   1       0.406   0.295   1.106  0.00  0.00    -0.004 A 
ATOM      5  C5  N4B d   1       0.348   1.608   1.474  0.00  0.00     0.002 A 
ATOM      6  C6  N4B d   1      -0.853   2.196   1.817  0.00  0.00     0.002 A 
ENDROOT
BRANCH   1   7
ATOM      7  C1' N4B d   1      -3.306   2.154   2.094  0.00  0.00     0.057 C 
BRANCH   7   8
ATOM      8  C2' N4B d   1      -4.036   1.400   3.202  0.00  0.00     0.009 C 
BRANCH   8   9
ATOM      9  C3' N4B d   1      -5.254   2.161   3.699  0.00  0.00     0.004 C 
ATOM     10  C4' N4B d   1      -5.174   2.493   5.159  0.00  0.00     0.003 C 
ENDBRANCH   8   9
ENDBRANCH   7   8
ENDBRANCH   1   7
TORSDOF 3
ENDMDL
