MODEL 1
REMARK minimizedAffinity -5.46195173
REMARK minimizedRMSD -1
REMARK  3 active torsions:
REMARK  status: ('A' for Active; 'I' for Inactive)
REMARK    1  A    between atoms: C3'_2  and  C2'_3 
REMARK    2  A    between atoms: C2'_3  and  C1'_4 
REMARK    3  A    between atoms: C1'_4  and  C1_5 
ROOT
ATOM      1  C1  N4B d   1      -1.957   0.716   2.332  0.00  0.00    -0.075 A 
ATOM      2  C2  N4B d   1      -1.237  -0.354   1.758  0.00  0.00     0.002 A 
ATOM      3  C3  N4B d   1      -0.107  -0.103   1.019  0.00  0.00     0.002 A 
ATOM      4  C4  N4B d   1       0.309   1.205   0.825  0.00  0.00    -0.004 A 
ATOM      5  C5  N4B d   1      -0.378   2.232   1.404  0.00  0.00     0.002 A 
ATOM      6  C6  N4B d   1      -1.513   1.994   2.153  0.00  0.00     0.002 A 
ENDROOT
BRANCH   1   7
ATOM      7  C1' N4B d   1      -3.246   0.497   3.076  0.00  0.00     0.057 C 
BRANCH   7   8
ATOM      8  C2' N4B d   1      -3.668   1.804   3.741  0.00  0.00     0.009 C 
BRANCH   8   9
ATOM      9  C3' N4B d   1      -5.025   1.687   4.414  0.00  0.00     0.004 C 
ATOM     10  C4' N4B d   1      -5.040   2.267   5.796  0.00  0.00     0.003 C 
ENDBRANCH   8   9
ENDBRANCH   7   8
ENDBRANCH   1   7
TORSDOF 3
ENDMDL
