MODEL 1
REMARK minimizedAffinity -0.2336597
REMARK minimizedRMSD -1
REMARK  3 active torsions:
REMARK  status: ('A' for Active; 'I' for Inactive)
REMARK    1  A    between atoms: C3'_2  and  C2'_3 
REMARK    2  A    between atoms: C2'_3  and  C1'_4 
REMARK    3  A    between atoms: C1'_4  and  C1_5 
ROOT
ATOM      1  C1  N4B d   1       0.612   0.941   1.289  0.00  0.00    -0.075 A 
ATOM      2  C2  N4B d   1      -0.017  -0.322   1.212  0.00  0.00     0.002 A 
ATOM      3  C3  N4B d   1      -1.215  -0.532   1.850  0.00  0.00     0.002 A 
ATOM      4  C4  N4B d   1      -1.791   0.494   2.582  0.00  0.00    -0.004 A 
ATOM      5  C5  N4B d   1      -1.191   1.718   2.631  0.00  0.00     0.002 A 
ATOM      6  C6  N4B d   1       0.011   1.945   1.992  0.00  0.00     0.002 A 
ENDROOT
BRANCH   1   7
ATOM      7  C1' N4B d   1       1.964   1.193   0.680  0.00  0.00     0.057 C 
BRANCH   7   8
ATOM      8  C2' N4B d   1       2.762  -0.107   0.677  0.00  0.00     0.009 C 
BRANCH   8   9
ATOM      9  C3' N4B d   1       3.850  -0.108   1.737  0.00  0.00     0.004 C 
ATOM     10  C4' N4B d   1       3.398  -0.711   3.033  0.00  0.00     0.003 C 
ENDBRANCH   8   9
ENDBRANCH   7   8
ENDBRANCH   1   7
TORSDOF 3
ENDMDL
