MODEL 1
REMARK minimizedAffinity 1.01359391
REMARK minimizedRMSD -1
REMARK  3 active torsions:
REMARK  status: ('A' for Active; 'I' for Inactive)
REMARK    1  A    between atoms: C3'_2  and  C2'_3 
REMARK    2  A    between atoms: C2'_3  and  C1'_4 
REMARK    3  A    between atoms: C1'_4  and  C1_5 
ROOT
ATOM      1  C1  N4B d   1      -2.076   1.897   2.237  0.00  0.00    -0.075 A 
ATOM      2  C2  N4B d   1      -0.917   2.553   1.766  0.00  0.00     0.002 A 
ATOM      3  C3  N4B d   1       0.208   1.826   1.464  0.00  0.00     0.002 A 
ATOM      4  C4  N4B d   1       0.205   0.451   1.642  0.00  0.00    -0.004 A 
ATOM      5  C5  N4B d   1      -0.926  -0.178   2.073  0.00  0.00     0.002 A 
ATOM      6  C6  N4B d   1      -2.066   0.540   2.377  0.00  0.00     0.002 A 
ENDROOT
BRANCH   1   7
ATOM      7  C1' N4B d   1      -3.302   2.658   2.662  0.00  0.00     0.057 C 
BRANCH   7   8
ATOM      8  C2' N4B d   1      -3.938   1.956   3.858  0.00  0.00     0.009 C 
BRANCH   8   9
ATOM      9  C3' N4B d   1      -5.025   2.800   4.501  0.00  0.00     0.004 C 
ATOM     10  C4' N4B d   1      -5.034   2.694   5.996  0.00  0.00     0.003 C 
ENDBRANCH   8   9
ENDBRANCH   7   8
ENDBRANCH   1   7
TORSDOF 3
ENDMDL
