MODEL 1
REMARK minimizedAffinity -1.91707671
REMARK minimizedRMSD -1
REMARK  3 active torsions:
REMARK  status: ('A' for Active; 'I' for Inactive)
REMARK    1  A    between atoms: C3'_2  and  C2'_3 
REMARK    2  A    between atoms: C2'_3  and  C1'_4 
REMARK    3  A    between atoms: C1'_4  and  C1_5 
ROOT
ATOM      1  C1  N4B d   1       1.455   0.350   0.811  0.00  0.00    -0.075 A 
ATOM      2  C2  N4B d   1       0.890  -0.737   1.514  0.00  0.00     0.002 A 
ATOM      3  C3  N4B d   1      -0.388  -0.646   2.007  0.00  0.00     0.002 A 
ATOM      4  C4  N4B d   1      -1.111   0.524   1.827  0.00  0.00    -0.004 A 
ATOM      5  C5  N4B d   1      -0.568   1.560   1.126  0.00  0.00     0.002 A 
ATOM      6  C6  N4B d   1       0.715   1.481   0.621  0.00  0.00     0.002 A 
ENDROOT
BRANCH   1   7
ATOM      7  C1' N4B d   1       2.879   0.330   0.328  0.00  0.00     0.057 C 
BRANCH   7   8
ATOM      8  C2' N4B d   1       3.012  -0.694  -0.796  0.00  0.00     0.009 C 
BRANCH   8   9
ATOM      9  C3' N4B d   1       3.534  -0.067  -2.077  0.00  0.00     0.004 C 
ATOM     10  C4' N4B d   1       2.761   1.152  -2.485  0.00  0.00     0.003 C 
ENDBRANCH   8   9
ENDBRANCH   7   8
ENDBRANCH   1   7
TORSDOF 3
ENDMDL
