MODEL 1
REMARK minimizedAffinity -4.69454432
REMARK minimizedRMSD -1
REMARK  3 active torsions:
REMARK  status: ('A' for Active; 'I' for Inactive)
REMARK    1  A    between atoms: C3'_2  and  C2'_3 
REMARK    2  A    between atoms: C2'_3  and  C1'_4 
REMARK    3  A    between atoms: C1'_4  and  C1_5 
ROOT
ATOM      1  C1  N4B d   1      -0.005   0.907   1.652  0.00  0.00    -0.075 A 
ATOM      2  C2  N4B d   1      -0.504   2.066   2.285  0.00  0.00     0.002 A 
ATOM      3  C3  N4B d   1      -1.800   2.098   2.736  0.00  0.00     0.002 A 
ATOM      4  C4  N4B d   1      -2.619   0.994   2.549  0.00  0.00    -0.004 A 
ATOM      5  C5  N4B d   1      -2.122  -0.131   1.959  0.00  0.00     0.002 A 
ATOM      6  C6  N4B d   1      -0.819  -0.179   1.505  0.00  0.00     0.002 A 
ENDROOT
BRANCH   1   7
ATOM      7  C1' N4B d   1       1.380   0.856   1.065  0.00  0.00     0.057 C 
BRANCH   7   8
ATOM      8  C2' N4B d   1       1.291   0.398  -0.388  0.00  0.00     0.009 C 
BRANCH   8   9
ATOM      9  C3' N4B d   1       2.606  -0.181  -0.882  0.00  0.00     0.004 C 
ATOM     10  C4' N4B d   1       2.950   0.264  -2.273  0.00  0.00     0.003 C 
ENDBRANCH   8   9
ENDBRANCH   7   8
ENDBRANCH   1   7
TORSDOF 3
ENDMDL
