MODEL 1
REMARK minimizedAffinity -0.941605091
REMARK minimizedRMSD -1
REMARK  3 active torsions:
REMARK  status: ('A' for Active; 'I' for Inactive)
REMARK    1  A    between atoms: C3'_2  and  C2'_3 
REMARK    2  A    between atoms: C2'_3  and  C1'_4 
REMARK    3  A    between atoms: C1'_4  and  C1_5 
ROOT
ATOM      1  C1  N4B d   1      -1.618   1.121   2.169  0.00  0.00    -0.075 A 
ATOM      2  C2  N4B d   1      -1.777   1.934   1.026  0.00  0.00     0.002 A 
ATOM      3  C3  N4B d   1      -0.683   2.539   0.455  0.00  0.00     0.002 A 
ATOM      4  C4  N4B d   1       0.571   2.360   1.019  0.00  0.00    -0.004 A 
ATOM      5  C5  N4B d   1       0.720   1.552   2.108  0.00  0.00     0.002 A 
ATOM      6  C6  N4B d   1      -0.370   0.935   2.690  0.00  0.00     0.002 A 
ENDROOT
BRANCH   1   7
ATOM      7  C1' N4B d   1      -2.794   0.509   2.878  0.00  0.00     0.057 C 
BRANCH   7   8
ATOM      8  C2' N4B d   1      -3.732   1.619   3.343  0.00  0.00     0.009 C 
BRANCH   8   9
ATOM      9  C3' N4B d   1      -3.663   1.830   4.845  0.00  0.00     0.004 C 
ATOM     10  C4' N4B d   1      -4.751   2.727   5.357  0.00  0.00     0.003 C 
ENDBRANCH   8   9
ENDBRANCH   7   8
ENDBRANCH   1   7
TORSDOF 3
ENDMDL
