MODEL 1
REMARK minimizedAffinity -3.25781727
REMARK minimizedRMSD -1
REMARK  0 active torsions:
REMARK  status: ('A' for Active; 'I' for Inactive)
ROOT
ATOM      1  C1  DEN d   1       1.129   1.271   0.022  0.00  0.00     0.130 A 
ATOM      2  C2  DEN d   1       0.354   0.236   0.701  0.00  0.00    -0.031 A 
ATOM      3  C3  DEN d   1       1.032  -1.058   0.487  0.00  0.00     0.027 A 
ATOM      4  C4  DEN d   1       3.199  -1.557  -0.820  0.00  0.00     0.027 A 
ATOM      5  C5  DEN d   1       4.206  -1.001  -1.579  0.00  0.00    -0.003 A 
ATOM      6  C6  DEN d   1       4.239   0.334  -1.883  0.00  0.00     0.001 A 
ATOM      7  C7  DEN d   1       3.270   1.167  -1.389  0.00  0.00     0.017 A 
ATOM      8  C8  DEN d   1       2.248   0.613  -0.629  0.00  0.00    -0.094 A 
ATOM      9  C9  DEN d   1       2.239  -0.737  -0.322  0.00  0.00    -0.072 A 
ENDROOT
TORSDOF 0
ENDMDL
