MODEL 1
REMARK minimizedAffinity -4.15228701
REMARK minimizedRMSD -1
REMARK  0 active torsions:
REMARK  status: ('A' for Active; 'I' for Inactive)
ROOT
ATOM      1  C1  DEN d   1       1.092   0.799   0.156  0.00  0.00     0.130 A 
ATOM      2  C2  DEN d   1       0.675  -0.130   1.203  0.00  0.00    -0.031 A 
ATOM      3  C3  DEN d   1       1.543  -1.322   1.128  0.00  0.00     0.027 A 
ATOM      4  C4  DEN d   1       3.487  -1.814  -0.494  0.00  0.00     0.027 A 
ATOM      5  C5  DEN d   1       4.207  -1.329  -1.564  0.00  0.00    -0.003 A 
ATOM      6  C6  DEN d   1       3.919  -0.125  -2.152  0.00  0.00     0.001 A 
ATOM      7  C7  DEN d   1       2.914   0.655  -1.645  0.00  0.00     0.017 A 
ATOM      8  C8  DEN d   1       2.179   0.169  -0.571  0.00  0.00    -0.094 A 
ATOM      9  C9  DEN d   1       2.493  -1.044   0.017  0.00  0.00    -0.072 A 
ENDROOT
TORSDOF 0
ENDMDL
