MODEL 1
REMARK minimizedAffinity -0.963788271
REMARK minimizedRMSD -1
REMARK  0 active torsions:
REMARK  status: ('A' for Active; 'I' for Inactive)
ROOT
ATOM      1  C1  DEN d   1       4.579  -1.120  -1.789  0.00  0.00     0.130 A 
ATOM      2  C2  DEN d   1       4.967   0.158  -2.378  0.00  0.00    -0.031 A 
ATOM      3  C3  DEN d   1       3.995   1.178  -1.936  0.00  0.00     0.027 A 
ATOM      4  C4  DEN d   1       1.941   0.905  -0.400  0.00  0.00     0.027 A 
ATOM      5  C5  DEN d   1       1.200   0.005   0.334  0.00  0.00    -0.003 A 
ATOM      6  C6  DEN d   1       1.511  -1.328   0.383  0.00  0.00     0.001 A 
ATOM      7  C7  DEN d   1       2.618  -1.792  -0.277  0.00  0.00     0.017 A 
ATOM      8  C8  DEN d   1       3.366  -0.892  -1.025  0.00  0.00    -0.094 A 
ATOM      9  C9  DEN d   1       3.042   0.454  -1.053  0.00  0.00    -0.072 A 
ENDROOT
TORSDOF 0
ENDMDL
