MODEL 1
REMARK minimizedAffinity 3.73959088
REMARK minimizedRMSD -1
REMARK  0 active torsions:
REMARK  status: ('A' for Active; 'I' for Inactive)
ROOT
ATOM      1  C1  DEN d   1       2.573   1.546  -0.052  0.00  0.00     0.130 A 
ATOM      2  C2  DEN d   1       1.470   1.739   0.885  0.00  0.00    -0.031 A 
ATOM      3  C3  DEN d   1       0.780   0.443   1.050  0.00  0.00     0.027 A 
ATOM      4  C4  DEN d   1       1.314  -1.831  -0.044  0.00  0.00     0.027 A 
ATOM      5  C5  DEN d   1       2.151  -2.486  -0.920  0.00  0.00    -0.003 A 
ATOM      6  C6  DEN d   1       3.157  -1.841  -1.588  0.00  0.00     0.001 A 
ATOM      7  C7  DEN d   1       3.382  -0.510  -1.357  0.00  0.00     0.017 A 
ATOM      8  C8  DEN d   1       2.538   0.159  -0.481  0.00  0.00    -0.094 A 
ATOM      9  C9  DEN d   1       1.533  -0.513   0.195  0.00  0.00    -0.072 A 
ENDROOT
TORSDOF 0
ENDMDL
