MODEL 1
REMARK minimizedAffinity -0.594556332
REMARK minimizedRMSD -1
REMARK  0 active torsions:
REMARK  status: ('A' for Active; 'I' for Inactive)
ROOT
ATOM      1  C1  DEN d   1       0.928   2.353   0.475  0.00  0.00     0.130 A 
ATOM      2  C2  DEN d   1       1.845   3.054  -0.419  0.00  0.00    -0.031 A 
ATOM      3  C3  DEN d   1       2.734   2.051  -1.040  0.00  0.00     0.027 A 
ATOM      4  C4  DEN d   1       2.776  -0.506  -0.708  0.00  0.00     0.027 A 
ATOM      5  C5  DEN d   1       2.195  -1.561  -0.039  0.00  0.00    -0.003 A 
ATOM      6  C6  DEN d   1       1.183  -1.383   0.867  0.00  0.00     0.001 A 
ATOM      7  C7  DEN d   1       0.689  -0.126   1.094  0.00  0.00     0.017 A 
ATOM      8  C8  DEN d   1       1.274   0.943   0.429  0.00  0.00    -0.094 A 
ATOM      9  C9  DEN d   1       2.288   0.742  -0.492  0.00  0.00    -0.072 A 
ENDROOT
TORSDOF 0
ENDMDL
