MODEL 1
REMARK minimizedAffinity -0.44937709
REMARK minimizedRMSD -1
REMARK  0 active torsions:
REMARK  status: ('A' for Active; 'I' for Inactive)
ROOT
ATOM      1  C1  DEN d   1       0.488  -2.732   1.381  0.00  0.00     0.130 A 
ATOM      2  C2  DEN d   1      -0.545  -1.806   1.835  0.00  0.00    -0.031 A 
ATOM      3  C3  DEN d   1      -0.187  -0.454   1.359  0.00  0.00     0.027 A 
ATOM      4  C4  DEN d   1       1.853   0.288  -0.034  0.00  0.00     0.027 A 
ATOM      5  C5  DEN d   1       3.010  -0.140  -0.646  0.00  0.00    -0.003 A 
ATOM      6  C6  DEN d   1       3.422  -1.445  -0.596  0.00  0.00     0.001 A 
ATOM      7  C7  DEN d   1       2.648  -2.378   0.041  0.00  0.00     0.017 A 
ATOM      8  C8  DEN d   1       1.483  -1.953   0.667  0.00  0.00    -0.094 A 
ATOM      9  C9  DEN d   1       1.077  -0.631   0.595  0.00  0.00    -0.072 A 
ENDROOT
TORSDOF 0
ENDMDL
