MODEL 1
REMARK minimizedAffinity -4.93676805
REMARK minimizedRMSD -1
REMARK  0 active torsions:
REMARK  status: ('A' for Active; 'I' for Inactive)
ROOT
ATOM      1  C1  DEN d   1       0.499   0.435   1.074  0.00  0.00     0.130 A 
ATOM      2  C2  DEN d   1       0.146  -0.764   1.828  0.00  0.00    -0.031 A 
ATOM      3  C3  DEN d   1       1.008  -1.868   1.362  0.00  0.00     0.027 A 
ATOM      4  C4  DEN d   1       2.851  -1.836  -0.442  0.00  0.00     0.027 A 
ATOM      5  C5  DEN d   1       3.505  -1.049  -1.365  0.00  0.00    -0.003 A 
ATOM      6  C6  DEN d   1       3.182   0.267  -1.562  0.00  0.00     0.001 A 
ATOM      7  C7  DEN d   1       2.209   0.850  -0.794  0.00  0.00     0.017 A 
ATOM      8  C8  DEN d   1       1.540   0.061   0.134  0.00  0.00    -0.094 A 
ATOM      9  C9  DEN d   1       1.890  -1.264   0.326  0.00  0.00    -0.072 A 
ENDROOT
TORSDOF 0
ENDMDL
