MODEL 1
REMARK minimizedAffinity -4.20276546
REMARK minimizedRMSD -1
REMARK  0 active torsions:
REMARK  status: ('A' for Active; 'I' for Inactive)
ROOT
ATOM      1  C1  DEN d   1       2.431  -2.531  -0.330  0.00  0.00     0.130 A 
ATOM      2  C2  DEN d   1       1.217  -2.194   0.409  0.00  0.00    -0.031 A 
ATOM      3  C3  DEN d   1       0.958  -0.752   0.228  0.00  0.00     0.027 A 
ATOM      4  C4  DEN d   1       2.308   0.982  -1.122  0.00  0.00     0.027 A 
ATOM      5  C5  DEN d   1       3.421   1.172  -1.910  0.00  0.00    -0.003 A 
ATOM      6  C6  DEN d   1       4.294   0.156  -2.196  0.00  0.00     0.001 A 
ATOM      7  C7  DEN d   1       4.044  -1.107  -1.728  0.00  0.00     0.017 A 
ATOM      8  C8  DEN d   1       2.927  -1.304  -0.926  0.00  0.00    -0.094 A 
ATOM      9  C9  DEN d   1       2.050  -0.267  -0.658  0.00  0.00    -0.072 A 
ENDROOT
TORSDOF 0
ENDMDL
