MODEL 1
REMARK minimizedAffinity -2.98446321
REMARK minimizedRMSD -1
REMARK  0 active torsions:
REMARK  status: ('A' for Active; 'I' for Inactive)
ROOT
ATOM      1  C1  DEN d   1       3.802  -1.477  -1.355  0.00  0.00     0.130 A 
ATOM      2  C2  DEN d   1       4.357  -0.226  -1.865  0.00  0.00    -0.031 A 
ATOM      3  C3  DEN d   1       3.444   0.869  -1.480  0.00  0.00     0.027 A 
ATOM      4  C4  DEN d   1       1.239   0.750  -0.147  0.00  0.00     0.027 A 
ATOM      5  C5  DEN d   1       0.355  -0.094   0.487  0.00  0.00    -0.003 A 
ATOM      6  C6  DEN d   1       0.538  -1.451   0.523  0.00  0.00     0.001 A 
ATOM      7  C7  DEN d   1       1.656  -2.000  -0.049  0.00  0.00     0.017 A 
ATOM      8  C8  DEN d   1       2.548  -1.156  -0.697  0.00  0.00    -0.094 A 
ATOM      9  C9  DEN d   1       2.351   0.215  -0.711  0.00  0.00    -0.072 A 
ENDROOT
TORSDOF 0
ENDMDL
