MODEL 1
REMARK minimizedAffinity -5.11877298
REMARK minimizedRMSD -1
REMARK  0 active torsions:
REMARK  status: ('A' for Active; 'I' for Inactive)
ROOT
ATOM      1  C1  DEN d   1       1.136   1.000   0.057  0.00  0.00     0.130 A 
ATOM      2  C2  DEN d   1       0.518  -0.077   0.826  0.00  0.00    -0.031 A 
ATOM      3  C3  DEN d   1       1.232  -1.331   0.513  0.00  0.00     0.027 A 
ATOM      4  C4  DEN d   1       3.228  -1.707  -1.077  0.00  0.00     0.027 A 
ATOM      5  C5  DEN d   1       4.090  -1.096  -1.960  0.00  0.00    -0.003 A 
ATOM      6  C6  DEN d   1       4.008   0.238  -2.256  0.00  0.00     0.001 A 
ATOM      7  C7  DEN d   1       3.070   1.016  -1.629  0.00  0.00     0.017 A 
ATOM      8  C8  DEN d   1       2.192   0.406  -0.743  0.00  0.00    -0.094 A 
ATOM      9  C9  DEN d   1       2.299  -0.943  -0.448  0.00  0.00    -0.072 A 
ENDROOT
TORSDOF 0
ENDMDL
