MODEL 1
REMARK minimizedAffinity -2.00305891
REMARK minimizedRMSD -1
REMARK  0 active torsions:
REMARK  status: ('A' for Active; 'I' for Inactive)
ROOT
ATOM      1  C1  DEN d   1       2.264  -1.936   0.101  0.00  0.00     0.130 A 
ATOM      2  C2  DEN d   1       1.367  -1.149   0.943  0.00  0.00    -0.031 A 
ATOM      3  C3  DEN d   1       1.548   0.275   0.597  0.00  0.00     0.027 A 
ATOM      4  C4  DEN d   1       3.119   1.332  -1.154  0.00  0.00     0.027 A 
ATOM      5  C5  DEN d   1       4.080   1.068  -2.105  0.00  0.00    -0.003 A 
ATOM      6  C6  DEN d   1       4.525  -0.202  -2.361  0.00  0.00     0.001 A 
ATOM      7  C7  DEN d   1       3.974  -1.262  -1.689  0.00  0.00     0.017 A 
ATOM      8  C8  DEN d   1       3.010  -1.003  -0.724  0.00  0.00    -0.094 A 
ATOM      9  C9  DEN d   1       2.565   0.287  -0.489  0.00  0.00    -0.072 A 
ENDROOT
TORSDOF 0
ENDMDL
