MODEL 1
REMARK minimizedAffinity -7.04295683
REMARK minimizedRMSD -1
REMARK  0 active torsions:
REMARK  status: ('A' for Active; 'I' for Inactive)
ROOT
ATOM      1  C1  DEN d   1       1.307  -1.004   0.336  0.00  0.00     0.130 A 
ATOM      2  C2  DEN d   1       0.546   0.230   0.513  0.00  0.00    -0.031 A 
ATOM      3  C3  DEN d   1       1.228   1.299  -0.244  0.00  0.00     0.027 A 
ATOM      4  C4  DEN d   1       3.373   1.163  -1.670  0.00  0.00     0.027 A 
ATOM      5  C5  DEN d   1       4.378   0.330  -2.109  0.00  0.00    -0.003 A 
ATOM      6  C6  DEN d   1       4.448  -0.987  -1.740  0.00  0.00     0.001 A 
ATOM      7  C7  DEN d   1       3.470  -1.522  -0.943  0.00  0.00     0.017 A 
ATOM      8  C8  DEN d   1       2.458  -0.686  -0.490  0.00  0.00    -0.094 A 
ATOM      9  C9  DEN d   1       2.398   0.640  -0.884  0.00  0.00    -0.072 A 
ENDROOT
TORSDOF 0
ENDMDL
