MODEL 1
REMARK minimizedAffinity 4.06006861
REMARK minimizedRMSD -1
REMARK  0 active torsions:
REMARK  status: ('A' for Active; 'I' for Inactive)
ROOT
ATOM      1  C4' PXY d   1       4.652   1.171  -0.963  0.00  0.00     0.077 C 
ATOM      2  C1' PXY d   1       0.785  -3.004   0.052  0.00  0.00     0.077 C 
ATOM      3  C1  PXY d   1       1.790  -1.900  -0.213  0.00  0.00    -0.082 A 
ATOM      4  C2  PXY d   1       2.898  -2.172  -0.883  0.00  0.00     0.003 A 
ATOM      5  C3  PXY d   1       3.832  -1.193  -1.104  0.00  0.00     0.003 A 
ATOM      6  C4  PXY d   1       3.605   0.090  -0.680  0.00  0.00    -0.082 A 
ATOM      7  C5  PXY d   1       2.472   0.377  -0.005  0.00  0.00     0.003 A 
ATOM      8  C6  PXY d   1       1.556  -0.641   0.245  0.00  0.00     0.003 A 
ENDROOT
TORSDOF 0
ENDMDL
