MODEL 1
REMARK minimizedAffinity 6.54755497
REMARK minimizedRMSD -1
REMARK  0 active torsions:
REMARK  status: ('A' for Active; 'I' for Inactive)
ROOT
ATOM      1  C4' PXY d   1       3.504  -3.307  -3.314  0.00  0.00     0.077 C 
ATOM      2  C1' PXY d   1       2.410   0.676   0.730  0.00  0.00     0.077 C 
ATOM      3  C1  PXY d   1       2.702  -0.359  -0.338  0.00  0.00    -0.082 A 
ATOM      4  C2  PXY d   1       2.033  -1.501  -0.343  0.00  0.00     0.003 A 
ATOM      5  C3  PXY d   1       2.306  -2.461  -1.283  0.00  0.00     0.003 A 
ATOM      6  C4  PXY d   1       3.237  -2.229  -2.260  0.00  0.00    -0.082 A 
ATOM      7  C5  PXY d   1       3.915  -1.062  -2.269  0.00  0.00     0.003 A 
ATOM      8  C6  PXY d   1       3.652  -0.117  -1.281  0.00  0.00     0.003 A 
ENDROOT
TORSDOF 0
ENDMDL
