MODEL 1
REMARK minimizedAffinity 0.848446786
REMARK minimizedRMSD -1
REMARK  0 active torsions:
REMARK  status: ('A' for Active; 'I' for Inactive)
ROOT
ATOM      1  C4' PXY d   1       1.774   1.698   1.177  0.00  0.00     0.077 C 
ATOM      2  C1' PXY d   1       5.001  -1.097  -2.719  0.00  0.00     0.077 C 
ATOM      3  C1  PXY d   1       4.165  -0.356  -1.695  0.00  0.00    -0.082 A 
ATOM      4  C2  PXY d   1       3.107  -0.947  -1.164  0.00  0.00     0.003 A 
ATOM      5  C3  PXY d   1       2.321  -0.280  -0.259  0.00  0.00     0.003 A 
ATOM      6  C4  PXY d   1       2.652   0.985   0.145  0.00  0.00    -0.082 A 
ATOM      7  C5  PXY d   1       3.736   1.591  -0.384  0.00  0.00     0.003 A 
ATOM      8  C6  PXY d   1       4.497   0.912  -1.331  0.00  0.00     0.003 A 
ENDROOT
TORSDOF 0
ENDMDL
