MODEL 1
REMARK minimizedAffinity 5.85729408
REMARK minimizedRMSD -1
REMARK  0 active torsions:
REMARK  status: ('A' for Active; 'I' for Inactive)
ROOT
ATOM      1  C4' PXY d   1      -5.999   1.507  -1.528  0.00  0.00     0.077 C 
ATOM      2  C1' PXY d   1      -0.349   1.747  -0.332  0.00  0.00     0.077 C 
ATOM      3  C1  PXY d   1      -1.833   1.693  -0.637  0.00  0.00    -0.082 A 
ATOM      4  C2  PXY d   1      -2.353   0.598  -1.167  0.00  0.00     0.003 A 
ATOM      5  C3  PXY d   1      -3.687   0.544  -1.479  0.00  0.00     0.003 A 
ATOM      6  C4  PXY d   1      -4.508   1.603  -1.196  0.00  0.00    -0.082 A 
ATOM      7  C5  PXY d   1      -3.987   2.720  -0.645  0.00  0.00     0.003 A 
ATOM      8  C6  PXY d   1      -2.623   2.770  -0.374  0.00  0.00     0.003 A 
ENDROOT
TORSDOF 0
ENDMDL
