MODEL 1
REMARK minimizedAffinity 3.19954467
REMARK minimizedRMSD -1
REMARK  0 active torsions:
REMARK  status: ('A' for Active; 'I' for Inactive)
ROOT
ATOM      1  C4' PXY d   1      -1.946   1.905   0.120  0.00  0.00     0.077 C 
ATOM      2  C1' PXY d   1       1.536  -0.017   4.314  0.00  0.00     0.077 C 
ATOM      3  C1  PXY d   1       0.633   0.491   3.208  0.00  0.00    -0.082 A 
ATOM      4  C2  PXY d   1      -0.631   0.776   3.474  0.00  0.00     0.003 A 
ATOM      5  C3  PXY d   1      -1.470   1.206   2.478  0.00  0.00     0.003 A 
ATOM      6  C4  PXY d   1      -0.996   1.398   1.208  0.00  0.00    -0.082 A 
ATOM      7  C5  PXY d   1       0.296   1.120   0.931  0.00  0.00     0.003 A 
ATOM      8  C6  PXY d   1       1.120   0.645   1.947  0.00  0.00     0.003 A 
ENDROOT
TORSDOF 0
ENDMDL
