MODEL 1
REMARK minimizedAffinity 3.45638394
REMARK minimizedRMSD -1
REMARK  0 active torsions:
REMARK  status: ('A' for Active; 'I' for Inactive)
ROOT
ATOM      1  C4' PXY d   1       2.434  -2.232  -0.832  0.00  0.00     0.077 C 
ATOM      2  C1' PXY d   1      -2.536  -4.872  -2.153  0.00  0.00     0.077 C 
ATOM      3  C1  PXY d   1      -1.232  -4.186  -1.795  0.00  0.00    -0.082 A 
ATOM      4  C2  PXY d   1      -0.940  -3.014  -2.335  0.00  0.00     0.003 A 
ATOM      5  C3  PXY d   1       0.249  -2.395  -2.048  0.00  0.00     0.003 A 
ATOM      6  C4  PXY d   1       1.124  -2.956  -1.157  0.00  0.00    -0.082 A 
ATOM      7  C5  PXY d   1       0.829  -4.147  -0.593  0.00  0.00     0.003 A 
ATOM      8  C6  PXY d   1      -0.365  -4.778  -0.930  0.00  0.00     0.003 A 
ENDROOT
TORSDOF 0
ENDMDL
