MODEL 1
REMARK minimizedAffinity 0.935564876
REMARK minimizedRMSD -1
REMARK  0 active torsions:
REMARK  status: ('A' for Active; 'I' for Inactive)
ROOT
ATOM      1  C4' PXY d   1      -1.686   1.852  -0.828  0.00  0.00     0.077 C 
ATOM      2  C1' PXY d   1       1.169  -0.268   3.729  0.00  0.00     0.077 C 
ATOM      3  C1  PXY d   1       0.432   0.292   2.529  0.00  0.00    -0.082 A 
ATOM      4  C2  PXY d   1      -0.851   0.598   2.634  0.00  0.00     0.003 A 
ATOM      5  C3  PXY d   1      -1.542   1.076   1.549  0.00  0.00     0.003 A 
ATOM      6  C4  PXY d   1      -0.899   1.293   0.360  0.00  0.00    -0.082 A 
ATOM      7  C5  PXY d   1       0.413   0.993   0.248  0.00  0.00     0.003 A 
ATOM      8  C6  PXY d   1       1.085   0.471   1.349  0.00  0.00     0.003 A 
ENDROOT
TORSDOF 0
ENDMDL
