MODEL 1
REMARK minimizedAffinity 1.76001275
REMARK minimizedRMSD -1
REMARK  0 active torsions:
REMARK  status: ('A' for Active; 'I' for Inactive)
ROOT
ATOM      1  C4' PXY d   1       0.771  -0.712   3.378  0.00  0.00     0.077 C 
ATOM      2  C1' PXY d   1       4.180  -0.136  -1.255  0.00  0.00     0.077 C 
ATOM      3  C1  PXY d   1       3.287  -0.274  -0.038  0.00  0.00    -0.082 A 
ATOM      4  C2  PXY d   1       3.227  -1.431   0.602  0.00  0.00     0.003 A 
ATOM      5  C3  PXY d   1       2.400  -1.582   1.685  0.00  0.00     0.003 A 
ATOM      6  C4  PXY d   1       1.667  -0.524   2.150  0.00  0.00    -0.082 A 
ATOM      7  C5  PXY d   1       1.730   0.662   1.509  0.00  0.00     0.003 A 
ATOM      8  C6  PXY d   1       2.544   0.784   0.387  0.00  0.00     0.003 A 
ENDROOT
TORSDOF 0
ENDMDL
