MODEL 1
REMARK minimizedAffinity 8.25411415
REMARK minimizedRMSD -1
REMARK  0 active torsions:
REMARK  status: ('A' for Active; 'I' for Inactive)
ROOT
ATOM      1  C4' PXY d   1      -1.141   1.659  -0.662  0.00  0.00     0.077 C 
ATOM      2  C1' PXY d   1       1.037  -0.037   4.418  0.00  0.00     0.077 C 
ATOM      3  C1  PXY d   1       0.478   0.410   3.081  0.00  0.00    -0.082 A 
ATOM      4  C2  PXY d   1      -0.759   0.876   3.012  0.00  0.00     0.003 A 
ATOM      5  C3  PXY d   1      -1.291   1.254   1.806  0.00  0.00     0.003 A 
ATOM      6  C4  PXY d   1      -0.532   1.205   0.668  0.00  0.00    -0.082 A 
ATOM      7  C5  PXY d   1       0.734   0.741   0.732  0.00  0.00     0.003 A 
ATOM      8  C6  PXY d   1       1.242   0.323   1.959  0.00  0.00     0.003 A 
ENDROOT
TORSDOF 0
ENDMDL
