MODEL 1
REMARK minimizedAffinity 2.32548332
REMARK minimizedRMSD -1
REMARK  0 active torsions:
REMARK  status: ('A' for Active; 'I' for Inactive)
ROOT
ATOM      1  C4' PXY d   1      -1.816   3.415   0.587  0.00  0.00     0.077 C 
ATOM      2  C1' PXY d   1       1.276  -1.228   2.103  0.00  0.00     0.077 C 
ATOM      3  C1  PXY d   1       0.473  -0.009   1.695  0.00  0.00    -0.082 A 
ATOM      4  C2  PXY d   1      -0.219   0.654   2.608  0.00  0.00     0.003 A 
ATOM      5  C3  PXY d   1      -0.977   1.740   2.250  0.00  0.00     0.003 A 
ATOM      6  C4  PXY d   1      -0.983   2.184   0.955  0.00  0.00    -0.082 A 
ATOM      7  C5  PXY d   1      -0.271   1.520   0.021  0.00  0.00     0.003 A 
ATOM      8  C6  PXY d   1       0.458   0.395   0.396  0.00  0.00     0.003 A 
ENDROOT
TORSDOF 0
ENDMDL
