MODEL 1
REMARK minimizedAffinity 7.72817326
REMARK minimizedRMSD -1
REMARK  0 active torsions:
REMARK  status: ('A' for Active; 'I' for Inactive)
ROOT
ATOM      1  C4' PXY d   1      -4.130   4.395  -0.442  0.00  0.00     0.077 C 
ATOM      2  C1' PXY d   1      -0.648   1.418   3.083  0.00  0.00     0.077 C 
ATOM      3  C1  PXY d   1      -1.558   2.191   2.148  0.00  0.00    -0.082 A 
ATOM      4  C2  PXY d   1      -1.885   3.439   2.439  0.00  0.00     0.003 A 
ATOM      5  C3  PXY d   1      -2.733   4.142   1.622  0.00  0.00     0.003 A 
ATOM      6  C4  PXY d   1      -3.207   3.580   0.467  0.00  0.00    -0.082 A 
ATOM      7  C5  PXY d   1      -2.868   2.310   0.158  0.00  0.00     0.003 A 
ATOM      8  C6  PXY d   1      -2.040   1.599   1.022  0.00  0.00     0.003 A 
ENDROOT
TORSDOF 0
ENDMDL
