MODEL 1
REMARK minimizedAffinity 5.10882521
REMARK minimizedRMSD -1
REMARK  0 active torsions:
REMARK  status: ('A' for Active; 'I' for Inactive)
ROOT
ATOM      1  C4' PXY d   1       4.833   0.232  -0.717  0.00  0.00     0.077 C 
ATOM      2  C1' PXY d   1       0.402  -3.469  -0.424  0.00  0.00     0.077 C 
ATOM      3  C1  PXY d   1       1.571  -2.508  -0.507  0.00  0.00    -0.082 A 
ATOM      4  C2  PXY d   1       1.675  -1.527   0.375  0.00  0.00     0.003 A 
ATOM      5  C3  PXY d   1       2.709  -0.629   0.295  0.00  0.00     0.003 A 
ATOM      6  C4  PXY d   1       3.674  -0.768  -0.665  0.00  0.00    -0.082 A 
ATOM      7  C5  PXY d   1       3.581  -1.772  -1.563  0.00  0.00     0.003 A 
ATOM      8  C6  PXY d   1       2.502  -2.649  -1.490  0.00  0.00     0.003 A 
ENDROOT
TORSDOF 0
ENDMDL
