MODEL 1
REMARK minimizedAffinity 6.10579729
REMARK minimizedRMSD -1
REMARK  0 active torsions:
REMARK  status: ('A' for Active; 'I' for Inactive)
ROOT
ATOM      1  C4' PXY d   1       3.860  -3.034  -2.219  0.00  0.00     0.077 C 
ATOM      2  C1' PXY d   1       1.905   0.676   1.759  0.00  0.00     0.077 C 
ATOM      3  C1  PXY d   1       2.424  -0.287   0.710  0.00  0.00    -0.082 A 
ATOM      4  C2  PXY d   1       1.736  -1.382   0.430  0.00  0.00     0.003 A 
ATOM      5  C3  PXY d   1       2.208  -2.280  -0.493  0.00  0.00     0.003 A 
ATOM      6  C4  PXY d   1       3.368  -2.029  -1.174  0.00  0.00    -0.082 A 
ATOM      7  C5  PXY d   1       4.071  -0.908  -0.902  0.00  0.00     0.003 A 
ATOM      8  C6  PXY d   1       3.596  -0.030   0.068  0.00  0.00     0.003 A 
ENDROOT
TORSDOF 0
ENDMDL
