MODEL 1
REMARK minimizedAffinity 4.25048876
REMARK minimizedRMSD -1
REMARK  0 active torsions:
REMARK  status: ('A' for Active; 'I' for Inactive)
ROOT
ATOM      1  C4' PXY d   1       1.970  -3.239  -0.013  0.00  0.00     0.077 C 
ATOM      2  C1' PXY d   1       3.795   2.240  -0.278  0.00  0.00     0.077 C 
ATOM      3  C1  PXY d   1       3.325   0.800  -0.218  0.00  0.00    -0.082 A 
ATOM      4  C2  PXY d   1       2.105   0.528   0.215  0.00  0.00     0.003 A 
ATOM      5  C3  PXY d   1       1.675  -0.771   0.307  0.00  0.00     0.003 A 
ATOM      6  C4  PXY d   1       2.483  -1.799  -0.100  0.00  0.00    -0.082 A 
ATOM      7  C5  PXY d   1       3.726  -1.529  -0.553  0.00  0.00     0.003 A 
ATOM      8  C6  PXY d   1       4.158  -0.206  -0.599  0.00  0.00     0.003 A 
ENDROOT
TORSDOF 0
ENDMDL
