MODEL 1
REMARK minimizedAffinity -3.39371347
REMARK minimizedRMSD -1
REMARK  1 active torsions:
REMARK  status: ('A' for Active; 'I' for Inactive)
REMARK    1  A    between atoms: C3_4  and  O_7 
ROOT
ATOM      1  C   UNL d   1      -1.300   0.072   0.501  0.00  0.00    -0.033 A 
ATOM      2  C1  UNL d   1       0.087   0.039   0.349  0.00  0.00     0.039 A 
ATOM      3  C2  UNL d   1       0.648  -0.324  -0.878  0.00  0.00    -0.080 A 
ATOM      4  C3  UNL d   1      -0.189  -0.648  -1.942  0.00  0.00     0.150 A 
ATOM      5  C4  UNL d   1      -1.572  -0.613  -1.798  0.00  0.00    -0.007 A 
ATOM      6  C5  UNL d   1      -2.130  -0.252  -0.573  0.00  0.00     0.039 A 
ENDROOT
BRANCH   4   7
ATOM      7  O   UNL d   1       0.312  -1.013  -3.157  0.00  0.00    -0.526 OA
ATOM      8  H5  UNL d   1       1.282  -1.020  -3.100  0.00  0.00     0.418 HD
ENDBRANCH   4   7
TORSDOF 1
ENDMDL
