MODEL 1
REMARK minimizedAffinity -1.13042974
REMARK minimizedRMSD -1
REMARK  1 active torsions:
REMARK  status: ('A' for Active; 'I' for Inactive)
REMARK    1  A    between atoms: C3_4  and  O_7 
ROOT
ATOM      1  C   UNL d   1       0.275  -0.213  -1.046  0.00  0.00    -0.033 A 
ATOM      2  C1  UNL d   1       0.869  -0.332   0.212  0.00  0.00     0.039 A 
ATOM      3  C2  UNL d   1       0.119  -0.098   1.366  0.00  0.00    -0.080 A 
ATOM      4  C3  UNL d   1      -1.222   0.254   1.249  0.00  0.00     0.150 A 
ATOM      5  C4  UNL d   1      -1.822   0.371  -0.000  0.00  0.00    -0.007 A 
ATOM      6  C5  UNL d   1      -1.072   0.137  -1.152  0.00  0.00     0.039 A 
ENDROOT
BRANCH   4   7
ATOM      7  O   UNL d   1      -1.993   0.498   2.347  0.00  0.00    -0.526 OA
ATOM      8  H5  UNL d   1      -1.438   0.407   3.139  0.00  0.00     0.418 HD
ENDBRANCH   4   7
TORSDOF 1
ENDMDL
