MODEL 1
REMARK minimizedAffinity -3.6724515
REMARK minimizedRMSD -1
REMARK  1 active torsions:
REMARK  status: ('A' for Active; 'I' for Inactive)
REMARK    1  A    between atoms: C3_4  and  O_7 
ROOT
ATOM      1  C   UNL d   1      -1.884   0.288   0.425  0.00  0.00    -0.033 A 
ATOM      2  C1  UNL d   1      -1.652   0.193   1.798  0.00  0.00     0.039 A 
ATOM      3  C2  UNL d   1      -0.407  -0.225   2.271  0.00  0.00    -0.080 A 
ATOM      4  C3  UNL d   1       0.597  -0.544   1.361  0.00  0.00     0.150 A 
ATOM      5  C4  UNL d   1       0.375  -0.447  -0.009  0.00  0.00    -0.007 A 
ATOM      6  C5  UNL d   1      -0.870  -0.030  -0.479  0.00  0.00     0.039 A 
ENDROOT
BRANCH   4   7
ATOM      7  O   UNL d   1       1.827  -0.961   1.775  0.00  0.00    -0.526 OA
ATOM      8  H5  UNL d   1       1.826  -1.007   2.746  0.00  0.00     0.418 HD
ENDBRANCH   4   7
TORSDOF 1
ENDMDL
