MODEL 1
REMARK minimizedAffinity -2.06802487
REMARK minimizedRMSD -1
REMARK  1 active torsions:
REMARK  status: ('A' for Active; 'I' for Inactive)
REMARK    1  A    between atoms: C3_4  and  O_7 
ROOT
ATOM      1  C   UNL d   1      -0.615   0.174   0.266  0.00  0.00    -0.033 A 
ATOM      2  C1  UNL d   1       0.128   0.211   1.448  0.00  0.00     0.039 A 
ATOM      3  C2  UNL d   1       1.383  -0.397   1.504  0.00  0.00    -0.080 A 
ATOM      4  C3  UNL d   1       1.884  -1.038   0.374  0.00  0.00     0.150 A 
ATOM      5  C4  UNL d   1       1.151  -1.075  -0.807  0.00  0.00    -0.007 A 
ATOM      6  C5  UNL d   1      -0.103  -0.468  -0.862  0.00  0.00     0.039 A 
ENDROOT
BRANCH   4   7
ATOM      7  O   UNL d   1       3.102  -1.650   0.383  0.00  0.00    -0.526 OA
ATOM      8  H5  UNL d   1       3.481  -1.568   1.274  0.00  0.00     0.418 HD
ENDBRANCH   4   7
TORSDOF 1
ENDMDL
