MODEL 1
REMARK minimizedAffinity -3.55285597
REMARK minimizedRMSD -1
REMARK  1 active torsions:
REMARK  status: ('A' for Active; 'I' for Inactive)
REMARK    1  A    between atoms: C3_4  and  O_7 
ROOT
ATOM      1  C   UNL d   1      -1.691   0.315   0.440  0.00  0.00    -0.033 A 
ATOM      2  C1  UNL d   1      -1.714   0.433   1.831  0.00  0.00     0.039 A 
ATOM      3  C2  UNL d   1      -0.590   0.083   2.582  0.00  0.00    -0.080 A 
ATOM      4  C3  UNL d   1       0.549  -0.381   1.930  0.00  0.00     0.150 A 
ATOM      5  C4  UNL d   1       0.581  -0.497   0.544  0.00  0.00    -0.007 A 
ATOM      6  C5  UNL d   1      -0.543  -0.148  -0.204  0.00  0.00     0.039 A 
ENDROOT
BRANCH   4   7
ATOM      7  O   UNL d   1       1.669  -0.739   2.621  0.00  0.00    -0.526 OA
ATOM      8  H5  UNL d   1       1.492  -0.633   3.570  0.00  0.00     0.418 HD
ENDBRANCH   4   7
TORSDOF 1
ENDMDL
