MODEL 1
REMARK minimizedAffinity -2.72606874
REMARK minimizedRMSD -1
REMARK  1 active torsions:
REMARK  status: ('A' for Active; 'I' for Inactive)
REMARK    1  A    between atoms: C3_4  and  O_7 
ROOT
ATOM      1  C   UNL d   1      -0.539   0.645   3.597  0.00  0.00    -0.033 A 
ATOM      2  C1  UNL d   1      -1.366   0.873   2.496  0.00  0.00     0.039 A 
ATOM      3  C2  UNL d   1      -0.963   0.468   1.222  0.00  0.00    -0.080 A 
ATOM      4  C3  UNL d   1       0.267  -0.163   1.063  0.00  0.00     0.150 A 
ATOM      5  C4  UNL d   1       1.095  -0.397   2.157  0.00  0.00    -0.007 A 
ATOM      6  C5  UNL d   1       0.691   0.009   3.428  0.00  0.00     0.039 A 
ENDROOT
BRANCH   4   7
ATOM      7  O   UNL d   1       0.706  -0.572  -0.161  0.00  0.00    -0.526 OA
ATOM      8  H5  UNL d   1       0.043  -0.319  -0.825  0.00  0.00     0.418 HD
ENDBRANCH   4   7
TORSDOF 1
ENDMDL
