MODEL 1
REMARK minimizedAffinity -1.08787942
REMARK minimizedRMSD -1
REMARK  1 active torsions:
REMARK  status: ('A' for Active; 'I' for Inactive)
REMARK    1  A    between atoms: C3_4  and  O_7 
ROOT
ATOM      1  C   UNL d   1      -1.443   0.523   2.387  0.00  0.00    -0.033 A 
ATOM      2  C1  UNL d   1      -2.217   0.632   1.230  0.00  0.00     0.039 A 
ATOM      3  C2  UNL d   1      -1.667   0.312  -0.013  0.00  0.00    -0.080 A 
ATOM      4  C3  UNL d   1      -0.344  -0.116  -0.085  0.00  0.00     0.150 A 
ATOM      5  C4  UNL d   1       0.432  -0.230   1.064  0.00  0.00    -0.007 A 
ATOM      6  C5  UNL d   1      -0.119   0.091   2.304  0.00  0.00     0.039 A 
ENDROOT
BRANCH   4   7
ATOM      7  O   UNL d   1       0.237  -0.435  -1.276  0.00  0.00    -0.526 OA
ATOM      8  H5  UNL d   1      -0.409  -0.281  -1.985  0.00  0.00     0.418 HD
ENDBRANCH   4   7
TORSDOF 1
ENDMDL
