MODEL 1
REMARK minimizedAffinity 1.09568954
REMARK minimizedRMSD -1
REMARK  1 active torsions:
REMARK  status: ('A' for Active; 'I' for Inactive)
REMARK    1  A    between atoms: C3_4  and  O_7 
ROOT
ATOM      1  C   UNL d   1      -0.255  -0.238  -0.982  0.00  0.00    -0.033 A 
ATOM      2  C1  UNL d   1      -1.488  -0.846  -0.739  0.00  0.00     0.039 A 
ATOM      3  C2  UNL d   1      -2.071  -0.765   0.528  0.00  0.00    -0.080 A 
ATOM      4  C3  UNL d   1      -1.411  -0.074   1.540  0.00  0.00     0.150 A 
ATOM      5  C4  UNL d   1      -0.184   0.537   1.304  0.00  0.00    -0.007 A 
ATOM      6  C5  UNL d   1       0.397   0.454   0.039  0.00  0.00     0.039 A 
ENDROOT
BRANCH   4   7
ATOM      7  O   UNL d   1      -1.938   0.027   2.794  0.00  0.00    -0.526 OA
ATOM      8  H5  UNL d   1      -2.774  -0.467   2.817  0.00  0.00     0.418 HD
ENDBRANCH   4   7
TORSDOF 1
ENDMDL
