MODEL 1
REMARK minimizedAffinity -2.40790057
REMARK minimizedRMSD -1
REMARK  1 active torsions:
REMARK  status: ('A' for Active; 'I' for Inactive)
REMARK    1  A    between atoms: C3_4  and  O_7 
ROOT
ATOM      1  C   UNL d   1       0.483  -0.761  -1.964  0.00  0.00    -0.033 A 
ATOM      2  C1  UNL d   1       0.263   0.429  -1.267  0.00  0.00     0.039 A 
ATOM      3  C2  UNL d   1       0.493   1.657  -1.891  0.00  0.00    -0.080 A 
ATOM      4  C3  UNL d   1       0.941   1.682  -3.209  0.00  0.00     0.150 A 
ATOM      5  C4  UNL d   1       1.158   0.500  -3.910  0.00  0.00    -0.007 A 
ATOM      6  C5  UNL d   1       0.928  -0.726  -3.285  0.00  0.00     0.039 A 
ENDROOT
BRANCH   4   7
ATOM      7  O   UNL d   1       1.184   2.856  -3.858  0.00  0.00    -0.526 OA
ATOM      8  H5  UNL d   1       1.018   3.588  -3.241  0.00  0.00     0.418 HD
ENDBRANCH   4   7
TORSDOF 1
ENDMDL
