MODEL 1
REMARK minimizedAffinity -2.68084931
REMARK minimizedRMSD -1
REMARK  1 active torsions:
REMARK  status: ('A' for Active; 'I' for Inactive)
REMARK    1  A    between atoms: N_2  and  C1_3 
ROOT
ATOM      1  C1  UNL d   1      -0.874   1.470  -1.147  0.00  0.00     0.143 A 
ATOM      2  C2  UNL d   1      -0.395   2.215  -2.230  0.00  0.00    -0.057 A 
ATOM      3  C3  UNL d   1      -1.243   2.604  -3.275  0.00  0.00     0.033 A 
ATOM      4  C4  UNL d   1      -2.582   2.229  -3.268  0.00  0.00    -0.042 A 
ATOM      5  C5  UNL d   1      -3.074   1.467  -2.214  0.00  0.00     0.033 A 
ATOM      6  C6  UNL d   1      -2.224   1.087  -1.171  0.00  0.00    -0.057 A 
ENDROOT
BRANCH   1   7
ATOM      7  N   UNL d   1      -0.060   0.969  -0.128  0.00  0.00    -0.732 N 
ATOM      8  C   UNL d   1       0.306  -0.430  -0.098  0.00  0.00     0.284 C 
ATOM      9  H3  UNL d   1       0.699   1.603   0.110  0.00  0.00     0.395 HD
ENDBRANCH   1   7
TORSDOF 1
ENDMDL
