MODEL 1
REMARK minimizedAffinity -4.3254838
REMARK minimizedRMSD -1
REMARK  1 active torsions:
REMARK  status: ('A' for Active; 'I' for Inactive)
REMARK    1  A    between atoms: N_2  and  C1_3 
ROOT
ATOM      1  C1  UNL d   1      -0.045   0.165   0.037  0.00  0.00     0.143 A 
ATOM      2  C2  UNL d   1      -0.834  -0.445   1.019  0.00  0.00    -0.057 A 
ATOM      3  C3  UNL d   1      -0.422  -1.624   1.653  0.00  0.00     0.033 A 
ATOM      4  C4  UNL d   1       0.777  -2.231   1.293  0.00  0.00    -0.042 A 
ATOM      5  C5  UNL d   1       1.564  -1.656   0.302  0.00  0.00     0.033 A 
ATOM      6  C6  UNL d   1       1.151  -0.476  -0.322  0.00  0.00    -0.057 A 
ENDROOT
BRANCH   1   7
ATOM      7  N   UNL d   1      -0.446   1.283  -0.698  0.00  0.00    -0.732 N 
ATOM      8  C   UNL d   1      -1.358   1.144  -1.813  0.00  0.00     0.284 C 
ATOM      9  H3  UNL d   1      -0.631   2.091  -0.108  0.00  0.00     0.395 HD
ENDBRANCH   1   7
TORSDOF 1
ENDMDL
