MODEL 1
REMARK minimizedAffinity -3.3733561
REMARK minimizedRMSD -1
REMARK  1 active torsions:
REMARK  status: ('A' for Active; 'I' for Inactive)
REMARK    1  A    between atoms: N_2  and  C1_3 
ROOT
ATOM      1  C1  UNL d   1       0.112  -0.168   0.127  0.00  0.00     0.143 A 
ATOM      2  C2  UNL d   1       1.496  -0.167  -0.081  0.00  0.00    -0.057 A 
ATOM      3  C3  UNL d   1       2.296  -1.233   0.348  0.00  0.00     0.033 A 
ATOM      4  C4  UNL d   1       1.728  -2.310   1.020  0.00  0.00    -0.042 A 
ATOM      5  C5  UNL d   1       0.358  -2.321   1.260  0.00  0.00     0.033 A 
ATOM      6  C6  UNL d   1      -0.436  -1.257   0.823  0.00  0.00    -0.057 A 
ENDROOT
BRANCH   1   7
ATOM      7  N   UNL d   1      -0.723   0.906  -0.188  0.00  0.00    -0.732 N 
ATOM      8  C   UNL d   1      -1.170   1.119  -1.548  0.00  0.00     0.284 C 
ATOM      9  H3  UNL d   1      -1.443   1.057   0.515  0.00  0.00     0.395 HD
ENDBRANCH   1   7
TORSDOF 1
ENDMDL
