MODEL 1
REMARK minimizedAffinity -4.01599503
REMARK minimizedRMSD -1
REMARK  1 active torsions:
REMARK  status: ('A' for Active; 'I' for Inactive)
REMARK    1  A    between atoms: N_2  and  C1_3 
ROOT
ATOM      1  C1  UNL d   1       0.244   0.040   0.236  0.00  0.00     0.143 A 
ATOM      2  C2  UNL d   1       1.621  -0.163   0.092  0.00  0.00    -0.057 A 
ATOM      3  C3  UNL d   1       2.206  -1.401   0.383  0.00  0.00     0.033 A 
ATOM      4  C4  UNL d   1       1.427  -2.453   0.853  0.00  0.00    -0.042 A 
ATOM      5  C5  UNL d   1       0.060  -2.266   1.027  0.00  0.00     0.033 A 
ATOM      6  C6  UNL d   1      -0.520  -1.030   0.728  0.00  0.00    -0.057 A 
ENDROOT
BRANCH   1   7
ATOM      7  N   UNL d   1      -0.383   1.275   0.057  0.00  0.00    -0.732 N 
ATOM      8  C   UNL d   1      -1.056   1.587  -1.186  0.00  0.00     0.284 C 
ATOM      9  H3  UNL d   1      -0.883   1.582   0.888  0.00  0.00     0.395 HD
ENDBRANCH   1   7
TORSDOF 1
ENDMDL
