MODEL 1
REMARK minimizedAffinity -4.09310722
REMARK minimizedRMSD -1
REMARK  1 active torsions:
REMARK  status: ('A' for Active; 'I' for Inactive)
REMARK    1  A    between atoms: N_2  and  C1_3 
ROOT
ATOM      1  C1  UNL d   1      -0.121  -0.467   0.230  0.00  0.00     0.143 A 
ATOM      2  C2  UNL d   1      -0.684  -1.508   0.976  0.00  0.00    -0.057 A 
ATOM      3  C3  UNL d   1       0.098  -2.567   1.450  0.00  0.00     0.033 A 
ATOM      4  C4  UNL d   1       1.458  -2.620   1.160  0.00  0.00    -0.042 A 
ATOM      5  C5  UNL d   1       2.034  -1.609   0.399  0.00  0.00     0.033 A 
ATOM      6  C6  UNL d   1       1.248  -0.550  -0.066  0.00  0.00    -0.057 A 
ENDROOT
BRANCH   1   7
ATOM      7  N   UNL d   1      -0.864   0.563  -0.353  0.00  0.00    -0.732 N 
ATOM      8  C   UNL d   1      -1.478   0.385  -1.652  0.00  0.00     0.284 C 
ATOM      9  H3  UNL d   1      -1.452   1.048   0.321  0.00  0.00     0.395 HD
ENDBRANCH   1   7
TORSDOF 1
ENDMDL
