MODEL 1
REMARK minimizedAffinity -2.40654254
REMARK minimizedRMSD -1
REMARK  1 active torsions:
REMARK  status: ('A' for Active; 'I' for Inactive)
REMARK    1  A    between atoms: N_2  and  C1_3 
ROOT
ATOM      1  C1  UNL d   1      -0.242  -1.317   0.556  0.00  0.00     0.143 A 
ATOM      2  C2  UNL d   1      -1.050  -0.881   1.611  0.00  0.00    -0.057 A 
ATOM      3  C3  UNL d   1      -1.355   0.475   1.780  0.00  0.00     0.033 A 
ATOM      4  C4  UNL d   1      -0.831   1.426   0.909  0.00  0.00    -0.042 A 
ATOM      5  C5  UNL d   1      -0.005   1.018  -0.132  0.00  0.00     0.033 A 
ATOM      6  C6  UNL d   1       0.290  -0.339  -0.299  0.00  0.00    -0.057 A 
ENDROOT
BRANCH   1   7
ATOM      7  N   UNL d   1       0.177  -2.640   0.392  0.00  0.00    -0.732 N 
ATOM      8  C   UNL d   1       1.260  -3.173   1.190  0.00  0.00     0.284 C 
ATOM      9  H3  UNL d   1      -0.602  -3.281   0.267  0.00  0.00     0.395 HD
ENDBRANCH   1   7
TORSDOF 1
ENDMDL
