MODEL 1
REMARK minimizedAffinity -3.70823383
REMARK minimizedRMSD -1
REMARK  1 active torsions:
REMARK  status: ('A' for Active; 'I' for Inactive)
REMARK    1  A    between atoms: N_2  and  C1_3 
ROOT
ATOM      1  C1  UNL d   1      -0.208   0.602  -0.137  0.00  0.00     0.143 A 
ATOM      2  C2  UNL d   1      -0.718  -0.456   0.623  0.00  0.00    -0.057 A 
ATOM      3  C3  UNL d   1       0.101  -1.513   1.036  0.00  0.00     0.033 A 
ATOM      4  C4  UNL d   1       1.443  -1.545   0.671  0.00  0.00    -0.042 A 
ATOM      5  C5  UNL d   1       1.965  -0.517  -0.105  0.00  0.00     0.033 A 
ATOM      6  C6  UNL d   1       1.144   0.540  -0.509  0.00  0.00    -0.057 A 
ENDROOT
BRANCH   1   7
ATOM      7  N   UNL d   1      -0.994   1.632  -0.662  0.00  0.00    -0.732 N 
ATOM      8  C   UNL d   1      -1.871   1.390  -1.787  0.00  0.00     0.284 C 
ATOM      9  H3  UNL d   1      -1.400   2.219   0.064  0.00  0.00     0.395 HD
ENDBRANCH   1   7
TORSDOF 1
ENDMDL
