MODEL 1
REMARK minimizedAffinity -4.58056688
REMARK minimizedRMSD -1
REMARK  1 active torsions:
REMARK  status: ('A' for Active; 'I' for Inactive)
REMARK    1  A    between atoms: N_2  and  C1_3 
ROOT
ATOM      1  C1  UNL d   1       1.202  -0.356   0.063  0.00  0.00     0.143 A 
ATOM      2  C2  UNL d   1       2.368  -0.818   0.683  0.00  0.00    -0.057 A 
ATOM      3  C3  UNL d   1       2.346  -1.932   1.532  0.00  0.00     0.033 A 
ATOM      4  C4  UNL d   1       1.149  -2.587   1.799  0.00  0.00    -0.042 A 
ATOM      5  C5  UNL d   1      -0.026  -2.130   1.213  0.00  0.00     0.033 A 
ATOM      6  C6  UNL d   1       0.003  -1.022   0.361  0.00  0.00    -0.057 A 
ENDROOT
BRANCH   1   7
ATOM      7  N   UNL d   1       1.141   0.804  -0.713  0.00  0.00    -0.732 N 
ATOM      8  C   UNL d   1      -0.079   1.580  -0.785  0.00  0.00     0.284 C 
ATOM      9  H3  UNL d   1       1.987   1.365  -0.639  0.00  0.00     0.395 HD
ENDBRANCH   1   7
TORSDOF 1
ENDMDL
