MODEL 1
REMARK minimizedAffinity -1.765607
REMARK minimizedRMSD -1
REMARK  1 active torsions:
REMARK  status: ('A' for Active; 'I' for Inactive)
REMARK    1  A    between atoms: N_2  and  C1_3 
ROOT
ATOM      1  C1  UNL d   1       1.372  -0.835   0.336  0.00  0.00     0.143 A 
ATOM      2  C2  UNL d   1       0.034  -1.242   0.341  0.00  0.00    -0.057 A 
ATOM      3  C3  UNL d   1      -0.982  -0.403  -0.132  0.00  0.00     0.033 A 
ATOM      4  C4  UNL d   1      -0.680   0.874  -0.593  0.00  0.00    -0.042 A 
ATOM      5  C5  UNL d   1       0.640   1.309  -0.584  0.00  0.00     0.033 A 
ATOM      6  C6  UNL d   1       1.652   0.464  -0.116  0.00  0.00    -0.057 A 
ENDROOT
BRANCH   1   7
ATOM      7  N   UNL d   1       2.416  -1.585   0.884  0.00  0.00    -0.732 N 
ATOM      8  C   UNL d   1       3.041  -1.181   2.125  0.00  0.00     0.284 C 
ATOM      9  H3  UNL d   1       2.257  -2.587   0.805  0.00  0.00     0.395 HD
ENDBRANCH   1   7
TORSDOF 1
ENDMDL
