MODEL 1
REMARK minimizedAffinity -3.2304492
REMARK minimizedRMSD -1
REMARK  1 active torsions:
REMARK  status: ('A' for Active; 'I' for Inactive)
REMARK    1  A    between atoms: N_2  and  C1_3 
ROOT
ATOM      1  C1  UNL d   1       0.987  -0.825   0.502  0.00  0.00     0.143 A 
ATOM      2  C2  UNL d   1      -0.318  -0.766   1.001  0.00  0.00    -0.057 A 
ATOM      3  C3  UNL d   1      -1.195   0.257   0.621  0.00  0.00     0.033 A 
ATOM      4  C4  UNL d   1      -0.770   1.259  -0.245  0.00  0.00    -0.042 A 
ATOM      5  C5  UNL d   1       0.531   1.234  -0.734  0.00  0.00     0.033 A 
ATOM      6  C6  UNL d   1       1.400   0.206  -0.356  0.00  0.00    -0.057 A 
ENDROOT
BRANCH   1   7
ATOM      7  N   UNL d   1       1.938  -1.761   0.918  0.00  0.00    -0.732 N 
ATOM      8  C   UNL d   1       1.535  -3.093   1.315  0.00  0.00     0.284 C 
ATOM      9  H3  UNL d   1       2.784  -1.733   0.354  0.00  0.00     0.395 HD
ENDBRANCH   1   7
TORSDOF 1
ENDMDL
