MODEL 1
REMARK minimizedAffinity -2.85530496
REMARK minimizedRMSD -1
REMARK  1 active torsions:
REMARK  status: ('A' for Active; 'I' for Inactive)
REMARK    1  A    between atoms: N_2  and  C1_3 
ROOT
ATOM      1  C1  UNL d   1       0.995  -1.035   0.267  0.00  0.00     0.143 A 
ATOM      2  C2  UNL d   1      -0.319  -1.083   0.744  0.00  0.00    -0.057 A 
ATOM      3  C3  UNL d   1      -1.216  -0.033   0.508  0.00  0.00     0.033 A 
ATOM      4  C4  UNL d   1      -0.804   1.099  -0.186  0.00  0.00    -0.042 A 
ATOM      5  C5  UNL d   1       0.505   1.179  -0.648  0.00  0.00     0.033 A 
ATOM      6  C6  UNL d   1       1.394   0.125  -0.415  0.00  0.00    -0.057 A 
ENDROOT
BRANCH   1   7
ATOM      7  N   UNL d   1       1.962  -2.001   0.553  0.00  0.00    -0.732 N 
ATOM      8  C   UNL d   1       1.792  -2.906   1.670  0.00  0.00     0.284 C 
ATOM      9  H3  UNL d   1       2.331  -2.442  -0.286  0.00  0.00     0.395 HD
ENDBRANCH   1   7
TORSDOF 1
ENDMDL
