MODEL 1
REMARK minimizedAffinity 6.62086868
REMARK minimizedRMSD -1
REMARK  1 active torsions:
REMARK  status: ('A' for Active; 'I' for Inactive)
REMARK    1  A    between atoms: C1_2  and  C2_3 
ROOT
ATOM      1  C2  UNL d   1       4.229  -0.478  -2.391  0.00  0.00    -0.077 A 
ATOM      2  C3  UNL d   1       3.165  -1.140  -1.762  0.00  0.00     0.002 A 
ATOM      3  C4  UNL d   1       2.859  -0.873  -0.426  0.00  0.00     0.002 A 
ATOM      4  C5  UNL d   1       3.609   0.058   0.290  0.00  0.00    -0.004 A 
ATOM      5  C6  UNL d   1       4.669   0.720  -0.327  0.00  0.00     0.002 A 
ATOM      6  C7  UNL d   1       4.978   0.454  -1.662  0.00  0.00     0.002 A 
ENDROOT
BRANCH   1   7
ATOM      7  C1  UNL d   1       4.529  -0.727  -3.846  0.00  0.00     0.055 C 
ATOM      8  C   UNL d   1       5.999  -1.061  -4.059  0.00  0.00     0.019 C 
ENDBRANCH   1   7
TORSDOF 1
ENDMDL
