MODEL 1
REMARK minimizedAffinity 10.5798178
REMARK minimizedRMSD -1
REMARK  1 active torsions:
REMARK  status: ('A' for Active; 'I' for Inactive)
REMARK    1  A    between atoms: C1_2  and  C2_3 
ROOT
ATOM      1  C2  UNL d   1      -1.378  -2.890  -2.263  0.00  0.00    -0.077 A 
ATOM      2  C3  UNL d   1      -1.624  -4.218  -1.887  0.00  0.00     0.002 A 
ATOM      3  C4  UNL d   1      -0.574  -5.043  -1.479  0.00  0.00     0.002 A 
ATOM      4  C5  UNL d   1       0.728  -4.548  -1.439  0.00  0.00    -0.004 A 
ATOM      5  C6  UNL d   1       0.983  -3.229  -1.813  0.00  0.00     0.002 A 
ATOM      6  C7  UNL d   1      -0.065  -2.404  -2.223  0.00  0.00     0.002 A 
ENDROOT
BRANCH   1   7
ATOM      7  C1  UNL d   1      -2.516  -1.984  -2.656  0.00  0.00     0.055 C 
ATOM      8  C   UNL d   1      -2.016  -0.593  -3.018  0.00  0.00     0.019 C 
ENDBRANCH   1   7
TORSDOF 1
ENDMDL
