MODEL 1
REMARK minimizedAffinity 9.95038891
REMARK minimizedRMSD -1
REMARK  1 active torsions:
REMARK  status: ('A' for Active; 'I' for Inactive)
REMARK    1  A    between atoms: C1_2  and  C2_3 
ROOT
ATOM      1  C2  UNL d   1       5.372   3.261  -1.094  0.00  0.00    -0.077 A 
ATOM      2  C3  UNL d   1       5.689   4.050  -2.208  0.00  0.00     0.002 A 
ATOM      3  C4  UNL d   1       6.000   5.402  -2.050  0.00  0.00     0.002 A 
ATOM      4  C5  UNL d   1       6.000   5.975  -0.780  0.00  0.00    -0.004 A 
ATOM      5  C6  UNL d   1       5.683   5.199   0.334  0.00  0.00     0.002 A 
ATOM      6  C7  UNL d   1       5.371   3.848   0.178  0.00  0.00     0.002 A 
ENDROOT
BRANCH   1   7
ATOM      7  C1  UNL d   1       5.084   1.791  -1.256  0.00  0.00     0.055 C 
ATOM      8  C   UNL d   1       5.006   1.090   0.092  0.00  0.00     0.019 C 
ENDBRANCH   1   7
TORSDOF 1
ENDMDL
