MODEL 1
REMARK minimizedAffinity 7.05196905
REMARK minimizedRMSD -1
REMARK  1 active torsions:
REMARK  status: ('A' for Active; 'I' for Inactive)
REMARK    1  A    between atoms: C1_2  and  C2_3 
ROOT
ATOM      1  C2  UNL d   1       1.141  -3.038   4.255  0.00  0.00    -0.077 A 
ATOM      2  C3  UNL d   1      -0.062  -3.759   4.262  0.00  0.00     0.002 A 
ATOM      3  C4  UNL d   1      -0.232  -4.840   5.129  0.00  0.00     0.002 A 
ATOM      4  C5  UNL d   1       0.793  -5.206   5.999  0.00  0.00    -0.004 A 
ATOM      5  C6  UNL d   1       1.993  -4.496   5.999  0.00  0.00     0.002 A 
ATOM      6  C7  UNL d   1       2.166  -3.416   5.132  0.00  0.00     0.002 A 
ENDROOT
BRANCH   1   7
ATOM      7  C1  UNL d   1       1.308  -1.841   3.356  0.00  0.00     0.055 C 
ATOM      8  C   UNL d   1       0.356  -0.720   3.743  0.00  0.00     0.019 C 
ENDBRANCH   1   7
TORSDOF 1
ENDMDL
