MODEL 1
REMARK minimizedAffinity 6.80318642
REMARK minimizedRMSD -1
REMARK  1 active torsions:
REMARK  status: ('A' for Active; 'I' for Inactive)
REMARK    1  A    between atoms: C1_2  and  C2_3 
ROOT
ATOM      1  C2  UNL d   1      -3.848   1.376  -5.098  0.00  0.00    -0.077 A 
ATOM      2  C3  UNL d   1      -3.860   2.760  -4.874  0.00  0.00     0.002 A 
ATOM      3  C4  UNL d   1      -4.934   3.358  -4.212  0.00  0.00     0.002 A 
ATOM      4  C5  UNL d   1      -6.000   2.580  -3.764  0.00  0.00    -0.004 A 
ATOM      5  C6  UNL d   1      -5.998   1.204  -3.984  0.00  0.00     0.002 A 
ATOM      6  C7  UNL d   1      -4.926   0.604  -4.647  0.00  0.00     0.002 A 
ENDROOT
BRANCH   1   7
ATOM      7  C1  UNL d   1      -2.668   0.722  -5.768  0.00  0.00     0.055 C 
ATOM      8  C   UNL d   1      -1.890  -0.150  -4.793  0.00  0.00     0.019 C 
ENDBRANCH   1   7
TORSDOF 1
ENDMDL
