MODEL 1
REMARK minimizedAffinity 9.5631218
REMARK minimizedRMSD -1
REMARK  1 active torsions:
REMARK  status: ('A' for Active; 'I' for Inactive)
REMARK    1  A    between atoms: C1_2  and  C2_3 
ROOT
ATOM      1  C2  UNL d   1       2.856   3.541   5.299  0.00  0.00    -0.077 A 
ATOM      2  C3  UNL d   1       3.243   3.585   3.952  0.00  0.00     0.002 A 
ATOM      3  C4  UNL d   1       3.463   4.810   3.320  0.00  0.00     0.002 A 
ATOM      4  C5  UNL d   1       3.303   5.999   4.027  0.00  0.00    -0.004 A 
ATOM      5  C6  UNL d   1       2.917   5.966   5.367  0.00  0.00     0.002 A 
ATOM      6  C7  UNL d   1       2.695   4.742   6.000  0.00  0.00     0.002 A 
ENDROOT
BRANCH   1   7
ATOM      7  C1  UNL d   1       2.666   2.219   5.996  0.00  0.00     0.055 C 
ATOM      8  C   UNL d   1       1.205   1.795   5.990  0.00  0.00     0.019 C 
ENDBRANCH   1   7
TORSDOF 1
ENDMDL
