MODEL 1
REMARK minimizedAffinity 1.96904993
REMARK minimizedRMSD -1
REMARK  1 active torsions:
REMARK  status: ('A' for Active; 'I' for Inactive)
REMARK    1  A    between atoms: C1_2  and  C2_3 
ROOT
ATOM      1  C2  UNL d   1      -3.845   1.853  -0.346  0.00  0.00    -0.077 A 
ATOM      2  C3  UNL d   1      -4.942   1.081  -0.755  0.00  0.00     0.002 A 
ATOM      3  C4  UNL d   1      -5.997   1.670  -1.456  0.00  0.00     0.002 A 
ATOM      4  C5  UNL d   1      -5.963   3.029  -1.757  0.00  0.00    -0.004 A 
ATOM      5  C6  UNL d   1      -4.877   3.805  -1.353  0.00  0.00     0.002 A 
ATOM      6  C7  UNL d   1      -3.823   3.219  -0.651  0.00  0.00     0.002 A 
ENDROOT
BRANCH   1   7
ATOM      7  C1  UNL d   1      -2.683   1.210   0.366  0.00  0.00     0.055 C 
ATOM      8  C   UNL d   1      -1.369   1.885   0.003  0.00  0.00     0.019 C 
ENDBRANCH   1   7
TORSDOF 1
ENDMDL
