MODEL 1
REMARK minimizedAffinity 10.8209572
REMARK minimizedRMSD -1
REMARK  1 active torsions:
REMARK  status: ('A' for Active; 'I' for Inactive)
REMARK    1  A    between atoms: C1_2  and  C2_3 
ROOT
ATOM      1  C2  UNL d   1       2.348   0.155   0.019  0.00  0.00    -0.077 A 
ATOM      2  C3  UNL d   1       3.414   0.858   0.599  0.00  0.00     0.002 A 
ATOM      3  C4  UNL d   1       4.726   0.621   0.183  0.00  0.00     0.002 A 
ATOM      4  C5  UNL d   1       4.983  -0.315  -0.816  0.00  0.00    -0.004 A 
ATOM      5  C6  UNL d   1       3.931  -1.021  -1.397  0.00  0.00     0.002 A 
ATOM      6  C7  UNL d   1       2.619  -0.787  -0.982  0.00  0.00     0.002 A 
ENDROOT
BRANCH   1   7
ATOM      7  C1  UNL d   1       0.929   0.444   0.431  0.00  0.00     0.055 C 
ATOM      8  C   UNL d   1       0.796   0.519   1.946  0.00  0.00     0.019 C 
ENDBRANCH   1   7
TORSDOF 1
ENDMDL
