MODEL 1
REMARK minimizedAffinity 2.68993783
REMARK minimizedRMSD -1
REMARK  1 active torsions:
REMARK  status: ('A' for Active; 'I' for Inactive)
REMARK    1  A    between atoms: C1_2  and  C2_3 
ROOT
ATOM      1  C2  UNL d   1       0.011  -4.689  -1.207  0.00  0.00    -0.077 A 
ATOM      2  C3  UNL d   1       0.604  -4.188  -0.039  0.00  0.00     0.002 A 
ATOM      3  C4  UNL d   1       1.530  -3.145  -0.108  0.00  0.00     0.002 A 
ATOM      4  C5  UNL d   1       1.867  -2.591  -1.341  0.00  0.00    -0.004 A 
ATOM      5  C6  UNL d   1       1.285  -3.084  -2.508  0.00  0.00     0.002 A 
ATOM      6  C7  UNL d   1       0.361  -4.127  -2.441  0.00  0.00     0.002 A 
ENDROOT
BRANCH   1   7
ATOM      7  C1  UNL d   1      -1.024  -5.780  -1.130  0.00  0.00     0.055 C 
ATOM      8  C   UNL d   1      -1.498  -5.993   0.300  0.00  0.00     0.019 C 
ENDBRANCH   1   7
TORSDOF 1
ENDMDL
