MODEL 1
REMARK minimizedAffinity 3.04414535
REMARK minimizedRMSD -1
REMARK  1 active torsions:
REMARK  status: ('A' for Active; 'I' for Inactive)
REMARK    1  A    between atoms: C1_2  and  C2_3 
ROOT
ATOM      1  C2  UNL d   1       4.925   1.582   0.583  0.00  0.00    -0.077 A 
ATOM      2  C3  UNL d   1       4.756   1.129  -0.733  0.00  0.00     0.002 A 
ATOM      3  C4  UNL d   1       3.730   0.234  -1.046  0.00  0.00     0.002 A 
ATOM      4  C5  UNL d   1       2.864  -0.211  -0.050  0.00  0.00    -0.004 A 
ATOM      5  C6  UNL d   1       3.025   0.233   1.262  0.00  0.00     0.002 A 
ATOM      6  C7  UNL d   1       4.050   1.126   1.577  0.00  0.00     0.002 A 
ENDROOT
BRANCH   1   7
ATOM      7  C1  UNL d   1       5.999   2.585   0.913  0.00  0.00     0.055 C 
ATOM      8  C   UNL d   1       5.973   3.762  -0.052  0.00  0.00     0.019 C 
ENDBRANCH   1   7
TORSDOF 1
ENDMDL
