MODEL 1
REMARK minimizedAffinity 10.4599266
REMARK minimizedRMSD -1
REMARK  1 active torsions:
REMARK  status: ('A' for Active; 'I' for Inactive)
REMARK    1  A    between atoms: C1_2  and  C2_3 
ROOT
ATOM      1  C2  UNL d   1       2.082  -2.530  -1.422  0.00  0.00    -0.077 A 
ATOM      2  C3  UNL d   1       2.106  -2.860  -0.059  0.00  0.00     0.002 A 
ATOM      3  C4  UNL d   1       2.695  -1.996   0.866  0.00  0.00     0.002 A 
ATOM      4  C5  UNL d   1       3.261  -0.797   0.440  0.00  0.00    -0.004 A 
ATOM      5  C6  UNL d   1       3.245  -0.461  -0.913  0.00  0.00     0.002 A 
ATOM      6  C7  UNL d   1       2.657  -1.323  -1.839  0.00  0.00     0.002 A 
ENDROOT
BRANCH   1   7
ATOM      7  C1  UNL d   1       1.404  -3.437  -2.415  0.00  0.00     0.055 C 
ATOM      8  C   UNL d   1       0.300  -4.252  -1.756  0.00  0.00     0.019 C 
ENDBRANCH   1   7
TORSDOF 1
ENDMDL
