MODEL 1
REMARK minimizedAffinity 6.9976902
REMARK minimizedRMSD -1
REMARK  3 active torsions:
REMARK  status: ('A' for Active; 'I' for Inactive)
REMARK    1  A    between atoms: C3'_2  and  C2'_3 
REMARK    2  A    between atoms: C2'_3  and  C1'_4 
REMARK    3  A    between atoms: C1'_4  and  C1_5 
ROOT
ATOM      1  C1  N4B d   1       2.614  -2.819   0.432  0.00  0.00    -0.075 A 
ATOM      2  C2  N4B d   1       3.157  -2.120  -0.668  0.00  0.00     0.002 A 
ATOM      3  C3  N4B d   1       2.617  -0.918  -1.053  0.00  0.00     0.002 A 
ATOM      4  C4  N4B d   1       1.526  -0.405  -0.367  0.00  0.00    -0.004 A 
ATOM      5  C5  N4B d   1       1.023  -1.074   0.711  0.00  0.00     0.002 A 
ATOM      6  C6  N4B d   1       1.559  -2.281   1.111  0.00  0.00     0.002 A 
ENDROOT
BRANCH   1   7
ATOM      7  C1' N4B d   1       3.116  -4.178   0.837  0.00  0.00     0.057 C 
BRANCH   7   8
ATOM      8  C2' N4B d   1       4.321  -4.013   1.759  0.00  0.00     0.009 C 
BRANCH   8   9
ATOM      9  C3' N4B d   1       4.069  -4.605   3.135  0.00  0.00     0.004 C 
ATOM     10  C4' N4B d   1       4.259  -3.609   4.239  0.00  0.00     0.003 C 
ENDBRANCH   8   9
ENDBRANCH   7   8
ENDBRANCH   1   7
TORSDOF 3
ENDMDL
