MODEL 1
REMARK minimizedAffinity 7.89237833
REMARK minimizedRMSD -1
REMARK  3 active torsions:
REMARK  status: ('A' for Active; 'I' for Inactive)
REMARK    1  A    between atoms: C3'_2  and  C2'_3 
REMARK    2  A    between atoms: C2'_3  and  C1'_4 
REMARK    3  A    between atoms: C1'_4  and  C1_5 
ROOT
ATOM      1  C1  N4B d   1      -5.095   1.945  -5.120  0.00  0.00    -0.075 A 
ATOM      2  C2  N4B d   1      -5.988   2.900  -5.654  0.00  0.00     0.002 A 
ATOM      3  C3  N4B d   1      -5.799   4.236  -5.399  0.00  0.00     0.002 A 
ATOM      4  C4  N4B d   1      -4.739   4.638  -4.600  0.00  0.00    -0.004 A 
ATOM      5  C5  N4B d   1      -3.866   3.711  -4.108  0.00  0.00     0.002 A 
ATOM      6  C6  N4B d   1      -4.042   2.366  -4.360  0.00  0.00     0.002 A 
ENDROOT
BRANCH   1   7
ATOM      7  C1' N4B d   1      -5.311   0.467  -5.300  0.00  0.00     0.057 C 
BRANCH   7   8
ATOM      8  C2' N4B d   1      -6.000  -0.094  -4.060  0.00  0.00     0.009 C 
BRANCH   8   9
ATOM      9  C3' N4B d   1      -5.048  -0.909  -3.201  0.00  0.00     0.004 C 
ATOM     10  C4' N4B d   1      -5.245  -2.387  -3.360  0.00  0.00     0.003 C 
ENDBRANCH   8   9
ENDBRANCH   7   8
ENDBRANCH   1   7
TORSDOF 3
ENDMDL
