MODEL 1
REMARK minimizedAffinity 12.1348267
REMARK minimizedRMSD -1
REMARK  3 active torsions:
REMARK  status: ('A' for Active; 'I' for Inactive)
REMARK    1  A    between atoms: C3'_2  and  C2'_3 
REMARK    2  A    between atoms: C2'_3  and  C1'_4 
REMARK    3  A    between atoms: C1'_4  and  C1_5 
ROOT
ATOM      1  C1  N4B d   1       1.929  -0.673   0.051  0.00  0.00    -0.075 A 
ATOM      2  C2  N4B d   1       3.046   0.186  -0.039  0.00  0.00     0.002 A 
ATOM      3  C3  N4B d   1       3.212   0.983  -1.145  0.00  0.00     0.002 A 
ATOM      4  C4  N4B d   1       2.287   0.925  -2.178  0.00  0.00    -0.004 A 
ATOM      5  C5  N4B d   1       1.198   0.111  -2.071  0.00  0.00     0.002 A 
ATOM      6  C6  N4B d   1       1.017  -0.693  -0.964  0.00  0.00     0.002 A 
ENDROOT
BRANCH   1   7
ATOM      7  C1' N4B d   1       1.751  -1.626   1.201  0.00  0.00     0.057 C 
BRANCH   7   8
ATOM      8  C2' N4B d   1       0.359  -1.438   1.796  0.00  0.00     0.009 C 
BRANCH   8   9
ATOM      9  C3' N4B d   1       0.353  -0.410   2.915  0.00  0.00     0.004 C 
ATOM     10  C4' N4B d   1      -1.031  -0.057   3.372  0.00  0.00     0.003 C 
ENDBRANCH   8   9
ENDBRANCH   7   8
ENDBRANCH   1   7
TORSDOF 3
ENDMDL
