MODEL 1
REMARK minimizedAffinity 1.37876153
REMARK minimizedRMSD -1
REMARK  3 active torsions:
REMARK  status: ('A' for Active; 'I' for Inactive)
REMARK    1  A    between atoms: C3'_2  and  C2'_3 
REMARK    2  A    between atoms: C2'_3  and  C1'_4 
REMARK    3  A    between atoms: C1'_4  and  C1_5 
ROOT
ATOM      1  C1  N4B d   1       4.154  -0.847   0.026  0.00  0.00    -0.075 A 
ATOM      2  C2  N4B d   1       3.209  -1.894   0.097  0.00  0.00     0.002 A 
ATOM      3  C3  N4B d   1       3.630  -3.187   0.288  0.00  0.00     0.002 A 
ATOM      4  C4  N4B d   1       4.987  -3.459   0.391  0.00  0.00    -0.004 A 
ATOM      5  C5  N4B d   1       5.891  -2.438   0.347  0.00  0.00     0.002 A 
ATOM      6  C6  N4B d   1       5.482  -1.134   0.159  0.00  0.00     0.002 A 
ENDROOT
BRANCH   1   7
ATOM      7  C1' N4B d   1       3.747   0.571  -0.268  0.00  0.00     0.057 C 
BRANCH   7   8
ATOM      8  C2' N4B d   1       3.783   0.801  -1.776  0.00  0.00     0.009 C 
BRANCH   8   9
ATOM      9  C3' N4B d   1       2.569   0.209  -2.470  0.00  0.00     0.004 C 
ATOM     10  C4' N4B d   1       1.292   0.470  -1.729  0.00  0.00     0.003 C 
ENDBRANCH   8   9
ENDBRANCH   7   8
ENDBRANCH   1   7
TORSDOF 3
ENDMDL
