MODEL 1
REMARK minimizedAffinity 1.16418064
REMARK minimizedRMSD -1
REMARK  3 active torsions:
REMARK  status: ('A' for Active; 'I' for Inactive)
REMARK    1  A    between atoms: C3'_2  and  C2'_3 
REMARK    2  A    between atoms: C2'_3  and  C1'_4 
REMARK    3  A    between atoms: C1'_4  and  C1_5 
ROOT
ATOM      1  C1  N4B d   1       0.718  -1.417   1.087  0.00  0.00    -0.075 A 
ATOM      2  C2  N4B d   1      -0.046  -1.542   2.268  0.00  0.00     0.002 A 
ATOM      3  C3  N4B d   1       0.103  -2.647   3.069  0.00  0.00     0.002 A 
ATOM      4  C4  N4B d   1       0.993  -3.646   2.701  0.00  0.00    -0.004 A 
ATOM      5  C5  N4B d   1       1.746  -3.506   1.571  0.00  0.00     0.002 A 
ATOM      6  C6  N4B d   1       1.609  -2.398   0.759  0.00  0.00     0.002 A 
ENDROOT
BRANCH   1   7
ATOM      7  C1' N4B d   1       0.527  -0.268   0.135  0.00  0.00     0.057 C 
BRANCH   7   8
ATOM      8  C2' N4B d   1      -0.595   0.628   0.650  0.00  0.00     0.009 C 
BRANCH   8   9
ATOM      9  C3' N4B d   1      -1.918   0.332  -0.035  0.00  0.00     0.004 C 
ATOM     10  C4' N4B d   1      -2.933  -0.266   0.893  0.00  0.00     0.003 C 
ENDBRANCH   8   9
ENDBRANCH   7   8
ENDBRANCH   1   7
TORSDOF 3
ENDMDL
