MODEL 1
REMARK minimizedAffinity 1.02366114
REMARK minimizedRMSD -1
REMARK  3 active torsions:
REMARK  status: ('A' for Active; 'I' for Inactive)
REMARK    1  A    between atoms: C3'_2  and  C2'_3 
REMARK    2  A    between atoms: C2'_3  and  C1'_4 
REMARK    3  A    between atoms: C1'_4  and  C1_5 
ROOT
ATOM      1  C1  N4B d   1       1.491  -3.074   2.907  0.00  0.00    -0.075 A 
ATOM      2  C2  N4B d   1       0.515  -4.090   3.010  0.00  0.00     0.002 A 
ATOM      3  C3  N4B d   1      -0.816  -3.759   3.071  0.00  0.00     0.002 A 
ATOM      4  C4  N4B d   1      -1.193  -2.424   3.050  0.00  0.00    -0.004 A 
ATOM      5  C5  N4B d   1      -0.246  -1.450   2.925  0.00  0.00     0.002 A 
ATOM      6  C6  N4B d   1       1.096  -1.768   2.859  0.00  0.00     0.002 A 
ENDROOT
BRANCH   1   7
ATOM      7  C1' N4B d   1       2.963  -3.382   2.924  0.00  0.00     0.057 C 
BRANCH   7   8
ATOM      8  C2' N4B d   1       3.446  -3.444   4.371  0.00  0.00     0.009 C 
BRANCH   8   9
ATOM      9  C3' N4B d   1       4.568  -4.451   4.553  0.00  0.00     0.004 C 
ATOM     10  C4' N4B d   1       4.930  -4.663   5.993  0.00  0.00     0.003 C 
ENDBRANCH   8   9
ENDBRANCH   7   8
ENDBRANCH   1   7
TORSDOF 3
ENDMDL
