MODEL 1
REMARK minimizedAffinity 1.55438232
REMARK minimizedRMSD -1
REMARK  0 active torsions:
REMARK  status: ('A' for Active; 'I' for Inactive)
ROOT
ATOM      1  C   UNL d   1       3.038  -4.910   1.148  0.00  0.00    -0.002 A 
ATOM      2  C1  UNL d   1       2.955  -3.737   0.411  0.00  0.00     0.010 A 
ATOM      3  C2  UNL d   1       1.878  -2.865   0.582  0.00  0.00     0.041 A 
ATOM      4  C3  UNL d   1       0.877  -3.194   1.517  0.00  0.00    -0.075 A 
ATOM      5  S   UNL d   1      -0.533  -2.277   1.896  0.00  0.00     0.015 SA
ATOM      6  C4  UNL d   1      -1.058  -3.419   3.046  0.00  0.00     0.022 A 
ATOM      7  C5  UNL d   1      -0.191  -4.481   3.152  0.00  0.00     0.026 A 
ATOM      8  C6  UNL d   1       0.939  -4.368   2.272  0.00  0.00    -0.082 A 
ATOM      9  C7  UNL d   1       2.043  -5.232   2.075  0.00  0.00     0.045 A 
ENDROOT
TORSDOF 0
ENDMDL
