MODEL 1
REMARK minimizedAffinity 6.05217552
REMARK minimizedRMSD -1
REMARK  0 active torsions:
REMARK  status: ('A' for Active; 'I' for Inactive)
ROOT
ATOM      1  C   UNL d   1      -0.151  -1.774   0.883  0.00  0.00    -0.002 A 
ATOM      2  C1  UNL d   1      -0.392  -0.761   1.800  0.00  0.00     0.010 A 
ATOM      3  C2  UNL d   1       0.486   0.319   1.913  0.00  0.00     0.041 A 
ATOM      4  C3  UNL d   1       1.621   0.365   1.079  0.00  0.00    -0.075 A 
ATOM      5  S   UNL d   1       2.834   1.589   1.041  0.00  0.00     0.015 SA
ATOM      6  C4  UNL d   1       3.700   0.797  -0.195  0.00  0.00     0.022 A 
ATOM      7  C5  UNL d   1       3.093  -0.375  -0.581  0.00  0.00     0.026 A 
ATOM      8  C6  UNL d   1       1.884  -0.643   0.147  0.00  0.00    -0.082 A 
ATOM      9  C7  UNL d   1       0.976  -1.725   0.057  0.00  0.00     0.045 A 
ENDROOT
TORSDOF 0
ENDMDL
