MODEL 1
REMARK minimizedAffinity -0.884854972
REMARK minimizedRMSD -1
REMARK  0 active torsions:
REMARK  status: ('A' for Active; 'I' for Inactive)
ROOT
ATOM      1  C   UNL d   1       0.884  -0.468   0.422  0.00  0.00    -0.002 A 
ATOM      2  C1  UNL d   1       0.249  -1.154   1.448  0.00  0.00     0.010 A 
ATOM      3  C2  UNL d   1       0.616  -2.464   1.759  0.00  0.00     0.041 A 
ATOM      4  C3  UNL d   1       1.643  -3.079   1.016  0.00  0.00    -0.075 A 
ATOM      5  S   UNL d   1       2.260  -4.676   1.220  0.00  0.00     0.015 SA
ATOM      6  C4  UNL d   1       3.382  -4.485  -0.050  0.00  0.00     0.022 A 
ATOM      7  C5  UNL d   1       3.301  -3.240  -0.626  0.00  0.00     0.026 A 
ATOM      8  C6  UNL d   1       2.298  -2.409  -0.021  0.00  0.00    -0.082 A 
ATOM      9  C7  UNL d   1       1.902  -1.081  -0.313  0.00  0.00     0.045 A 
ENDROOT
TORSDOF 0
ENDMDL
