MODEL 1
REMARK minimizedAffinity 6.47176886
REMARK minimizedRMSD -1
REMARK  0 active torsions:
REMARK  status: ('A' for Active; 'I' for Inactive)
ROOT
ATOM      1  C   UNL d   1       0.304  -0.396   1.106  0.00  0.00    -0.002 A 
ATOM      2  C1  UNL d   1      -0.687  -1.104   1.771  0.00  0.00     0.010 A 
ATOM      3  C2  UNL d   1      -0.611  -2.493   1.886  0.00  0.00     0.041 A 
ATOM      4  C3  UNL d   1       0.490  -3.165   1.319  0.00  0.00    -0.075 A 
ATOM      5  S   UNL d   1       0.794  -4.862   1.337  0.00  0.00     0.015 SA
ATOM      6  C4  UNL d   1       2.248  -4.686   0.464  0.00  0.00     0.022 A 
ATOM      7  C5  UNL d   1       2.509  -3.372   0.158  0.00  0.00     0.026 A 
ATOM      8  C6  UNL d   1       1.501  -2.473   0.646  0.00  0.00    -0.082 A 
ATOM      9  C7  UNL d   1       1.394  -1.065   0.545  0.00  0.00     0.045 A 
ENDROOT
TORSDOF 0
ENDMDL
