MODEL 1
REMARK minimizedAffinity 7.5975647
REMARK minimizedRMSD -1
REMARK  0 active torsions:
REMARK  status: ('A' for Active; 'I' for Inactive)
ROOT
ATOM      1  C   UNL d   1       0.866  -2.955   1.153  0.00  0.00    -0.002 A 
ATOM      2  C1  UNL d   1       1.700  -2.117   0.426  0.00  0.00     0.010 A 
ATOM      3  C2  UNL d   1       2.977  -2.538   0.051  0.00  0.00     0.041 A 
ATOM      4  C3  UNL d   1       3.406  -3.828   0.420  0.00  0.00    -0.075 A 
ATOM      5  S   UNL d   1       4.929  -4.557   0.070  0.00  0.00     0.015 SA
ATOM      6  C4  UNL d   1       4.508  -5.999   0.877  0.00  0.00     0.022 A 
ATOM      7  C5  UNL d   1       3.241  -5.942   1.407  0.00  0.00     0.026 A 
ATOM      8  C6  UNL d   1       2.585  -4.690   1.152  0.00  0.00    -0.082 A 
ATOM      9  C7  UNL d   1       1.295  -4.234   1.518  0.00  0.00     0.045 A 
ENDROOT
TORSDOF 0
ENDMDL
