MODEL 1
REMARK minimizedAffinity -4.52639151
REMARK minimizedRMSD -1
REMARK  1 active torsions:
REMARK  status: ('A' for Active; 'I' for Inactive)
REMARK    1  A    between atoms: C3_4  and  O_7 
ROOT
ATOM      1  C   UNL d   1       2.245  -1.952   1.126  0.00  0.00    -0.033 A 
ATOM      2  C1  UNL d   1       2.750  -1.003   0.236  0.00  0.00     0.039 A 
ATOM      3  C2  UNL d   1       1.901  -0.045  -0.321  0.00  0.00    -0.080 A 
ATOM      4  C3  UNL d   1       0.552  -0.046   0.021  0.00  0.00     0.150 A 
ATOM      5  C4  UNL d   1       0.042  -0.986   0.910  0.00  0.00    -0.007 A 
ATOM      6  C5  UNL d   1       0.891  -1.943   1.465  0.00  0.00     0.039 A 
ENDROOT
BRANCH   4   7
ATOM      7  O   UNL d   1      -0.316   0.867  -0.501  0.00  0.00    -0.526 OA
ATOM      8  H5  UNL d   1       0.170   1.435  -1.121  0.00  0.00     0.418 HD
ENDBRANCH   4   7
TORSDOF 1
ENDMDL
