MODEL 1
REMARK minimizedAffinity -5.25658846
REMARK minimizedRMSD -1
REMARK  1 active torsions:
REMARK  status: ('A' for Active; 'I' for Inactive)
REMARK    1  A    between atoms: C3_4  and  O_7 
ROOT
ATOM      1  C   UNL d   1       0.265   0.140  -0.311  0.00  0.00    -0.033 A 
ATOM      2  C1  UNL d   1      -0.538  -0.991  -0.149  0.00  0.00     0.039 A 
ATOM      3  C2  UNL d   1       0.027  -2.197   0.271  0.00  0.00    -0.080 A 
ATOM      4  C3  UNL d   1       1.394  -2.258   0.526  0.00  0.00     0.150 A 
ATOM      5  C4  UNL d   1       2.200  -1.134   0.370  0.00  0.00    -0.007 A 
ATOM      6  C5  UNL d   1       1.633   0.068  -0.050  0.00  0.00     0.039 A 
ENDROOT
BRANCH   4   7
ATOM      7  O   UNL d   1       1.992  -3.413   0.933  0.00  0.00    -0.526 OA
ATOM      8  H5  UNL d   1       1.318  -4.113   0.969  0.00  0.00     0.418 HD
ENDBRANCH   4   7
TORSDOF 1
ENDMDL
