MODEL 1
REMARK minimizedAffinity -2.99447417
REMARK minimizedRMSD -1
REMARK  1 active torsions:
REMARK  status: ('A' for Active; 'I' for Inactive)
REMARK    1  A    between atoms: C3_4  and  O_7 
ROOT
ATOM      1  C   UNL d   1      -0.747  -0.157   0.013  0.00  0.00    -0.033 A 
ATOM      2  C1  UNL d   1       0.067  -0.567  -1.044  0.00  0.00     0.039 A 
ATOM      3  C2  UNL d   1       1.046  -1.541  -0.835  0.00  0.00    -0.080 A 
ATOM      4  C3  UNL d   1       1.199  -2.096   0.432  0.00  0.00     0.150 A 
ATOM      5  C4  UNL d   1       0.388  -1.694   1.489  0.00  0.00    -0.007 A 
ATOM      6  C5  UNL d   1      -0.588  -0.721   1.279  0.00  0.00     0.039 A 
ENDROOT
BRANCH   4   7
ATOM      7  O   UNL d   1       2.143  -3.046   0.685  0.00  0.00    -0.526 OA
ATOM      8  H5  UNL d   1       2.647  -3.204  -0.131  0.00  0.00     0.418 HD
ENDBRANCH   4   7
TORSDOF 1
ENDMDL
