MODEL 1
REMARK minimizedAffinity -3.89887452
REMARK minimizedRMSD -1
REMARK  1 active torsions:
REMARK  status: ('A' for Active; 'I' for Inactive)
REMARK    1  A    between atoms: C3_4  and  O_7 
ROOT
ATOM      1  C   UNL d   1      -0.791   0.456  -1.169  0.00  0.00    -0.033 A 
ATOM      2  C1  UNL d   1      -0.613   0.391   0.214  0.00  0.00     0.039 A 
ATOM      3  C2  UNL d   1       0.552  -0.166   0.744  0.00  0.00    -0.080 A 
ATOM      4  C3  UNL d   1       1.530  -0.653  -0.118  0.00  0.00     0.150 A 
ATOM      5  C4  UNL d   1       1.361  -0.589  -1.497  0.00  0.00    -0.007 A 
ATOM      6  C5  UNL d   1       0.196  -0.033  -2.025  0.00  0.00     0.039 A 
ENDROOT
BRANCH   4   7
ATOM      7  O   UNL d   1       2.682  -1.210   0.352  0.00  0.00    -0.526 OA
ATOM      8  H5  UNL d   1       2.648  -1.214   1.324  0.00  0.00     0.418 HD
ENDBRANCH   4   7
TORSDOF 1
ENDMDL
