MODEL 1
REMARK minimizedAffinity -4.36462736
REMARK minimizedRMSD -1
REMARK  1 active torsions:
REMARK  status: ('A' for Active; 'I' for Inactive)
REMARK    1  A    between atoms: C3_4  and  O_7 
ROOT
ATOM      1  C   UNL d   1      -0.117  -0.523   0.093  0.00  0.00    -0.033 A 
ATOM      2  C1  UNL d   1       0.844   0.353  -0.417  0.00  0.00     0.039 A 
ATOM      3  C2  UNL d   1       2.199   0.130  -0.165  0.00  0.00    -0.080 A 
ATOM      4  C3  UNL d   1       2.580  -0.971   0.597  0.00  0.00     0.150 A 
ATOM      5  C4  UNL d   1       1.629  -1.850   1.105  0.00  0.00    -0.007 A 
ATOM      6  C5  UNL d   1       0.276  -1.625   0.853  0.00  0.00     0.039 A 
ENDROOT
BRANCH   4   7
ATOM      7  O   UNL d   1       3.890  -1.227   0.874  0.00  0.00    -0.526 OA
ATOM      8  H5  UNL d   1       4.431  -0.520   0.483  0.00  0.00     0.418 HD
ENDBRANCH   4   7
TORSDOF 1
ENDMDL
