MODEL 1
REMARK minimizedAffinity -5.16721821
REMARK minimizedRMSD -1
REMARK  1 active torsions:
REMARK  status: ('A' for Active; 'I' for Inactive)
REMARK    1  A    between atoms: C3_4  and  O_7 
ROOT
ATOM      1  C   UNL d   1       1.032   0.646  -0.092  0.00  0.00    -0.033 A 
ATOM      2  C1  UNL d   1       0.032  -0.194   0.403  0.00  0.00     0.039 A 
ATOM      3  C2  UNL d   1       0.328  -1.519   0.727  0.00  0.00    -0.080 A 
ATOM      4  C3  UNL d   1       1.626  -1.991   0.554  0.00  0.00     0.150 A 
ATOM      5  C4  UNL d   1       2.628  -1.159   0.065  0.00  0.00    -0.007 A 
ATOM      6  C5  UNL d   1       2.330   0.164  -0.259  0.00  0.00     0.039 A 
ENDROOT
BRANCH   4   7
ATOM      7  O   UNL d   1       1.962  -3.278   0.852  0.00  0.00    -0.526 OA
ATOM      8  H5  UNL d   1       1.163  -3.743   1.152  0.00  0.00     0.418 HD
ENDBRANCH   4   7
TORSDOF 1
ENDMDL
