MODEL 1
REMARK minimizedAffinity -0.339267313
REMARK minimizedRMSD -1
REMARK  1 active torsions:
REMARK  status: ('A' for Active; 'I' for Inactive)
REMARK    1  A    between atoms: C3_4  and  O_7 
ROOT
ATOM      1  C   UNL d   1       0.363  -0.379  -0.377  0.00  0.00    -0.033 A 
ATOM      2  C1  UNL d   1      -0.886  -0.519  -0.984  0.00  0.00     0.039 A 
ATOM      3  C2  UNL d   1      -2.050  -0.258  -0.259  0.00  0.00    -0.080 A 
ATOM      4  C3  UNL d   1      -1.952   0.143   1.070  0.00  0.00     0.150 A 
ATOM      5  C4  UNL d   1      -0.710   0.289   1.681  0.00  0.00    -0.007 A 
ATOM      6  C5  UNL d   1       0.451   0.027   0.955  0.00  0.00     0.039 A 
ENDROOT
BRANCH   4   7
ATOM      7  O   UNL d   1      -3.060   0.405   1.820  0.00  0.00    -0.526 OA
ATOM      8  H5  UNL d   1      -3.847   0.234   1.275  0.00  0.00     0.418 HD
ENDBRANCH   4   7
TORSDOF 1
ENDMDL
