MODEL 1
REMARK minimizedAffinity -3.26154327
REMARK minimizedRMSD -1
REMARK  1 active torsions:
REMARK  status: ('A' for Active; 'I' for Inactive)
REMARK    1  A    between atoms: C3_4  and  O_7 
ROOT
ATOM      1  C   UNL d   1       0.195  -0.301  -0.535  0.00  0.00    -0.033 A 
ATOM      2  C1  UNL d   1       0.076  -0.539  -1.906  0.00  0.00     0.039 A 
ATOM      3  C2  UNL d   1      -0.718   0.297  -2.695  0.00  0.00    -0.080 A 
ATOM      4  C3  UNL d   1      -1.385   1.365  -2.102  0.00  0.00     0.150 A 
ATOM      5  C4  UNL d   1      -1.267   1.610  -0.738  0.00  0.00    -0.007 A 
ATOM      6  C5  UNL d   1      -0.475   0.775   0.049  0.00  0.00     0.039 A 
ENDROOT
BRANCH   4   7
ATOM      7  O   UNL d   1      -2.174   2.205  -2.830  0.00  0.00    -0.526 OA
ATOM      8  H5  UNL d   1      -2.184   1.896  -3.751  0.00  0.00     0.418 HD
ENDBRANCH   4   7
TORSDOF 1
ENDMDL
