MODEL 1
REMARK minimizedAffinity 6.833179
REMARK minimizedRMSD -1
REMARK  0 active torsions:
REMARK  status: ('A' for Active; 'I' for Inactive)
ROOT
ATOM      1  C   UNL d   1       0.895   0.528  -0.101  0.00  0.00     0.023 A 
ATOM      2  C1  UNL d   1       0.185  -0.228  -1.034  0.00  0.00     0.003 A 
ATOM      3  C2  UNL d   1      -1.199  -0.368  -0.914  0.00  0.00     0.048 A 
ATOM      4  C3  UNL d   1      -1.867   0.252   0.141  0.00  0.00     0.023 A 
ATOM      5  C4  UNL d   1      -1.162   1.011   1.077  0.00  0.00     0.048 A 
ATOM      6  C5  UNL d   1       0.222   1.147   0.953  0.00  0.00     0.003 A 
ATOM      7  I   UNL d   1      -3.927   0.046   0.322  0.00  0.00    -0.146 I 
ENDROOT
TORSDOF 0
ENDMDL
