MODEL 1
REMARK minimizedAffinity 0.685858309
REMARK minimizedRMSD -1
REMARK  0 active torsions:
REMARK  status: ('A' for Active; 'I' for Inactive)
ROOT
ATOM      1  C   UNL d   1       1.007  -2.101  -0.363  0.00  0.00     0.023 A 
ATOM      2  C1  UNL d   1       2.253  -2.637  -0.687  0.00  0.00     0.003 A 
ATOM      3  C2  UNL d   1       3.362  -1.798  -0.821  0.00  0.00     0.048 A 
ATOM      4  C3  UNL d   1       3.217  -0.425  -0.628  0.00  0.00     0.023 A 
ATOM      5  C4  UNL d   1       1.972   0.116  -0.302  0.00  0.00     0.048 A 
ATOM      6  C5  UNL d   1       0.866  -0.727  -0.171  0.00  0.00     0.003 A 
ATOM      7  I   UNL d   1       4.866   0.825  -0.826  0.00  0.00    -0.146 I 
ENDROOT
TORSDOF 0
ENDMDL
