MODEL 1
REMARK minimizedAffinity 8.03235531
REMARK minimizedRMSD -1
REMARK  0 active torsions:
REMARK  status: ('A' for Active; 'I' for Inactive)
ROOT
ATOM      1  C   UNL d   1      -0.517  -0.740   0.747  0.00  0.00     0.023 A 
ATOM      2  C1  UNL d   1       0.816  -0.536   1.105  0.00  0.00     0.003 A 
ATOM      3  C2  UNL d   1       1.840  -0.930   0.242  0.00  0.00     0.048 A 
ATOM      4  C3  UNL d   1       1.525  -1.528  -0.978  0.00  0.00     0.023 A 
ATOM      5  C4  UNL d   1       0.192  -1.734  -1.340  0.00  0.00     0.048 A 
ATOM      6  C5  UNL d   1      -0.828  -1.339  -0.474  0.00  0.00     0.003 A 
ATOM      7  I   UNL d   1       3.047  -2.116  -2.265  0.00  0.00    -0.146 I 
ENDROOT
TORSDOF 0
ENDMDL
