MODEL 1
REMARK minimizedAffinity 1.34726834
REMARK minimizedRMSD -1
REMARK  0 active torsions:
REMARK  status: ('A' for Active; 'I' for Inactive)
ROOT
ATOM      1  C   UNL d   1       0.838  -1.349   0.646  0.00  0.00     0.023 A 
ATOM      2  C1  UNL d   1       1.661  -2.201  -0.091  0.00  0.00     0.003 A 
ATOM      3  C2  UNL d   1       2.845  -1.719  -0.651  0.00  0.00     0.048 A 
ATOM      4  C3  UNL d   1       3.202  -0.383  -0.470  0.00  0.00     0.023 A 
ATOM      5  C4  UNL d   1       2.382   0.473   0.267  0.00  0.00     0.048 A 
ATOM      6  C5  UNL d   1       1.198  -0.013   0.825  0.00  0.00     0.003 A 
ATOM      7  I   UNL d   1       4.964   0.338  -1.302  0.00  0.00    -0.146 I 
ENDROOT
TORSDOF 0
ENDMDL
