MODEL 1
REMARK minimizedAffinity 7.99550772
REMARK minimizedRMSD -1
REMARK  0 active torsions:
REMARK  status: ('A' for Active; 'I' for Inactive)
ROOT
ATOM      1  C   UNL d   1       4.312  -1.734  -2.470  0.00  0.00     0.023 A 
ATOM      2  C1  UNL d   1       3.726  -0.814  -1.600  0.00  0.00     0.003 A 
ATOM      3  C2  UNL d   1       2.503  -1.107  -0.994  0.00  0.00     0.048 A 
ATOM      4  C3  UNL d   1       1.872  -2.321  -1.260  0.00  0.00     0.023 A 
ATOM      5  C4  UNL d   1       2.455  -3.245  -2.129  0.00  0.00     0.048 A 
ATOM      6  C5  UNL d   1       3.678  -2.948  -2.734  0.00  0.00     0.003 A 
ATOM      7  I   UNL d   1       0.051  -2.759  -0.359  0.00  0.00    -0.146 I 
ENDROOT
TORSDOF 0
ENDMDL
