MODEL 1
REMARK minimizedAffinity 8.88783741
REMARK minimizedRMSD -1
REMARK  0 active torsions:
REMARK  status: ('A' for Active; 'I' for Inactive)
ROOT
ATOM      1  C   UNL d   1      -0.173  -1.037   5.970  0.00  0.00     0.023 A 
ATOM      2  C1  UNL d   1       0.946  -1.869   5.956  0.00  0.00     0.003 A 
ATOM      3  C2  UNL d   1       0.787  -3.256   5.965  0.00  0.00     0.048 A 
ATOM      4  C3  UNL d   1      -0.495  -3.804   5.987  0.00  0.00     0.023 A 
ATOM      5  C4  UNL d   1      -1.618  -2.976   6.000  0.00  0.00     0.048 A 
ATOM      6  C5  UNL d   1      -1.454  -1.589   5.992  0.00  0.00     0.003 A 
ATOM      7  I   UNL d   1      -0.735  -5.869   6.000  0.00  0.00    -0.146 I 
ENDROOT
TORSDOF 0
ENDMDL
