MODEL 1
REMARK minimizedAffinity 5.64734459
REMARK minimizedRMSD -1
REMARK  0 active torsions:
REMARK  status: ('A' for Active; 'I' for Inactive)
ROOT
ATOM      1  C   UNL d   1      -0.902  -5.801   5.948  0.00  0.00     0.023 A 
ATOM      2  C1  UNL d   1      -1.873  -4.800   5.984  0.00  0.00     0.003 A 
ATOM      3  C2  UNL d   1      -1.493  -3.456   5.999  0.00  0.00     0.048 A 
ATOM      4  C3  UNL d   1      -0.140  -3.120   5.978  0.00  0.00     0.023 A 
ATOM      5  C4  UNL d   1       0.835  -4.118   5.941  0.00  0.00     0.048 A 
ATOM      6  C5  UNL d   1       0.451  -5.460   5.927  0.00  0.00     0.003 A 
ATOM      7  I   UNL d   1       0.428  -1.121   6.000  0.00  0.00    -0.146 I 
ENDROOT
TORSDOF 0
ENDMDL
