MODEL 1
REMARK minimizedAffinity 8.2433691
REMARK minimizedRMSD -1
REMARK  0 active torsions:
REMARK  status: ('A' for Active; 'I' for Inactive)
ROOT
ATOM      1  C   UNL d   1      -0.389  -4.108  -0.710  0.00  0.00     0.023 A 
ATOM      2  C1  UNL d   1      -0.615  -3.304  -1.827  0.00  0.00     0.003 A 
ATOM      3  C2  UNL d   1      -1.211  -3.845  -2.969  0.00  0.00     0.048 A 
ATOM      4  C3  UNL d   1      -1.580  -5.189  -2.985  0.00  0.00     0.023 A 
ATOM      5  C4  UNL d   1      -1.357  -5.997  -1.869  0.00  0.00     0.048 A 
ATOM      6  C5  UNL d   1      -0.759  -5.452  -0.730  0.00  0.00     0.003 A 
ATOM      7  I   UNL d   1      -2.468  -5.996  -4.682  0.00  0.00    -0.146 I 
ENDROOT
TORSDOF 0
ENDMDL
