MODEL 1
REMARK minimizedAffinity -1.05380082
REMARK minimizedRMSD -1
REMARK  1 active torsions:
REMARK  status: ('A' for Active; 'I' for Inactive)
REMARK    1  A    between atoms: C1_2  and  C2_3 
ROOT
ATOM      1  C2  UNL d   1       0.037   0.022   0.014  0.00  0.00    -0.076 A 
ATOM      2  C3  UNL d   1       0.890   0.053  -1.103  0.00  0.00     0.004 A 
ATOM      3  C4  UNL d   1       2.033  -0.743  -1.155  0.00  0.00    -0.003 A 
ATOM      4  C5  UNL d   1       2.341  -1.584  -0.091  0.00  0.00     0.000 A 
ATOM      5  C6  UNL d   1       1.496  -1.641   1.017  0.00  0.00     0.000 A 
ATOM      6  C7  UNL d   1       0.331  -0.857   1.078  0.00  0.00    -0.073 A 
ATOM      7  C8  UNL d   1      -0.540  -0.953   2.300  0.00  0.00     0.078 C 
ENDROOT
BRANCH   1   8
ATOM      8  C1  UNL d   1      -1.174   0.928   0.026  0.00  0.00     0.053 C 
ATOM      9  C   UNL d   1      -1.641   1.294  -1.375  0.00  0.00     0.018 C 
ENDBRANCH   1   8
TORSDOF 1
ENDMDL
