MODEL 1
REMARK minimizedAffinity -0.356887609
REMARK minimizedRMSD -1
REMARK  1 active torsions:
REMARK  status: ('A' for Active; 'I' for Inactive)
REMARK    1  A    between atoms: C1_2  and  C2_3 
ROOT
ATOM      1  C2  UNL d   1      -0.729   1.007  -1.063  0.00  0.00    -0.076 A 
ATOM      2  C3  UNL d   1       0.237   0.453  -1.921  0.00  0.00     0.004 A 
ATOM      3  C4  UNL d   1       1.293  -0.305  -1.418  0.00  0.00    -0.003 A 
ATOM      4  C5  UNL d   1       1.400  -0.522  -0.049  0.00  0.00     0.000 A 
ATOM      5  C6  UNL d   1       0.441   0.005   0.815  0.00  0.00     0.000 A 
ATOM      6  C7  UNL d   1      -0.639   0.758   0.323  0.00  0.00    -0.073 A 
ATOM      7  C8  UNL d   1      -1.641   1.308   1.301  0.00  0.00     0.078 C 
ENDROOT
BRANCH   1   8
ATOM      8  C1  UNL d   1      -1.836   1.843  -1.664  0.00  0.00     0.053 C 
ATOM      9  C   UNL d   1      -1.343   2.745  -2.785  0.00  0.00     0.018 C 
ENDBRANCH   1   8
TORSDOF 1
ENDMDL
