MODEL 1
REMARK minimizedAffinity 0.805601895
REMARK minimizedRMSD -1
REMARK  1 active torsions:
REMARK  status: ('A' for Active; 'I' for Inactive)
REMARK    1  A    between atoms: C1_2  and  C2_3 
ROOT
ATOM      1  C2  UNL d   1       1.160  -0.382   0.274  0.00  0.00    -0.076 A 
ATOM      2  C3  UNL d   1      -0.157  -0.668   0.672  0.00  0.00     0.004 A 
ATOM      3  C4  UNL d   1      -1.218   0.149   0.283  0.00  0.00    -0.003 A 
ATOM      4  C5  UNL d   1      -0.978   1.265  -0.511  0.00  0.00     0.000 A 
ATOM      5  C6  UNL d   1       0.321   1.554  -0.930  0.00  0.00     0.000 A 
ATOM      6  C7  UNL d   1       1.399   0.731  -0.560  0.00  0.00    -0.073 A 
ATOM      7  C8  UNL d   1       2.779   1.094  -1.035  0.00  0.00     0.078 C 
ENDROOT
BRANCH   1   8
ATOM      8  C1  UNL d   1       2.273  -1.288   0.749  0.00  0.00     0.053 C 
ATOM      9  C   UNL d   1       1.794  -2.319   1.760  0.00  0.00     0.018 C 
ENDBRANCH   1   8
TORSDOF 1
ENDMDL
