MODEL 1
REMARK minimizedAffinity -0.260184765
REMARK minimizedRMSD -1
REMARK  1 active torsions:
REMARK  status: ('A' for Active; 'I' for Inactive)
REMARK    1  A    between atoms: C1_2  and  C2_3 
ROOT
ATOM      1  C2  UNL d   1      -0.103  -0.220   0.630  0.00  0.00    -0.076 A 
ATOM      2  C3  UNL d   1       1.050  -0.245  -0.174  0.00  0.00     0.004 A 
ATOM      3  C4  UNL d   1       2.193  -0.932   0.232  0.00  0.00    -0.003 A 
ATOM      4  C5  UNL d   1       2.202  -1.606   1.448  0.00  0.00     0.000 A 
ATOM      5  C6  UNL d   1       1.061  -1.607   2.250  0.00  0.00     0.000 A 
ATOM      6  C7  UNL d   1      -0.105  -0.933   1.848  0.00  0.00    -0.073 A 
ATOM      7  C8  UNL d   1      -1.304  -0.962   2.755  0.00  0.00     0.078 C 
ENDROOT
BRANCH   1   8
ATOM      8  C1  UNL d   1      -1.303   0.564   0.151  0.00  0.00     0.053 C 
ATOM      9  C   UNL d   1      -0.957   1.534  -0.968  0.00  0.00     0.018 C 
ENDBRANCH   1   8
TORSDOF 1
ENDMDL
