MODEL 1
REMARK minimizedAffinity -4.13726664
REMARK minimizedRMSD -1
REMARK  1 active torsions:
REMARK  status: ('A' for Active; 'I' for Inactive)
REMARK    1  A    between atoms: C1_2  and  C2_3 
ROOT
ATOM      1  C2  UNL d   1      -0.662   0.477  -1.561  0.00  0.00    -0.076 A 
ATOM      2  C3  UNL d   1      -0.011  -0.497  -2.338  0.00  0.00     0.004 A 
ATOM      3  C4  UNL d   1       1.101  -1.180  -1.848  0.00  0.00    -0.003 A 
ATOM      4  C5  UNL d   1       1.580  -0.899  -0.573  0.00  0.00     0.000 A 
ATOM      5  C6  UNL d   1       0.936   0.051   0.218  0.00  0.00     0.000 A 
ATOM      6  C7  UNL d   1      -0.197   0.737  -0.255  0.00  0.00    -0.073 A 
ATOM      7  C8  UNL d   1      -0.848   1.757   0.639  0.00  0.00     0.078 C 
ENDROOT
BRANCH   1   8
ATOM      8  C1  UNL d   1      -1.847   1.204  -2.156  0.00  0.00     0.053 C 
ATOM      9  C   UNL d   1      -2.306   0.593  -3.471  0.00  0.00     0.018 C 
ENDBRANCH   1   8
TORSDOF 1
ENDMDL
