MODEL 1
REMARK minimizedAffinity -2.73168802
REMARK minimizedRMSD -1
REMARK  1 active torsions:
REMARK  status: ('A' for Active; 'I' for Inactive)
REMARK    1  A    between atoms: C1_2  and  C2_3 
ROOT
ATOM      1  C2  UNL d   1       0.168  -0.335   0.995  0.00  0.00    -0.076 A 
ATOM      2  C3  UNL d   1      -0.947  -0.282   1.849  0.00  0.00     0.004 A 
ATOM      3  C4  UNL d   1      -0.967  -0.994   3.048  0.00  0.00    -0.003 A 
ATOM      4  C5  UNL d   1       0.128  -1.770   3.411  0.00  0.00     0.000 A 
ATOM      5  C6  UNL d   1       1.250  -1.820   2.584  0.00  0.00     0.000 A 
ATOM      6  C7  UNL d   1       1.293  -1.095   1.381  0.00  0.00    -0.073 A 
ATOM      7  C8  UNL d   1       2.526  -1.190   0.525  0.00  0.00     0.078 C 
ENDROOT
BRANCH   1   8
ATOM      8  C1  UNL d   1       0.122   0.437  -0.304  0.00  0.00     0.053 C 
ATOM      9  C   UNL d   1      -1.268   0.455  -0.922  0.00  0.00     0.018 C 
ENDBRANCH   1   8
TORSDOF 1
ENDMDL
