MODEL 1
REMARK minimizedAffinity -2.11171794
REMARK minimizedRMSD -1
REMARK  1 active torsions:
REMARK  status: ('A' for Active; 'I' for Inactive)
REMARK    1  A    between atoms: C1_2  and  C2_3 
ROOT
ATOM      1  C2  UNL d   1      -0.745   0.726  -0.652  0.00  0.00    -0.076 A 
ATOM      2  C3  UNL d   1      -0.841   0.213  -1.957  0.00  0.00     0.004 A 
ATOM      3  C4  UNL d   1      -1.634   0.840  -2.917  0.00  0.00    -0.003 A 
ATOM      4  C5  UNL d   1      -2.343   1.990  -2.588  0.00  0.00     0.000 A 
ATOM      5  C6  UNL d   1      -2.245   2.522  -1.303  0.00  0.00     0.000 A 
ATOM      6  C7  UNL d   1      -1.437   1.912  -0.327  0.00  0.00    -0.073 A 
ATOM      7  C8  UNL d   1      -1.374   2.526   1.044  0.00  0.00     0.078 C 
ENDROOT
BRANCH   1   8
ATOM      8  C1  UNL d   1       0.109  -0.011   0.355  0.00  0.00     0.053 C 
ATOM      9  C   UNL d   1       1.578  -0.044  -0.039  0.00  0.00     0.018 C 
ENDBRANCH   1   8
TORSDOF 1
ENDMDL
