MODEL 1
REMARK minimizedAffinity -2.81271482
REMARK minimizedRMSD -1
REMARK  1 active torsions:
REMARK  status: ('A' for Active; 'I' for Inactive)
REMARK    1  A    between atoms: C1_2  and  C2_3 
ROOT
ATOM      1  C2  UNL d   1      -0.053   1.389  -1.385  0.00  0.00    -0.076 A 
ATOM      2  C3  UNL d   1       0.904   0.774  -2.211  0.00  0.00     0.004 A 
ATOM      3  C4  UNL d   1       1.664  -0.300  -1.751  0.00  0.00    -0.003 A 
ATOM      4  C5  UNL d   1       1.479  -0.777  -0.458  0.00  0.00     0.000 A 
ATOM      5  C6  UNL d   1       0.522  -0.190   0.369  0.00  0.00     0.000 A 
ATOM      6  C7  UNL d   1      -0.265   0.883  -0.084  0.00  0.00    -0.073 A 
ATOM      7  C8  UNL d   1      -1.278   1.482   0.852  0.00  0.00     0.078 C 
ENDROOT
BRANCH   1   8
ATOM      8  C1  UNL d   1      -0.829   2.568  -1.929  0.00  0.00     0.053 C 
ATOM      9  C   UNL d   1      -2.088   2.145  -2.669  0.00  0.00     0.018 C 
ENDBRANCH   1   8
TORSDOF 1
ENDMDL
