MODEL 1
REMARK minimizedAffinity -3.13451624
REMARK minimizedRMSD -1
REMARK  1 active torsions:
REMARK  status: ('A' for Active; 'I' for Inactive)
REMARK    1  A    between atoms: C1_2  and  C2_3 
ROOT
ATOM      1  C2  UNL d   1       0.311  -0.701   1.547  0.00  0.00    -0.076 A 
ATOM      2  C3  UNL d   1       1.491  -1.461   1.460  0.00  0.00     0.004 A 
ATOM      3  C4  UNL d   1       2.444  -1.196   0.478  0.00  0.00    -0.003 A 
ATOM      4  C5  UNL d   1       2.234  -0.166  -0.432  0.00  0.00     0.000 A 
ATOM      5  C6  UNL d   1       1.078   0.609  -0.349  0.00  0.00     0.000 A 
ATOM      6  C7  UNL d   1       0.114   0.366   0.644  0.00  0.00    -0.073 A 
ATOM      7  C8  UNL d   1      -1.117   1.229   0.683  0.00  0.00     0.078 C 
ENDROOT
BRANCH   1   8
ATOM      8  C1  UNL d   1      -0.700  -1.052   2.615  0.00  0.00     0.053 C 
ATOM      9  C   UNL d   1      -0.067  -1.751   3.808  0.00  0.00     0.018 C 
ENDBRANCH   1   8
TORSDOF 1
ENDMDL
