MODEL 1
REMARK minimizedAffinity -4.42544937
REMARK minimizedRMSD -1
REMARK  1 active torsions:
REMARK  status: ('A' for Active; 'I' for Inactive)
REMARK    1  A    between atoms: C1_2  and  C2_3 
ROOT
ATOM      1  C2  UNL d   1       0.242  -0.313   0.897  0.00  0.00    -0.076 A 
ATOM      2  C3  UNL d   1      -0.847  -0.291   1.786  0.00  0.00     0.004 A 
ATOM      3  C4  UNL d   1      -0.826  -1.034   2.965  0.00  0.00    -0.003 A 
ATOM      4  C5  UNL d   1       0.285  -1.811   3.275  0.00  0.00     0.000 A 
ATOM      5  C6  UNL d   1       1.381  -1.831   2.413  0.00  0.00     0.000 A 
ATOM      6  C7  UNL d   1       1.383  -1.075   1.228  0.00  0.00    -0.073 A 
ATOM      7  C8  UNL d   1       2.590  -1.139   0.332  0.00  0.00     0.078 C 
ENDROOT
BRANCH   1   8
ATOM      8  C1  UNL d   1       0.151   0.492  -0.380  0.00  0.00     0.053 C 
ATOM      9  C   UNL d   1      -1.101   1.353  -0.438  0.00  0.00     0.018 C 
ENDBRANCH   1   8
TORSDOF 1
ENDMDL
