MODEL 1
REMARK minimizedAffinity -0.392432809
REMARK minimizedRMSD -1
REMARK  1 active torsions:
REMARK  status: ('A' for Active; 'I' for Inactive)
REMARK    1  A    between atoms: C1_2  and  C2_3 
ROOT
ATOM      1  C2  UNL d   1      -0.799   1.135  -1.524  0.00  0.00    -0.076 A 
ATOM      2  C3  UNL d   1       0.080   0.390  -2.328  0.00  0.00     0.004 A 
ATOM      3  C4  UNL d   1       1.076  -0.403  -1.759  0.00  0.00    -0.003 A 
ATOM      4  C5  UNL d   1       1.208  -0.462  -0.376  0.00  0.00     0.000 A 
ATOM      5  C6  UNL d   1       0.333   0.257   0.438  0.00  0.00     0.000 A 
ATOM      6  C7  UNL d   1      -0.686   1.048  -0.120  0.00  0.00    -0.073 A 
ATOM      7  C8  UNL d   1      -1.598   1.807   0.804  0.00  0.00     0.078 C 
ENDROOT
BRANCH   1   8
ATOM      8  C1  UNL d   1      -1.842   1.998  -2.198  0.00  0.00     0.053 C 
ATOM      9  C   UNL d   1      -3.167   1.274  -2.381  0.00  0.00     0.018 C 
ENDBRANCH   1   8
TORSDOF 1
ENDMDL
