MODEL 1
REMARK minimizedAffinity -1.811836
REMARK minimizedRMSD -1
REMARK  1 active torsions:
REMARK  status: ('A' for Active; 'I' for Inactive)
REMARK    1  A    between atoms: C1_2  and  C2_3 
ROOT
ATOM      1  C2  UNL d   1       0.324  -0.836   1.796  0.00  0.00    -0.076 A 
ATOM      2  C3  UNL d   1       1.524  -1.317   1.244  0.00  0.00     0.004 A 
ATOM      3  C4  UNL d   1       1.950  -0.902  -0.017  0.00  0.00    -0.003 A 
ATOM      4  C5  UNL d   1       1.184   0.001  -0.745  0.00  0.00     0.000 A 
ATOM      5  C6  UNL d   1      -0.000   0.502  -0.205  0.00  0.00     0.000 A 
ATOM      6  C7  UNL d   1      -0.436   0.107   1.071  0.00  0.00    -0.073 A 
ATOM      7  C8  UNL d   1      -1.724   0.674   1.602  0.00  0.00     0.078 C 
ENDROOT
BRANCH   1   8
ATOM      8  C1  UNL d   1      -0.101  -1.342   3.156  0.00  0.00     0.053 C 
ATOM      9  C   UNL d   1       1.055  -1.936   3.945  0.00  0.00     0.018 C 
ENDBRANCH   1   8
TORSDOF 1
ENDMDL
