MODEL 1
REMARK minimizedAffinity 15.0214062
REMARK minimizedRMSD -1
REMARK  1 active torsions:
REMARK  status: ('A' for Active; 'I' for Inactive)
REMARK    1  A    between atoms: C1_2  and  C2_3 
ROOT
ATOM      1  C2  UNL d   1      -1.923   1.555  -0.248  0.00  0.00    -0.076 A 
ATOM      2  C3  UNL d   1      -0.809   2.212  -0.797  0.00  0.00     0.004 A 
ATOM      3  C4  UNL d   1      -0.832   2.693  -2.105  0.00  0.00    -0.003 A 
ATOM      4  C5  UNL d   1      -1.971   2.527  -2.885  0.00  0.00     0.000 A 
ATOM      5  C6  UNL d   1      -3.093   1.893  -2.350  0.00  0.00     0.000 A 
ATOM      6  C7  UNL d   1      -3.091   1.416  -1.028  0.00  0.00    -0.073 A 
ATOM      7  C8  UNL d   1      -4.326   0.735  -0.505  0.00  0.00     0.078 C 
ENDROOT
BRANCH   1   8
ATOM      8  C1  UNL d   1      -1.830   1.030   1.167  0.00  0.00     0.053 C 
ATOM      9  C   UNL d   1      -0.716   0.008   1.337  0.00  0.00     0.018 C 
ENDBRANCH   1   8
TORSDOF 1
ENDMDL
