MODEL 1
REMARK minimizedAffinity -3.72358584
REMARK minimizedRMSD -1
REMARK  1 active torsions:
REMARK  status: ('A' for Active; 'I' for Inactive)
REMARK    1  A    between atoms: N_2  and  C1_3 
ROOT
ATOM      1  C1  UNL d   1      -0.314   1.248  -0.383  0.00  0.00     0.143 A 
ATOM      2  C2  UNL d   1      -1.238   1.264   0.668  0.00  0.00    -0.057 A 
ATOM      3  C3  UNL d   1      -1.792   2.464   1.129  0.00  0.00     0.033 A 
ATOM      4  C4  UNL d   1      -1.408   3.676   0.565  0.00  0.00    -0.042 A 
ATOM      5  C5  UNL d   1      -0.473   3.686  -0.464  0.00  0.00     0.033 A 
ATOM      6  C6  UNL d   1       0.071   2.484  -0.925  0.00  0.00    -0.057 A 
ENDROOT
BRANCH   1   7
ATOM      7  N   UNL d   1       0.346   0.097  -0.820  0.00  0.00    -0.732 N 
ATOM      8  C   UNL d   1       1.005  -0.779   0.125  0.00  0.00     0.284 C 
ATOM      9  H3  UNL d   1      -0.167  -0.391  -1.551  0.00  0.00     0.395 HD
ENDBRANCH   1   7
TORSDOF 1
ENDMDL
