MODEL 1
REMARK minimizedAffinity -4.44899321
REMARK minimizedRMSD -1
REMARK  1 active torsions:
REMARK  status: ('A' for Active; 'I' for Inactive)
REMARK    1  A    between atoms: N_2  and  C1_3 
ROOT
ATOM      1  C1  UNL d   1       0.168  -0.199  -0.093  0.00  0.00     0.143 A 
ATOM      2  C2  UNL d   1      -0.374   1.048  -0.421  0.00  0.00    -0.057 A 
ATOM      3  C3  UNL d   1      -1.256   1.707   0.444  0.00  0.00     0.033 A 
ATOM      4  C4  UNL d   1      -1.635   1.115   1.644  0.00  0.00    -0.042 A 
ATOM      5  C5  UNL d   1      -1.129  -0.135   1.979  0.00  0.00     0.033 A 
ATOM      6  C6  UNL d   1      -0.244  -0.786   1.114  0.00  0.00    -0.057 A 
ENDROOT
BRANCH   1   7
ATOM      7  N   UNL d   1       0.972  -0.950  -0.954  0.00  0.00    -0.732 N 
ATOM      8  C   UNL d   1       0.379  -1.858  -1.912  0.00  0.00     0.284 C 
ATOM      9  H3  UNL d   1       1.755  -0.413  -1.320  0.00  0.00     0.395 HD
ENDBRANCH   1   7
TORSDOF 1
ENDMDL
