MODEL 1
REMARK minimizedAffinity -3.06638455
REMARK minimizedRMSD -1
REMARK  1 active torsions:
REMARK  status: ('A' for Active; 'I' for Inactive)
REMARK    1  A    between atoms: N_2  and  C1_3 
ROOT
ATOM      1  C1  UNL d   1      -1.100   1.700   0.278  0.00  0.00     0.143 A 
ATOM      2  C2  UNL d   1      -0.525   2.520  -0.699  0.00  0.00    -0.057 A 
ATOM      3  C3  UNL d   1       0.603   2.109  -1.419  0.00  0.00     0.033 A 
ATOM      4  C4  UNL d   1       1.196   0.879  -1.154  0.00  0.00    -0.042 A 
ATOM      5  C5  UNL d   1       0.656   0.058  -0.169  0.00  0.00     0.033 A 
ATOM      6  C6  UNL d   1      -0.474   0.471   0.542  0.00  0.00    -0.057 A 
ENDROOT
BRANCH   1   7
ATOM      7  N   UNL d   1      -2.162   2.093   1.096  0.00  0.00    -0.732 N 
ATOM      8  C   UNL d   1      -1.931   2.467   2.475  0.00  0.00     0.284 C 
ATOM      9  H3  UNL d   1      -2.827   2.689   0.610  0.00  0.00     0.395 HD
ENDBRANCH   1   7
TORSDOF 1
ENDMDL
