MODEL 1
REMARK minimizedAffinity -2.09518886
REMARK minimizedRMSD -1
REMARK  1 active torsions:
REMARK  status: ('A' for Active; 'I' for Inactive)
REMARK    1  A    between atoms: N_2  and  C1_3 
ROOT
ATOM      1  C1  UNL d   1      -0.101   0.151   0.206  0.00  0.00     0.143 A 
ATOM      2  C2  UNL d   1      -1.091   0.863   0.891  0.00  0.00    -0.057 A 
ATOM      3  C3  UNL d   1      -1.416   2.179   0.538  0.00  0.00     0.033 A 
ATOM      4  C4  UNL d   1      -0.734   2.817  -0.493  0.00  0.00    -0.042 A 
ATOM      5  C5  UNL d   1       0.271   2.137  -1.172  0.00  0.00     0.033 A 
ATOM      6  C6  UNL d   1       0.587   0.821  -0.818  0.00  0.00    -0.057 A 
ENDROOT
BRANCH   1   7
ATOM      7  N   UNL d   1       0.336  -1.124   0.574  0.00  0.00    -0.732 N 
ATOM      8  C   UNL d   1       0.726  -1.404   1.939  0.00  0.00     0.284 C 
ATOM      9  H3  UNL d   1      -0.212  -1.862   0.138  0.00  0.00     0.395 HD
ENDBRANCH   1   7
TORSDOF 1
ENDMDL
