MODEL 1
REMARK minimizedAffinity -3.02719474
REMARK minimizedRMSD -1
REMARK  1 active torsions:
REMARK  status: ('A' for Active; 'I' for Inactive)
REMARK    1  A    between atoms: N_2  and  C1_3 
ROOT
ATOM      1  C1  UNL d   1       0.014  -0.009   0.033  0.00  0.00     0.143 A 
ATOM      2  C2  UNL d   1      -0.778   0.107   1.180  0.00  0.00    -0.057 A 
ATOM      3  C3  UNL d   1      -1.586   1.230   1.394  0.00  0.00     0.033 A 
ATOM      4  C4  UNL d   1      -1.593   2.274   0.475  0.00  0.00    -0.042 A 
ATOM      5  C5  UNL d   1      -0.794   2.192  -0.660  0.00  0.00     0.033 A 
ATOM      6  C6  UNL d   1       0.005   1.064  -0.872  0.00  0.00    -0.057 A 
ENDROOT
BRANCH   1   7
ATOM      7  N   UNL d   1       0.912  -1.056  -0.190  0.00  0.00    -0.732 N 
ATOM      8  C   UNL d   1       0.785  -1.902  -1.357  0.00  0.00     0.284 C 
ATOM      9  H3  UNL d   1       1.871  -0.799   0.035  0.00  0.00     0.395 HD
ENDBRANCH   1   7
TORSDOF 1
ENDMDL
