MODEL 1
REMARK minimizedAffinity -2.12211418
REMARK minimizedRMSD -1
REMARK  1 active torsions:
REMARK  status: ('A' for Active; 'I' for Inactive)
REMARK    1  A    between atoms: N_2  and  C1_3 
ROOT
ATOM      1  C1  UNL d   1       0.488  -1.114  -0.494  0.00  0.00     0.143 A 
ATOM      2  C2  UNL d   1       0.422   0.096  -1.193  0.00  0.00    -0.057 A 
ATOM      3  C3  UNL d   1      -0.049   1.263  -0.579  0.00  0.00     0.033 A 
ATOM      4  C4  UNL d   1      -0.490   1.234   0.739  0.00  0.00    -0.042 A 
ATOM      5  C5  UNL d   1      -0.457   0.037   1.445  0.00  0.00     0.033 A 
ATOM      6  C6  UNL d   1       0.020  -1.124   0.829  0.00  0.00    -0.057 A 
ENDROOT
BRANCH   1   7
ATOM      7  N   UNL d   1       0.853  -2.330  -1.077  0.00  0.00    -0.732 N 
ATOM      8  C   UNL d   1       0.594  -2.582  -2.479  0.00  0.00     0.284 C 
ATOM      9  H3  UNL d   1       1.761  -2.658  -0.757  0.00  0.00     0.395 HD
ENDBRANCH   1   7
TORSDOF 1
ENDMDL
