MODEL 1
REMARK minimizedAffinity -4.32503271
REMARK minimizedRMSD -1
REMARK  1 active torsions:
REMARK  status: ('A' for Active; 'I' for Inactive)
REMARK    1  A    between atoms: N_2  and  C1_3 
ROOT
ATOM      1  C1  UNL d   1       0.588  -0.453  -0.342  0.00  0.00     0.143 A 
ATOM      2  C2  UNL d   1      -0.026   0.704  -0.834  0.00  0.00    -0.057 A 
ATOM      3  C3  UNL d   1      -0.910   1.449  -0.045  0.00  0.00     0.033 A 
ATOM      4  C4  UNL d   1      -1.220   1.032   1.246  0.00  0.00    -0.042 A 
ATOM      5  C5  UNL d   1      -0.642  -0.128   1.747  0.00  0.00     0.033 A 
ATOM      6  C6  UNL d   1       0.246  -0.864   0.956  0.00  0.00    -0.057 A 
ENDROOT
BRANCH   1   7
ATOM      7  N   UNL d   1       1.399  -1.290  -1.111  0.00  0.00    -0.732 N 
ATOM      8  C   UNL d   1       0.827  -2.395  -1.851  0.00  0.00     0.284 C 
ATOM      9  H3  UNL d   1       2.117  -0.777  -1.618  0.00  0.00     0.395 HD
ENDBRANCH   1   7
TORSDOF 1
ENDMDL
