MODEL 1
REMARK minimizedAffinity -5.18676805
REMARK minimizedRMSD -1
REMARK  1 active torsions:
REMARK  status: ('A' for Active; 'I' for Inactive)
REMARK    1  A    between atoms: N_2  and  C1_3 
ROOT
ATOM      1  C1  UNL d   1      -0.172   0.187  -0.041  0.00  0.00     0.143 A 
ATOM      2  C2  UNL d   1      -0.351   0.121   1.345  0.00  0.00    -0.057 A 
ATOM      3  C3  UNL d   1      -1.136   1.062   2.022  0.00  0.00     0.033 A 
ATOM      4  C4  UNL d   1      -1.735   2.107   1.326  0.00  0.00    -0.042 A 
ATOM      5  C5  UNL d   1      -1.550   2.207  -0.049  0.00  0.00     0.033 A 
ATOM      6  C6  UNL d   1      -0.771   1.261  -0.720  0.00  0.00    -0.057 A 
ENDROOT
BRANCH   1   7
ATOM      7  N   UNL d   1       0.676  -0.660  -0.757  0.00  0.00    -0.732 N 
ATOM      8  C   UNL d   1       0.159  -1.491  -1.824  0.00  0.00     0.284 C 
ATOM      9  H3  UNL d   1       1.573  -0.227  -0.965  0.00  0.00     0.395 HD
ENDBRANCH   1   7
TORSDOF 1
ENDMDL
