MODEL 1
REMARK minimizedAffinity -2.65612626
REMARK minimizedRMSD -1
REMARK  1 active torsions:
REMARK  status: ('A' for Active; 'I' for Inactive)
REMARK    1  A    between atoms: N_2  and  C1_3 
ROOT
ATOM      1  C1  UNL d   1       0.394  -0.950  -1.394  0.00  0.00     0.143 A 
ATOM      2  C2  UNL d   1      -0.224  -1.531  -2.506  0.00  0.00    -0.057 A 
ATOM      3  C3  UNL d   1      -0.025  -2.880  -2.824  0.00  0.00     0.033 A 
ATOM      4  C4  UNL d   1       0.821  -3.667  -2.049  0.00  0.00    -0.042 A 
ATOM      5  C5  UNL d   1       1.464  -3.103  -0.953  0.00  0.00     0.033 A 
ATOM      6  C6  UNL d   1       1.257  -1.757  -0.636  0.00  0.00    -0.057 A 
ENDROOT
BRANCH   1   7
ATOM      7  N   UNL d   1       0.314   0.410  -1.082  0.00  0.00    -0.732 N 
ATOM      8  C   UNL d   1      -0.941   0.998  -0.665  0.00  0.00     0.284 C 
ATOM      9  H3  UNL d   1       1.121   0.736  -0.556  0.00  0.00     0.395 HD
ENDBRANCH   1   7
TORSDOF 1
ENDMDL
