MODEL 1
REMARK minimizedAffinity -3.75736332
REMARK minimizedRMSD -1
REMARK  1 active torsions:
REMARK  status: ('A' for Active; 'I' for Inactive)
REMARK    1  A    between atoms: N_2  and  C1_3 
ROOT
ATOM      1  C1  UNL d   1       0.171  -0.350  -0.054  0.00  0.00     0.143 A 
ATOM      2  C2  UNL d   1      -0.374   0.785  -0.665  0.00  0.00    -0.057 A 
ATOM      3  C3  UNL d   1      -1.199   1.666   0.044  0.00  0.00     0.033 A 
ATOM      4  C4  UNL d   1      -1.518   1.412   1.374  0.00  0.00    -0.042 A 
ATOM      5  C5  UNL d   1      -1.008   0.277   1.995  0.00  0.00     0.033 A 
ATOM      6  C6  UNL d   1      -0.179  -0.596   1.283  0.00  0.00    -0.057 A 
ENDROOT
BRANCH   1   7
ATOM      7  N   UNL d   1       0.917  -1.316  -0.733  0.00  0.00    -0.732 N 
ATOM      8  C   UNL d   1       0.280  -2.504  -1.259  0.00  0.00     0.284 C 
ATOM      9  H3  UNL d   1       1.610  -0.906  -1.355  0.00  0.00     0.395 HD
ENDBRANCH   1   7
TORSDOF 1
ENDMDL
