MODEL 1
REMARK minimizedAffinity -0.900748014
REMARK minimizedRMSD -1
REMARK  1 active torsions:
REMARK  status: ('A' for Active; 'I' for Inactive)
REMARK    1  A    between atoms: N_2  and  C1_3 
ROOT
ATOM      1  C1  UNL d   1      -0.222   0.520  -0.681  0.00  0.00     0.143 A 
ATOM      2  C2  UNL d   1      -1.600   0.748  -0.602  0.00  0.00    -0.057 A 
ATOM      3  C3  UNL d   1      -2.141   2.018  -0.835  0.00  0.00     0.033 A 
ATOM      4  C4  UNL d   1      -1.307   3.094  -1.122  0.00  0.00    -0.042 A 
ATOM      5  C5  UNL d   1       0.068   2.896  -1.181  0.00  0.00     0.033 A 
ATOM      6  C6  UNL d   1       0.602   1.624  -0.955  0.00  0.00    -0.057 A 
ENDROOT
BRANCH   1   7
ATOM      7  N   UNL d   1       0.385  -0.697  -0.364  0.00  0.00    -0.732 N 
ATOM      8  C   UNL d   1       0.606  -1.074   1.015  0.00  0.00     0.284 C 
ATOM      9  H3  UNL d   1       0.061  -1.459  -0.956  0.00  0.00     0.395 HD
ENDBRANCH   1   7
TORSDOF 1
ENDMDL
