MODEL 1
REMARK minimizedAffinity -3.47587848
REMARK minimizedRMSD -1
REMARK  1 active torsions:
REMARK  status: ('A' for Active; 'I' for Inactive)
REMARK    1  A    between atoms: N_2  and  C1_3 
ROOT
ATOM      1  C1  UNL d   1      -0.273   0.174   0.359  0.00  0.00     0.143 A 
ATOM      2  C2  UNL d   1      -0.460   0.457   1.717  0.00  0.00    -0.057 A 
ATOM      3  C3  UNL d   1      -1.251   1.536   2.132  0.00  0.00     0.033 A 
ATOM      4  C4  UNL d   1      -1.847   2.371   1.192  0.00  0.00    -0.042 A 
ATOM      5  C5  UNL d   1      -1.655   2.123  -0.162  0.00  0.00     0.033 A 
ATOM      6  C6  UNL d   1      -0.869   1.041  -0.570  0.00  0.00    -0.057 A 
ENDROOT
BRANCH   1   7
ATOM      7  N   UNL d   1       0.581  -0.823  -0.117  0.00  0.00    -0.732 N 
ATOM      8  C   UNL d   1       0.246  -1.573  -1.308  0.00  0.00     0.284 C 
ATOM      9  H3  UNL d   1       1.561  -0.558  -0.054  0.00  0.00     0.395 HD
ENDBRANCH   1   7
TORSDOF 1
ENDMDL
