MODEL 1
REMARK minimizedAffinity 0.522511542
REMARK minimizedRMSD -1
REMARK  1 active torsions:
REMARK  status: ('A' for Active; 'I' for Inactive)
REMARK    1  A    between atoms: N_2  and  C1_3 
ROOT
ATOM      1  C1  UNL d   1       0.395  -0.090  -0.480  0.00  0.00     0.143 A 
ATOM      2  C2  UNL d   1       1.017   0.898  -1.251  0.00  0.00    -0.057 A 
ATOM      3  C3  UNL d   1       0.562   2.222  -1.239  0.00  0.00     0.033 A 
ATOM      4  C4  UNL d   1      -0.545   2.577  -0.475  0.00  0.00    -0.042 A 
ATOM      5  C5  UNL d   1      -1.194   1.606   0.280  0.00  0.00     0.033 A 
ATOM      6  C6  UNL d   1      -0.731   0.287   0.269  0.00  0.00    -0.057 A 
ENDROOT
BRANCH   1   7
ATOM      7  N   UNL d   1       0.738  -1.443  -0.525  0.00  0.00    -0.732 N 
ATOM      8  C   UNL d   1       0.231  -2.298  -1.577  0.00  0.00     0.284 C 
ATOM      9  H3  UNL d   1       1.716  -1.604  -0.294  0.00  0.00     0.395 HD
ENDBRANCH   1   7
TORSDOF 1
ENDMDL
