MODEL 1
REMARK minimizedAffinity -3.30048895
REMARK minimizedRMSD -1
REMARK  1 active torsions:
REMARK  status: ('A' for Active; 'I' for Inactive)
REMARK    1  A    between atoms: N_2  and  C1_3 
ROOT
ATOM      1  C1  UNL d   1       0.846  -0.286  -0.614  0.00  0.00     0.143 A 
ATOM      2  C2  UNL d   1       0.949   0.906  -1.339  0.00  0.00    -0.057 A 
ATOM      3  C3  UNL d   1       0.098   1.988  -1.082  0.00  0.00     0.033 A 
ATOM      4  C4  UNL d   1      -0.894   1.885  -0.113  0.00  0.00    -0.042 A 
ATOM      5  C5  UNL d   1      -1.031   0.701   0.603  0.00  0.00     0.033 A 
ATOM      6  C6  UNL d   1      -0.174  -0.373   0.346  0.00  0.00    -0.057 A 
ENDROOT
BRANCH   1   7
ATOM      7  N   UNL d   1       1.598  -1.431  -0.890  0.00  0.00    -0.732 N 
ATOM      8  C   UNL d   1       1.049  -2.495  -1.703  0.00  0.00     0.284 C 
ATOM      9  H3  UNL d   1       2.573  -1.217  -1.087  0.00  0.00     0.395 HD
ENDBRANCH   1   7
TORSDOF 1
ENDMDL
