MODEL 1
REMARK minimizedAffinity 11.01336
REMARK minimizedRMSD -1
REMARK  1 active torsions:
REMARK  status: ('A' for Active; 'I' for Inactive)
REMARK    1  A    between atoms: C3_4  and  O_7 
ROOT
ATOM      1  C   UNL d   1       0.909   6.000  -1.955  0.00  0.00    -0.033 A 
ATOM      2  C1  UNL d   1       2.238   5.826  -2.347  0.00  0.00     0.039 A 
ATOM      3  C2  UNL d   1       2.965   4.726  -1.887  0.00  0.00    -0.080 A 
ATOM      4  C3  UNL d   1       2.353   3.809  -1.038  0.00  0.00     0.150 A 
ATOM      5  C4  UNL d   1       1.028   3.974  -0.647  0.00  0.00    -0.007 A 
ATOM      6  C5  UNL d   1       0.304   5.073  -1.106  0.00  0.00     0.039 A 
ENDROOT
BRANCH   4   7
ATOM      7  O   UNL d   1       3.023   2.723  -0.560  0.00  0.00    -0.526 OA
ATOM      8  H5  UNL d   1       3.936   2.755  -0.891  0.00  0.00     0.418 HD
ENDBRANCH   4   7
TORSDOF 1
ENDMDL
