MODEL 1
REMARK minimizedAffinity 11.5861292
REMARK minimizedRMSD -1
REMARK  1 active torsions:
REMARK  status: ('A' for Active; 'I' for Inactive)
REMARK    1  A    between atoms: C3_4  and  O_7 
ROOT
ATOM      1  C   UNL d   1       1.593  -1.583   0.937  0.00  0.00    -0.033 A 
ATOM      2  C1  UNL d   1       1.678  -2.848   1.522  0.00  0.00     0.039 A 
ATOM      3  C2  UNL d   1       1.053  -3.097   2.745  0.00  0.00    -0.080 A 
ATOM      4  C3  UNL d   1       0.346  -2.075   3.372  0.00  0.00     0.150 A 
ATOM      5  C4  UNL d   1       0.253  -0.814   2.793  0.00  0.00    -0.007 A 
ATOM      6  C5  UNL d   1       0.879  -0.567   1.572  0.00  0.00     0.039 A 
ENDROOT
BRANCH   4   7
ATOM      7  O   UNL d   1      -0.277  -2.269   4.569  0.00  0.00    -0.526 OA
ATOM      8  H5  UNL d   1      -0.103  -3.180   4.862  0.00  0.00     0.418 HD
ENDBRANCH   4   7
TORSDOF 1
ENDMDL
