MODEL 1
REMARK minimizedAffinity 13.7996111
REMARK minimizedRMSD -1
REMARK  1 active torsions:
REMARK  status: ('A' for Active; 'I' for Inactive)
REMARK    1  A    between atoms: C3_4  and  O_7 
ROOT
ATOM      1  C   UNL d   1      -2.752   2.027  -0.564  0.00  0.00    -0.033 A 
ATOM      2  C1  UNL d   1      -3.127   2.094  -1.907  0.00  0.00     0.039 A 
ATOM      3  C2  UNL d   1      -3.426   0.925  -2.610  0.00  0.00    -0.080 A 
ATOM      4  C3  UNL d   1      -3.347  -0.303  -1.959  0.00  0.00     0.150 A 
ATOM      5  C4  UNL d   1      -2.977  -0.377  -0.620  0.00  0.00    -0.007 A 
ATOM      6  C5  UNL d   1      -2.679   0.791   0.080  0.00  0.00     0.039 A 
ENDROOT
BRANCH   4   7
ATOM      7  O   UNL d   1      -3.624  -1.471  -2.605  0.00  0.00    -0.526 OA
ATOM      8  H5  UNL d   1      -3.836  -1.267  -3.531  0.00  0.00     0.418 HD
ENDBRANCH   4   7
TORSDOF 1
ENDMDL
