MODEL 1
REMARK minimizedAffinity 8.59582043
REMARK minimizedRMSD -1
REMARK  1 active torsions:
REMARK  status: ('A' for Active; 'I' for Inactive)
REMARK    1  A    between atoms: C3_4  and  O_7 
ROOT
ATOM      1  C   UNL d   1       4.649   5.485  -5.994  0.00  0.00    -0.033 A 
ATOM      2  C1  UNL d   1       5.843   5.951  -5.440  0.00  0.00     0.039 A 
ATOM      3  C2  UNL d   1       6.000   5.999  -4.054  0.00  0.00    -0.080 A 
ATOM      4  C3  UNL d   1       4.957   5.578  -3.233  0.00  0.00     0.150 A 
ATOM      5  C4  UNL d   1       3.766   5.109  -3.778  0.00  0.00    -0.007 A 
ATOM      6  C5  UNL d   1       3.611   5.063  -5.163  0.00  0.00     0.039 A 
ENDROOT
BRANCH   4   7
ATOM      7  O   UNL d   1       5.061   5.612  -1.874  0.00  0.00    -0.526 OA
ATOM      8  H5  UNL d   1       5.927   5.985  -1.641  0.00  0.00     0.418 HD
ENDBRANCH   4   7
TORSDOF 1
ENDMDL
