MODEL 1
REMARK minimizedAffinity 0.417984188
REMARK minimizedRMSD -1
REMARK  1 active torsions:
REMARK  status: ('A' for Active; 'I' for Inactive)
REMARK    1  A    between atoms: C3_4  and  O_7 
ROOT
ATOM      1  C   UNL d   1       5.536   6.000  -5.255  0.00  0.00    -0.033 A 
ATOM      2  C1  UNL d   1       4.367   5.890  -4.498  0.00  0.00     0.039 A 
ATOM      3  C2  UNL d   1       3.650   4.692  -4.488  0.00  0.00    -0.080 A 
ATOM      4  C3  UNL d   1       4.111   3.613  -5.237  0.00  0.00     0.150 A 
ATOM      5  C4  UNL d   1       5.276   3.714  -5.990  0.00  0.00    -0.007 A 
ATOM      6  C5  UNL d   1       5.991   4.911  -6.000  0.00  0.00     0.039 A 
ENDROOT
BRANCH   4   7
ATOM      7  O   UNL d   1       3.442   2.426  -5.262  0.00  0.00    -0.526 OA
ATOM      8  H5  UNL d   1       2.641   2.512  -4.719  0.00  0.00     0.418 HD
ENDBRANCH   4   7
TORSDOF 1
ENDMDL
