MODEL 1
REMARK minimizedAffinity -0.990884185
REMARK minimizedRMSD -1
REMARK  1 active torsions:
REMARK  status: ('A' for Active; 'I' for Inactive)
REMARK    1  A    between atoms: C3_4  and  O_7 
ROOT
ATOM      1  C   UNL d   1       6.000   5.904  -4.472  0.00  0.00    -0.033 A 
ATOM      2  C1  UNL d   1       4.928   5.334  -5.161  0.00  0.00     0.039 A 
ATOM      3  C2  UNL d   1       3.821   4.854  -4.459  0.00  0.00    -0.080 A 
ATOM      4  C3  UNL d   1       3.797   4.951  -3.071  0.00  0.00     0.150 A 
ATOM      5  C4  UNL d   1       4.860   5.522  -2.378  0.00  0.00    -0.007 A 
ATOM      6  C5  UNL d   1       5.965   6.000  -3.081  0.00  0.00     0.039 A 
ENDROOT
BRANCH   4   7
ATOM      7  O   UNL d   1       2.740   4.492  -2.342  0.00  0.00    -0.526 OA
ATOM      8  H5  UNL d   1       2.094   4.098  -2.952  0.00  0.00     0.418 HD
ENDBRANCH   4   7
TORSDOF 1
ENDMDL
