MODEL 1
REMARK minimizedAffinity 6.39925718
REMARK minimizedRMSD -1
REMARK  1 active torsions:
REMARK  status: ('A' for Active; 'I' for Inactive)
REMARK    1  A    between atoms: C3_4  and  O_7 
ROOT
ATOM      1  C   UNL d   1       2.804  -0.682   1.488  0.00  0.00    -0.033 A 
ATOM      2  C1  UNL d   1       3.665  -0.675   0.389  0.00  0.00     0.039 A 
ATOM      3  C2  UNL d   1       3.798   0.476  -0.389  0.00  0.00    -0.080 A 
ATOM      4  C3  UNL d   1       3.067   1.613  -0.057  0.00  0.00     0.150 A 
ATOM      5  C4  UNL d   1       2.210   1.616   1.039  0.00  0.00    -0.007 A 
ATOM      6  C5  UNL d   1       2.077   0.464   1.814  0.00  0.00     0.039 A 
ENDROOT
BRANCH   4   7
ATOM      7  O   UNL d   1       3.160   2.760  -0.790  0.00  0.00    -0.526 OA
ATOM      8  H5  UNL d   1       3.767   2.602  -1.532  0.00  0.00     0.418 HD
ENDBRANCH   4   7
TORSDOF 1
ENDMDL
