MODEL 1
REMARK minimizedAffinity -1.75644755
REMARK minimizedRMSD -1
REMARK  0 active torsions:
REMARK  status: ('A' for Active; 'I' for Inactive)
ROOT
ATOM      1  C1  BNZ d   1       3.220  -2.381   2.849  0.00  0.00     0.000 A 
ATOM      2  C2  BNZ d   1       3.702  -1.324   2.125  0.00  0.00     0.000 A 
ATOM      3  C3  BNZ d   1       2.896  -0.649   1.250  0.00  0.00     0.000 A 
ATOM      4  C4  BNZ d   1       1.624  -1.057   1.072  0.00  0.00     0.000 A 
ATOM      5  C5  BNZ d   1       1.126  -2.128   1.787  0.00  0.00     0.000 A 
ATOM      6  C6  BNZ d   1       1.928  -2.780   2.696  0.00  0.00     0.000 A 
ENDROOT
TORSDOF 0
ENDMDL
