MODEL 1
REMARK minimizedAffinity -4.02167702
REMARK minimizedRMSD -1
REMARK  0 active torsions:
REMARK  status: ('A' for Active; 'I' for Inactive)
ROOT
ATOM      1  C1  BNZ d   1       1.005  -1.868   1.150  0.00  0.00     0.000 A 
ATOM      2  C2  BNZ d   1       1.073  -2.722   2.218  0.00  0.00     0.000 A 
ATOM      3  C3  BNZ d   1       2.202  -2.796   2.985  0.00  0.00     0.000 A 
ATOM      4  C4  BNZ d   1       3.274  -2.046   2.659  0.00  0.00     0.000 A 
ATOM      5  C5  BNZ d   1       3.225  -1.187   1.580  0.00  0.00     0.000 A 
ATOM      6  C6  BNZ d   1       2.073  -1.087   0.834  0.00  0.00     0.000 A 
ENDROOT
TORSDOF 0
ENDMDL
