MODEL 1
REMARK minimizedAffinity 4.72662783
REMARK minimizedRMSD -1
REMARK  0 active torsions:
REMARK  status: ('A' for Active; 'I' for Inactive)
ROOT
ATOM      1  C1  BNZ d   1       0.754   0.344   0.933  0.00  0.00     0.000 A 
ATOM      2  C2  BNZ d   1       1.024   1.513   0.273  0.00  0.00     0.000 A 
ATOM      3  C3  BNZ d   1       2.276   2.062   0.304  0.00  0.00     0.000 A 
ATOM      4  C4  BNZ d   1       3.244   1.463   1.027  0.00  0.00     0.000 A 
ATOM      5  C5  BNZ d   1       2.985   0.290   1.706  0.00  0.00     0.000 A 
ATOM      6  C6  BNZ d   1       1.734  -0.280   1.641  0.00  0.00     0.000 A 
ENDROOT
TORSDOF 0
ENDMDL
