MODEL 1
REMARK minimizedAffinity -0.901940227
REMARK minimizedRMSD -1
REMARK  0 active torsions:
REMARK  status: ('A' for Active; 'I' for Inactive)
ROOT
ATOM      1  C1  BNZ d   1       1.170  -1.438   0.951  0.00  0.00     0.000 A 
ATOM      2  C2  BNZ d   1       0.643  -2.508   1.625  0.00  0.00     0.000 A 
ATOM      3  C3  BNZ d   1       1.342  -3.113   2.632  0.00  0.00     0.000 A 
ATOM      4  C4  BNZ d   1       2.581  -2.676   2.936  0.00  0.00     0.000 A 
ATOM      5  C5  BNZ d   1       3.129  -1.605   2.259  0.00  0.00     0.000 A 
ATOM      6  C6  BNZ d   1       2.408  -0.973   1.273  0.00  0.00     0.000 A 
ENDROOT
TORSDOF 0
ENDMDL
