MODEL 1
REMARK minimizedAffinity -0.291621834
REMARK minimizedRMSD -1
REMARK  0 active torsions:
REMARK  status: ('A' for Active; 'I' for Inactive)
ROOT
ATOM      1  C1  BNZ d   1       0.854  -0.728   0.937  0.00  0.00     0.000 A 
ATOM      2  C2  BNZ d   1       0.897  -1.907   1.632  0.00  0.00     0.000 A 
ATOM      3  C3  BNZ d   1       2.023  -2.278   2.312  0.00  0.00     0.000 A 
ATOM      4  C4  BNZ d   1       3.116  -1.490   2.264  0.00  0.00     0.000 A 
ATOM      5  C5  BNZ d   1       3.092  -0.303   1.560  0.00  0.00     0.000 A 
ATOM      6  C6  BNZ d   1       1.944   0.086   0.908  0.00  0.00     0.000 A 
ENDROOT
TORSDOF 0
ENDMDL
