MODEL 1
REMARK minimizedAffinity 4.58265686
REMARK minimizedRMSD -1
REMARK  0 active torsions:
REMARK  status: ('A' for Active; 'I' for Inactive)
ROOT
ATOM      1  C1  BNZ d   1       3.643   0.096   1.022  0.00  0.00     0.000 A 
ATOM      2  C2  BNZ d   1       3.258  -1.216   1.093  0.00  0.00     0.000 A 
ATOM      3  C3  BNZ d   1       2.177  -1.589   1.843  0.00  0.00     0.000 A 
ATOM      4  C4  BNZ d   1       1.508  -0.656   2.551  0.00  0.00     0.000 A 
ATOM      5  C5  BNZ d   1       1.890   0.670   2.497  0.00  0.00     0.000 A 
ATOM      6  C6  BNZ d   1       2.954   1.047   1.710  0.00  0.00     0.000 A 
ENDROOT
TORSDOF 0
ENDMDL
