MODEL 1
REMARK minimizedAffinity -2.99853706
REMARK minimizedRMSD -1
REMARK  0 active torsions:
REMARK  status: ('A' for Active; 'I' for Inactive)
ROOT
ATOM      1  C   UNL d   1       0.494  -0.743  -0.426  0.00  0.00     0.172 C 
ATOM      2  N   UNL d   1       0.146  -0.193   0.863  0.00  0.00    -0.070 N 
ATOM      3  C1  UNL d   1      -1.018   0.462   1.164  0.00  0.00    -0.004 A 
ATOM      4  C2  UNL d   1      -0.966   0.827   2.492  0.00  0.00    -0.047 A 
ATOM      5  C3  UNL d   1       0.273   0.377   3.007  0.00  0.00    -0.047 A 
ATOM      6  C4  UNL d   1       0.942  -0.251   1.977  0.00  0.00    -0.004 A 
ENDROOT
TORSDOF 0
ENDMDL
