MODEL 1
REMARK minimizedAffinity -3.4369185
REMARK minimizedRMSD -1
REMARK  0 active torsions:
REMARK  status: ('A' for Active; 'I' for Inactive)
ROOT
ATOM      1  C   UNL d   1       0.313  -0.133  -0.984  0.00  0.00     0.172 C 
ATOM      2  N   UNL d   1      -0.287   0.317   0.250  0.00  0.00    -0.070 N 
ATOM      3  C1  UNL d   1       0.364   0.472   1.445  0.00  0.00    -0.004 A 
ATOM      4  C2  UNL d   1      -0.554   0.917   2.371  0.00  0.00    -0.047 A 
ATOM      5  C3  UNL d   1      -1.800   1.033   1.711  0.00  0.00    -0.047 A 
ATOM      6  C4  UNL d   1      -1.606   0.655   0.399  0.00  0.00    -0.004 A 
ENDROOT
TORSDOF 0
ENDMDL
