MODEL 1
REMARK minimizedAffinity -4.10257912
REMARK minimizedRMSD -1
REMARK  0 active torsions:
REMARK  status: ('A' for Active; 'I' for Inactive)
ROOT
ATOM      1  C   UNL d   1       0.380  -0.645  -0.470  0.00  0.00     0.172 C 
ATOM      2  N   UNL d   1      -0.006   0.102   0.705  0.00  0.00    -0.070 N 
ATOM      3  C1  UNL d   1       0.852   0.624   1.636  0.00  0.00    -0.004 A 
ATOM      4  C2  UNL d   1       0.096   1.260   2.596  0.00  0.00    -0.047 A 
ATOM      5  C3  UNL d   1      -1.263   1.115   2.230  0.00  0.00    -0.047 A 
ATOM      6  C4  UNL d   1      -1.297   0.394   1.055  0.00  0.00    -0.004 A 
ENDROOT
TORSDOF 0
ENDMDL
