MODEL 1
REMARK minimizedAffinity -3.79177547
REMARK minimizedRMSD -1
REMARK  0 active torsions:
REMARK  status: ('A' for Active; 'I' for Inactive)
ROOT
ATOM      1  C   UNL d   1       0.236  -0.146  -0.738  0.00  0.00     0.172 C 
ATOM      2  N   UNL d   1      -0.222   0.284   0.562  0.00  0.00    -0.070 N 
ATOM      3  C1  UNL d   1       0.521   0.277   1.713  0.00  0.00    -0.004 A 
ATOM      4  C2  UNL d   1      -0.272   0.761   2.730  0.00  0.00    -0.047 A 
ATOM      5  C3  UNL d   1      -1.536   1.068   2.173  0.00  0.00    -0.047 A 
ATOM      6  C4  UNL d   1      -1.477   0.763   0.829  0.00  0.00    -0.004 A 
ENDROOT
TORSDOF 0
ENDMDL
