MODEL 1
REMARK minimizedAffinity -3.98825574
REMARK minimizedRMSD -1
REMARK  0 active torsions:
REMARK  status: ('A' for Active; 'I' for Inactive)
ROOT
ATOM      1  C   UNL d   1       1.417  -0.329   0.088  0.00  0.00     0.172 C 
ATOM      2  N   UNL d   1       0.874   0.234   1.303  0.00  0.00    -0.070 N 
ATOM      3  C1  UNL d   1       1.475   0.207   2.533  0.00  0.00    -0.004 A 
ATOM      4  C2  UNL d   1       0.641   0.846   3.424  0.00  0.00    -0.047 A 
ATOM      5  C3  UNL d   1      -0.501   1.271   2.705  0.00  0.00    -0.047 A 
ATOM      6  C4  UNL d   1      -0.330   0.879   1.394  0.00  0.00    -0.004 A 
ENDROOT
TORSDOF 0
ENDMDL
