MODEL 1
REMARK minimizedAffinity -1.10718596
REMARK minimizedRMSD -1
REMARK  0 active torsions:
REMARK  status: ('A' for Active; 'I' for Inactive)
ROOT
ATOM      1  C   UNL d   1      -1.912   0.762   1.395  0.00  0.00     0.172 C 
ATOM      2  N   UNL d   1      -1.098   0.049   0.439  0.00  0.00    -0.070 N 
ATOM      3  C1  UNL d   1       0.260   0.163   0.303  0.00  0.00    -0.004 A 
ATOM      4  C2  UNL d   1       0.655  -0.678  -0.715  0.00  0.00    -0.047 A 
ATOM      5  C3  UNL d   1      -0.506  -1.319  -1.208  0.00  0.00    -0.047 A 
ATOM      6  C4  UNL d   1      -1.577  -0.851  -0.476  0.00  0.00    -0.004 A 
ENDROOT
TORSDOF 0
ENDMDL
