MODEL 1
REMARK minimizedAffinity -3.14639521
REMARK minimizedRMSD -1
REMARK  0 active torsions:
REMARK  status: ('A' for Active; 'I' for Inactive)
ROOT
ATOM      1  C   UNL d   1       0.792  -0.335  -0.049  0.00  0.00     0.172 C 
ATOM      2  N   UNL d   1       0.078   0.161   1.104  0.00  0.00    -0.070 N 
ATOM      3  C1  UNL d   1      -1.152   0.762   1.084  0.00  0.00    -0.004 A 
ATOM      4  C2  UNL d   1      -1.483   1.088   2.381  0.00  0.00    -0.047 A 
ATOM      5  C3  UNL d   1      -0.415   0.669   3.210  0.00  0.00    -0.047 A 
ATOM      6  C4  UNL d   1       0.538   0.098   2.393  0.00  0.00    -0.004 A 
ENDROOT
TORSDOF 0
ENDMDL
