MODEL 1
REMARK minimizedAffinity -3.52017593
REMARK minimizedRMSD -1
REMARK  0 active torsions:
REMARK  status: ('A' for Active; 'I' for Inactive)
ROOT
ATOM      1  C   UNL d   1       0.864   0.356   3.074  0.00  0.00     0.172 C 
ATOM      2  N   UNL d   1      -0.092   0.276   1.995  0.00  0.00    -0.070 N 
ATOM      3  C1  UNL d   1       0.169  -0.176   0.729  0.00  0.00    -0.004 A 
ATOM      4  C2  UNL d   1      -0.999  -0.095   0.002  0.00  0.00    -0.047 A 
ATOM      5  C3  UNL d   1      -1.996   0.425   0.861  0.00  0.00    -0.047 A 
ATOM      6  C4  UNL d   1      -1.408   0.646   2.088  0.00  0.00    -0.004 A 
ENDROOT
TORSDOF 0
ENDMDL
