MODEL 1
REMARK minimizedAffinity 3.41661239
REMARK minimizedRMSD -1
REMARK  3 active torsions:
REMARK  status: ('A' for Active; 'I' for Inactive)
REMARK    1  A    between atoms: C3'_2  and  C2'_3 
REMARK    2  A    between atoms: C2'_3  and  C1'_4 
REMARK    3  A    between atoms: C1'_4  and  C1_5 
ROOT
ATOM      1  C1  N4B d   1      -0.518  -0.051   0.091  0.00  0.00    -0.075 A 
ATOM      2  C2  N4B d   1      -0.641  -1.283  -0.588  0.00  0.00     0.002 A 
ATOM      3  C3  N4B d   1      -1.321  -2.323  -0.004  0.00  0.00     0.002 A 
ATOM      4  C4  N4B d   1      -1.868  -2.162   1.260  0.00  0.00    -0.004 A 
ATOM      5  C5  N4B d   1      -1.766  -0.960   1.898  0.00  0.00     0.002 A 
ATOM      6  C6  N4B d   1      -1.088   0.095   1.322  0.00  0.00     0.002 A 
ENDROOT
BRANCH   1   7
ATOM      7  C1' N4B d   1       0.290   1.088  -0.471  0.00  0.00     0.057 C 
BRANCH   7   8
ATOM      8  C2' N4B d   1       1.550   1.270   0.370  0.00  0.00     0.009 C 
BRANCH   8   9
ATOM      9  C3' N4B d   1       1.789   2.727   0.729  0.00  0.00     0.004 C 
ATOM     10  C4' N4B d   1       3.219   3.012   1.078  0.00  0.00     0.003 C 
ENDBRANCH   8   9
ENDBRANCH   7   8
ENDBRANCH   1   7
TORSDOF 3
ENDMDL
