MODEL 1
REMARK minimizedAffinity 4.82919598
REMARK minimizedRMSD -1
REMARK  3 active torsions:
REMARK  status: ('A' for Active; 'I' for Inactive)
REMARK    1  A    between atoms: C3'_2  and  C2'_3 
REMARK    2  A    between atoms: C2'_3  and  C1'_4 
REMARK    3  A    between atoms: C1'_4  and  C1_5 
ROOT
ATOM      1  C1  N4B d   1      -0.409   0.108   0.326  0.00  0.00    -0.075 A 
ATOM      2  C2  N4B d   1      -1.528   0.827   0.798  0.00  0.00     0.002 A 
ATOM      3  C3  N4B d   1      -2.478   0.195   1.563  0.00  0.00     0.002 A 
ATOM      4  C4  N4B d   1      -2.340  -1.154   1.851  0.00  0.00    -0.004 A 
ATOM      5  C5  N4B d   1      -1.243  -1.836   1.412  0.00  0.00     0.002 A 
ATOM      6  C6  N4B d   1      -0.278  -1.213   0.646  0.00  0.00     0.002 A 
ENDROOT
BRANCH   1   7
ATOM      7  C1' N4B d   1       0.612   0.734  -0.585  0.00  0.00     0.057 C 
BRANCH   7   8
ATOM      8  C2' N4B d   1       0.689  -0.070  -1.879  0.00  0.00     0.009 C 
BRANCH   8   9
ATOM      9  C3' N4B d   1       2.089  -0.064  -2.469  0.00  0.00     0.004 C 
ATOM     10  C4' N4B d   1       3.139   0.314  -1.468  0.00  0.00     0.003 C 
ENDBRANCH   8   9
ENDBRANCH   7   8
ENDBRANCH   1   7
TORSDOF 3
ENDMDL
