MODEL 1
REMARK minimizedAffinity -4.79520893
REMARK minimizedRMSD -1
REMARK  3 active torsions:
REMARK  status: ('A' for Active; 'I' for Inactive)
REMARK    1  A    between atoms: C3'_2  and  C2'_3 
REMARK    2  A    between atoms: C2'_3  and  C1'_4 
REMARK    3  A    between atoms: C1'_4  and  C1_5 
ROOT
ATOM      1  C1  N4B d   1      -0.116  -0.519  -0.079  0.00  0.00    -0.075 A 
ATOM      2  C2  N4B d   1       0.197  -0.687  -1.446  0.00  0.00     0.002 A 
ATOM      3  C3  N4B d   1      -0.166  -1.842  -2.096  0.00  0.00     0.002 A 
ATOM      4  C4  N4B d   1      -0.822  -2.844  -1.398  0.00  0.00    -0.004 A 
ATOM      5  C5  N4B d   1      -1.142  -2.663  -0.084  0.00  0.00     0.002 A 
ATOM      6  C6  N4B d   1      -0.788  -1.506   0.580  0.00  0.00     0.002 A 
ENDROOT
BRANCH   1   7
ATOM      7  C1' N4B d   1       0.336   0.689   0.695  0.00  0.00     0.057 C 
BRANCH   7   8
ATOM      8  C2' N4B d   1       0.658   1.818  -0.280  0.00  0.00     0.009 C 
BRANCH   8   9
ATOM      9  C3' N4B d   1       0.632   3.178   0.397  0.00  0.00     0.004 C 
ATOM     10  C4' N4B d   1       2.003   3.684   0.734  0.00  0.00     0.003 C 
ENDBRANCH   8   9
ENDBRANCH   7   8
ENDBRANCH   1   7
TORSDOF 3
ENDMDL
