MODEL 1
REMARK minimizedAffinity -5.06359673
REMARK minimizedRMSD -1
REMARK  3 active torsions:
REMARK  status: ('A' for Active; 'I' for Inactive)
REMARK    1  A    between atoms: C3'_2  and  C2'_3 
REMARK    2  A    between atoms: C2'_3  and  C1'_4 
REMARK    3  A    between atoms: C1'_4  and  C1_5 
ROOT
ATOM      1  C1  N4B d   1      -0.446   1.118   0.357  0.00  0.00    -0.075 A 
ATOM      2  C2  N4B d   1       0.321   0.027   0.821  0.00  0.00     0.002 A 
ATOM      3  C3  N4B d   1      -0.205  -0.835   1.752  0.00  0.00     0.002 A 
ATOM      4  C4  N4B d   1      -1.482  -0.615   2.246  0.00  0.00    -0.004 A 
ATOM      5  C5  N4B d   1      -2.226   0.427   1.774  0.00  0.00     0.002 A 
ATOM      6  C6  N4B d   1      -1.712   1.298   0.835  0.00  0.00     0.002 A 
ENDROOT
BRANCH   1   7
ATOM      7  C1' N4B d   1       0.117   2.136  -0.597  0.00  0.00     0.057 C 
BRANCH   7   8
ATOM      8  C2' N4B d   1       0.268   3.471   0.127  0.00  0.00     0.009 C 
BRANCH   8   9
ATOM      9  C3' N4B d   1       1.701   3.975   0.096  0.00  0.00     0.004 C 
ATOM     10  C4' N4B d   1       2.601   3.115  -0.739  0.00  0.00     0.003 C 
ENDBRANCH   8   9
ENDBRANCH   7   8
ENDBRANCH   1   7
TORSDOF 3
ENDMDL
