MODEL 1
REMARK minimizedAffinity -0.0312616527
REMARK minimizedRMSD -1
REMARK  3 active torsions:
REMARK  status: ('A' for Active; 'I' for Inactive)
REMARK    1  A    between atoms: C3'_2  and  C2'_3 
REMARK    2  A    between atoms: C2'_3  and  C1'_4 
REMARK    3  A    between atoms: C1'_4  and  C1_5 
ROOT
ATOM      1  C1  N4B d   1       0.536   1.040   0.187  0.00  0.00    -0.075 A 
ATOM      2  C2  N4B d   1      -0.834   1.149  -0.136  0.00  0.00     0.002 A 
ATOM      3  C3  N4B d   1      -1.765   0.423   0.567  0.00  0.00     0.002 A 
ATOM      4  C4  N4B d   1      -1.348  -0.427   1.580  0.00  0.00    -0.004 A 
ATOM      5  C5  N4B d   1      -0.025  -0.507   1.903  0.00  0.00     0.002 A 
ATOM      6  C6  N4B d   1       0.921   0.219   1.207  0.00  0.00     0.002 A 
ENDROOT
BRANCH   1   7
ATOM      7  C1' N4B d   1       1.598   1.748  -0.610  0.00  0.00     0.057 C 
BRANCH   7   8
ATOM      8  C2' N4B d   1       2.285   2.781   0.278  0.00  0.00     0.009 C 
BRANCH   8   9
ATOM      9  C3' N4B d   1       1.298   3.782   0.853  0.00  0.00     0.004 C 
ATOM     10  C4' N4B d   1       1.444   3.955   2.336  0.00  0.00     0.003 C 
ENDBRANCH   8   9
ENDBRANCH   7   8
ENDBRANCH   1   7
TORSDOF 3
ENDMDL
