MODEL 1
REMARK minimizedAffinity -1.68863475
REMARK minimizedRMSD -1
REMARK  3 active torsions:
REMARK  status: ('A' for Active; 'I' for Inactive)
REMARK    1  A    between atoms: C3'_2  and  C2'_3 
REMARK    2  A    between atoms: C2'_3  and  C1'_4 
REMARK    3  A    between atoms: C1'_4  and  C1_5 
ROOT
ATOM      1  C1  N4B d   1      -0.877  -0.352   0.942  0.00  0.00    -0.075 A 
ATOM      2  C2  N4B d   1       0.473   0.062   0.896  0.00  0.00     0.002 A 
ATOM      3  C3  N4B d   1       0.805   1.255   0.304  0.00  0.00     0.002 A 
ATOM      4  C4  N4B d   1      -0.188   2.040  -0.263  0.00  0.00    -0.004 A 
ATOM      5  C5  N4B d   1      -1.492   1.645  -0.192  0.00  0.00     0.002 A 
ATOM      6  C6  N4B d   1      -1.841   0.449   0.403  0.00  0.00     0.002 A 
ENDROOT
BRANCH   1   7
ATOM      7  C1' N4B d   1      -1.279  -1.689   1.502  0.00  0.00     0.057 C 
BRANCH   7   8
ATOM      8  C2' N4B d   1      -1.900  -2.531   0.392  0.00  0.00     0.009 C 
BRANCH   8   9
ATOM      9  C3' N4B d   1      -0.845  -3.145  -0.513  0.00  0.00     0.004 C 
ATOM     10  C4' N4B d   1      -0.944  -2.663  -1.930  0.00  0.00     0.003 C 
ENDBRANCH   8   9
ENDBRANCH   7   8
ENDBRANCH   1   7
TORSDOF 3
ENDMDL
