MODEL 1
REMARK minimizedAffinity -4.50125694
REMARK minimizedRMSD -1
REMARK  3 active torsions:
REMARK  status: ('A' for Active; 'I' for Inactive)
REMARK    1  A    between atoms: C3'_2  and  C2'_3 
REMARK    2  A    between atoms: C2'_3  and  C1'_4 
REMARK    3  A    between atoms: C1'_4  and  C1_5 
ROOT
ATOM      1  C1  N4B d   1       0.721   2.095  -0.363  0.00  0.00    -0.075 A 
ATOM      2  C2  N4B d   1       0.225   3.048   0.555  0.00  0.00     0.002 A 
ATOM      3  C3  N4B d   1       1.020   4.095   0.953  0.00  0.00     0.002 A 
ATOM      4  C4  N4B d   1       2.313   4.199   0.465  0.00  0.00    -0.004 A 
ATOM      5  C5  N4B d   1       2.776   3.289  -0.440  0.00  0.00     0.002 A 
ATOM      6  C6  N4B d   1       1.987   2.234  -0.853  0.00  0.00     0.002 A 
ENDROOT
BRANCH   1   7
ATOM      7  C1' N4B d   1      -0.080   0.886  -0.762  0.00  0.00     0.057 C 
BRANCH   7   8
ATOM      8  C2' N4B d   1       0.528  -0.354  -0.112  0.00  0.00     0.009 C 
BRANCH   8   9
ATOM      9  C3' N4B d   1      -0.371  -0.925   0.972  0.00  0.00     0.004 C 
ATOM     10  C4' N4B d   1      -0.709  -2.368   0.745  0.00  0.00     0.003 C 
ENDBRANCH   8   9
ENDBRANCH   7   8
ENDBRANCH   1   7
TORSDOF 3
ENDMDL
