MODEL 1
REMARK minimizedAffinity -5.23971748
REMARK minimizedRMSD -1
REMARK  3 active torsions:
REMARK  status: ('A' for Active; 'I' for Inactive)
REMARK    1  A    between atoms: C3'_2  and  C2'_3 
REMARK    2  A    between atoms: C2'_3  and  C1'_4 
REMARK    3  A    between atoms: C1'_4  and  C1_5 
ROOT
ATOM      1  C1  N4B d   1      -0.014   1.136   0.055  0.00  0.00    -0.075 A 
ATOM      2  C2  N4B d   1      -1.259   1.004   0.708  0.00  0.00     0.002 A 
ATOM      3  C3  N4B d   1      -1.558  -0.149   1.391  0.00  0.00     0.002 A 
ATOM      4  C4  N4B d   1      -0.639  -1.187   1.419  0.00  0.00    -0.004 A 
ATOM      5  C5  N4B d   1       0.572  -1.042   0.807  0.00  0.00     0.002 A 
ATOM      6  C6  N4B d   1       0.887   0.113   0.120  0.00  0.00     0.002 A 
ENDROOT
BRANCH   1   7
ATOM      7  C1' N4B d   1       0.323   2.343  -0.776  0.00  0.00     0.057 C 
BRANCH   7   8
ATOM      8  C2' N4B d   1       0.630   3.518   0.148  0.00  0.00     0.009 C 
BRANCH   8   9
ATOM      9  C3' N4B d   1       2.121   3.678   0.387  0.00  0.00     0.004 C 
ATOM     10  C4' N4B d   1       2.445   4.062   1.801  0.00  0.00     0.003 C 
ENDBRANCH   8   9
ENDBRANCH   7   8
ENDBRANCH   1   7
TORSDOF 3
ENDMDL
