MODEL 1
REMARK minimizedAffinity -4.03923321
REMARK minimizedRMSD -1
REMARK  3 active torsions:
REMARK  status: ('A' for Active; 'I' for Inactive)
REMARK    1  A    between atoms: C3'_2  and  C2'_3 
REMARK    2  A    between atoms: C2'_3  and  C1'_4 
REMARK    3  A    between atoms: C1'_4  and  C1_5 
ROOT
ATOM      1  C1  N4B d   1       0.004   0.036  -0.006  0.00  0.00    -0.075 A 
ATOM      2  C2  N4B d   1      -0.657  -0.233   1.212  0.00  0.00     0.002 A 
ATOM      3  C3  N4B d   1      -0.985  -1.524   1.545  0.00  0.00     0.002 A 
ATOM      4  C4  N4B d   1      -0.680  -2.556   0.671  0.00  0.00    -0.004 A 
ATOM      5  C5  N4B d   1      -0.018  -2.291  -0.492  0.00  0.00     0.002 A 
ATOM      6  C6  N4B d   1       0.321  -0.999  -0.838  0.00  0.00     0.002 A 
ENDROOT
BRANCH   1   7
ATOM      7  C1' N4B d   1       0.306   1.440  -0.453  0.00  0.00     0.057 C 
BRANCH   7   8
ATOM      8  C2' N4B d   1       0.309   2.363   0.762  0.00  0.00     0.009 C 
BRANCH   8   9
ATOM      9  C3' N4B d   1       1.003   3.682   0.472  0.00  0.00     0.004 C 
ATOM     10  C4' N4B d   1       2.480   3.528   0.263  0.00  0.00     0.003 C 
ENDBRANCH   8   9
ENDBRANCH   7   8
ENDBRANCH   1   7
TORSDOF 3
ENDMDL
