MODEL 1
REMARK minimizedAffinity -4.37797022
REMARK minimizedRMSD -1
REMARK  0 active torsions:
REMARK  status: ('A' for Active; 'I' for Inactive)
ROOT
ATOM      1  C   UNL d   1       1.287  -0.153   3.089  0.00  0.00     0.020 A 
ATOM      2  C1  UNL d   1       0.173   0.506   3.607  0.00  0.00     0.020 A 
ATOM      3  C2  UNL d   1      -0.908   0.808   2.776  0.00  0.00     0.034 A 
ATOM      4  C3  UNL d   1      -0.877   0.452   1.422  0.00  0.00     0.017 A 
ATOM      5  C4  UNL d   1       0.243  -0.209   0.904  0.00  0.00     0.017 A 
ATOM      6  C5  UNL d   1       1.322  -0.510   1.740  0.00  0.00     0.034 A 
ATOM      7 Cl   UNL d   1       0.354  -0.681  -0.755  0.00  0.00    -0.070 Cl
ATOM      8 Cl1  UNL d   1      -2.248   0.857   0.453  0.00  0.00    -0.070 Cl
ENDROOT
TORSDOF 0
ENDMDL
