MODEL 1
REMARK minimizedAffinity -4.46319914
REMARK minimizedRMSD -1
REMARK  0 active torsions:
REMARK  status: ('A' for Active; 'I' for Inactive)
ROOT
ATOM      1  C   UNL d   1      -1.810  -2.021  -4.850  0.00  0.00     0.020 A 
ATOM      2  C1  UNL d   1      -2.071  -1.028  -5.794  0.00  0.00     0.020 A 
ATOM      3  C2  UNL d   1      -1.333   0.158  -5.782  0.00  0.00     0.034 A 
ATOM      4  C3  UNL d   1      -0.332   0.354  -4.825  0.00  0.00     0.017 A 
ATOM      5  C4  UNL d   1      -0.071  -0.642  -3.877  0.00  0.00     0.017 A 
ATOM      6  C5  UNL d   1      -0.812  -1.828  -3.894  0.00  0.00     0.034 A 
ATOM      7 Cl   UNL d   1       1.149  -0.472  -2.665  0.00  0.00    -0.070 Cl
ATOM      8 Cl1  UNL d   1       0.541   1.845  -4.869  0.00  0.00    -0.070 Cl
ENDROOT
TORSDOF 0
ENDMDL
