MODEL 1
REMARK minimizedAffinity -4.24336863
REMARK minimizedRMSD -1
REMARK  0 active torsions:
REMARK  status: ('A' for Active; 'I' for Inactive)
ROOT
ATOM      1  C   UNL d   1       1.498   0.526  -3.352  0.00  0.00     0.020 A 
ATOM      2  C1  UNL d   1       1.619   0.757  -1.983  0.00  0.00     0.020 A 
ATOM      3  C2  UNL d   1       0.611   0.336  -1.112  0.00  0.00     0.034 A 
ATOM      4  C3  UNL d   1      -0.521  -0.318  -1.610  0.00  0.00     0.017 A 
ATOM      5  C4  UNL d   1      -0.642  -0.550  -2.985  0.00  0.00     0.017 A 
ATOM      6  C5  UNL d   1       0.370  -0.126  -3.853  0.00  0.00     0.034 A 
ATOM      7 Cl   UNL d   1      -2.009  -1.351  -3.674  0.00  0.00    -0.070 Cl
ATOM      8 Cl1  UNL d   1      -1.728  -0.812  -0.476  0.00  0.00    -0.070 Cl
ENDROOT
TORSDOF 0
ENDMDL
