MODEL 1
REMARK minimizedAffinity -2.19740105
REMARK minimizedRMSD -1
REMARK  0 active torsions:
REMARK  status: ('A' for Active; 'I' for Inactive)
ROOT
ATOM      1  C   UNL d   1      -2.213   0.756   0.777  0.00  0.00     0.020 A 
ATOM      2  C1  UNL d   1      -1.685   0.870   2.062  0.00  0.00     0.020 A 
ATOM      3  C2  UNL d   1      -0.374   0.462   2.317  0.00  0.00     0.034 A 
ATOM      4  C3  UNL d   1       0.413  -0.063   1.286  0.00  0.00     0.017 A 
ATOM      5  C4  UNL d   1      -0.118  -0.177  -0.004  0.00  0.00     0.017 A 
ATOM      6  C5  UNL d   1      -1.431   0.233  -0.254  0.00  0.00     0.034 A 
ATOM      7 Cl   UNL d   1       0.792  -0.815  -1.328  0.00  0.00    -0.070 Cl
ATOM      8 Cl1  UNL d   1       2.026  -0.548   1.673  0.00  0.00    -0.070 Cl
ENDROOT
TORSDOF 0
ENDMDL
