MODEL 1
REMARK minimizedAffinity -4.0847106
REMARK minimizedRMSD -1
REMARK  0 active torsions:
REMARK  status: ('A' for Active; 'I' for Inactive)
ROOT
ATOM      1  C   UNL d   1      -1.753   0.930   1.401  0.00  0.00     0.020 A 
ATOM      2  C1  UNL d   1      -1.150   0.925   2.658  0.00  0.00     0.020 A 
ATOM      3  C2  UNL d   1       0.103   0.333   2.828  0.00  0.00     0.034 A 
ATOM      4  C3  UNL d   1       0.757  -0.257   1.740  0.00  0.00     0.017 A 
ATOM      5  C4  UNL d   1       0.150  -0.252   0.479  0.00  0.00     0.017 A 
ATOM      6  C5  UNL d   1      -1.105   0.342   0.314  0.00  0.00     0.034 A 
ATOM      7 Cl   UNL d   1       0.895  -0.961  -0.910  0.00  0.00    -0.070 Cl
ATOM      8 Cl1  UNL d   1       2.305  -0.971   2.024  0.00  0.00    -0.070 Cl
ENDROOT
TORSDOF 0
ENDMDL
