MODEL 1
REMARK minimizedAffinity -1.45879674
REMARK minimizedRMSD -1
REMARK  0 active torsions:
REMARK  status: ('A' for Active; 'I' for Inactive)
ROOT
ATOM      1  C   UNL d   1       0.767  -0.730  -1.557  0.00  0.00     0.020 A 
ATOM      2  C1  UNL d   1      -0.562  -0.306  -1.554  0.00  0.00     0.020 A 
ATOM      3  C2  UNL d   1      -1.155   0.121  -0.364  0.00  0.00     0.034 A 
ATOM      4  C3  UNL d   1      -0.420   0.126   0.827  0.00  0.00     0.017 A 
ATOM      5  C4  UNL d   1       0.913  -0.299   0.823  0.00  0.00     0.017 A 
ATOM      6  C5  UNL d   1       1.502  -0.726  -0.371  0.00  0.00     0.034 A 
ATOM      7 Cl   UNL d   1       1.884  -0.321   2.253  0.00  0.00    -0.070 Cl
ATOM      8 Cl1  UNL d   1      -1.218   0.668   2.261  0.00  0.00    -0.070 Cl
ENDROOT
TORSDOF 0
ENDMDL
