MODEL 1
REMARK minimizedAffinity -5.20235825
REMARK minimizedRMSD -1
REMARK  0 active torsions:
REMARK  status: ('A' for Active; 'I' for Inactive)
ROOT
ATOM      1  C   UNL d   1       1.493   0.248   3.486  0.00  0.00     0.020 A 
ATOM      2  C1  UNL d   1       0.378   0.978   3.896  0.00  0.00     0.020 A 
ATOM      3  C2  UNL d   1      -0.672   1.208   3.004  0.00  0.00     0.034 A 
ATOM      4  C3  UNL d   1      -0.608   0.709   1.698  0.00  0.00     0.017 A 
ATOM      5  C4  UNL d   1       0.512  -0.023   1.288  0.00  0.00     0.017 A 
ATOM      6  C5  UNL d   1       1.560  -0.251   2.185  0.00  0.00     0.034 A 
ATOM      7 Cl   UNL d   1       0.663  -0.671  -0.308  0.00  0.00    -0.070 Cl
ATOM      8 Cl1  UNL d   1      -1.942   1.032   0.648  0.00  0.00    -0.070 Cl
ENDROOT
TORSDOF 0
ENDMDL
