MODEL 1
REMARK minimizedAffinity -0.0488062017
REMARK minimizedRMSD -1
REMARK  0 active torsions:
REMARK  status: ('A' for Active; 'I' for Inactive)
ROOT
ATOM      1  C   UNL d   1      -0.618  -0.145   0.644  0.00  0.00     0.020 A 
ATOM      2  C1  UNL d   1      -0.087   1.131   0.826  0.00  0.00     0.020 A 
ATOM      3  C2  UNL d   1      -0.092   1.714   2.095  0.00  0.00     0.034 A 
ATOM      4  C3  UNL d   1      -0.630   1.021   3.186  0.00  0.00     0.017 A 
ATOM      5  C4  UNL d   1      -1.163  -0.260   3.002  0.00  0.00     0.017 A 
ATOM      6  C5  UNL d   1      -1.155  -0.839   1.729  0.00  0.00     0.034 A 
ATOM      7 Cl   UNL d   1      -1.843  -1.176   4.299  0.00  0.00    -0.070 Cl
ATOM      8 Cl1  UNL d   1      -0.603   1.803   4.727  0.00  0.00    -0.070 Cl
ENDROOT
TORSDOF 0
ENDMDL
