MODEL 1
REMARK minimizedAffinity -1.85288894
REMARK minimizedRMSD -1
REMARK  0 active torsions:
REMARK  status: ('A' for Active; 'I' for Inactive)
ROOT
ATOM      1  C   UNL d   1       0.071   2.053   2.144  0.00  0.00     0.020 A 
ATOM      2  C1  UNL d   1      -0.790   1.107   2.698  0.00  0.00     0.020 A 
ATOM      3  C2  UNL d   1      -1.158  -0.021   1.960  0.00  0.00     0.034 A 
ATOM      4  C3  UNL d   1      -0.664  -0.205   0.663  0.00  0.00     0.017 A 
ATOM      5  C4  UNL d   1       0.201   0.746   0.108  0.00  0.00     0.017 A 
ATOM      6  C5  UNL d   1       0.565   1.872   0.851  0.00  0.00     0.034 A 
ATOM      7 Cl   UNL d   1       0.851   0.587  -1.486  0.00  0.00    -0.070 Cl
ATOM      8 Cl1  UNL d   1      -1.160  -1.622  -0.192  0.00  0.00    -0.070 Cl
ENDROOT
TORSDOF 0
ENDMDL
