MODEL 1
REMARK minimizedAffinity -2.28792405
REMARK minimizedRMSD -1
REMARK  0 active torsions:
REMARK  status: ('A' for Active; 'I' for Inactive)
ROOT
ATOM      1  C   UNL d   1       0.299   1.960   2.365  0.00  0.00     0.020 A 
ATOM      2  C1  UNL d   1      -0.798   1.251   2.853  0.00  0.00     0.020 A 
ATOM      3  C2  UNL d   1      -1.322   0.184   2.120  0.00  0.00     0.034 A 
ATOM      4  C3  UNL d   1      -0.749  -0.176   0.895  0.00  0.00     0.017 A 
ATOM      5  C4  UNL d   1       0.352   0.536   0.406  0.00  0.00     0.017 A 
ATOM      6  C5  UNL d   1       0.873   1.603   1.144  0.00  0.00     0.034 A 
ATOM      7 Cl   UNL d   1       1.112   0.150  -1.097  0.00  0.00    -0.070 Cl
ATOM      8 Cl1  UNL d   1      -1.448  -1.506   0.042  0.00  0.00    -0.070 Cl
ENDROOT
TORSDOF 0
ENDMDL
