MODEL 1
REMARK minimizedAffinity -2.99942923
REMARK minimizedRMSD -1
REMARK  0 active torsions:
REMARK  status: ('A' for Active; 'I' for Inactive)
ROOT
ATOM      1  C   UNL d   1      -0.057   1.207   2.606  0.00  0.00     0.020 A 
ATOM      2  C1  UNL d   1      -1.131   1.253   1.718  0.00  0.00     0.020 A 
ATOM      3  C2  UNL d   1      -1.071   0.550   0.513  0.00  0.00     0.034 A 
ATOM      4  C3  UNL d   1       0.065  -0.202   0.192  0.00  0.00     0.017 A 
ATOM      5  C4  UNL d   1       1.142  -0.248   1.084  0.00  0.00     0.017 A 
ATOM      6  C5  UNL d   1       1.077   0.458   2.290  0.00  0.00     0.034 A 
ATOM      7 Cl   UNL d   1       2.577  -1.154   0.759  0.00  0.00    -0.070 Cl
ATOM      8 Cl1  UNL d   1       0.070  -1.047  -1.315  0.00  0.00    -0.070 Cl
ENDROOT
TORSDOF 0
ENDMDL
