MODEL 1
REMARK minimizedAffinity -1.79429662
REMARK minimizedRMSD -1
REMARK  0 active torsions:
REMARK  status: ('A' for Active; 'I' for Inactive)
ROOT
ATOM      1  C   UNL d   1       0.002  -1.349  -0.352  0.00  0.00     0.020 A 
ATOM      2  C1  UNL d   1      -1.271  -0.852  -0.076  0.00  0.00     0.020 A 
ATOM      3  C2  UNL d   1      -1.468  -0.007   1.018  0.00  0.00     0.034 A 
ATOM      4  C3  UNL d   1      -0.391   0.343   1.841  0.00  0.00     0.017 A 
ATOM      5  C4  UNL d   1       0.886  -0.157   1.563  0.00  0.00     0.017 A 
ATOM      6  C5  UNL d   1       1.078  -1.002   0.466  0.00  0.00     0.034 A 
ATOM      7 Cl   UNL d   1       2.264   0.231   2.533  0.00  0.00    -0.070 Cl
ATOM      8 Cl1  UNL d   1      -0.708   1.392   3.177  0.00  0.00    -0.070 Cl
ENDROOT
TORSDOF 0
ENDMDL
