MODEL 1
REMARK minimizedAffinity -3.30509114
REMARK minimizedRMSD -1
REMARK  0 active torsions:
REMARK  status: ('A' for Active; 'I' for Inactive)
ROOT
ATOM      1  C   UNL d   1      -0.355   1.155  -0.239  0.00  0.00     0.172 C 
ATOM      2  N   UNL d   1       0.282  -0.042   0.259  0.00  0.00    -0.070 N 
ATOM      3  C1  UNL d   1      -0.002  -0.662   1.446  0.00  0.00    -0.004 A 
ATOM      4  C2  UNL d   1       0.817  -1.765   1.552  0.00  0.00    -0.047 A 
ATOM      5  C3  UNL d   1       1.621  -1.809   0.388  0.00  0.00    -0.047 A 
ATOM      6  C4  UNL d   1       1.269  -0.730  -0.395  0.00  0.00    -0.004 A 
ENDROOT
TORSDOF 0
ENDMDL
