MODEL 1
REMARK minimizedAffinity -3.20925212
REMARK minimizedRMSD -1
REMARK  0 active torsions:
REMARK  status: ('A' for Active; 'I' for Inactive)
ROOT
ATOM      1  C   UNL d   1       1.197   0.250  -0.609  0.00  0.00     0.172 C 
ATOM      2  N   UNL d   1       1.144  -0.893   0.272  0.00  0.00    -0.070 N 
ATOM      3  C1  UNL d   1       0.016  -1.390   0.868  0.00  0.00    -0.004 A 
ATOM      4  C2  UNL d   1       0.385  -2.480   1.627  0.00  0.00    -0.047 A 
ATOM      5  C3  UNL d   1       1.783  -2.643   1.482  0.00  0.00    -0.047 A 
ATOM      6  C4  UNL d   1       2.228  -1.647   0.638  0.00  0.00    -0.004 A 
ENDROOT
TORSDOF 0
ENDMDL
