MODEL 1
REMARK minimizedAffinity -3.97696352
REMARK minimizedRMSD -1
REMARK  0 active torsions:
REMARK  status: ('A' for Active; 'I' for Inactive)
ROOT
ATOM      1  C   UNL d   1      -0.093   0.693   0.220  0.00  0.00     0.172 C 
ATOM      2  N   UNL d   1       0.423  -0.612   0.557  0.00  0.00    -0.070 N 
ATOM      3  C1  UNL d   1      -0.166  -1.509   1.408  0.00  0.00    -0.004 A 
ATOM      4  C2  UNL d   1       0.634  -2.629   1.462  0.00  0.00    -0.047 A 
ATOM      5  C3  UNL d   1       1.743  -2.398   0.614  0.00  0.00    -0.047 A 
ATOM      6  C4  UNL d   1       1.587  -1.142   0.067  0.00  0.00    -0.004 A 
ENDROOT
TORSDOF 0
ENDMDL
