MODEL 1
REMARK minimizedAffinity -3.03076124
REMARK minimizedRMSD -1
REMARK  0 active torsions:
REMARK  status: ('A' for Active; 'I' for Inactive)
ROOT
ATOM      1  C   UNL d   1      -1.339  -1.557   2.728  0.00  0.00     0.172 C 
ATOM      2  N   UNL d   1      -0.200  -1.692   1.850  0.00  0.00    -0.070 N 
ATOM      3  C1  UNL d   1       0.848  -2.555   2.030  0.00  0.00    -0.004 A 
ATOM      4  C2  UNL d   1       1.724  -2.380   0.981  0.00  0.00    -0.047 A 
ATOM      5  C3  UNL d   1       1.184  -1.376   0.142  0.00  0.00    -0.047 A 
ATOM      6  C4  UNL d   1      -0.007  -0.968   0.704  0.00  0.00    -0.004 A 
ENDROOT
TORSDOF 0
ENDMDL
