MODEL 1
REMARK minimizedAffinity -3.41017509
REMARK minimizedRMSD -1
REMARK  0 active torsions:
REMARK  status: ('A' for Active; 'I' for Inactive)
ROOT
ATOM      1  C   UNL d   1      -0.415   3.382  -4.901  0.00  0.00     0.172 C 
ATOM      2  N   UNL d   1      -1.120   2.594  -3.917  0.00  0.00    -0.070 N 
ATOM      3  C1  UNL d   1      -1.127   2.823  -2.567  0.00  0.00    -0.004 A 
ATOM      4  C2  UNL d   1      -1.913   1.856  -1.979  0.00  0.00    -0.047 A 
ATOM      5  C3  UNL d   1      -2.394   1.016  -3.011  0.00  0.00    -0.047 A 
ATOM      6  C4  UNL d   1      -1.887   1.496  -4.201  0.00  0.00    -0.004 A 
ENDROOT
TORSDOF 0
ENDMDL
