MODEL 1
REMARK minimizedAffinity -4.13208055
REMARK minimizedRMSD -1
REMARK  0 active torsions:
REMARK  status: ('A' for Active; 'I' for Inactive)
ROOT
ATOM      1  C   UNL d   1      -0.530   0.298   0.340  0.00  0.00     0.172 C 
ATOM      2  N   UNL d   1      -0.145  -0.832   1.153  0.00  0.00    -0.070 N 
ATOM      3  C1  UNL d   1       0.934  -1.646   0.929  0.00  0.00    -0.004 A 
ATOM      4  C2  UNL d   1       0.956  -2.600   1.923  0.00  0.00    -0.047 A 
ATOM      5  C3  UNL d   1      -0.147  -2.351   2.774  0.00  0.00    -0.047 A 
ATOM      6  C4  UNL d   1      -0.812  -1.251   2.274  0.00  0.00    -0.004 A 
ENDROOT
TORSDOF 0
ENDMDL
