MODEL 1
REMARK minimizedAffinity -3.55725908
REMARK minimizedRMSD -1
REMARK  0 active torsions:
REMARK  status: ('A' for Active; 'I' for Inactive)
ROOT
ATOM      1  C   UNL d   1      -0.001   3.250  -4.310  0.00  0.00     0.172 C 
ATOM      2  N   UNL d   1      -0.834   2.445  -3.447  0.00  0.00    -0.070 N 
ATOM      3  C1  UNL d   1      -1.968   1.778  -3.828  0.00  0.00    -0.004 A 
ATOM      4  C2  UNL d   1      -2.469   1.130  -2.720  0.00  0.00    -0.047 A 
ATOM      5  C3  UNL d   1      -1.608   1.419  -1.635  0.00  0.00    -0.047 A 
ATOM      6  C4  UNL d   1      -0.604   2.235  -2.113  0.00  0.00    -0.004 A 
ENDROOT
TORSDOF 0
ENDMDL
