MODEL 1
REMARK minimizedAffinity -3.69678092
REMARK minimizedRMSD -1
REMARK  0 active torsions:
REMARK  status: ('A' for Active; 'I' for Inactive)
ROOT
ATOM      1  C   UNL d   1      -0.071   3.600  -4.609  0.00  0.00     0.172 C 
ATOM      2  N   UNL d   1      -0.976   2.895  -3.733  0.00  0.00    -0.070 N 
ATOM      3  C1  UNL d   1      -2.134   2.272  -4.115  0.00  0.00    -0.004 A 
ATOM      4  C2  UNL d   1      -2.707   1.719  -2.990  0.00  0.00    -0.047 A 
ATOM      5  C3  UNL d   1      -1.865   2.021  -1.894  0.00  0.00    -0.047 A 
ATOM      6  C4  UNL d   1      -0.801   2.750  -2.382  0.00  0.00    -0.004 A 
ENDROOT
TORSDOF 0
ENDMDL
