MODEL 1
REMARK minimizedAffinity -2.90819359
REMARK minimizedRMSD -1
REMARK  0 active torsions:
REMARK  status: ('A' for Active; 'I' for Inactive)
ROOT
ATOM      1  C   UNL d   1      -0.275   3.866  -5.242  0.00  0.00     0.172 C 
ATOM      2  N   UNL d   1      -0.801   3.132  -4.115  0.00  0.00    -0.070 N 
ATOM      3  C1  UNL d   1      -1.690   2.092  -4.185  0.00  0.00    -0.004 A 
ATOM      4  C2  UNL d   1      -1.941   1.665  -2.899  0.00  0.00    -0.047 A 
ATOM      5  C3  UNL d   1      -1.177   2.476  -2.026  0.00  0.00    -0.047 A 
ATOM      6  C4  UNL d   1      -0.481   3.376  -2.806  0.00  0.00    -0.004 A 
ENDROOT
TORSDOF 0
ENDMDL
