MODEL 1
REMARK minimizedAffinity -3.56194639
REMARK minimizedRMSD -1
REMARK  0 active torsions:
REMARK  status: ('A' for Active; 'I' for Inactive)
ROOT
ATOM      1  C   UNL d   1       0.011   1.101  -0.109  0.00  0.00     0.172 C 
ATOM      2  N   UNL d   1      -1.069   1.560  -0.949  0.00  0.00    -0.070 N 
ATOM      3  C1  UNL d   1      -2.023   2.477  -0.593  0.00  0.00    -0.004 A 
ATOM      4  C2  UNL d   1      -2.870   2.644  -1.668  0.00  0.00    -0.047 A 
ATOM      5  C3  UNL d   1      -2.409   1.798  -2.705  0.00  0.00    -0.047 A 
ATOM      6  C4  UNL d   1      -1.294   1.139  -2.233  0.00  0.00    -0.004 A 
ENDROOT
TORSDOF 0
ENDMDL
