MODEL 1
REMARK minimizedAffinity -3.56361842
REMARK minimizedRMSD -1
REMARK  0 active torsions:
REMARK  status: ('A' for Active; 'I' for Inactive)
ROOT
ATOM      1  C   UNL d   1       1.263   5.879  -4.387  0.00  0.00     0.172 C 
ATOM      2  N   UNL d   1       0.596   4.617  -4.171  0.00  0.00    -0.070 N 
ATOM      3  C1  UNL d   1       0.027   3.838  -5.142  0.00  0.00    -0.004 A 
ATOM      4  C2  UNL d   1      -0.502   2.721  -4.532  0.00  0.00    -0.047 A 
ATOM      5  C3  UNL d   1      -0.244   2.834  -3.146  0.00  0.00    -0.047 A 
ATOM      6  C4  UNL d   1       0.437   4.017  -2.949  0.00  0.00    -0.004 A 
ENDROOT
TORSDOF 0
ENDMDL
