MODEL 1
REMARK minimizedAffinity -4.09993792
REMARK minimizedRMSD -1
REMARK  0 active torsions:
REMARK  status: ('A' for Active; 'I' for Inactive)
ROOT
ATOM      1  C   UNL d   1      -2.432   1.773  -2.604  0.00  0.00     0.172 C 
ATOM      2  N   UNL d   1      -1.467   2.730  -3.092  0.00  0.00    -0.070 N 
ATOM      3  C1  UNL d   1      -1.237   3.032  -4.407  0.00  0.00    -0.004 A 
ATOM      4  C2  UNL d   1      -0.247   3.989  -4.454  0.00  0.00    -0.047 A 
ATOM      5  C3  UNL d   1       0.133   4.271  -3.120  0.00  0.00    -0.047 A 
ATOM      6  C4  UNL d   1      -0.639   3.478  -2.297  0.00  0.00    -0.004 A 
ENDROOT
TORSDOF 0
ENDMDL
