MODEL 1
REMARK minimizedAffinity -3.06681824
REMARK minimizedRMSD -1
REMARK  0 active torsions:
REMARK  status: ('A' for Active; 'I' for Inactive)
ROOT
ATOM      1  C   UNL d   1      -3.092   1.316  -2.537  0.00  0.00     0.172 C 
ATOM      2  N   UNL d   1      -1.843   1.946  -2.893  0.00  0.00    -0.070 N 
ATOM      3  C1  UNL d   1      -1.371   2.120  -4.166  0.00  0.00    -0.004 A 
ATOM      4  C2  UNL d   1      -0.153   2.759  -4.081  0.00  0.00    -0.047 A 
ATOM      5  C3  UNL d   1       0.117   2.976  -2.709  0.00  0.00    -0.047 A 
ATOM      6  C4  UNL d   1      -0.946   2.463  -1.996  0.00  0.00    -0.004 A 
ENDROOT
TORSDOF 0
ENDMDL
