MODEL 1
REMARK minimizedAffinity -2.39078021
REMARK minimizedRMSD -1
REMARK  0 active torsions:
REMARK  status: ('A' for Active; 'I' for Inactive)
ROOT
ATOM      1  C   UNL d   1      -1.039   0.772  -0.285  0.00  0.00     0.172 C 
ATOM      2  N   UNL d   1      -1.336   1.247  -1.616  0.00  0.00    -0.070 N 
ATOM      3  C1  UNL d   1      -2.502   1.029  -2.300  0.00  0.00    -0.004 A 
ATOM      4  C2  UNL d   1      -2.391   1.643  -3.529  0.00  0.00    -0.047 A 
ATOM      5  C3  UNL d   1      -1.114   2.250  -3.586  0.00  0.00    -0.047 A 
ATOM      6  C4  UNL d   1      -0.481   1.989  -2.388  0.00  0.00    -0.004 A 
ENDROOT
TORSDOF 0
ENDMDL
