MODEL 1
REMARK minimizedAffinity -1.85329044
REMARK minimizedRMSD -1
REMARK  0 active torsions:
REMARK  status: ('A' for Active; 'I' for Inactive)
ROOT
ATOM      1  C   UNL d   1      -0.677   0.566   0.161  0.00  0.00     0.172 C 
ATOM      2  N   UNL d   1       0.589  -0.086   0.402  0.00  0.00    -0.070 N 
ATOM      3  C1  UNL d   1       1.741   0.121  -0.308  0.00  0.00    -0.004 A 
ATOM      4  C2  UNL d   1       2.719  -0.687   0.230  0.00  0.00    -0.047 A 
ATOM      5  C3  UNL d   1       2.135  -1.405   1.301  0.00  0.00    -0.047 A 
ATOM      6  C4  UNL d   1       0.815  -1.014   1.385  0.00  0.00    -0.004 A 
ENDROOT
TORSDOF 0
ENDMDL
