MODEL 1
REMARK minimizedAffinity 3.04323435
REMARK minimizedRMSD -1
REMARK  1 active torsions:
REMARK  status: ('A' for Active; 'I' for Inactive)
REMARK    1  A    between atoms: N_2  and  C1_3 
ROOT
ATOM      1  C1  UNL d   1       4.476  -3.747   4.841  0.00  0.00     0.143 A 
ATOM      2  C2  UNL d   1       5.751  -3.272   4.516  0.00  0.00    -0.057 A 
ATOM      3  C3  UNL d   1       6.000  -2.640   3.291  0.00  0.00     0.033 A 
ATOM      4  C4  UNL d   1       4.981  -2.497   2.355  0.00  0.00    -0.042 A 
ATOM      5  C5  UNL d   1       3.712  -2.984   2.647  0.00  0.00     0.033 A 
ATOM      6  C6  UNL d   1       3.467  -3.608   3.874  0.00  0.00    -0.057 A 
ENDROOT
BRANCH   1   7
ATOM      7  N   UNL d   1       4.188  -4.471   6.000  0.00  0.00    -0.732 N 
ATOM      8  C   UNL d   1       4.232  -5.918   5.995  0.00  0.00     0.284 C 
ATOM      9  H3  UNL d   1       4.587  -4.046   6.833  0.00  0.00     0.395 HD
ENDBRANCH   1   7
TORSDOF 1
ENDMDL
