MODEL 1
REMARK minimizedAffinity -0.794148624
REMARK minimizedRMSD -1
REMARK  1 active torsions:
REMARK  status: ('A' for Active; 'I' for Inactive)
REMARK    1  A    between atoms: N_2  and  C1_3 
ROOT
ATOM      1  C1  UNL d   1       5.829  -3.752  -2.571  0.00  0.00     0.143 A 
ATOM      2  C2  UNL d   1       5.686  -2.808  -3.595  0.00  0.00    -0.057 A 
ATOM      3  C3  UNL d   1       5.667  -3.194  -4.940  0.00  0.00     0.033 A 
ATOM      4  C4  UNL d   1       5.819  -4.532  -5.289  0.00  0.00    -0.042 A 
ATOM      5  C5  UNL d   1       5.987  -5.484  -4.290  0.00  0.00     0.033 A 
ATOM      6  C6  UNL d   1       5.999  -5.093  -2.947  0.00  0.00    -0.057 A 
ENDROOT
BRANCH   1   7
ATOM      7  N   UNL d   1       5.955  -3.420  -1.220  0.00  0.00    -0.732 N 
ATOM      8  C   UNL d   1       5.999  -4.454  -0.209  0.00  0.00     0.284 C 
ATOM      9  H3  UNL d   1       6.613  -2.660  -1.066  0.00  0.00     0.395 HD
ENDBRANCH   1   7
TORSDOF 1
ENDMDL
