MODEL 1
REMARK minimizedAffinity -3.08828545
REMARK minimizedRMSD -1
REMARK  1 active torsions:
REMARK  status: ('A' for Active; 'I' for Inactive)
REMARK    1  A    between atoms: N_2  and  C1_3 
ROOT
ATOM      1  C1  UNL d   1       5.657  -4.601   3.767  0.00  0.00     0.143 A 
ATOM      2  C2  UNL d   1       6.000  -3.257   3.591  0.00  0.00    -0.057 A 
ATOM      3  C3  UNL d   1       5.793  -2.315   4.606  0.00  0.00     0.033 A 
ATOM      4  C4  UNL d   1       5.211  -2.698   5.810  0.00  0.00    -0.042 A 
ATOM      5  C5  UNL d   1       4.838  -4.024   5.998  0.00  0.00     0.033 A 
ATOM      6  C6  UNL d   1       5.054  -4.961   4.983  0.00  0.00    -0.057 A 
ENDROOT
BRANCH   1   7
ATOM      7  N   UNL d   1       5.746  -5.566   2.761  0.00  0.00    -0.732 N 
ATOM      8  C   UNL d   1       6.000  -5.179   1.389  0.00  0.00     0.284 C 
ATOM      9  H3  UNL d   1       6.256  -6.394   3.060  0.00  0.00     0.395 HD
ENDBRANCH   1   7
TORSDOF 1
ENDMDL
