MODEL 1
REMARK minimizedAffinity -3.49339223
REMARK minimizedRMSD -1
REMARK  1 active torsions:
REMARK  status: ('A' for Active; 'I' for Inactive)
REMARK    1  A    between atoms: N_2  and  C1_3 
ROOT
ATOM      1  C1  UNL d   1       5.237  -4.230   4.316  0.00  0.00     0.143 A 
ATOM      2  C2  UNL d   1       5.636  -2.894   4.428  0.00  0.00    -0.057 A 
ATOM      3  C3  UNL d   1       5.997  -2.147   3.300  0.00  0.00     0.033 A 
ATOM      4  C4  UNL d   1       5.993  -2.735   2.039  0.00  0.00    -0.042 A 
ATOM      5  C5  UNL d   1       5.624  -4.069   1.907  0.00  0.00     0.033 A 
ATOM      6  C6  UNL d   1       5.259  -4.807   3.037  0.00  0.00    -0.057 A 
ENDROOT
BRANCH   1   7
ATOM      7  N   UNL d   1       4.962  -5.053   5.411  0.00  0.00    -0.732 N 
ATOM      8  C   UNL d   1       5.975  -5.942   5.939  0.00  0.00     0.284 C 
ATOM      9  H3  UNL d   1       4.412  -4.580   6.124  0.00  0.00     0.395 HD
ENDBRANCH   1   7
TORSDOF 1
ENDMDL
