MODEL 1
REMARK minimizedAffinity -2.14906788
REMARK minimizedRMSD -1
REMARK  1 active torsions:
REMARK  status: ('A' for Active; 'I' for Inactive)
REMARK    1  A    between atoms: N_2  and  C1_3 
ROOT
ATOM      1  C1  UNL d   1       5.090  -5.119   4.083  0.00  0.00     0.143 A 
ATOM      2  C2  UNL d   1       5.538  -5.514   2.818  0.00  0.00    -0.057 A 
ATOM      3  C3  UNL d   1       5.999  -4.577   1.885  0.00  0.00     0.033 A 
ATOM      4  C4  UNL d   1       5.991  -3.220   2.192  0.00  0.00    -0.042 A 
ATOM      5  C5  UNL d   1       5.526  -2.802   3.434  0.00  0.00     0.033 A 
ATOM      6  C6  UNL d   1       5.074  -3.743   4.363  0.00  0.00    -0.057 A 
ENDROOT
BRANCH   1   7
ATOM      7  N   UNL d   1       4.528  -5.992   5.017  0.00  0.00    -0.732 N 
ATOM      8  C   UNL d   1       3.101  -5.996   5.259  0.00  0.00     0.284 C 
ATOM      9  H3  UNL d   1       4.946  -6.920   4.982  0.00  0.00     0.395 HD
ENDBRANCH   1   7
TORSDOF 1
ENDMDL
