MODEL 1
REMARK minimizedAffinity -2.42641521
REMARK minimizedRMSD -1
REMARK  1 active torsions:
REMARK  status: ('A' for Active; 'I' for Inactive)
REMARK    1  A    between atoms: N_2  and  C1_3 
ROOT
ATOM      1  C1  UNL d   1       6.000  -3.736   1.523  0.00  0.00     0.143 A 
ATOM      2  C2  UNL d   1       5.979  -4.615   0.435  0.00  0.00    -0.057 A 
ATOM      3  C3  UNL d   1       5.994  -4.142  -0.882  0.00  0.00     0.033 A 
ATOM      4  C4  UNL d   1       6.000  -2.774  -1.136  0.00  0.00    -0.042 A 
ATOM      5  C5  UNL d   1       5.995  -1.881  -0.070  0.00  0.00     0.033 A 
ATOM      6  C6  UNL d   1       5.987  -2.360   1.243  0.00  0.00    -0.057 A 
ENDROOT
BRANCH   1   7
ATOM      7  N   UNL d   1       5.887  -4.143   2.855  0.00  0.00    -0.732 N 
ATOM      8  C   UNL d   1       5.260  -3.285   3.837  0.00  0.00     0.284 C 
ATOM      9  H3  UNL d   1       5.638  -5.125   2.941  0.00  0.00     0.395 HD
ENDBRANCH   1   7
TORSDOF 1
ENDMDL
