MODEL 1
REMARK minimizedAffinity 3.32610226
REMARK minimizedRMSD -1
REMARK  1 active torsions:
REMARK  status: ('A' for Active; 'I' for Inactive)
REMARK    1  A    between atoms: N_2  and  C1_3 
ROOT
ATOM      1  C1  UNL d   1       5.900  -2.829   4.736  0.00  0.00     0.143 A 
ATOM      2  C2  UNL d   1       5.893  -3.581   3.557  0.00  0.00    -0.057 A 
ATOM      3  C3  UNL d   1       5.895  -4.981   3.589  0.00  0.00     0.033 A 
ATOM      4  C4  UNL d   1       5.934  -5.655   4.805  0.00  0.00    -0.042 A 
ATOM      5  C5  UNL d   1       5.968  -4.927   5.989  0.00  0.00     0.033 A 
ATOM      6  C6  UNL d   1       5.959  -3.530   5.951  0.00  0.00    -0.057 A 
ENDROOT
BRANCH   1   7
ATOM      7  N   UNL d   1       5.998  -1.435   4.770  0.00  0.00    -0.732 N 
ATOM      8  C   UNL d   1       5.763  -0.709   5.999  0.00  0.00     0.284 C 
ATOM      9  H3  UNL d   1       6.785  -1.088   4.226  0.00  0.00     0.395 HD
ENDBRANCH   1   7
TORSDOF 1
ENDMDL
