MODEL 1
REMARK minimizedAffinity -2.58861136
REMARK minimizedRMSD -1
REMARK  1 active torsions:
REMARK  status: ('A' for Active; 'I' for Inactive)
REMARK    1  A    between atoms: N_2  and  C1_3 
ROOT
ATOM      1  C1  UNL d   1       5.399  -4.334   3.879  0.00  0.00     0.143 A 
ATOM      2  C2  UNL d   1       4.549  -4.692   4.931  0.00  0.00    -0.057 A 
ATOM      3  C3  UNL d   1       4.271  -3.801   5.975  0.00  0.00     0.033 A 
ATOM      4  C4  UNL d   1       4.864  -2.543   6.000  0.00  0.00    -0.042 A 
ATOM      5  C5  UNL d   1       5.732  -2.175   4.978  0.00  0.00     0.033 A 
ATOM      6  C6  UNL d   1       6.000  -3.067   3.934  0.00  0.00    -0.057 A 
ENDROOT
BRANCH   1   7
ATOM      7  N   UNL d   1       5.792  -5.210   2.864  0.00  0.00    -0.732 N 
ATOM      8  C   UNL d   1       5.992  -4.731   1.513  0.00  0.00     0.284 C 
ATOM      9  H3  UNL d   1       6.494  -5.877   3.177  0.00  0.00     0.395 HD
ENDBRANCH   1   7
TORSDOF 1
ENDMDL
