MODEL 1
REMARK minimizedAffinity -2.73232508
REMARK minimizedRMSD -1
REMARK  1 active torsions:
REMARK  status: ('A' for Active; 'I' for Inactive)
REMARK    1  A    between atoms: N_2  and  C1_3 
ROOT
ATOM      1  C1  UNL d   1       5.914  -4.061   3.545  0.00  0.00     0.143 A 
ATOM      2  C2  UNL d   1       6.000  -2.666   3.616  0.00  0.00    -0.057 A 
ATOM      3  C3  UNL d   1       5.848  -1.990   4.832  0.00  0.00     0.033 A 
ATOM      4  C4  UNL d   1       5.578  -2.698   5.999  0.00  0.00    -0.042 A 
ATOM      5  C5  UNL d   1       5.464  -4.082   5.948  0.00  0.00     0.033 A 
ATOM      6  C6  UNL d   1       5.623  -4.752   4.731  0.00  0.00    -0.057 A 
ENDROOT
BRANCH   1   7
ATOM      7  N   UNL d   1       5.958  -4.783   2.350  0.00  0.00    -0.732 N 
ATOM      8  C   UNL d   1       5.985  -4.098   1.075  0.00  0.00     0.284 C 
ATOM      9  H3  UNL d   1       6.582  -5.585   2.404  0.00  0.00     0.395 HD
ENDBRANCH   1   7
TORSDOF 1
ENDMDL
