MODEL 1
REMARK minimizedAffinity 3.97179627
REMARK minimizedRMSD -1
REMARK  1 active torsions:
REMARK  status: ('A' for Active; 'I' for Inactive)
REMARK    1  A    between atoms: N_2  and  C1_3 
ROOT
ATOM      1  C1  UNL d   1       5.694  -3.878  -2.431  0.00  0.00     0.143 A 
ATOM      2  C2  UNL d   1       5.243  -2.922  -3.347  0.00  0.00    -0.057 A 
ATOM      3  C3  UNL d   1       5.055  -3.242  -4.697  0.00  0.00     0.033 A 
ATOM      4  C4  UNL d   1       5.342  -4.521  -5.161  0.00  0.00    -0.042 A 
ATOM      5  C5  UNL d   1       5.814  -5.481  -4.273  0.00  0.00     0.033 A 
ATOM      6  C6  UNL d   1       5.994  -5.157  -2.925  0.00  0.00    -0.057 A 
ENDROOT
BRANCH   1   7
ATOM      7  N   UNL d   1       5.995  -3.595  -1.096  0.00  0.00    -0.732 N 
ATOM      8  C   UNL d   1       5.999  -4.647  -0.103  0.00  0.00     0.284 C 
ATOM      9  H3  UNL d   1       6.761  -2.932  -1.003  0.00  0.00     0.395 HD
ENDBRANCH   1   7
TORSDOF 1
ENDMDL
