MODEL 1
REMARK minimizedAffinity -3.30682039
REMARK minimizedRMSD -1
REMARK  1 active torsions:
REMARK  status: ('A' for Active; 'I' for Inactive)
REMARK    1  A    between atoms: N_2  and  C1_3 
ROOT
ATOM      1  C1  UNL d   1       5.694  -3.001   3.737  0.00  0.00     0.143 A 
ATOM      2  C2  UNL d   1       5.669  -4.392   3.587  0.00  0.00    -0.057 A 
ATOM      3  C3  UNL d   1       5.833  -4.990   2.332  0.00  0.00     0.033 A 
ATOM      4  C4  UNL d   1       5.997  -4.203   1.196  0.00  0.00    -0.042 A 
ATOM      5  C5  UNL d   1       6.000  -2.818   1.318  0.00  0.00     0.033 A 
ATOM      6  C6  UNL d   1       5.842  -2.227   2.576  0.00  0.00    -0.057 A 
ENDROOT
BRANCH   1   7
ATOM      7  N   UNL d   1       5.439  -2.344   4.944  0.00  0.00    -0.732 N 
ATOM      8  C   UNL d   1       4.699  -3.002   5.999  0.00  0.00     0.284 C 
ATOM      9  H3  UNL d   1       6.238  -1.806   5.270  0.00  0.00     0.395 HD
ENDBRANCH   1   7
TORSDOF 1
ENDMDL
