MODEL 1
REMARK minimizedAffinity 6.09873199
REMARK minimizedRMSD -1
REMARK  0 active torsions:
REMARK  status: ('A' for Active; 'I' for Inactive)
ROOT
ATOM      1  C   UNL d   1       0.466   4.151  -1.499  0.00  0.00     0.077 C 
ATOM      2  C1  UNL d   1      -0.547   3.051  -1.384  0.00  0.00    -0.074 A 
ATOM      3  C2  UNL d   1      -0.561   2.200  -0.275  0.00  0.00    -0.005 A 
ATOM      4  C3  UNL d   1      -1.516   1.187  -0.177  0.00  0.00     0.006 A 
ATOM      5  C4  UNL d   1      -2.464   1.016  -1.186  0.00  0.00    -0.005 A 
ATOM      6  C5  UNL d   1      -2.467   1.859  -2.303  0.00  0.00    -0.074 A 
ATOM      7  C6  UNL d   1      -3.485   1.695  -3.391  0.00  0.00     0.077 C 
ATOM      8  C7  UNL d   1      -1.509   2.878  -2.390  0.00  0.00    -0.001 A 
ENDROOT
TORSDOF 0
ENDMDL
