MODEL 1
REMARK minimizedAffinity -1.4410224
REMARK minimizedRMSD -1
REMARK  0 active torsions:
REMARK  status: ('A' for Active; 'I' for Inactive)
ROOT
ATOM      1  C   UNL d   1      -1.134   2.329   2.450  0.00  0.00     0.077 C 
ATOM      2  C1  UNL d   1      -0.845   2.700   1.026  0.00  0.00    -0.074 A 
ATOM      3  C2  UNL d   1       0.462   2.960   0.602  0.00  0.00    -0.005 A 
ATOM      4  C3  UNL d   1       0.717   3.295  -0.728  0.00  0.00     0.006 A 
ATOM      5  C4  UNL d   1      -0.331   3.374  -1.646  0.00  0.00    -0.005 A 
ATOM      6  C5  UNL d   1      -1.645   3.116  -1.240  0.00  0.00    -0.074 A 
ATOM      7  C6  UNL d   1      -2.782   3.187  -2.216  0.00  0.00     0.077 C 
ATOM      8  C7  UNL d   1      -1.892   2.774   0.096  0.00  0.00    -0.001 A 
ENDROOT
TORSDOF 0
ENDMDL
