MODEL 1
REMARK minimizedAffinity 5.45282125
REMARK minimizedRMSD -1
REMARK  0 active torsions:
REMARK  status: ('A' for Active; 'I' for Inactive)
ROOT
ATOM      1  C   UNL d   1       0.431   1.988   2.147  0.00  0.00     0.077 C 
ATOM      2  C1  UNL d   1      -0.080   2.449   0.814  0.00  0.00    -0.074 A 
ATOM      3  C2  UNL d   1      -1.238   1.896   0.258  0.00  0.00    -0.005 A 
ATOM      4  C3  UNL d   1      -1.707   2.341  -0.978  0.00  0.00     0.006 A 
ATOM      5  C4  UNL d   1      -1.023   3.342  -1.669  0.00  0.00    -0.005 A 
ATOM      6  C5  UNL d   1       0.136   3.907  -1.129  0.00  0.00    -0.074 A 
ATOM      7  C6  UNL d   1       0.877   4.991  -1.854  0.00  0.00     0.077 C 
ATOM      8  C7  UNL d   1       0.597   3.459   0.117  0.00  0.00    -0.001 A 
ENDROOT
TORSDOF 0
ENDMDL
