MODEL 1
REMARK minimizedAffinity 11.0154037
REMARK minimizedRMSD -1
REMARK  0 active torsions:
REMARK  status: ('A' for Active; 'I' for Inactive)
ROOT
ATOM      1  C   UNL d   1      -3.119   1.755  -2.373  0.00  0.00     0.077 C 
ATOM      2  C1  UNL d   1      -2.349   2.840  -3.066  0.00  0.00    -0.074 A 
ATOM      3  C2  UNL d   1      -0.951   2.826  -3.092  0.00  0.00    -0.005 A 
ATOM      4  C3  UNL d   1      -0.250   3.837  -3.749  0.00  0.00     0.006 A 
ATOM      5  C4  UNL d   1      -0.938   4.870  -4.385  0.00  0.00    -0.005 A 
ATOM      6  C5  UNL d   1      -2.336   4.901  -4.370  0.00  0.00    -0.074 A 
ATOM      7  C6  UNL d   1      -3.091   5.999  -5.058  0.00  0.00     0.077 C 
ATOM      8  C7  UNL d   1      -3.034   3.878  -3.715  0.00  0.00    -0.001 A 
ENDROOT
TORSDOF 0
ENDMDL
