MODEL 1
REMARK minimizedAffinity 0.792674839
REMARK minimizedRMSD -1
REMARK  0 active torsions:
REMARK  status: ('A' for Active; 'I' for Inactive)
ROOT
ATOM      1  C   UNL d   1      -0.547   2.203   1.227  0.00  0.00     0.077 C 
ATOM      2  C1  UNL d   1      -0.234   1.501  -0.061  0.00  0.00    -0.074 A 
ATOM      3  C2  UNL d   1      -0.910   1.828  -1.241  0.00  0.00    -0.005 A 
ATOM      4  C3  UNL d   1      -0.601   1.173  -2.433  0.00  0.00     0.006 A 
ATOM      5  C4  UNL d   1       0.385   0.186  -2.458  0.00  0.00    -0.005 A 
ATOM      6  C5  UNL d   1       1.072  -0.154  -1.288  0.00  0.00    -0.074 A 
ATOM      7  C6  UNL d   1       2.142  -1.205  -1.300  0.00  0.00     0.077 C 
ATOM      8  C7  UNL d   1       0.761   0.514  -0.096  0.00  0.00    -0.001 A 
ENDROOT
TORSDOF 0
ENDMDL
