MODEL 1
REMARK minimizedAffinity -3.00900435
REMARK minimizedRMSD -1
REMARK  0 active torsions:
REMARK  status: ('A' for Active; 'I' for Inactive)
ROOT
ATOM      1  C   UNL d   1       0.240   1.868   1.870  0.00  0.00     0.077 C 
ATOM      2  C1  UNL d   1       0.935   3.029   1.223  0.00  0.00    -0.074 A 
ATOM      3  C2  UNL d   1       2.145   3.516   1.729  0.00  0.00    -0.005 A 
ATOM      4  C3  UNL d   1       2.784   4.590   1.111  0.00  0.00     0.006 A 
ATOM      5  C4  UNL d   1       2.221   5.189  -0.017  0.00  0.00    -0.005 A 
ATOM      6  C5  UNL d   1       1.012   4.716  -0.538  0.00  0.00    -0.074 A 
ATOM      7  C6  UNL d   1       0.399   5.341  -1.755  0.00  0.00     0.077 C 
ATOM      8  C7  UNL d   1       0.380   3.631   0.085  0.00  0.00    -0.001 A 
ENDROOT
TORSDOF 0
ENDMDL
