MODEL 1
REMARK minimizedAffinity 2.38114166
REMARK minimizedRMSD -1
REMARK  0 active torsions:
REMARK  status: ('A' for Active; 'I' for Inactive)
ROOT
ATOM      1  C   UNL d   1      -4.872   0.342   1.627  0.00  0.00     0.077 C 
ATOM      2  C1  UNL d   1      -5.260  -0.186   2.976  0.00  0.00    -0.074 A 
ATOM      3  C2  UNL d   1      -5.608   0.682   4.016  0.00  0.00    -0.005 A 
ATOM      4  C3  UNL d   1      -5.976   0.176   5.262  0.00  0.00     0.006 A 
ATOM      5  C4  UNL d   1      -5.999  -1.202   5.482  0.00  0.00    -0.005 A 
ATOM      6  C5  UNL d   1      -5.654  -2.086   4.454  0.00  0.00    -0.074 A 
ATOM      7  C6  UNL d   1      -5.683  -3.570   4.671  0.00  0.00     0.077 C 
ATOM      8  C7  UNL d   1      -5.293  -1.570   3.203  0.00  0.00    -0.001 A 
ENDROOT
TORSDOF 0
ENDMDL
