MODEL 1
REMARK minimizedAffinity -4.24999094
REMARK minimizedRMSD -1
REMARK  2 active torsions:
REMARK  status: ('A' for Active; 'I' for Inactive)
REMARK    1  A    between atoms: C1_2  and  C2_3 
REMARK    2  A    between atoms: C2_3  and  C3_4 
ROOT
ATOM      1  C3  UNL d   1       0.724  -0.042  -0.506  0.00  0.00    -0.075 A 
ATOM      2  C4  UNL d   1       0.317  -0.454   0.771  0.00  0.00     0.002 A 
ATOM      3  C5  UNL d   1      -0.643   0.271   1.476  0.00  0.00     0.002 A 
ATOM      4  C6  UNL d   1      -1.200   1.420   0.920  0.00  0.00    -0.004 A 
ATOM      5  C7  UNL d   1      -0.791   1.848  -0.341  0.00  0.00     0.002 A 
ATOM      6  C8  UNL d   1       0.166   1.122  -1.051  0.00  0.00     0.002 A 
ENDROOT
BRANCH   1   7
ATOM      7  C2  UNL d   1       1.742  -0.839  -1.288  0.00  0.00     0.056 C 
BRANCH   7   8
ATOM      8  C1  UNL d   1       1.424  -2.335  -1.381  0.00  0.00     0.007 C 
ATOM      9  C   UNL d   1       0.614  -2.701  -2.617  0.00  0.00     0.009 C 
ENDBRANCH   7   8
ENDBRANCH   1   7
TORSDOF 2
ENDMDL
