MODEL 1
REMARK minimizedAffinity -0.880263388
REMARK minimizedRMSD -1
REMARK  2 active torsions:
REMARK  status: ('A' for Active; 'I' for Inactive)
REMARK    1  A    between atoms: C1_2  and  C2_3 
REMARK    2  A    between atoms: C2_3  and  C3_4 
ROOT
ATOM      1  C3  UNL d   1       0.378  -0.289  -0.129  0.00  0.00    -0.075 A 
ATOM      2  C4  UNL d   1       0.106  -0.845   1.130  0.00  0.00     0.002 A 
ATOM      3  C5  UNL d   1      -0.697  -0.165   2.046  0.00  0.00     0.002 A 
ATOM      4  C6  UNL d   1      -1.231   1.080   1.720  0.00  0.00    -0.004 A 
ATOM      5  C7  UNL d   1      -0.954   1.649   0.478  0.00  0.00     0.002 A 
ATOM      6  C8  UNL d   1      -0.154   0.969  -0.442  0.00  0.00     0.002 A 
ENDROOT
BRANCH   1   7
ATOM      7  C2  UNL d   1       1.222  -1.033  -1.136  0.00  0.00     0.056 C 
BRANCH   7   8
ATOM      8  C1  UNL d   1       1.032  -2.553  -1.108  0.00  0.00     0.007 C 
ATOM      9  C   UNL d   1       0.659  -3.136  -2.464  0.00  0.00     0.009 C 
ENDBRANCH   7   8
ENDBRANCH   1   7
TORSDOF 2
ENDMDL
