MODEL 1
REMARK minimizedAffinity -1.82989001
REMARK minimizedRMSD -1
REMARK  2 active torsions:
REMARK  status: ('A' for Active; 'I' for Inactive)
REMARK    1  A    between atoms: C1_2  and  C2_3 
REMARK    2  A    between atoms: C2_3  and  C3_4 
ROOT
ATOM      1  C3  UNL d   1      -0.242   0.360  -0.277  0.00  0.00    -0.075 A 
ATOM      2  C4  UNL d   1       0.484   1.310  -1.010  0.00  0.00     0.002 A 
ATOM      3  C5  UNL d   1      -0.177   2.252  -1.799  0.00  0.00     0.002 A 
ATOM      4  C6  UNL d   1      -1.569   2.250  -1.872  0.00  0.00    -0.004 A 
ATOM      5  C7  UNL d   1      -2.299   1.301  -1.161  0.00  0.00     0.002 A 
ATOM      6  C8  UNL d   1      -1.640   0.360  -0.368  0.00  0.00     0.002 A 
ENDROOT
BRANCH   1   7
ATOM      7  C2  UNL d   1       0.466  -0.643   0.602  0.00  0.00     0.056 C 
BRANCH   7   8
ATOM      8  C1  UNL d   1       0.465  -0.279   2.090  0.00  0.00     0.007 C 
ATOM      9  C   UNL d   1      -0.360   0.962   2.404  0.00  0.00     0.009 C 
ENDBRANCH   7   8
ENDBRANCH   1   7
TORSDOF 2
ENDMDL
