MODEL 1
REMARK minimizedAffinity -3.46435285
REMARK minimizedRMSD -1
REMARK  2 active torsions:
REMARK  status: ('A' for Active; 'I' for Inactive)
REMARK    1  A    between atoms: C1_2  and  C2_3 
REMARK    2  A    between atoms: C2_3  and  C3_4 
ROOT
ATOM      1  C3  UNL d   1       0.043  -0.214   0.021  0.00  0.00    -0.075 A 
ATOM      2  C4  UNL d   1      -0.455   0.998  -0.478  0.00  0.00     0.002 A 
ATOM      3  C5  UNL d   1      -0.999   1.950   0.386  0.00  0.00     0.002 A 
ATOM      4  C6  UNL d   1      -1.061   1.698   1.754  0.00  0.00    -0.004 A 
ATOM      5  C7  UNL d   1      -0.584   0.490   2.259  0.00  0.00     0.002 A 
ATOM      6  C8  UNL d   1      -0.036  -0.462   1.398  0.00  0.00     0.002 A 
ENDROOT
BRANCH   1   7
ATOM      7  C2  UNL d   1       0.660  -1.235  -0.904  0.00  0.00     0.056 C 
BRANCH   7   8
ATOM      8  C1  UNL d   1      -0.343  -1.909  -1.847  0.00  0.00     0.007 C 
ATOM      9  C   UNL d   1      -0.194  -3.424  -1.899  0.00  0.00     0.009 C 
ENDBRANCH   7   8
ENDBRANCH   1   7
TORSDOF 2
ENDMDL
