MODEL 1
REMARK minimizedAffinity -1.05357575
REMARK minimizedRMSD -1
REMARK  2 active torsions:
REMARK  status: ('A' for Active; 'I' for Inactive)
REMARK    1  A    between atoms: C1_2  and  C2_3 
REMARK    2  A    between atoms: C2_3  and  C3_4 
ROOT
ATOM      1  C3  UNL d   1       0.847  -0.499  -0.775  0.00  0.00    -0.075 A 
ATOM      2  C4  UNL d   1       0.155   0.631  -1.233  0.00  0.00     0.002 A 
ATOM      3  C5  UNL d   1      -0.735   1.304  -0.396  0.00  0.00     0.002 A 
ATOM      4  C6  UNL d   1      -0.952   0.850   0.904  0.00  0.00    -0.004 A 
ATOM      5  C7  UNL d   1      -0.282  -0.281   1.364  0.00  0.00     0.002 A 
ATOM      6  C8  UNL d   1       0.612  -0.954   0.529  0.00  0.00     0.002 A 
ENDROOT
BRANCH   1   7
ATOM      7  C2  UNL d   1       1.834  -1.215  -1.667  0.00  0.00     0.056 C 
BRANCH   7   8
ATOM      8  C1  UNL d   1       1.573  -2.718  -1.806  0.00  0.00     0.007 C 
ATOM      9  C   UNL d   1       0.842  -3.083  -3.092  0.00  0.00     0.009 C 
ENDBRANCH   7   8
ENDBRANCH   1   7
TORSDOF 2
ENDMDL
