MODEL 1
REMARK minimizedAffinity -5.56354666
REMARK minimizedRMSD -1
REMARK  2 active torsions:
REMARK  status: ('A' for Active; 'I' for Inactive)
REMARK    1  A    between atoms: C1_2  and  C2_3 
REMARK    2  A    between atoms: C2_3  and  C3_4 
ROOT
ATOM      1  C3  UNL d   1       0.006  -0.036   0.080  0.00  0.00    -0.075 A 
ATOM      2  C4  UNL d   1      -0.418  -0.193   1.408  0.00  0.00     0.002 A 
ATOM      3  C5  UNL d   1      -1.181   0.796   2.029  0.00  0.00     0.002 A 
ATOM      4  C6  UNL d   1      -1.521   1.956   1.337  0.00  0.00    -0.004 A 
ATOM      5  C7  UNL d   1      -1.092   2.129   0.023  0.00  0.00     0.002 A 
ATOM      6  C8  UNL d   1      -0.332   1.140  -0.603  0.00  0.00     0.002 A 
ENDROOT
BRANCH   1   7
ATOM      7  C2  UNL d   1       0.807  -1.116  -0.608  0.00  0.00     0.056 C 
BRANCH   7   8
ATOM      8  C1  UNL d   1       0.090  -1.763  -1.798  0.00  0.00     0.007 C 
ATOM      9  C   UNL d   1       0.492  -3.214  -2.025  0.00  0.00     0.009 C 
ENDBRANCH   7   8
ENDBRANCH   1   7
TORSDOF 2
ENDMDL
