MODEL 1
REMARK minimizedAffinity -4.18467283
REMARK minimizedRMSD -1
REMARK  2 active torsions:
REMARK  status: ('A' for Active; 'I' for Inactive)
REMARK    1  A    between atoms: C1_2  and  C2_3 
REMARK    2  A    between atoms: C2_3  and  C3_4 
ROOT
ATOM      1  C3  UNL d   1       0.189  -0.272  -0.331  0.00  0.00    -0.075 A 
ATOM      2  C4  UNL d   1       0.092   0.884  -1.121  0.00  0.00     0.002 A 
ATOM      3  C5  UNL d   1      -0.666   1.973  -0.691  0.00  0.00     0.002 A 
ATOM      4  C6  UNL d   1      -1.342   1.919   0.526  0.00  0.00    -0.004 A 
ATOM      5  C7  UNL d   1      -1.266   0.770   1.310  0.00  0.00     0.002 A 
ATOM      6  C8  UNL d   1      -0.505  -0.320   0.885  0.00  0.00     0.002 A 
ENDROOT
BRANCH   1   7
ATOM      7  C2  UNL d   1       1.031  -1.443  -0.777  0.00  0.00     0.056 C 
BRANCH   7   8
ATOM      8  C1  UNL d   1       0.482  -2.174  -2.007  0.00  0.00     0.007 C 
ATOM      9  C   UNL d   1       0.647  -3.686  -1.930  0.00  0.00     0.009 C 
ENDBRANCH   7   8
ENDBRANCH   1   7
TORSDOF 2
ENDMDL
