MODEL 1
REMARK minimizedAffinity -5.19425011
REMARK minimizedRMSD -1
REMARK  2 active torsions:
REMARK  status: ('A' for Active; 'I' for Inactive)
REMARK    1  A    between atoms: C1_2  and  C2_3 
REMARK    2  A    between atoms: C2_3  and  C3_4 
ROOT
ATOM      1  C3  UNL d   1       0.396   0.069  -0.291  0.00  0.00    -0.075 A 
ATOM      2  C4  UNL d   1       0.255  -0.514   0.976  0.00  0.00     0.002 A 
ATOM      3  C5  UNL d   1      -0.645   0.013   1.902  0.00  0.00     0.002 A 
ATOM      4  C6  UNL d   1      -1.407   1.133   1.578  0.00  0.00    -0.004 A 
ATOM      5  C7  UNL d   1      -1.263   1.730   0.328  0.00  0.00     0.002 A 
ATOM      6  C8  UNL d   1      -0.366   1.202  -0.603  0.00  0.00     0.002 A 
ENDROOT
BRANCH   1   7
ATOM      7  C2  UNL d   1       1.347  -0.515  -1.309  0.00  0.00     0.056 C 
BRANCH   7   8
ATOM      8  C1  UNL d   1       1.167  -2.019  -1.540  0.00  0.00     0.007 C 
ATOM      9  C   UNL d   1       0.458  -2.344  -2.848  0.00  0.00     0.009 C 
ENDBRANCH   7   8
ENDBRANCH   1   7
TORSDOF 2
ENDMDL
