MODEL 1
REMARK minimizedAffinity -4.38237572
REMARK minimizedRMSD -1
REMARK  2 active torsions:
REMARK  status: ('A' for Active; 'I' for Inactive)
REMARK    1  A    between atoms: C1_2  and  C2_3 
REMARK    2  A    between atoms: C2_3  and  C3_4 
ROOT
ATOM      1  C3  UNL d   1      -0.057  -0.176   0.108  0.00  0.00    -0.075 A 
ATOM      2  C4  UNL d   1      -0.955   0.783  -0.384  0.00  0.00     0.002 A 
ATOM      3  C5  UNL d   1      -1.663   1.606   0.492  0.00  0.00     0.002 A 
ATOM      4  C6  UNL d   1      -1.490   1.475   1.869  0.00  0.00    -0.004 A 
ATOM      5  C7  UNL d   1      -0.612   0.515   2.369  0.00  0.00     0.002 A 
ATOM      6  C8  UNL d   1       0.100  -0.307   1.494  0.00  0.00     0.002 A 
ENDROOT
BRANCH   1   7
ATOM      7  C2  UNL d   1       0.734  -1.049  -0.837  0.00  0.00     0.056 C 
BRANCH   7   8
ATOM      8  C1  UNL d   1      -0.085  -1.604  -2.007  0.00  0.00     0.007 C 
ATOM      9  C   UNL d   1       0.164  -3.084  -2.266  0.00  0.00     0.009 C 
ENDBRANCH   7   8
ENDBRANCH   1   7
TORSDOF 2
ENDMDL
