MODEL 1
REMARK minimizedAffinity -6.00752401
REMARK minimizedRMSD -1
REMARK  2 active torsions:
REMARK  status: ('A' for Active; 'I' for Inactive)
REMARK    1  A    between atoms: C1_2  and  C2_3 
REMARK    2  A    between atoms: C2_3  and  C3_4 
ROOT
ATOM      1  C3  UNL d   1      -0.050   0.139   0.067  0.00  0.00    -0.075 A 
ATOM      2  C4  UNL d   1      -0.699   1.306  -0.362  0.00  0.00     0.002 A 
ATOM      3  C5  UNL d   1      -1.663   1.916   0.441  0.00  0.00     0.002 A 
ATOM      4  C6  UNL d   1      -1.997   1.363   1.675  0.00  0.00    -0.004 A 
ATOM      5  C7  UNL d   1      -1.371   0.194   2.104  0.00  0.00     0.002 A 
ATOM      6  C8  UNL d   1      -0.403  -0.416   1.304  0.00  0.00     0.002 A 
ENDROOT
BRANCH   1   7
ATOM      7  C2  UNL d   1       1.015  -0.510  -0.784  0.00  0.00     0.056 C 
BRANCH   7   8
ATOM      8  C1  UNL d   1       1.032  -2.040  -0.704  0.00  0.00     0.007 C 
ATOM      9  C   UNL d   1       0.276  -2.709  -1.845  0.00  0.00     0.009 C 
ENDBRANCH   7   8
ENDBRANCH   1   7
TORSDOF 2
ENDMDL
