MODEL 1
REMARK minimizedAffinity -4.16833591
REMARK minimizedRMSD -1
REMARK  2 active torsions:
REMARK  status: ('A' for Active; 'I' for Inactive)
REMARK    1  A    between atoms: C1_2  and  C2_3 
REMARK    2  A    between atoms: C2_3  and  C3_4 
ROOT
ATOM      1  C3  UNL d   1       0.244   0.258  -0.274  0.00  0.00    -0.075 A 
ATOM      2  C4  UNL d   1       1.007   0.930  -1.240  0.00  0.00     0.002 A 
ATOM      3  C5  UNL d   1       0.645   2.209  -1.664  0.00  0.00     0.002 A 
ATOM      4  C6  UNL d   1      -0.486   2.828  -1.137  0.00  0.00    -0.004 A 
ATOM      5  C7  UNL d   1      -1.261   2.163  -0.189  0.00  0.00     0.002 A 
ATOM      6  C8  UNL d   1      -0.900   0.885   0.241  0.00  0.00     0.002 A 
ENDROOT
BRANCH   1   7
ATOM      7  C2  UNL d   1       0.646  -1.114   0.211  0.00  0.00     0.056 C 
BRANCH   7   8
ATOM      8  C1  UNL d   1      -0.236  -1.661   1.338  0.00  0.00     0.007 C 
ATOM      9  C   UNL d   1       0.397  -1.522   2.717  0.00  0.00     0.009 C 
ENDBRANCH   7   8
ENDBRANCH   1   7
TORSDOF 2
ENDMDL
