MODEL 1
REMARK minimizedAffinity 10.8726063
REMARK minimizedRMSD -1
REMARK  0 active torsions:
REMARK  status: ('A' for Active; 'I' for Inactive)
ROOT
ATOM      1  C   UNL d   1       1.363   2.966   3.907  0.00  0.00     0.023 A 
ATOM      2  C1  UNL d   1       0.806   1.704   3.699  0.00  0.00     0.003 A 
ATOM      3  C2  UNL d   1       1.070   1.009   2.517  0.00  0.00     0.048 A 
ATOM      4  C3  UNL d   1       1.893   1.582   1.548  0.00  0.00     0.023 A 
ATOM      5  C4  UNL d   1       2.453   2.844   1.752  0.00  0.00     0.048 A 
ATOM      6  C5  UNL d   1       2.186   3.535   2.935  0.00  0.00     0.003 A 
ATOM      7  I   UNL d   1       2.287   0.549  -0.213  0.00  0.00    -0.146 I 
ENDROOT
TORSDOF 0
ENDMDL
