MODEL 1
REMARK minimizedAffinity 4.81574917
REMARK minimizedRMSD -1
REMARK  0 active torsions:
REMARK  status: ('A' for Active; 'I' for Inactive)
ROOT
ATOM      1  C   UNL d   1       3.341  -1.609   1.136  0.00  0.00     0.023 A 
ATOM      2  C1  UNL d   1       3.161  -0.604   2.086  0.00  0.00     0.003 A 
ATOM      3  C2  UNL d   1       2.450   0.552   1.756  0.00  0.00     0.048 A 
ATOM      4  C3  UNL d   1       1.920   0.695   0.474  0.00  0.00     0.023 A 
ATOM      5  C4  UNL d   1       2.097  -0.309  -0.480  0.00  0.00     0.048 A 
ATOM      6  C5  UNL d   1       2.810  -1.461  -0.145  0.00  0.00     0.003 A 
ATOM      7  I   UNL d   1       0.861   2.414  -0.019  0.00  0.00    -0.146 I 
ENDROOT
TORSDOF 0
ENDMDL
