MODEL 1
REMARK minimizedAffinity 12.669632
REMARK minimizedRMSD -1
REMARK  0 active torsions:
REMARK  status: ('A' for Active; 'I' for Inactive)
ROOT
ATOM      1  C   UNL d   1       3.556  -1.487   0.899  0.00  0.00     0.023 A 
ATOM      2  C1  UNL d   1       2.860  -2.663   0.618  0.00  0.00     0.003 A 
ATOM      3  C2  UNL d   1       1.816  -2.653  -0.309  0.00  0.00     0.048 A 
ATOM      4  C3  UNL d   1       1.474  -1.464  -0.953  0.00  0.00     0.023 A 
ATOM      5  C4  UNL d   1       2.168  -0.286  -0.675  0.00  0.00     0.048 A 
ATOM      6  C5  UNL d   1       3.210  -0.300   0.253  0.00  0.00     0.003 A 
ATOM      7  I   UNL d   1      -0.080  -1.448  -2.333  0.00  0.00    -0.146 I 
ENDROOT
TORSDOF 0
ENDMDL
