MODEL 1
REMARK minimizedAffinity 10.7809687
REMARK minimizedRMSD -1
REMARK  0 active torsions:
REMARK  status: ('A' for Active; 'I' for Inactive)
ROOT
ATOM      1  C   UNL d   1       0.680   1.414   1.980  0.00  0.00     0.023 A 
ATOM      2  C1  UNL d   1      -0.713   1.346   2.033  0.00  0.00     0.003 A 
ATOM      3  C2  UNL d   1      -1.457   1.313   0.852  0.00  0.00     0.048 A 
ATOM      4  C3  UNL d   1      -0.802   1.348  -0.379  0.00  0.00     0.023 A 
ATOM      5  C4  UNL d   1       0.591   1.416  -0.436  0.00  0.00     0.048 A 
ATOM      6  C5  UNL d   1       1.331   1.449   0.747  0.00  0.00     0.003 A 
ATOM      7  I   UNL d   1      -1.906   1.299  -2.139  0.00  0.00    -0.146 I 
ENDROOT
TORSDOF 0
ENDMDL
