MODEL 1
REMARK minimizedAffinity 5.20285225
REMARK minimizedRMSD -1
REMARK  0 active torsions:
REMARK  status: ('A' for Active; 'I' for Inactive)
ROOT
ATOM      1  C   UNL d   1      -3.476   0.649  -1.245  0.00  0.00     0.023 A 
ATOM      2  C1  UNL d   1      -3.214   0.928   0.097  0.00  0.00     0.003 A 
ATOM      3  C2  UNL d   1      -1.926   1.286   0.499  0.00  0.00     0.048 A 
ATOM      4  C3  UNL d   1      -0.903   1.364  -0.446  0.00  0.00     0.023 A 
ATOM      5  C4  UNL d   1      -1.161   1.087  -1.790  0.00  0.00     0.048 A 
ATOM      6  C5  UNL d   1      -2.450   0.729  -2.187  0.00  0.00     0.003 A 
ATOM      7  I   UNL d   1       1.015   1.896   0.150  0.00  0.00    -0.146 I 
ENDROOT
TORSDOF 0
ENDMDL
