MODEL 1
REMARK minimizedAffinity 7.78367329
REMARK minimizedRMSD -1
REMARK  0 active torsions:
REMARK  status: ('A' for Active; 'I' for Inactive)
ROOT
ATOM      1  C2' OXE d   1       4.129  -1.126  -3.900  0.00  0.00     0.078 C 
ATOM      2  C1' OXE d   1       2.319  -2.166  -2.023  0.00  0.00     0.078 C 
ATOM      3  C1  OXE d   1       3.256  -1.076  -1.567  0.00  0.00    -0.078 A 
ATOM      4  C2  OXE d   1       4.170  -0.606  -2.479  0.00  0.00    -0.078 A 
ATOM      5  C3  OXE d   1       5.022   0.437  -2.127  0.00  0.00     0.003 A 
ATOM      6  C4  OXE d   1       5.060   0.906  -0.808  0.00  0.00    -0.002 A 
ATOM      7  C5  OXE d   1       4.165   0.413   0.147  0.00  0.00    -0.002 A 
ATOM      8  C6  OXE d   1       3.230  -0.546  -0.226  0.00  0.00     0.003 A 
ENDROOT
TORSDOF 0
ENDMDL
