MODEL 1
REMARK minimizedAffinity 14.1396284
REMARK minimizedRMSD -1
REMARK  0 active torsions:
REMARK  status: ('A' for Active; 'I' for Inactive)
ROOT
ATOM      1  C2' OXE d   1       5.269   1.864   1.322  0.00  0.00     0.078 C 
ATOM      2  C1' OXE d   1       5.986   1.350  -1.343  0.00  0.00     0.078 C 
ATOM      3  C1  OXE d   1       4.670   0.802  -0.850  0.00  0.00    -0.078 A 
ATOM      4  C2  OXE d   1       4.349   1.019   0.468  0.00  0.00    -0.078 A 
ATOM      5  C3  OXE d   1       3.122   0.582   0.960  0.00  0.00     0.003 A 
ATOM      6  C4  OXE d   1       2.281  -0.207   0.166  0.00  0.00    -0.002 A 
ATOM      7  C5  OXE d   1       2.608  -0.473  -1.168  0.00  0.00    -0.002 A 
ATOM      8  C6  OXE d   1       3.776   0.059  -1.703  0.00  0.00     0.003 A 
ENDROOT
TORSDOF 0
ENDMDL
