MODEL 1
REMARK minimizedAffinity 13.420969
REMARK minimizedRMSD -1
REMARK  0 active torsions:
REMARK  status: ('A' for Active; 'I' for Inactive)
ROOT
ATOM      1  C2' OXE d   1       4.951   1.204  -0.699  0.00  0.00     0.078 C 
ATOM      2  C1' OXE d   1       5.572   2.380   1.773  0.00  0.00     0.078 C 
ATOM      3  C1  OXE d   1       5.607   3.259   0.548  0.00  0.00    -0.078 A 
ATOM      4  C2  OXE d   1       5.347   2.665  -0.664  0.00  0.00    -0.078 A 
ATOM      5  C3  OXE d   1       5.312   3.441  -1.819  0.00  0.00     0.003 A 
ATOM      6  C4  OXE d   1       5.689   4.789  -1.779  0.00  0.00    -0.002 A 
ATOM      7  C5  OXE d   1       5.996   5.404  -0.561  0.00  0.00    -0.002 A 
ATOM      8  C6  OXE d   1       5.918   4.665   0.615  0.00  0.00     0.003 A 
ENDROOT
TORSDOF 0
ENDMDL
