MODEL 1
REMARK minimizedAffinity 16.5890198
REMARK minimizedRMSD -1
REMARK  0 active torsions:
REMARK  status: ('A' for Active; 'I' for Inactive)
ROOT
ATOM      1  C2' OXE d   1       1.426  -1.644  -2.105  0.00  0.00     0.078 C 
ATOM      2  C1' OXE d   1      -1.225  -1.076  -2.836  0.00  0.00     0.078 C 
ATOM      3  C1  OXE d   1      -0.853  -2.519  -2.601  0.00  0.00    -0.078 A 
ATOM      4  C2  OXE d   1       0.458  -2.792  -2.290  0.00  0.00    -0.078 A 
ATOM      5  C3  OXE d   1       0.842  -4.100  -2.010  0.00  0.00     0.003 A 
ATOM      6  C4  OXE d   1      -0.058  -5.158  -2.193  0.00  0.00    -0.002 A 
ATOM      7  C5  OXE d   1      -1.387  -4.905  -2.549  0.00  0.00    -0.002 A 
ATOM      8  C6  OXE d   1      -1.811  -3.591  -2.715  0.00  0.00     0.003 A 
ENDROOT
TORSDOF 0
ENDMDL
