MODEL 1
REMARK minimizedAffinity 7.73141336
REMARK minimizedRMSD -1
REMARK  0 active torsions:
REMARK  status: ('A' for Active; 'I' for Inactive)
ROOT
ATOM      1  C2' OXE d   1       5.468   1.947  -1.463  0.00  0.00     0.078 C 
ATOM      2  C1' OXE d   1       5.663   1.273   1.255  0.00  0.00     0.078 C 
ATOM      3  C1  OXE d   1       4.672   0.511   0.410  0.00  0.00    -0.078 A 
ATOM      4  C2  OXE d   1       4.551   0.879  -0.909  0.00  0.00    -0.078 A 
ATOM      5  C3  OXE d   1       3.692   0.173  -1.745  0.00  0.00     0.003 A 
ATOM      6  C4  OXE d   1       2.839  -0.807  -1.222  0.00  0.00    -0.002 A 
ATOM      7  C5  OXE d   1       2.919  -1.170   0.126  0.00  0.00    -0.002 A 
ATOM      8  C6  OXE d   1       3.858  -0.552   0.945  0.00  0.00     0.003 A 
ENDROOT
TORSDOF 0
ENDMDL
