MODEL 1
REMARK minimizedAffinity 12.701333
REMARK minimizedRMSD -1
REMARK  0 active torsions:
REMARK  status: ('A' for Active; 'I' for Inactive)
ROOT
ATOM      1  C2' OXE d   1       1.162  -3.936  -1.511  0.00  0.00     0.078 C 
ATOM      2  C1' OXE d   1       2.425  -2.641  -3.657  0.00  0.00     0.078 C 
ATOM      3  C1  OXE d   1       2.604  -2.055  -2.279  0.00  0.00    -0.078 A 
ATOM      4  C2  OXE d   1       1.944  -2.668  -1.241  0.00  0.00    -0.078 A 
ATOM      5  C3  OXE d   1       2.118  -2.201   0.058  0.00  0.00     0.003 A 
ATOM      6  C4  OXE d   1       2.834  -1.022   0.298  0.00  0.00    -0.002 A 
ATOM      7  C5  OXE d   1       3.482  -0.360  -0.750  0.00  0.00    -0.002 A 
ATOM      8  C6  OXE d   1       3.412  -0.886  -2.036  0.00  0.00     0.003 A 
ENDROOT
TORSDOF 0
ENDMDL
