MODEL 1
REMARK minimizedAffinity 7.75421095
REMARK minimizedRMSD -1
REMARK  0 active torsions:
REMARK  status: ('A' for Active; 'I' for Inactive)
ROOT
ATOM      1  C2' OXE d   1       2.404  -0.388  -0.556  0.00  0.00     0.078 C 
ATOM      2  C1' OXE d   1       2.264   0.395   2.136  0.00  0.00     0.078 C 
ATOM      3  C1  OXE d   1       3.440   0.876   1.324  0.00  0.00    -0.078 A 
ATOM      4  C2  OXE d   1       3.525   0.450   0.020  0.00  0.00    -0.078 A 
ATOM      5  C3  OXE d   1       4.560   0.909  -0.789  0.00  0.00     0.003 A 
ATOM      6  C4  OXE d   1       5.598   1.675  -0.246  0.00  0.00    -0.002 A 
ATOM      7  C5  OXE d   1       5.552   2.088   1.090  0.00  0.00    -0.002 A 
ATOM      8  C6  OXE d   1       4.460   1.733   1.875  0.00  0.00     0.003 A 
ENDROOT
TORSDOF 0
ENDMDL
