MODEL 1
REMARK minimizedAffinity 7.06831837
REMARK minimizedRMSD -1
REMARK  0 active torsions:
REMARK  status: ('A' for Active; 'I' for Inactive)
ROOT
ATOM      1  C2' OXE d   1       1.001  -4.080  -1.893  0.00  0.00     0.078 C 
ATOM      2  C1' OXE d   1       2.609  -2.501  -3.567  0.00  0.00     0.078 C 
ATOM      3  C1  OXE d   1       2.598  -2.179  -2.093  0.00  0.00    -0.078 A 
ATOM      4  C2  OXE d   1       1.773  -2.927  -1.289  0.00  0.00    -0.078 A 
ATOM      5  C3  OXE d   1       1.766  -2.708   0.086  0.00  0.00     0.003 A 
ATOM      6  C4  OXE d   1       2.476  -1.633   0.635  0.00  0.00    -0.002 A 
ATOM      7  C5  OXE d   1       3.292  -0.834  -0.172  0.00  0.00    -0.002 A 
ATOM      8  C6  OXE d   1       3.397  -1.119  -1.529  0.00  0.00     0.003 A 
ENDROOT
TORSDOF 0
ENDMDL
