MODEL 1
REMARK minimizedAffinity 10.6556873
REMARK minimizedRMSD -1
REMARK  0 active torsions:
REMARK  status: ('A' for Active; 'I' for Inactive)
ROOT
ATOM      1  C2' OXE d   1       2.933  -3.196  -4.075  0.00  0.00     0.078 C 
ATOM      2  C1' OXE d   1       2.661  -2.238  -1.450  0.00  0.00     0.078 C 
ATOM      3  C1  OXE d   1       1.763  -3.370  -1.883  0.00  0.00    -0.078 A 
ATOM      4  C2  OXE d   1       1.870  -3.801  -3.183  0.00  0.00    -0.078 A 
ATOM      5  C3  OXE d   1       1.104  -4.878  -3.618  0.00  0.00     0.003 A 
ATOM      6  C4  OXE d   1       0.116  -5.426  -2.790  0.00  0.00    -0.002 A 
ATOM      7  C5  OXE d   1      -0.037  -4.975  -1.475  0.00  0.00    -0.002 A 
ATOM      8  C6  OXE d   1       0.805  -3.979  -0.993  0.00  0.00     0.003 A 
ENDROOT
TORSDOF 0
ENDMDL
