MODEL 1
REMARK minimizedAffinity 13.0856733
REMARK minimizedRMSD -1
REMARK  0 active torsions:
REMARK  status: ('A' for Active; 'I' for Inactive)
ROOT
ATOM      1  C2' OXE d   1       1.829  -2.547  -3.204  0.00  0.00     0.078 C 
ATOM      2  C1' OXE d   1       3.823  -4.365  -3.979  0.00  0.00     0.078 C 
ATOM      3  C1  OXE d   1       4.262  -3.039  -3.409  0.00  0.00    -0.078 A 
ATOM      4  C2  OXE d   1       3.280  -2.137  -3.076  0.00  0.00    -0.078 A 
ATOM      5  C3  OXE d   1       3.629  -0.921  -2.496  0.00  0.00     0.003 A 
ATOM      6  C4  OXE d   1       4.974  -0.546  -2.391  0.00  0.00    -0.002 A 
ATOM      7  C5  OXE d   1       5.990  -1.434  -2.761  0.00  0.00    -0.002 A 
ATOM      8  C6  OXE d   1       5.652  -2.698  -3.231  0.00  0.00     0.003 A 
ENDROOT
TORSDOF 0
ENDMDL
