MODEL 1
REMARK minimizedAffinity 16.848856
REMARK minimizedRMSD -1
REMARK  0 active torsions:
REMARK  status: ('A' for Active; 'I' for Inactive)
ROOT
ATOM      1  C1  DEN d   1       3.619   1.527   0.005  0.00  0.00     0.130 A 
ATOM      2  C2  DEN d   1       2.495   0.612  -0.178  0.00  0.00    -0.031 A 
ATOM      3  C3  DEN d   1       2.561   0.078  -1.553  0.00  0.00     0.027 A 
ATOM      4  C4  DEN d   1       4.286   0.573  -3.406  0.00  0.00     0.027 A 
ATOM      5  C5  DEN d   1       5.415   1.295  -3.724  0.00  0.00    -0.003 A 
ATOM      6  C6  DEN d   1       6.000   2.163  -2.841  0.00  0.00     0.001 A 
ATOM      7  C7  DEN d   1       5.484   2.298  -1.579  0.00  0.00     0.017 A 
ATOM      8  C8  DEN d   1       4.341   1.579  -1.253  0.00  0.00    -0.094 A 
ATOM      9  C9  DEN d   1       3.772   0.697  -2.156  0.00  0.00    -0.072 A 
ENDROOT
TORSDOF 0
ENDMDL
