MODEL 1
REMARK minimizedAffinity 9.95522213
REMARK minimizedRMSD -1
REMARK  1 active torsions:
REMARK  status: ('A' for Active; 'I' for Inactive)
REMARK    1  A    between atoms: C1_2  and  C2_3 
ROOT
ATOM      1  C2  UNL d   1       0.003   4.212  -3.528  0.00  0.00    -0.081 A 
ATOM      2  C3  UNL d   1      -1.305   3.750  -3.334  0.00  0.00     0.006 A 
ATOM      3  C4  UNL d   1      -1.659   3.106  -2.146  0.00  0.00     0.002 A 
ATOM      4  C5  UNL d   1      -0.715   2.920  -1.131  0.00  0.00    -0.080 A 
ATOM      5  C6  UNL d   1      -1.090   2.257   0.161  0.00  0.00     0.076 C 
ATOM      6  C7  UNL d   1       0.596   3.366  -1.332  0.00  0.00     0.002 A 
ATOM      7  C8  UNL d   1       0.951   4.009  -2.519  0.00  0.00     0.006 A 
ENDROOT
BRANCH   1   8
ATOM      8  C1  UNL d   1       0.372   4.965  -4.781  0.00  0.00     0.054 C 
ATOM      9  C   UNL d   1       1.453   6.000  -4.507  0.00  0.00     0.018 C 
ENDBRANCH   1   8
TORSDOF 1
ENDMDL
