MODEL 1
REMARK minimizedAffinity 13.655077
REMARK minimizedRMSD -1
REMARK  1 active torsions:
REMARK  status: ('A' for Active; 'I' for Inactive)
REMARK    1  A    between atoms: C1_2  and  C2_3 
ROOT
ATOM      1  C2  UNL d   1      -4.622   5.917   2.427  0.00  0.00    -0.081 A 
ATOM      2  C3  UNL d   1      -5.878   5.998   1.814  0.00  0.00     0.006 A 
ATOM      3  C4  UNL d   1      -6.000   5.862   0.429  0.00  0.00     0.002 A 
ATOM      4  C5  UNL d   1      -4.870   5.635  -0.364  0.00  0.00    -0.080 A 
ATOM      5  C6  UNL d   1      -4.991   5.457  -1.848  0.00  0.00     0.076 C 
ATOM      6  C7  UNL d   1      -3.613   5.572   0.247  0.00  0.00     0.002 A 
ATOM      7  C8  UNL d   1      -3.491   5.709   1.631  0.00  0.00     0.006 A 
ENDROOT
BRANCH   1   8
ATOM      8  C1  UNL d   1      -4.495   5.999   3.927  0.00  0.00     0.054 C 
ATOM      9  C   UNL d   1      -5.859   5.956   4.601  0.00  0.00     0.018 C 
ENDBRANCH   1   8
TORSDOF 1
ENDMDL
