MODEL 1
REMARK minimizedAffinity 15.6830473
REMARK minimizedRMSD -1
REMARK  1 active torsions:
REMARK  status: ('A' for Active; 'I' for Inactive)
REMARK    1  A    between atoms: C1_2  and  C2_3 
ROOT
ATOM      1  C2  UNL d   1      -4.565   5.964   2.283  0.00  0.00    -0.081 A 
ATOM      2  C3  UNL d   1      -5.827   5.999   1.677  0.00  0.00     0.006 A 
ATOM      3  C4  UNL d   1      -5.948   5.907   0.288  0.00  0.00     0.002 A 
ATOM      4  C5  UNL d   1      -4.812   5.770  -0.516  0.00  0.00    -0.080 A 
ATOM      5  C6  UNL d   1      -4.930   5.640  -2.005  0.00  0.00     0.076 C 
ATOM      6  C7  UNL d   1      -3.550   5.753   0.088  0.00  0.00     0.002 A 
ATOM      7  C8  UNL d   1      -3.428   5.846   1.476  0.00  0.00     0.006 A 
ENDROOT
BRANCH   1   8
ATOM      8  C1  UNL d   1      -4.435   5.999   3.784  0.00  0.00     0.054 C 
ATOM      9  C   UNL d   1      -5.800   5.999   4.458  0.00  0.00     0.018 C 
ENDBRANCH   1   8
TORSDOF 1
ENDMDL
