MODEL 1
REMARK minimizedAffinity 9.86594963
REMARK minimizedRMSD -1
REMARK  1 active torsions:
REMARK  status: ('A' for Active; 'I' for Inactive)
REMARK    1  A    between atoms: C1_2  and  C2_3 
ROOT
ATOM      1  C2  UNL d   1      -4.440   5.934   2.665  0.00  0.00    -0.081 A 
ATOM      2  C3  UNL d   1      -3.284   5.888   1.876  0.00  0.00     0.006 A 
ATOM      3  C4  UNL d   1      -3.377   5.896   0.483  0.00  0.00     0.002 A 
ATOM      4  C5  UNL d   1      -4.626   5.958  -0.145  0.00  0.00    -0.080 A 
ATOM      5  C6  UNL d   1      -4.738   5.998  -1.640  0.00  0.00     0.076 C 
ATOM      6  C7  UNL d   1      -5.782   5.987   0.643  0.00  0.00     0.002 A 
ATOM      7  C8  UNL d   1      -5.689   5.978   2.036  0.00  0.00     0.006 A 
ENDROOT
BRANCH   1   8
ATOM      8  C1  UNL d   1      -4.340   5.991   4.168  0.00  0.00     0.054 C 
ATOM      9  C   UNL d   1      -5.717   5.950   4.816  0.00  0.00     0.018 C 
ENDBRANCH   1   8
TORSDOF 1
ENDMDL
