MODEL 1
REMARK minimizedAffinity 14.0860939
REMARK minimizedRMSD -1
REMARK  1 active torsions:
REMARK  status: ('A' for Active; 'I' for Inactive)
REMARK    1  A    between atoms: C1_2  and  C2_3 
ROOT
ATOM      1  C2  UNL d   1       1.296  -3.342  -2.476  0.00  0.00    -0.081 A 
ATOM      2  C3  UNL d   1       0.784  -3.760  -3.711  0.00  0.00     0.006 A 
ATOM      3  C4  UNL d   1       0.951  -2.970  -4.851  0.00  0.00     0.002 A 
ATOM      4  C5  UNL d   1       1.640  -1.755  -4.777  0.00  0.00    -0.080 A 
ATOM      5  C6  UNL d   1       1.854  -0.912  -6.000  0.00  0.00     0.076 C 
ATOM      6  C7  UNL d   1       2.137  -1.329  -3.541  0.00  0.00     0.002 A 
ATOM      7  C8  UNL d   1       1.969  -2.117  -2.400  0.00  0.00     0.006 A 
ENDROOT
BRANCH   1   8
ATOM      8  C1  UNL d   1       1.173  -4.221  -1.258  0.00  0.00     0.054 C 
ATOM      9  C   UNL d   1       1.896  -5.545  -1.456  0.00  0.00     0.018 C 
ENDBRANCH   1   8
TORSDOF 1
ENDMDL
