MODEL 1
REMARK minimizedAffinity 14.1859903
REMARK minimizedRMSD -1
REMARK  1 active torsions:
REMARK  status: ('A' for Active; 'I' for Inactive)
REMARK    1  A    between atoms: C1_2  and  C2_3 
ROOT
ATOM      1  C2  UNL d   1       0.178   3.159  -0.151  0.00  0.00    -0.081 A 
ATOM      2  C3  UNL d   1       0.951   2.585   0.866  0.00  0.00     0.006 A 
ATOM      3  C4  UNL d   1       0.341   1.898   1.918  0.00  0.00     0.002 A 
ATOM      4  C5  UNL d   1      -1.051   1.767   1.967  0.00  0.00    -0.080 A 
ATOM      5  C6  UNL d   1      -1.718   1.007   3.074  0.00  0.00     0.076 C 
ATOM      6  C7  UNL d   1      -1.825   2.356   0.961  0.00  0.00     0.002 A 
ATOM      7  C8  UNL d   1      -1.215   3.043  -0.091  0.00  0.00     0.006 A 
ENDROOT
BRANCH   1   8
ATOM      8  C1  UNL d   1       0.837   3.845  -1.320  0.00  0.00     0.054 C 
ATOM      9  C   UNL d   1       1.159   2.856  -2.431  0.00  0.00     0.018 C 
ENDBRANCH   1   8
TORSDOF 1
ENDMDL
