MODEL 1
REMARK minimizedAffinity 12.8928633
REMARK minimizedRMSD -1
REMARK  1 active torsions:
REMARK  status: ('A' for Active; 'I' for Inactive)
REMARK    1  A    between atoms: C1_2  and  C2_3 
ROOT
ATOM      1  C2  UNL d   1       1.392  -3.086  -2.819  0.00  0.00    -0.081 A 
ATOM      2  C3  UNL d   1       1.718  -4.306  -2.213  0.00  0.00     0.006 A 
ATOM      3  C4  UNL d   1       1.867  -4.391  -0.827  0.00  0.00     0.002 A 
ATOM      4  C5  UNL d   1       1.685  -3.261  -0.023  0.00  0.00    -0.080 A 
ATOM      5  C6  UNL d   1       1.813  -3.345   1.469  0.00  0.00     0.076 C 
ATOM      6  C7  UNL d   1       1.377  -2.038  -0.629  0.00  0.00     0.002 A 
ATOM      7  C8  UNL d   1       1.229  -1.952  -2.015  0.00  0.00     0.006 A 
ENDROOT
BRANCH   1   8
ATOM      8  C1  UNL d   1       1.167  -3.005  -4.307  0.00  0.00     0.054 C 
ATOM      9  C   UNL d   1       1.931  -1.839  -4.919  0.00  0.00     0.018 C 
ENDBRANCH   1   8
TORSDOF 1
ENDMDL
