MODEL 1
REMARK minimizedAffinity 19.4825268
REMARK minimizedRMSD -1
REMARK  1 active torsions:
REMARK  status: ('A' for Active; 'I' for Inactive)
REMARK    1  A    between atoms: C1_2  and  C2_3 
ROOT
ATOM      1  C2  UNL d   1      -0.898   2.994  -1.188  0.00  0.00    -0.081 A 
ATOM      2  C3  UNL d   1       0.417   3.186  -0.747  0.00  0.00     0.006 A 
ATOM      3  C4  UNL d   1       0.887   2.521   0.388  0.00  0.00     0.002 A 
ATOM      4  C5  UNL d   1       0.054   1.648   1.095  0.00  0.00    -0.080 A 
ATOM      5  C6  UNL d   1       0.556   0.905   2.297  0.00  0.00     0.076 C 
ATOM      6  C7  UNL d   1      -1.265   1.470   0.665  0.00  0.00     0.002 A 
ATOM      7  C8  UNL d   1      -1.736   2.135  -0.469  0.00  0.00     0.006 A 
ENDROOT
BRANCH   1   8
ATOM      8  C1  UNL d   1      -1.388   3.660  -2.448  0.00  0.00     0.054 C 
ATOM      9  C   UNL d   1      -2.249   2.715  -3.274  0.00  0.00     0.018 C 
ENDBRANCH   1   8
TORSDOF 1
ENDMDL
