MODEL 1
REMARK minimizedAffinity 16.8307838
REMARK minimizedRMSD -1
REMARK  1 active torsions:
REMARK  status: ('A' for Active; 'I' for Inactive)
REMARK    1  A    between atoms: C1_2  and  C2_3 
ROOT
ATOM      1  C2  UNL d   1       0.866   3.887   1.389  0.00  0.00    -0.081 A 
ATOM      2  C3  UNL d   1       1.108   3.722   2.758  0.00  0.00     0.006 A 
ATOM      3  C4  UNL d   1       0.542   2.650   3.454  0.00  0.00     0.002 A 
ATOM      4  C5  UNL d   1      -0.268   1.723   2.790  0.00  0.00    -0.080 A 
ATOM      5  C6  UNL d   1      -0.857   0.551   3.518  0.00  0.00     0.076 C 
ATOM      6  C7  UNL d   1      -0.525   1.898   1.426  0.00  0.00     0.002 A 
ATOM      7  C8  UNL d   1       0.040   2.969   0.731  0.00  0.00     0.006 A 
ENDROOT
BRANCH   1   8
ATOM      8  C1  UNL d   1       1.527   5.005   0.623  0.00  0.00     0.054 C 
ATOM      9  C   UNL d   1       2.204   5.993   1.561  0.00  0.00     0.018 C 
ENDBRANCH   1   8
TORSDOF 1
ENDMDL
