MODEL 1
REMARK minimizedAffinity 9.84000874
REMARK minimizedRMSD -1
REMARK  1 active torsions:
REMARK  status: ('A' for Active; 'I' for Inactive)
REMARK    1  A    between atoms: C1_2  and  C2_3 
ROOT
ATOM      1  C2  UNL d   1      -1.261   2.157  -0.199  0.00  0.00    -0.081 A 
ATOM      2  C3  UNL d   1      -1.729   3.070  -1.151  0.00  0.00     0.006 A 
ATOM      3  C4  UNL d   1      -0.862   4.005  -1.722  0.00  0.00     0.002 A 
ATOM      4  C5  UNL d   1       0.488   4.036  -1.357  0.00  0.00    -0.080 A 
ATOM      5  C6  UNL d   1       1.437   5.015  -1.984  0.00  0.00     0.076 C 
ATOM      6  C7  UNL d   1       0.952   3.135  -0.392  0.00  0.00     0.002 A 
ATOM      7  C8  UNL d   1       0.085   2.201   0.180  0.00  0.00     0.006 A 
ENDROOT
BRANCH   1   8
ATOM      8  C1  UNL d   1      -2.179   1.106   0.371  0.00  0.00     0.054 C 
ATOM      9  C   UNL d   1      -2.761   0.226  -0.726  0.00  0.00     0.018 C 
ENDBRANCH   1   8
TORSDOF 1
ENDMDL
