MODEL 1
REMARK minimizedAffinity 12.550931
REMARK minimizedRMSD -1
REMARK  1 active torsions:
REMARK  status: ('A' for Active; 'I' for Inactive)
REMARK    1  A    between atoms: C1_2  and  C2_3 
ROOT
ATOM      1  C2  UNL d   1       1.833  -2.754  -2.847  0.00  0.00    -0.081 A 
ATOM      2  C3  UNL d   1       1.744  -1.530  -2.173  0.00  0.00     0.006 A 
ATOM      3  C4  UNL d   1       1.793  -1.484  -0.778  0.00  0.00     0.002 A 
ATOM      4  C5  UNL d   1       1.939  -2.659  -0.034  0.00  0.00    -0.080 A 
ATOM      5  C6  UNL d   1       2.024  -2.621   1.463  0.00  0.00     0.076 C 
ATOM      6  C7  UNL d   1       2.011  -3.884  -0.706  0.00  0.00     0.002 A 
ATOM      7  C8  UNL d   1       1.961  -3.931  -2.101  0.00  0.00     0.006 A 
ENDROOT
BRANCH   1   8
ATOM      8  C1  UNL d   1       1.846  -2.801  -4.354  0.00  0.00     0.054 C 
ATOM      9  C   UNL d   1       2.186  -1.441  -4.947  0.00  0.00     0.018 C 
ENDBRANCH   1   8
TORSDOF 1
ENDMDL
