MODEL 1
REMARK minimizedAffinity 5.98084259
REMARK minimizedRMSD -1
REMARK  1 active torsions:
REMARK  status: ('A' for Active; 'I' for Inactive)
REMARK    1  A    between atoms: C1_2  and  C2_3 
ROOT
ATOM      1  C2  UNL d   1      -5.161  -3.019   1.404  0.00  0.00    -0.081 A 
ATOM      2  C3  UNL d   1      -5.735  -4.263   1.115  0.00  0.00     0.006 A 
ATOM      3  C4  UNL d   1      -5.996  -5.178   2.138  0.00  0.00     0.002 A 
ATOM      4  C5  UNL d   1      -5.695  -4.861   3.467  0.00  0.00    -0.080 A 
ATOM      5  C6  UNL d   1      -5.998  -5.821   4.579  0.00  0.00     0.076 C 
ATOM      6  C7  UNL d   1      -5.105  -3.625   3.754  0.00  0.00     0.002 A 
ATOM      7  C8  UNL d   1      -4.844  -2.711   2.731  0.00  0.00     0.006 A 
ENDROOT
BRANCH   1   8
ATOM      8  C1  UNL d   1      -4.938  -2.006   0.311  0.00  0.00     0.054 C 
ATOM      9  C   UNL d   1      -5.260  -0.597   0.789  0.00  0.00     0.018 C 
ENDBRANCH   1   8
TORSDOF 1
ENDMDL
