MODEL 1
REMARK minimizedAffinity 16.4390144
REMARK minimizedRMSD -1
REMARK  1 active torsions:
REMARK  status: ('A' for Active; 'I' for Inactive)
REMARK    1  A    between atoms: C1_2  and  C2_3 
ROOT
ATOM      1  C2  UNL d   1      -0.803   4.034  -2.217  0.00  0.00    -0.081 A 
ATOM      2  C3  UNL d   1      -1.228   5.312  -1.833  0.00  0.00     0.006 A 
ATOM      3  C4  UNL d   1      -0.656   5.947  -0.728  0.00  0.00     0.002 A 
ATOM      4  C5  UNL d   1       0.354   5.317   0.008  0.00  0.00    -0.080 A 
ATOM      5  C6  UNL d   1       0.996   6.000   1.179  0.00  0.00     0.076 C 
ATOM      6  C7  UNL d   1       0.766   4.033  -0.364  0.00  0.00     0.002 A 
ATOM      7  C8  UNL d   1       0.195   3.399  -1.469  0.00  0.00     0.006 A 
ENDROOT
BRANCH   1   8
ATOM      8  C1  UNL d   1      -1.371   3.375  -3.447  0.00  0.00     0.054 C 
ATOM      9  C   UNL d   1      -2.829   2.988  -3.244  0.00  0.00     0.018 C 
ENDBRANCH   1   8
TORSDOF 1
ENDMDL
