MODEL 1
REMARK minimizedAffinity 13.8865061
REMARK minimizedRMSD -1
REMARK  1 active torsions:
REMARK  status: ('A' for Active; 'I' for Inactive)
REMARK    1  A    between atoms: C1_2  and  C2_3 
ROOT
ATOM      1  C2  UNL d   1      -1.470   5.154   0.626  0.00  0.00    -0.081 A 
ATOM      2  C3  UNL d   1      -0.782   5.848  -0.377  0.00  0.00     0.006 A 
ATOM      3  C4  UNL d   1       0.086   5.172  -1.238  0.00  0.00     0.002 A 
ATOM      4  C5  UNL d   1       0.275   3.791  -1.115  0.00  0.00    -0.080 A 
ATOM      5  C6  UNL d   1       1.180   3.048  -2.052  0.00  0.00     0.076 C 
ATOM      6  C7  UNL d   1      -0.399   3.101  -0.101  0.00  0.00     0.002 A 
ATOM      7  C8  UNL d   1      -1.266   3.777   0.760  0.00  0.00     0.006 A 
ENDROOT
BRANCH   1   8
ATOM      8  C1  UNL d   1      -2.455   5.870   1.515  0.00  0.00     0.054 C 
ATOM      9  C   UNL d   1      -3.887   5.471   1.186  0.00  0.00     0.018 C 
ENDBRANCH   1   8
TORSDOF 1
ENDMDL
