MODEL 1
REMARK minimizedAffinity -2.99704528
REMARK minimizedRMSD -1
REMARK  0 active torsions:
REMARK  status: ('A' for Active; 'I' for Inactive)
ROOT
ATOM      1  C   UNL d   1       1.015  -2.084  -0.943  0.00  0.00     0.020 A 
ATOM      2  C1  UNL d   1       2.127  -1.782  -0.158  0.00  0.00     0.020 A 
ATOM      3  C2  UNL d   1       2.109  -0.662   0.677  0.00  0.00     0.034 A 
ATOM      4  C3  UNL d   1       0.977   0.159   0.727  0.00  0.00     0.017 A 
ATOM      5  C4  UNL d   1      -0.138  -0.145  -0.062  0.00  0.00     0.017 A 
ATOM      6  C5  UNL d   1      -0.115  -1.267  -0.895  0.00  0.00     0.034 A 
ATOM      7 Cl   UNL d   1      -1.571   0.822  -0.053  0.00  0.00    -0.070 Cl
ATOM      8 Cl1  UNL d   1       1.024   1.527   1.782  0.00  0.00    -0.070 Cl
ENDROOT
TORSDOF 0
ENDMDL
