MODEL 1
REMARK minimizedAffinity -3.95231581
REMARK minimizedRMSD -1
REMARK  0 active torsions:
REMARK  status: ('A' for Active; 'I' for Inactive)
ROOT
ATOM      1  C   UNL d   1       2.566  -1.741  -0.169  0.00  0.00     0.020 A 
ATOM      2  C1  UNL d   1       2.726  -1.933   1.202  0.00  0.00     0.020 A 
ATOM      3  C2  UNL d   1       1.774  -1.431   2.093  0.00  0.00     0.034 A 
ATOM      4  C3  UNL d   1       0.659  -0.734   1.614  0.00  0.00     0.017 A 
ATOM      5  C4  UNL d   1       0.500  -0.542   0.237  0.00  0.00     0.017 A 
ATOM      6  C5  UNL d   1       1.455  -1.046  -0.651  0.00  0.00     0.034 A 
ATOM      7 Cl   UNL d   1      -0.850   0.308  -0.430  0.00  0.00    -0.070 Cl
ATOM      8 Cl1  UNL d   1      -0.477  -0.142   2.772  0.00  0.00    -0.070 Cl
ENDROOT
TORSDOF 0
ENDMDL
