MODEL 1
REMARK minimizedAffinity -5.79331636
REMARK minimizedRMSD -1
REMARK  0 active torsions:
REMARK  status: ('A' for Active; 'I' for Inactive)
ROOT
ATOM      1  C   UNL d   1       3.270  -0.893   0.774  0.00  0.00     0.020 A 
ATOM      2  C1  UNL d   1       3.131   0.467   1.050  0.00  0.00     0.020 A 
ATOM      3  C2  UNL d   1       1.953   1.133   0.703  0.00  0.00     0.034 A 
ATOM      4  C3  UNL d   1       0.911   0.440   0.077  0.00  0.00     0.017 A 
ATOM      5  C4  UNL d   1       1.051  -0.925  -0.200  0.00  0.00     0.017 A 
ATOM      6  C5  UNL d   1       2.232  -1.587   0.151  0.00  0.00     0.034 A 
ATOM      7 Cl   UNL d   1      -0.191  -1.847  -0.969  0.00  0.00    -0.070 Cl
ATOM      8 Cl1  UNL d   1      -0.517   1.327  -0.324  0.00  0.00    -0.070 Cl
ENDROOT
TORSDOF 0
ENDMDL
