MODEL 1
REMARK minimizedAffinity 3.51320839
REMARK minimizedRMSD -1
REMARK  0 active torsions:
REMARK  status: ('A' for Active; 'I' for Inactive)
ROOT
ATOM      1  C   UNL d   1      -0.823  -0.228  -0.791  0.00  0.00     0.020 A 
ATOM      2  C1  UNL d   1      -1.075   1.133  -0.626  0.00  0.00     0.020 A 
ATOM      3  C2  UNL d   1      -0.091   1.965  -0.088  0.00  0.00     0.034 A 
ATOM      4  C3  UNL d   1       1.150   1.437   0.286  0.00  0.00     0.017 A 
ATOM      5  C4  UNL d   1       1.402   0.070   0.120  0.00  0.00     0.017 A 
ATOM      6  C5  UNL d   1       0.413  -0.759  -0.419  0.00  0.00     0.034 A 
ATOM      7 Cl   UNL d   1       2.908  -0.655   0.558  0.00  0.00    -0.070 Cl
ATOM      8 Cl1  UNL d   1       2.321   2.524   0.943  0.00  0.00    -0.070 Cl
ENDROOT
TORSDOF 0
ENDMDL
