MODEL 1
REMARK minimizedAffinity -1.25327766
REMARK minimizedRMSD -1
REMARK  0 active torsions:
REMARK  status: ('A' for Active; 'I' for Inactive)
ROOT
ATOM      1  C   UNL d   1      -1.518   0.296   0.003  0.00  0.00     0.020 A 
ATOM      2  C1  UNL d   1      -1.181  -0.793  -0.800  0.00  0.00     0.020 A 
ATOM      3  C2  UNL d   1       0.146  -1.224  -0.871  0.00  0.00     0.034 A 
ATOM      4  C3  UNL d   1       1.140  -0.566  -0.137  0.00  0.00     0.017 A 
ATOM      5  C4  UNL d   1       0.800   0.526   0.669  0.00  0.00     0.017 A 
ATOM      6  C5  UNL d   1      -0.529   0.954   0.736  0.00  0.00     0.034 A 
ATOM      7 Cl   UNL d   1       1.971   1.388   1.603  0.00  0.00    -0.070 Cl
ATOM      8 Cl1  UNL d   1       2.759  -1.153  -0.272  0.00  0.00    -0.070 Cl
ENDROOT
TORSDOF 0
ENDMDL
