MODEL 1
REMARK minimizedAffinity -3.6280241
REMARK minimizedRMSD -1
REMARK  0 active torsions:
REMARK  status: ('A' for Active; 'I' for Inactive)
ROOT
ATOM      1  C   UNL d   1       1.684  -0.622   0.590  0.00  0.00     0.020 A 
ATOM      2  C1  UNL d   1       0.591  -1.251   1.185  0.00  0.00     0.020 A 
ATOM      3  C2  UNL d   1      -0.694  -0.736   1.003  0.00  0.00     0.034 A 
ATOM      4  C3  UNL d   1      -0.890   0.410   0.225  0.00  0.00     0.017 A 
ATOM      5  C4  UNL d   1       0.207   1.040  -0.372  0.00  0.00     0.017 A 
ATOM      6  C5  UNL d   1       1.492   0.521  -0.187  0.00  0.00     0.034 A 
ATOM      7 Cl   UNL d   1       0.045   2.458  -1.347  0.00  0.00    -0.070 Cl
ATOM      8 Cl1  UNL d   1      -2.507   0.991   0.042  0.00  0.00    -0.070 Cl
ENDROOT
TORSDOF 0
ENDMDL
