MODEL 1
REMARK minimizedAffinity -3.39263844
REMARK minimizedRMSD -1
REMARK  0 active torsions:
REMARK  status: ('A' for Active; 'I' for Inactive)
ROOT
ATOM      1  C   UNL d   1      -0.145  -0.670  -0.650  0.00  0.00     0.020 A 
ATOM      2  C1  UNL d   1       1.010  -1.450  -0.605  0.00  0.00     0.020 A 
ATOM      3  C2  UNL d   1       2.263  -0.838  -0.529  0.00  0.00     0.034 A 
ATOM      4  C3  UNL d   1       2.364   0.558  -0.498  0.00  0.00     0.017 A 
ATOM      5  C4  UNL d   1       1.204   1.340  -0.544  0.00  0.00     0.017 A 
ATOM      6  C5  UNL d   1      -0.048   0.722  -0.620  0.00  0.00     0.034 A 
ATOM      7 Cl   UNL d   1       1.249   3.067  -0.510  0.00  0.00    -0.070 Cl
ATOM      8 Cl1  UNL d   1       3.946   1.247  -0.403  0.00  0.00    -0.070 Cl
ENDROOT
TORSDOF 0
ENDMDL
