MODEL 1
REMARK minimizedAffinity -3.71222878
REMARK minimizedRMSD -1
REMARK  0 active torsions:
REMARK  status: ('A' for Active; 'I' for Inactive)
ROOT
ATOM      1  C   UNL d   1       3.370  -0.966  -0.511  0.00  0.00     0.020 A 
ATOM      2  C1  UNL d   1       2.299  -1.859  -0.493  0.00  0.00     0.020 A 
ATOM      3  C2  UNL d   1       0.990  -1.377  -0.428  0.00  0.00     0.034 A 
ATOM      4  C3  UNL d   1       0.749   0.001  -0.382  0.00  0.00     0.017 A 
ATOM      5  C4  UNL d   1       1.825   0.896  -0.401  0.00  0.00     0.017 A 
ATOM      6  C5  UNL d   1       3.133   0.408  -0.465  0.00  0.00     0.034 A 
ATOM      7 Cl   UNL d   1       1.606   2.610  -0.346  0.00  0.00    -0.070 Cl
ATOM      8 Cl1  UNL d   1      -0.895   0.527  -0.303  0.00  0.00    -0.070 Cl
ENDROOT
TORSDOF 0
ENDMDL
