MODEL 1
REMARK minimizedAffinity -3.67349863
REMARK minimizedRMSD -1
REMARK  0 active torsions:
REMARK  status: ('A' for Active; 'I' for Inactive)
ROOT
ATOM      1  C   UNL d   1       3.325  -0.516   0.766  0.00  0.00     0.020 A 
ATOM      2  C1  UNL d   1       3.648   0.836   0.653  0.00  0.00     0.020 A 
ATOM      3  C2  UNL d   1       2.670   1.757   0.269  0.00  0.00     0.034 A 
ATOM      4  C3  UNL d   1       1.366   1.327  -0.003  0.00  0.00     0.017 A 
ATOM      5  C4  UNL d   1       1.044  -0.030   0.111  0.00  0.00     0.017 A 
ATOM      6  C5  UNL d   1       2.026  -0.948   0.495  0.00  0.00     0.034 A 
ATOM      7 Cl   UNL d   1      -0.543  -0.635  -0.208  0.00  0.00    -0.070 Cl
ATOM      8 Cl1  UNL d   1       0.208   2.521  -0.472  0.00  0.00    -0.070 Cl
ENDROOT
TORSDOF 0
ENDMDL
