MODEL 1
REMARK minimizedAffinity -5.86799431
REMARK minimizedRMSD -1
REMARK  0 active torsions:
REMARK  status: ('A' for Active; 'I' for Inactive)
ROOT
ATOM      1  C   UNL d   1       3.320   0.097   1.086  0.00  0.00     0.020 A 
ATOM      2  C1  UNL d   1       3.298  -1.289   0.940  0.00  0.00     0.020 A 
ATOM      3  C2  UNL d   1       2.186  -1.913   0.370  0.00  0.00     0.034 A 
ATOM      4  C3  UNL d   1       1.092  -1.151  -0.056  0.00  0.00     0.017 A 
ATOM      5  C4  UNL d   1       1.116   0.241   0.090  0.00  0.00     0.017 A 
ATOM      6  C5  UNL d   1       2.232   0.860   0.661  0.00  0.00     0.034 A 
ATOM      7 Cl   UNL d   1      -0.195   1.248  -0.412  0.00  0.00    -0.070 Cl
ATOM      8 Cl1  UNL d   1      -0.249  -1.989  -0.753  0.00  0.00    -0.070 Cl
ENDROOT
TORSDOF 0
ENDMDL
