MODEL 1
REMARK minimizedAffinity -5.69528818
REMARK minimizedRMSD -1
REMARK  0 active torsions:
REMARK  status: ('A' for Active; 'I' for Inactive)
ROOT
ATOM      1  C   UNL d   1       1.503  -1.786  -0.534  0.00  0.00     0.020 A 
ATOM      2  C1  UNL d   1       0.207  -1.292  -0.387  0.00  0.00     0.020 A 
ATOM      3  C2  UNL d   1      -0.026   0.083  -0.442  0.00  0.00     0.034 A 
ATOM      4  C3  UNL d   1       1.038   0.970  -0.645  0.00  0.00     0.017 A 
ATOM      5  C4  UNL d   1       2.338   0.473  -0.793  0.00  0.00     0.017 A 
ATOM      6  C5  UNL d   1       2.566  -0.905  -0.737  0.00  0.00     0.034 A 
ATOM      7 Cl   UNL d   1       3.702   1.505  -1.047  0.00  0.00    -0.070 Cl
ATOM      8 Cl1  UNL d   1       0.677   2.659  -0.704  0.00  0.00    -0.070 Cl
ENDROOT
TORSDOF 0
ENDMDL
