MODEL 1
REMARK minimizedAffinity -2.83989215
REMARK minimizedRMSD -1
REMARK  0 active torsions:
REMARK  status: ('A' for Active; 'I' for Inactive)
ROOT
ATOM      1  C   UNL d   1       3.999   0.080  -0.036  0.00  0.00     0.020 A 
ATOM      2  C1  UNL d   1       3.783  -1.221   0.418  0.00  0.00     0.020 A 
ATOM      3  C2  UNL d   1       2.483  -1.721   0.512  0.00  0.00     0.034 A 
ATOM      4  C3  UNL d   1       1.393  -0.920   0.154  0.00  0.00     0.017 A 
ATOM      5  C4  UNL d   1       1.610   0.386  -0.301  0.00  0.00     0.017 A 
ATOM      6  C5  UNL d   1       2.914   0.881  -0.394  0.00  0.00     0.034 A 
ATOM      7 Cl   UNL d   1       0.316   1.434  -0.762  0.00  0.00    -0.070 Cl
ATOM      8 Cl1  UNL d   1      -0.188  -1.603   0.296  0.00  0.00    -0.070 Cl
ENDROOT
TORSDOF 0
ENDMDL
