MODEL 1
REMARK minimizedAffinity -4.44134188
REMARK minimizedRMSD -1
REMARK  0 active torsions:
REMARK  status: ('A' for Active; 'I' for Inactive)
ROOT
ATOM      1  C   UNL d   1      -3.254  -0.103   1.279  0.00  0.00     0.023 A 
ATOM      2  C1  UNL d   1      -4.311   0.408   2.032  0.00  0.00     0.003 A 
ATOM      3  C2  UNL d   1      -4.061   1.320   3.060  0.00  0.00     0.048 A 
ATOM      4  C3  UNL d   1      -2.752   1.717   3.328  0.00  0.00     0.023 A 
ATOM      5  C4  UNL d   1      -1.691   1.210   2.576  0.00  0.00     0.048 A 
ATOM      6  C5  UNL d   1      -1.946   0.297   1.550  0.00  0.00     0.003 A 
ATOM      7  I   UNL d   1      -2.377   3.075   4.856  0.00  0.00    -0.146 I 
ENDROOT
TORSDOF 0
ENDMDL
