MODEL 1
REMARK minimizedAffinity -2.21362686
REMARK minimizedRMSD -1
REMARK  0 active torsions:
REMARK  status: ('A' for Active; 'I' for Inactive)
ROOT
ATOM      1  C   UNL d   1       1.352   0.267  -1.944  0.00  0.00     0.023 A 
ATOM      2  C1  UNL d   1       1.239   1.279  -0.991  0.00  0.00     0.003 A 
ATOM      3  C2  UNL d   1       0.427   1.096   0.131  0.00  0.00     0.048 A 
ATOM      4  C3  UNL d   1      -0.268  -0.102   0.293  0.00  0.00     0.023 A 
ATOM      5  C4  UNL d   1      -0.157  -1.118  -0.658  0.00  0.00     0.048 A 
ATOM      6  C5  UNL d   1       0.656  -0.930  -1.778  0.00  0.00     0.003 A 
ATOM      7  I   UNL d   1      -1.477  -0.377   1.961  0.00  0.00    -0.146 I 
ENDROOT
TORSDOF 0
ENDMDL
