MODEL 1
REMARK minimizedAffinity -2.30971694
REMARK minimizedRMSD -1
REMARK  0 active torsions:
REMARK  status: ('A' for Active; 'I' for Inactive)
ROOT
ATOM      1  C   UNL d   1      -2.043  -1.070   1.130  0.00  0.00     0.023 A 
ATOM      2  C1  UNL d   1      -1.007  -0.282   1.631  0.00  0.00     0.003 A 
ATOM      3  C2  UNL d   1      -1.292   0.802   2.463  0.00  0.00     0.048 A 
ATOM      4  C3  UNL d   1      -2.616   1.092   2.791  0.00  0.00     0.023 A 
ATOM      5  C4  UNL d   1      -3.656   0.305   2.293  0.00  0.00     0.048 A 
ATOM      6  C5  UNL d   1      -3.366  -0.777   1.461  0.00  0.00     0.003 A 
ATOM      7  I   UNL d   1      -3.044   2.705   4.030  0.00  0.00    -0.146 I 
ENDROOT
TORSDOF 0
ENDMDL
