MODEL 1
REMARK minimizedAffinity 3.62877488
REMARK minimizedRMSD -1
REMARK  0 active torsions:
REMARK  status: ('A' for Active; 'I' for Inactive)
ROOT
ATOM      1  C   UNL d   1       1.006  -0.041  -0.236  0.00  0.00     0.023 A 
ATOM      2  C1  UNL d   1       0.062  -0.947   0.247  0.00  0.00     0.003 A 
ATOM      3  C2  UNL d   1      -1.070  -0.485   0.923  0.00  0.00     0.048 A 
ATOM      4  C3  UNL d   1      -1.251   0.884   1.112  0.00  0.00     0.023 A 
ATOM      5  C4  UNL d   1      -0.309   1.795   0.629  0.00  0.00     0.048 A 
ATOM      6  C5  UNL d   1       0.821   1.328  -0.045  0.00  0.00     0.003 A 
ATOM      7  I   UNL d   1      -2.934   1.575   2.117  0.00  0.00    -0.146 I 
ENDROOT
TORSDOF 0
ENDMDL
