MODEL 1
REMARK minimizedAffinity -4.41907024
REMARK minimizedRMSD -1
REMARK  0 active torsions:
REMARK  status: ('A' for Active; 'I' for Inactive)
ROOT
ATOM      1  C   UNL d   1       1.181  -0.372  -2.415  0.00  0.00     0.023 A 
ATOM      2  C1  UNL d   1       1.344   0.738  -1.586  0.00  0.00     0.003 A 
ATOM      3  C2  UNL d   1       0.786   0.744  -0.306  0.00  0.00     0.048 A 
ATOM      4  C3  UNL d   1       0.066  -0.365   0.139  0.00  0.00     0.023 A 
ATOM      5  C4  UNL d   1      -0.099  -1.478  -0.687  0.00  0.00     0.048 A 
ATOM      6  C5  UNL d   1       0.461  -1.479  -1.966  0.00  0.00     0.003 A 
ATOM      7  I   UNL d   1      -0.765  -0.359   2.043  0.00  0.00    -0.146 I 
ENDROOT
TORSDOF 0
ENDMDL
