MODEL 1
REMARK minimizedAffinity -2.72536039
REMARK minimizedRMSD -1
REMARK  0 active torsions:
REMARK  status: ('A' for Active; 'I' for Inactive)
ROOT
ATOM      1  C   UNL d   1      -2.722   0.265   2.809  0.00  0.00     0.023 A 
ATOM      2  C1  UNL d   1      -3.244  -0.368   1.681  0.00  0.00     0.003 A 
ATOM      3  C2  UNL d   1      -2.401  -0.728   0.628  0.00  0.00     0.048 A 
ATOM      4  C3  UNL d   1      -1.036  -0.454   0.710  0.00  0.00     0.023 A 
ATOM      5  C4  UNL d   1      -0.509   0.178   1.837  0.00  0.00     0.048 A 
ATOM      6  C5  UNL d   1      -1.356   0.537   2.887  0.00  0.00     0.003 A 
ATOM      7  I   UNL d   1       0.220  -0.989  -0.857  0.00  0.00    -0.146 I 
ENDROOT
TORSDOF 0
ENDMDL
