MODEL 1
REMARK minimizedAffinity -2.04335928
REMARK minimizedRMSD -1
REMARK  0 active torsions:
REMARK  status: ('A' for Active; 'I' for Inactive)
ROOT
ATOM      1  C   UNL d   1      -0.553   0.283   1.076  0.00  0.00     0.023 A 
ATOM      2  C1  UNL d   1      -0.442  -1.031   0.620  0.00  0.00     0.003 A 
ATOM      3  C2  UNL d   1       0.294  -1.312  -0.532  0.00  0.00     0.048 A 
ATOM      4  C3  UNL d   1       0.918  -0.274  -1.224  0.00  0.00     0.023 A 
ATOM      5  C4  UNL d   1       0.811   1.042  -0.772  0.00  0.00     0.048 A 
ATOM      6  C5  UNL d   1       0.073   1.318   0.380  0.00  0.00     0.003 A 
ATOM      7  I   UNL d   1       2.015  -0.691  -2.940  0.00  0.00    -0.146 I 
ENDROOT
TORSDOF 0
ENDMDL
