MODEL 1
REMARK minimizedAffinity -4.36829662
REMARK minimizedRMSD -1
REMARK  0 active torsions:
REMARK  status: ('A' for Active; 'I' for Inactive)
ROOT
ATOM      1  C   UNL d   1      -0.590   0.011   1.413  0.00  0.00     0.023 A 
ATOM      2  C1  UNL d   1       0.041   1.171   0.965  0.00  0.00     0.003 A 
ATOM      3  C2  UNL d   1       0.712   1.173  -0.260  0.00  0.00     0.048 A 
ATOM      4  C3  UNL d   1       0.748   0.012  -1.031  0.00  0.00     0.023 A 
ATOM      5  C4  UNL d   1       0.116  -1.151  -0.587  0.00  0.00     0.048 A 
ATOM      6  C5  UNL d   1      -0.553  -1.149   0.638  0.00  0.00     0.003 A 
ATOM      7  I   UNL d   1       1.746   0.014  -2.854  0.00  0.00    -0.146 I 
ENDROOT
TORSDOF 0
ENDMDL
