MODEL 1
REMARK minimizedAffinity -3.08771396
REMARK minimizedRMSD -1
REMARK  0 active torsions:
REMARK  status: ('A' for Active; 'I' for Inactive)
ROOT
ATOM      1  C   UNL d   1       1.655   0.380  -1.251  0.00  0.00     0.023 A 
ATOM      2  C1  UNL d   1       1.477   1.516  -0.462  0.00  0.00     0.003 A 
ATOM      3  C2  UNL d   1       0.493   1.533   0.528  0.00  0.00     0.048 A 
ATOM      4  C3  UNL d   1      -0.309   0.410   0.725  0.00  0.00     0.023 A 
ATOM      5  C4  UNL d   1      -0.134  -0.730  -0.061  0.00  0.00     0.048 A 
ATOM      6  C5  UNL d   1       0.850  -0.742  -1.051  0.00  0.00     0.003 A 
ATOM      7  I   UNL d   1      -1.774   0.432   2.199  0.00  0.00    -0.146 I 
ENDROOT
TORSDOF 0
ENDMDL
