MODEL 1
REMARK minimizedAffinity -0.627240837
REMARK minimizedRMSD -1
REMARK  0 active torsions:
REMARK  status: ('A' for Active; 'I' for Inactive)
ROOT
ATOM      1  C   UNL d   1       1.530   0.013  -1.503  0.00  0.00     0.023 A 
ATOM      2  C1  UNL d   1       1.556   1.074  -0.598  0.00  0.00     0.003 A 
ATOM      3  C2  UNL d   1       0.573   1.176   0.389  0.00  0.00     0.048 A 
ATOM      4  C3  UNL d   1      -0.432   0.212   0.465  0.00  0.00     0.023 A 
ATOM      5  C4  UNL d   1      -0.461  -0.851  -0.438  0.00  0.00     0.048 A 
ATOM      6  C5  UNL d   1       0.523  -0.948  -1.423  0.00  0.00     0.003 A 
ATOM      7  I   UNL d   1      -1.896   0.361   1.933  0.00  0.00    -0.146 I 
ENDROOT
TORSDOF 0
ENDMDL
