MODEL 1
REMARK minimizedAffinity -3.56973696
REMARK minimizedRMSD -1
REMARK  0 active torsions:
REMARK  status: ('A' for Active; 'I' for Inactive)
ROOT
ATOM      1  C   UNL d   1       1.560   0.369  -2.688  0.00  0.00     0.023 A 
ATOM      2  C1  UNL d   1       1.527   1.451  -1.809  0.00  0.00     0.003 A 
ATOM      3  C2  UNL d   1       0.725   1.399  -0.666  0.00  0.00     0.048 A 
ATOM      4  C3  UNL d   1      -0.039   0.262  -0.409  0.00  0.00     0.023 A 
ATOM      5  C4  UNL d   1      -0.008  -0.824  -1.286  0.00  0.00     0.048 A 
ATOM      6  C5  UNL d   1       0.794  -0.767  -2.427  0.00  0.00     0.003 A 
ATOM      7  I   UNL d   1      -1.232   0.182   1.291  0.00  0.00    -0.146 I 
ENDROOT
TORSDOF 0
ENDMDL
