MODEL 1
REMARK minimizedAffinity -4.39079475
REMARK minimizedRMSD -1
REMARK  0 active torsions:
REMARK  status: ('A' for Active; 'I' for Inactive)
ROOT
ATOM      1  C   UNL d   1       2.331  -0.205  -2.508  0.00  0.00     0.023 A 
ATOM      2  C1  UNL d   1       1.337  -1.165  -2.321  0.00  0.00     0.003 A 
ATOM      3  C2  UNL d   1       0.392  -1.006  -1.306  0.00  0.00     0.048 A 
ATOM      4  C3  UNL d   1       0.446   0.117  -0.481  0.00  0.00     0.023 A 
ATOM      5  C4  UNL d   1       1.439   1.081  -0.664  0.00  0.00     0.048 A 
ATOM      6  C5  UNL d   1       2.382   0.917  -1.681  0.00  0.00     0.003 A 
ATOM      7  I   UNL d   1      -0.959   0.356   1.032  0.00  0.00    -0.146 I 
ENDROOT
TORSDOF 0
ENDMDL
