MODEL 1
REMARK minimizedAffinity -2.96839714
REMARK minimizedRMSD -1
REMARK  0 active torsions:
REMARK  status: ('A' for Active; 'I' for Inactive)
ROOT
ATOM      1  C   UNL d   1      -1.487   0.793   2.201  0.00  0.00     0.023 A 
ATOM      2  C1  UNL d   1      -1.338   1.595   1.069  0.00  0.00     0.003 A 
ATOM      3  C2  UNL d   1      -0.383   1.270   0.103  0.00  0.00     0.048 A 
ATOM      4  C3  UNL d   1       0.418   0.142   0.275  0.00  0.00     0.023 A 
ATOM      5  C4  UNL d   1       0.272  -0.663   1.406  0.00  0.00     0.048 A 
ATOM      6  C5  UNL d   1      -0.683  -0.334   2.369  0.00  0.00     0.003 A 
ATOM      7  I   UNL d   1       1.840  -0.343  -1.161  0.00  0.00    -0.146 I 
ENDROOT
TORSDOF 0
ENDMDL
