MODEL 1
REMARK minimizedAffinity -1.56712568
REMARK minimizedRMSD -1
REMARK  0 active torsions:
REMARK  status: ('A' for Active; 'I' for Inactive)
ROOT
ATOM      1  C   UNL d   1      -0.700   1.721   1.607  0.00  0.00     0.023 A 
ATOM      2  C1  UNL d   1      -0.025   1.833   0.392  0.00  0.00     0.003 A 
ATOM      3  C2  UNL d   1       0.543   0.703  -0.200  0.00  0.00     0.048 A 
ATOM      4  C3  UNL d   1       0.429  -0.537   0.428  0.00  0.00     0.023 A 
ATOM      5  C4  UNL d   1      -0.247  -0.654   1.644  0.00  0.00     0.048 A 
ATOM      6  C5  UNL d   1      -0.811   0.479   2.232  0.00  0.00     0.003 A 
ATOM      7  I   UNL d   1       1.273  -2.221  -0.451  0.00  0.00    -0.146 I 
ENDROOT
TORSDOF 0
ENDMDL
