MODEL 1
REMARK minimizedAffinity -4.02739525
REMARK minimizedRMSD -1
REMARK  0 active torsions:
REMARK  status: ('A' for Active; 'I' for Inactive)
ROOT
ATOM      1  C   UNL d   1      -1.814   1.665   1.534  0.00  0.00     0.023 A 
ATOM      2  C1  UNL d   1      -1.594   1.948   0.186  0.00  0.00     0.003 A 
ATOM      3  C2  UNL d   1      -0.773   1.116  -0.578  0.00  0.00     0.048 A 
ATOM      4  C3  UNL d   1      -0.177   0.002   0.012  0.00  0.00     0.023 A 
ATOM      5  C4  UNL d   1      -0.395  -0.286   1.360  0.00  0.00     0.048 A 
ATOM      6  C5  UNL d   1      -1.216   0.550   2.120  0.00  0.00     0.003 A 
ATOM      7  I   UNL d   1       1.044  -1.238  -1.124  0.00  0.00    -0.146 I 
ENDROOT
TORSDOF 0
ENDMDL
