MODEL 1
REMARK minimizedAffinity -2.36898828
REMARK minimizedRMSD -1
REMARK  0 active torsions:
REMARK  status: ('A' for Active; 'I' for Inactive)
ROOT
ATOM      1  C   UNL d   1       1.261  -0.452  -0.875  0.00  0.00     0.023 A 
ATOM      2  C1  UNL d   1       0.839  -0.841   0.397  0.00  0.00     0.003 A 
ATOM      3  C2  UNL d   1      -0.151  -0.111   1.059  0.00  0.00     0.048 A 
ATOM      4  C3  UNL d   1      -0.715   1.006   0.443  0.00  0.00     0.023 A 
ATOM      5  C4  UNL d   1      -0.297   1.397  -0.830  0.00  0.00     0.048 A 
ATOM      6  C5  UNL d   1       0.693   0.665  -1.487  0.00  0.00     0.003 A 
ATOM      7  I   UNL d   1      -2.188   2.093   1.426  0.00  0.00    -0.146 I 
ENDROOT
TORSDOF 0
ENDMDL
