MODEL 1
REMARK minimizedAffinity -3.28705788
REMARK minimizedRMSD -1
REMARK  0 active torsions:
REMARK  status: ('A' for Active; 'I' for Inactive)
ROOT
ATOM      1  C   UNL d   1      -1.908   1.834   1.568  0.00  0.00     0.023 A 
ATOM      2  C1  UNL d   1      -1.617   2.160   0.243  0.00  0.00     0.003 A 
ATOM      3  C2  UNL d   1      -0.856   1.291  -0.540  0.00  0.00     0.048 A 
ATOM      4  C3  UNL d   1      -0.389   0.097   0.007  0.00  0.00     0.023 A 
ATOM      5  C4  UNL d   1      -0.678  -0.235   1.332  0.00  0.00     0.048 A 
ATOM      6  C5  UNL d   1      -1.439   0.638   2.112  0.00  0.00     0.003 A 
ATOM      7  I   UNL d   1       0.745  -1.199  -1.158  0.00  0.00    -0.146 I 
ENDROOT
TORSDOF 0
ENDMDL
