MODEL 1
REMARK minimizedAffinity -4.4227047
REMARK minimizedRMSD -1
REMARK  0 active torsions:
REMARK  status: ('A' for Active; 'I' for Inactive)
ROOT
ATOM      1  C   UNL d   1       0.917  -0.949  -0.577  0.00  0.00     0.023 A 
ATOM      2  C1  UNL d   1       0.510  -1.163   0.740  0.00  0.00     0.003 A 
ATOM      3  C2  UNL d   1      -0.351  -0.257   1.362  0.00  0.00     0.048 A 
ATOM      4  C3  UNL d   1      -0.802   0.861   0.661  0.00  0.00     0.023 A 
ATOM      5  C4  UNL d   1      -0.398   1.079  -0.657  0.00  0.00     0.048 A 
ATOM      6  C5  UNL d   1       0.464   0.171  -1.275  0.00  0.00     0.003 A 
ATOM      7  I   UNL d   1      -2.084   2.211   1.585  0.00  0.00    -0.146 I 
ENDROOT
TORSDOF 0
ENDMDL
