MODEL 1
REMARK minimizedAffinity -3.20249963
REMARK minimizedRMSD -1
REMARK  0 active torsions:
REMARK  status: ('A' for Active; 'I' for Inactive)
ROOT
ATOM      1  C   UNL d   1       0.933  -3.004  -3.369  0.00  0.00     0.023 A 
ATOM      2  C1  UNL d   1       1.922  -2.411  -2.584  0.00  0.00     0.003 A 
ATOM      3  C2  UNL d   1       1.566  -1.602  -1.503  0.00  0.00     0.048 A 
ATOM      4  C3  UNL d   1       0.219  -1.392  -1.211  0.00  0.00     0.023 A 
ATOM      5  C4  UNL d   1      -0.774  -1.984  -1.993  0.00  0.00     0.048 A 
ATOM      6  C5  UNL d   1      -0.413  -2.791  -3.073  0.00  0.00     0.003 A 
ATOM      7  I   UNL d   1      -0.314  -0.189   0.398  0.00  0.00    -0.146 I 
ENDROOT
TORSDOF 0
ENDMDL
