MODEL 1
REMARK minimizedAffinity -4.05638456
REMARK minimizedRMSD -1
REMARK  0 active torsions:
REMARK  status: ('A' for Active; 'I' for Inactive)
ROOT
ATOM      1  C   UNL d   1      -1.452   1.416   1.878  0.00  0.00     0.023 A 
ATOM      2  C1  UNL d   1      -0.764   0.313   2.384  0.00  0.00     0.003 A 
ATOM      3  C2  UNL d   1      -0.051  -0.522   1.523  0.00  0.00     0.048 A 
ATOM      4  C3  UNL d   1      -0.027  -0.248   0.156  0.00  0.00     0.023 A 
ATOM      5  C4  UNL d   1      -0.712   0.855  -0.356  0.00  0.00     0.048 A 
ATOM      6  C5  UNL d   1      -1.426   1.687   0.509  0.00  0.00     0.003 A 
ATOM      7  I   UNL d   1       1.035  -1.490  -1.129  0.00  0.00    -0.146 I 
ENDROOT
TORSDOF 0
ENDMDL
