MODEL 1
REMARK minimizedAffinity -5.13131428
REMARK minimizedRMSD -1
REMARK  0 active torsions:
REMARK  status: ('A' for Active; 'I' for Inactive)
ROOT
ATOM      1  C   UNL d   1      -1.483   3.637   0.347  0.00  0.00     0.023 A 
ATOM      2  C1  UNL d   1      -1.942   2.561   1.106  0.00  0.00     0.003 A 
ATOM      3  C2  UNL d   1      -1.436   1.279   0.878  0.00  0.00     0.048 A 
ATOM      4  C3  UNL d   1      -0.471   1.081  -0.109  0.00  0.00     0.023 A 
ATOM      5  C4  UNL d   1      -0.008   2.156  -0.870  0.00  0.00     0.048 A 
ATOM      6  C5  UNL d   1      -0.517   3.436  -0.639  0.00  0.00     0.003 A 
ATOM      7  I   UNL d   1       0.283  -0.825  -0.449  0.00  0.00    -0.146 I 
ENDROOT
TORSDOF 0
ENDMDL
