MODEL 1
REMARK minimizedAffinity -4.54331636
REMARK minimizedRMSD -1
REMARK  0 active torsions:
REMARK  status: ('A' for Active; 'I' for Inactive)
ROOT
ATOM      1  C   UNL d   1      -1.290   3.660   0.602  0.00  0.00     0.023 A 
ATOM      2  C1  UNL d   1      -1.670   2.570   1.385  0.00  0.00     0.003 A 
ATOM      3  C2  UNL d   1      -1.104   1.314   1.158  0.00  0.00     0.048 A 
ATOM      4  C3  UNL d   1      -0.157   1.155   0.146  0.00  0.00     0.023 A 
ATOM      5  C4  UNL d   1       0.227   2.243  -0.639  0.00  0.00     0.048 A 
ATOM      6  C5  UNL d   1      -0.343   3.497  -0.409  0.00  0.00     0.003 A 
ATOM      7  I   UNL d   1       0.687  -0.713  -0.194  0.00  0.00    -0.146 I 
ENDROOT
TORSDOF 0
ENDMDL
