MODEL 1
REMARK minimizedAffinity -2.53466249
REMARK minimizedRMSD -1
REMARK  0 active torsions:
REMARK  status: ('A' for Active; 'I' for Inactive)
ROOT
ATOM      1  C   UNL d   1       0.101  -2.930  -2.565  0.00  0.00     0.023 A 
ATOM      2  C1  UNL d   1       1.330  -2.479  -2.083  0.00  0.00     0.003 A 
ATOM      3  C2  UNL d   1       2.123  -3.319  -1.297  0.00  0.00     0.048 A 
ATOM      4  C3  UNL d   1       1.681  -4.607  -0.999  0.00  0.00     0.023 A 
ATOM      5  C4  UNL d   1       0.452  -5.062  -1.480  0.00  0.00     0.048 A 
ATOM      6  C5  UNL d   1      -0.337  -4.219  -2.264  0.00  0.00     0.003 A 
ATOM      7  I   UNL d   1       2.860  -5.858   0.170  0.00  0.00    -0.146 I 
ENDROOT
TORSDOF 0
ENDMDL
