MODEL 1
REMARK minimizedAffinity -0.854010284
REMARK minimizedRMSD -1
REMARK  0 active torsions:
REMARK  status: ('A' for Active; 'I' for Inactive)
ROOT
ATOM      1  C   UNL d   1       1.134  -3.744  -2.708  0.00  0.00     0.023 A 
ATOM      2  C1  UNL d   1       0.408  -2.587  -2.991  0.00  0.00     0.003 A 
ATOM      3  C2  UNL d   1       0.227  -1.616  -2.004  0.00  0.00     0.048 A 
ATOM      4  C3  UNL d   1       0.776  -1.808  -0.737  0.00  0.00     0.023 A 
ATOM      5  C4  UNL d   1       1.504  -2.963  -0.450  0.00  0.00     0.048 A 
ATOM      6  C5  UNL d   1       1.682  -3.932  -1.439  0.00  0.00     0.003 A 
ATOM      7  I   UNL d   1       0.508  -0.364   0.734  0.00  0.00    -0.146 I 
ENDROOT
TORSDOF 0
ENDMDL
