MODEL 1
REMARK minimizedAffinity 22.0809917
REMARK minimizedRMSD -1
REMARK  0 active torsions:
REMARK  status: ('A' for Active; 'I' for Inactive)
ROOT
ATOM      1  C   UNL d   1       3.576   3.026  -2.032  0.00  0.00     0.124 A 
ATOM      2  C1  UNL d   1       2.800   1.876  -2.002  0.00  0.00     0.062 A 
ATOM      3  C2  UNL d   1       1.955   1.629  -0.924  0.00  0.00     0.162 A 
ATOM      4  C3  UNL d   1       1.880   2.536   0.133  0.00  0.00    -0.034 A 
ATOM      5  C4  UNL d   1       2.664   3.690   0.097  0.00  0.00     0.162 A 
ATOM      6  C5  UNL d   1       3.507   3.932  -0.983  0.00  0.00     0.062 A 
ATOM      7  F   UNL d   1       4.256   5.044  -1.010  0.00  0.00    -0.097 F 
ATOM      8  F1  UNL d   1       2.617   4.583   1.097  0.00  0.00    -0.096 F 
ATOM      9  I   UNL d   1       0.618   2.171   1.747  0.00  0.00    -0.060 I 
ATOM     10  F2  UNL d   1       1.217   0.509  -0.922  0.00  0.00    -0.096 F 
ATOM     11  F3  UNL d   1       2.865   0.999  -3.014  0.00  0.00    -0.097 F 
ATOM     12  F4  UNL d   1       4.389   3.261  -3.070  0.00  0.00    -0.092 F 
ENDROOT
TORSDOF 0
ENDMDL
