MODEL 1
REMARK minimizedAffinity 18.3963165
REMARK minimizedRMSD -1
REMARK  0 active torsions:
REMARK  status: ('A' for Active; 'I' for Inactive)
ROOT
ATOM      1  C   UNL d   1      -3.400  -2.263  -1.395  0.00  0.00     0.124 A 
ATOM      2  C1  UNL d   1      -2.293  -1.761  -2.065  0.00  0.00     0.062 A 
ATOM      3  C2  UNL d   1      -2.037  -2.142  -3.378  0.00  0.00     0.162 A 
ATOM      4  C3  UNL d   1      -2.891  -3.030  -4.033  0.00  0.00    -0.034 A 
ATOM      5  C4  UNL d   1      -4.002  -3.532  -3.352  0.00  0.00     0.162 A 
ATOM      6  C5  UNL d   1      -4.253  -3.148  -2.039  0.00  0.00     0.062 A 
ATOM      7  F   UNL d   1      -5.323  -3.635  -1.394  0.00  0.00    -0.097 F 
ATOM      8  F1  UNL d   1      -4.843  -4.388  -3.951  0.00  0.00    -0.096 F 
ATOM      9  I   UNL d   1      -2.512  -3.602  -5.997  0.00  0.00    -0.060 I 
ATOM     10  F2  UNL d   1      -0.960  -1.641  -4.001  0.00  0.00    -0.096 F 
ATOM     11  F3  UNL d   1      -1.467  -0.906  -1.444  0.00  0.00    -0.097 F 
ATOM     12  F4  UNL d   1      -3.643  -1.896  -0.130  0.00  0.00    -0.092 F 
ENDROOT
TORSDOF 0
ENDMDL
