MODEL 1
REMARK minimizedAffinity 30.4391632
REMARK minimizedRMSD -1
REMARK  0 active torsions:
REMARK  status: ('A' for Active; 'I' for Inactive)
ROOT
ATOM      1  C   UNL d   1       3.774  -0.285   1.432  0.00  0.00     0.124 A 
ATOM      2  C1  UNL d   1       3.014   0.513   0.588  0.00  0.00     0.062 A 
ATOM      3  C2  UNL d   1       1.775   0.991   1.005  0.00  0.00     0.162 A 
ATOM      4  C3  UNL d   1       1.288   0.674   2.273  0.00  0.00    -0.034 A 
ATOM      5  C4  UNL d   1       2.058  -0.129   3.116  0.00  0.00     0.162 A 
ATOM      6  C5  UNL d   1       3.295  -0.605   2.695  0.00  0.00     0.062 A 
ATOM      7  F   UNL d   1       4.028  -1.376   3.512  0.00  0.00    -0.097 F 
ATOM      8  F1  UNL d   1       1.620  -0.453   4.342  0.00  0.00    -0.096 F 
ATOM      9  I   UNL d   1      -0.564   1.388   2.900  0.00  0.00    -0.060 I 
ATOM     10  F2  UNL d   1       1.062   1.760   0.168  0.00  0.00    -0.096 F 
ATOM     11  F3  UNL d   1       3.473   0.823  -0.633  0.00  0.00    -0.097 F 
ATOM     12  F4  UNL d   1       4.965  -0.745   1.029  0.00  0.00    -0.092 F 
ENDROOT
TORSDOF 0
ENDMDL
