MODEL 1
REMARK minimizedAffinity 25.8692169
REMARK minimizedRMSD -1
REMARK  0 active torsions:
REMARK  status: ('A' for Active; 'I' for Inactive)
ROOT
ATOM      1  C   UNL d   1      -1.360  -0.728   4.708  0.00  0.00     0.124 A 
ATOM      2  C1  UNL d   1      -1.253  -1.493   3.554  0.00  0.00     0.062 A 
ATOM      3  C2  UNL d   1      -0.318  -1.161   2.578  0.00  0.00     0.162 A 
ATOM      4  C3  UNL d   1       0.520  -0.060   2.752  0.00  0.00    -0.034 A 
ATOM      5  C4  UNL d   1       0.406   0.706   3.914  0.00  0.00     0.162 A 
ATOM      6  C5  UNL d   1      -0.530   0.370   4.886  0.00  0.00     0.062 A 
ATOM      7  F   UNL d   1      -0.632   1.110   6.000  0.00  0.00    -0.097 F 
ATOM      8  F1  UNL d   1       1.196   1.772   4.113  0.00  0.00    -0.096 F 
ATOM      9  I   UNL d   1       1.920   0.440   1.295  0.00  0.00    -0.060 I 
ATOM     10  F2  UNL d   1      -0.236  -1.918   1.474  0.00  0.00    -0.096 F 
ATOM     11  F3  UNL d   1      -2.054  -2.554   3.379  0.00  0.00    -0.097 F 
ATOM     12  F4  UNL d   1      -2.261  -1.049   5.644  0.00  0.00    -0.092 F 
ENDROOT
TORSDOF 0
ENDMDL
