MODEL 1
REMARK minimizedAffinity 26.2740936
REMARK minimizedRMSD -1
REMARK  0 active torsions:
REMARK  status: ('A' for Active; 'I' for Inactive)
ROOT
ATOM      1  C   UNL d   1       0.804   2.680   1.413  0.00  0.00     0.124 A 
ATOM      2  C1  UNL d   1       1.207   1.469   1.959  0.00  0.00     0.062 A 
ATOM      3  C2  UNL d   1       0.285   0.655   2.611  0.00  0.00     0.162 A 
ATOM      4  C3  UNL d   1      -1.048   1.048   2.720  0.00  0.00    -0.034 A 
ATOM      5  C4  UNL d   1      -1.445   2.268   2.170  0.00  0.00     0.162 A 
ATOM      6  C5  UNL d   1      -0.521   3.078   1.519  0.00  0.00     0.062 A 
ATOM      7  F   UNL d   1      -0.911   4.248   0.992  0.00  0.00    -0.097 F 
ATOM      8  F1  UNL d   1      -2.720   2.677   2.257  0.00  0.00    -0.096 F 
ATOM      9  I   UNL d   1      -2.429  -0.167   3.695  0.00  0.00    -0.060 I 
ATOM     10  F2  UNL d   1       0.702  -0.510   3.129  0.00  0.00    -0.096 F 
ATOM     11  F3  UNL d   1       2.486   1.082   1.858  0.00  0.00    -0.097 F 
ATOM     12  F4  UNL d   1       1.693   3.462   0.787  0.00  0.00    -0.092 F 
ENDROOT
TORSDOF 0
ENDMDL
