MODEL 1
REMARK minimizedAffinity 10.7986727
REMARK minimizedRMSD -1
REMARK  0 active torsions:
REMARK  status: ('A' for Active; 'I' for Inactive)
ROOT
ATOM      1  C   UNL d   1       3.870   0.753  -2.238  0.00  0.00     0.124 A 
ATOM      2  C1  UNL d   1       2.779   1.583  -2.456  0.00  0.00     0.062 A 
ATOM      3  C2  UNL d   1       1.919   1.898  -1.408  0.00  0.00     0.162 A 
ATOM      4  C3  UNL d   1       2.148   1.384  -0.131  0.00  0.00    -0.034 A 
ATOM      5  C4  UNL d   1       3.247   0.550   0.080  0.00  0.00     0.162 A 
ATOM      6  C5  UNL d   1       4.103   0.238  -0.971  0.00  0.00     0.062 A 
ATOM      7  F   UNL d   1       5.157  -0.564  -0.759  0.00  0.00    -0.097 F 
ATOM      8  F1  UNL d   1       3.496   0.038   1.294  0.00  0.00    -0.096 F 
ATOM      9  I   UNL d   1       0.864   1.853   1.439  0.00  0.00    -0.060 I 
ATOM     10  F2  UNL d   1       0.872   2.702  -1.647  0.00  0.00    -0.096 F 
ATOM     11  F3  UNL d   1       2.551   2.081  -3.680  0.00  0.00    -0.097 F 
ATOM     12  F4  UNL d   1       4.695   0.451  -3.249  0.00  0.00    -0.092 F 
ENDROOT
TORSDOF 0
ENDMDL
