MODEL 1
REMARK minimizedAffinity 21.4101601
REMARK minimizedRMSD -1
REMARK  0 active torsions:
REMARK  status: ('A' for Active; 'I' for Inactive)
ROOT
ATOM      1  C   UNL d   1       1.382   2.127   2.214  0.00  0.00     0.124 A 
ATOM      2  C1  UNL d   1       1.750   0.908   2.766  0.00  0.00     0.062 A 
ATOM      3  C2  UNL d   1       0.776   0.017   3.208  0.00  0.00     0.162 A 
ATOM      4  C3  UNL d   1      -0.576   0.341   3.099  0.00  0.00    -0.034 A 
ATOM      5  C4  UNL d   1      -0.939   1.569   2.543  0.00  0.00     0.162 A 
ATOM      6  C5  UNL d   1       0.038   2.456   2.102  0.00  0.00     0.062 A 
ATOM      7  F   UNL d   1      -0.319   3.634   1.569  0.00  0.00    -0.097 F 
ATOM      8  F1  UNL d   1      -2.230   1.913   2.422  0.00  0.00    -0.096 F 
ATOM      9  I   UNL d   1      -2.035  -0.988   3.758  0.00  0.00    -0.060 I 
ATOM     10  F2  UNL d   1       1.161  -1.154   3.738  0.00  0.00    -0.096 F 
ATOM     11  F3  UNL d   1       3.047   0.588   2.876  0.00  0.00    -0.097 F 
ATOM     12  F4  UNL d   1       2.321   2.983   1.790  0.00  0.00    -0.092 F 
ENDROOT
TORSDOF 0
ENDMDL
