MODEL 1
REMARK minimizedAffinity 34.9787521
REMARK minimizedRMSD -1
REMARK  0 active torsions:
REMARK  status: ('A' for Active; 'I' for Inactive)
ROOT
ATOM      1  C   UNL d   1       1.165   1.929   1.933  0.00  0.00     0.124 A 
ATOM      2  C1  UNL d   1      -0.207   2.111   1.837  0.00  0.00     0.062 A 
ATOM      3  C2  UNL d   1      -1.078   1.114   2.268  0.00  0.00     0.162 A 
ATOM      4  C3  UNL d   1      -0.578  -0.075   2.800  0.00  0.00    -0.034 A 
ATOM      5  C4  UNL d   1       0.804  -0.252   2.892  0.00  0.00     0.162 A 
ATOM      6  C5  UNL d   1       1.670   0.748   2.460  0.00  0.00     0.062 A 
ATOM      7  F   UNL d   1       2.995   0.570   2.552  0.00  0.00    -0.097 F 
ATOM      8  F1  UNL d   1       1.318  -1.382   3.398  0.00  0.00    -0.096 F 
ATOM      9  I   UNL d   1      -1.876  -1.568   3.445  0.00  0.00    -0.060 I 
ATOM     10  F2  UNL d   1      -2.399   1.318   2.164  0.00  0.00    -0.096 F 
ATOM     11  F3  UNL d   1      -0.697   3.251   1.328  0.00  0.00    -0.097 F 
ATOM     12  F4  UNL d   1       2.001   2.889   1.516  0.00  0.00    -0.092 F 
ENDROOT
TORSDOF 0
ENDMDL
