MODEL 1
REMARK minimizedAffinity 6.23472023
REMARK minimizedRMSD -1
REMARK  0 active torsions:
REMARK  status: ('A' for Active; 'I' for Inactive)
ROOT
ATOM      1  C   UNL d   1       3.557   4.586  -5.809  0.00  0.00     0.124 A 
ATOM      2  C1  UNL d   1       2.377   3.876  -5.642  0.00  0.00     0.062 A 
ATOM      3  C2  UNL d   1       2.408   2.493  -5.489  0.00  0.00     0.162 A 
ATOM      4  C3  UNL d   1       3.624   1.810  -5.502  0.00  0.00    -0.034 A 
ATOM      5  C4  UNL d   1       4.807   2.532  -5.671  0.00  0.00     0.162 A 
ATOM      6  C5  UNL d   1       4.771   3.914  -5.823  0.00  0.00     0.062 A 
ATOM      7  F   UNL d   1       5.913   4.599  -5.984  0.00  0.00    -0.097 F 
ATOM      8  F1  UNL d   1       5.994   1.907  -5.687  0.00  0.00    -0.096 F 
ATOM      9  I   UNL d   1       3.675  -0.258  -5.274  0.00  0.00    -0.060 I 
ATOM     10  F2  UNL d   1       1.251   1.832  -5.330  0.00  0.00    -0.096 F 
ATOM     11  F3  UNL d   1       1.203   4.523  -5.629  0.00  0.00    -0.097 F 
ATOM     12  F4  UNL d   1       3.525   5.917  -5.956  0.00  0.00    -0.092 F 
ENDROOT
TORSDOF 0
ENDMDL
