MODEL 1
REMARK minimizedAffinity 10.7726889
REMARK minimizedRMSD -1
REMARK  0 active torsions:
REMARK  status: ('A' for Active; 'I' for Inactive)
ROOT
ATOM      1  C   UNL d   1      -1.170  -2.601   3.311  0.00  0.00     0.124 A 
ATOM      2  C1  UNL d   1      -1.136  -3.988   3.289  0.00  0.00     0.062 A 
ATOM      3  C2  UNL d   1      -0.601  -4.658   2.193  0.00  0.00     0.162 A 
ATOM      4  C3  UNL d   1      -0.094  -3.942   1.108  0.00  0.00    -0.034 A 
ATOM      5  C4  UNL d   1      -0.133  -2.547   1.137  0.00  0.00     0.162 A 
ATOM      6  C5  UNL d   1      -0.668  -1.882   2.235  0.00  0.00     0.062 A 
ATOM      7  F   UNL d   1      -0.700  -0.541   2.254  0.00  0.00    -0.097 F 
ATOM      8  F1  UNL d   1       0.346  -1.827   0.111  0.00  0.00    -0.096 F 
ATOM      9  I   UNL d   1       0.706  -4.940  -0.533  0.00  0.00    -0.060 I 
ATOM     10  F2  UNL d   1      -0.581  -6.000   2.199  0.00  0.00    -0.096 F 
ATOM     11  F3  UNL d   1      -1.620  -4.686   4.327  0.00  0.00    -0.097 F 
ATOM     12  F4  UNL d   1      -1.686  -1.959   4.366  0.00  0.00    -0.092 F 
ENDROOT
TORSDOF 0
ENDMDL
