MODEL 1
REMARK minimizedAffinity 20.8311081
REMARK minimizedRMSD -1
REMARK  0 active torsions:
REMARK  status: ('A' for Active; 'I' for Inactive)
ROOT
ATOM      1  C   UNL d   1      -0.531  -2.482   1.795  0.00  0.00     0.124 A 
ATOM      2  C1  UNL d   1      -1.291  -1.900   2.800  0.00  0.00     0.062 A 
ATOM      3  C2  UNL d   1      -1.977  -2.699   3.710  0.00  0.00     0.162 A 
ATOM      4  C3  UNL d   1      -1.906  -4.089   3.620  0.00  0.00    -0.034 A 
ATOM      5  C4  UNL d   1      -1.140  -4.667   2.605  0.00  0.00     0.162 A 
ATOM      6  C5  UNL d   1      -0.456  -3.864   1.698  0.00  0.00     0.062 A 
ATOM      7  F   UNL d   1       0.277  -4.428   0.728  0.00  0.00    -0.097 F 
ATOM      8  F1  UNL d   1      -1.050  -6.000   2.490  0.00  0.00    -0.096 F 
ATOM      9  I   UNL d   1      -2.931  -5.287   4.978  0.00  0.00    -0.060 I 
ATOM     10  F2  UNL d   1      -2.704  -2.109   4.671  0.00  0.00    -0.096 F 
ATOM     11  F3  UNL d   1      -1.365  -0.564   2.895  0.00  0.00    -0.097 F 
ATOM     12  F4  UNL d   1       0.128  -1.711   0.920  0.00  0.00    -0.092 F 
ENDROOT
TORSDOF 0
ENDMDL
