MODEL 1
REMARK minimizedAffinity 9.28857136
REMARK minimizedRMSD -1
REMARK  0 active torsions:
REMARK  status: ('A' for Active; 'I' for Inactive)
ROOT
ATOM      1  C   UNL d   1      -0.698  -2.447   2.452  0.00  0.00     0.124 A 
ATOM      2  C1  UNL d   1      -0.439  -3.809   2.385  0.00  0.00     0.062 A 
ATOM      3  C2  UNL d   1      -1.093  -4.688   3.243  0.00  0.00     0.162 A 
ATOM      4  C3  UNL d   1      -2.013  -4.209   4.175  0.00  0.00    -0.034 A 
ATOM      5  C4  UNL d   1      -2.268  -2.838   4.237  0.00  0.00     0.162 A 
ATOM      6  C5  UNL d   1      -1.612  -1.963   3.378  0.00  0.00     0.062 A 
ATOM      7  F   UNL d   1      -1.863  -0.647   3.444  0.00  0.00    -0.097 F 
ATOM      8  F1  UNL d   1      -3.147  -2.343   5.121  0.00  0.00    -0.096 F 
ATOM      9  I   UNL d   1      -2.993  -5.521   5.460  0.00  0.00    -0.060 I 
ATOM     10  F2  UNL d   1      -0.823  -5.999   3.156  0.00  0.00    -0.096 F 
ATOM     11  F3  UNL d   1       0.444  -4.279   1.493  0.00  0.00    -0.097 F 
ATOM     12  F4  UNL d   1      -0.067  -1.602   1.626  0.00  0.00    -0.092 F 
ENDROOT
TORSDOF 0
ENDMDL
