MODEL 1
REMARK minimizedAffinity 19.7867565
REMARK minimizedRMSD -1
REMARK  0 active torsions:
REMARK  status: ('A' for Active; 'I' for Inactive)
ROOT
ATOM      1  C   UNL d   1       2.881   0.583   3.749  0.00  0.00     0.124 A 
ATOM      2  C1  UNL d   1       2.121   1.574   4.355  0.00  0.00     0.062 A 
ATOM      3  C2  UNL d   1       1.214   2.318   3.606  0.00  0.00     0.162 A 
ATOM      4  C3  UNL d   1       1.060   2.072   2.241  0.00  0.00    -0.034 A 
ATOM      5  C4  UNL d   1       1.828   1.074   1.638  0.00  0.00     0.162 A 
ATOM      6  C5  UNL d   1       2.733   0.334   2.392  0.00  0.00     0.062 A 
ATOM      7  F   UNL d   1       3.467  -0.623   1.804  0.00  0.00    -0.097 F 
ATOM      8  F1  UNL d   1       1.705   0.812   0.329  0.00  0.00    -0.096 F 
ATOM      9  I   UNL d   1      -0.296   3.181   1.117  0.00  0.00    -0.060 I 
ATOM     10  F2  UNL d   1       0.493   3.269   4.218  0.00  0.00    -0.096 F 
ATOM     11  F3  UNL d   1       2.262   1.818   5.666  0.00  0.00    -0.097 F 
ATOM     12  F4  UNL d   1       3.754  -0.129   4.472  0.00  0.00    -0.092 F 
ENDROOT
TORSDOF 0
ENDMDL
