MODEL 1
REMARK minimizedAffinity 20.3066807
REMARK minimizedRMSD -1
REMARK  0 active torsions:
REMARK  status: ('A' for Active; 'I' for Inactive)
ROOT
ATOM      1  C   UNL d   1       2.913  -0.056   2.478  0.00  0.00     0.124 A 
ATOM      2  C1  UNL d   1       3.029   0.274   1.135  0.00  0.00     0.062 A 
ATOM      3  C2  UNL d   1       2.429   1.430   0.644  0.00  0.00     0.162 A 
ATOM      4  C3  UNL d   1       1.708   2.265   1.497  0.00  0.00    -0.034 A 
ATOM      5  C4  UNL d   1       1.595   1.927   2.846  0.00  0.00     0.162 A 
ATOM      6  C5  UNL d   1       2.197   0.770   3.332  0.00  0.00     0.062 A 
ATOM      7  F   UNL d   1       2.084   0.453   4.630  0.00  0.00    -0.097 F 
ATOM      8  F1  UNL d   1       0.910   2.708   3.694  0.00  0.00    -0.096 F 
ATOM      9  I   UNL d   1       0.809   3.995   0.766  0.00  0.00    -0.060 I 
ATOM     10  F2  UNL d   1       2.557   1.723  -0.659  0.00  0.00    -0.096 F 
ATOM     11  F3  UNL d   1       3.720  -0.524   0.307  0.00  0.00    -0.097 F 
ATOM     12  F4  UNL d   1       3.491  -1.169   2.948  0.00  0.00    -0.092 F 
ENDROOT
TORSDOF 0
ENDMDL
