MODEL 1
REMARK minimizedAffinity -6.00154877
REMARK minimizedRMSD -1
REMARK  1 active torsions:
REMARK  status: ('A' for Active; 'I' for Inactive)
REMARK    1  A    between atoms: C1_2  and  C2_3 
ROOT
ATOM      1  C2  UNL d   1      -0.419   0.380   0.073  0.00  0.00    -0.081 A 
ATOM      2  C3  UNL d   1      -0.075  -0.952  -0.188  0.00  0.00     0.006 A 
ATOM      3  C4  UNL d   1       1.229  -1.403   0.034  0.00  0.00     0.002 A 
ATOM      4  C5  UNL d   1       2.206  -0.533   0.528  0.00  0.00    -0.080 A 
ATOM      5  C6  UNL d   1       3.601  -1.011   0.799  0.00  0.00     0.076 C 
ATOM      6  C7  UNL d   1       1.866   0.802   0.772  0.00  0.00     0.002 A 
ATOM      7  C8  UNL d   1       0.564   1.254   0.549  0.00  0.00     0.006 A 
ENDROOT
BRANCH   1   8
ATOM      8  C1  UNL d   1      -1.840   0.852  -0.104  0.00  0.00     0.054 C 
ATOM      9  C   UNL d   1      -2.520   1.077   1.239  0.00  0.00     0.018 C 
ENDBRANCH   1   8
TORSDOF 1
ENDMDL
