MODEL 1
REMARK minimizedAffinity -5.23351431
REMARK minimizedRMSD -1
REMARK  1 active torsions:
REMARK  status: ('A' for Active; 'I' for Inactive)
REMARK    1  A    between atoms: C1_2  and  C2_3 
ROOT
ATOM      1  C2  UNL d   1      -0.909  -0.094  -0.178  0.00  0.00    -0.081 A 
ATOM      2  C3  UNL d   1      -0.533  -1.399  -0.517  0.00  0.00     0.006 A 
ATOM      3  C4  UNL d   1       0.749  -1.867  -0.220  0.00  0.00     0.002 A 
ATOM      4  C5  UNL d   1       1.673  -1.041   0.429  0.00  0.00    -0.080 A 
ATOM      5  C6  UNL d   1       3.043  -1.541   0.782  0.00  0.00     0.076 C 
ATOM      6  C7  UNL d   1       1.304   0.269   0.753  0.00  0.00     0.002 A 
ATOM      7  C8  UNL d   1       0.022   0.737   0.455  0.00  0.00     0.006 A 
ENDROOT
BRANCH   1   8
ATOM      8  C1  UNL d   1      -2.311   0.392  -0.439  0.00  0.00     0.054 C 
ATOM      9  C   UNL d   1      -3.089   0.562   0.858  0.00  0.00     0.018 C 
ENDBRANCH   1   8
TORSDOF 1
ENDMDL
