MODEL 1
REMARK minimizedAffinity -5.21061373
REMARK minimizedRMSD -1
REMARK  1 active torsions:
REMARK  status: ('A' for Active; 'I' for Inactive)
REMARK    1  A    between atoms: C1_2  and  C2_3 
ROOT
ATOM      1  C2  UNL d   1      -0.457   0.148  -0.027  0.00  0.00    -0.081 A 
ATOM      2  C3  UNL d   1      -0.090  -1.195   0.121  0.00  0.00     0.006 A 
ATOM      3  C4  UNL d   1       1.223  -1.539   0.450  0.00  0.00     0.002 A 
ATOM      4  C5  UNL d   1       2.189  -0.546   0.645  0.00  0.00    -0.080 A 
ATOM      5  C6  UNL d   1       3.595  -0.900   1.029  0.00  0.00     0.076 C 
ATOM      6  C7  UNL d   1       1.827   0.795   0.480  0.00  0.00     0.002 A 
ATOM      7  C8  UNL d   1       0.515   1.140   0.150  0.00  0.00     0.006 A 
ENDROOT
BRANCH   1   8
ATOM      8  C1  UNL d   1      -1.887   0.525  -0.319  0.00  0.00     0.054 C 
ATOM      9  C   UNL d   1      -2.732   0.512   0.947  0.00  0.00     0.018 C 
ENDBRANCH   1   8
TORSDOF 1
ENDMDL
