MODEL 1
REMARK minimizedAffinity -4.37600517
REMARK minimizedRMSD -1
REMARK  1 active torsions:
REMARK  status: ('A' for Active; 'I' for Inactive)
REMARK    1  A    between atoms: C1_2  and  C2_3 
ROOT
ATOM      1  C2  UNL d   1      -1.154   0.600  -0.384  0.00  0.00    -0.081 A 
ATOM      2  C3  UNL d   1      -1.212  -0.576  -1.142  0.00  0.00     0.006 A 
ATOM      3  C4  UNL d   1      -0.147  -1.480  -1.127  0.00  0.00     0.002 A 
ATOM      4  C5  UNL d   1       0.988  -1.227  -0.350  0.00  0.00    -0.080 A 
ATOM      5  C6  UNL d   1       2.125  -2.204  -0.302  0.00  0.00     0.076 C 
ATOM      6  C7  UNL d   1       1.053  -0.044   0.393  0.00  0.00     0.002 A 
ATOM      7  C8  UNL d   1      -0.011   0.861   0.379  0.00  0.00     0.006 A 
ENDROOT
BRANCH   1   8
ATOM      8  C1  UNL d   1      -2.328   1.546  -0.347  0.00  0.00     0.054 C 
ATOM      9  C   UNL d   1      -3.620   0.812  -0.020  0.00  0.00     0.018 C 
ENDBRANCH   1   8
TORSDOF 1
ENDMDL
