MODEL 1
REMARK minimizedAffinity -4.70272636
REMARK minimizedRMSD -1
REMARK  1 active torsions:
REMARK  status: ('A' for Active; 'I' for Inactive)
REMARK    1  A    between atoms: C1_2  and  C2_3 
ROOT
ATOM      1  C2  UNL d   1       1.895  -0.581   0.146  0.00  0.00    -0.081 A 
ATOM      2  C3  UNL d   1       0.983  -1.253  -0.676  0.00  0.00     0.006 A 
ATOM      3  C4  UNL d   1      -0.317  -0.769  -0.836  0.00  0.00     0.002 A 
ATOM      4  C5  UNL d   1      -0.724   0.400  -0.183  0.00  0.00    -0.080 A 
ATOM      5  C6  UNL d   1      -2.108   0.947  -0.370  0.00  0.00     0.076 C 
ATOM      6  C7  UNL d   1       0.182   1.062   0.652  0.00  0.00     0.002 A 
ATOM      7  C8  UNL d   1       1.482   0.578   0.813  0.00  0.00     0.006 A 
ENDROOT
BRANCH   1   8
ATOM      8  C1  UNL d   1       3.318  -1.065   0.269  0.00  0.00     0.054 C 
ATOM      9  C   UNL d   1       3.978  -1.195  -1.096  0.00  0.00     0.018 C 
ENDBRANCH   1   8
TORSDOF 1
ENDMDL
