MODEL 1
REMARK minimizedAffinity -1.34009898
REMARK minimizedRMSD -1
REMARK  1 active torsions:
REMARK  status: ('A' for Active; 'I' for Inactive)
REMARK    1  A    between atoms: C1_2  and  C2_3 
ROOT
ATOM      1  C2  UNL d   1      -1.465   0.463  -0.057  0.00  0.00    -0.081 A 
ATOM      2  C3  UNL d   1      -0.219   1.096   0.032  0.00  0.00     0.006 A 
ATOM      3  C4  UNL d   1       0.959   0.368  -0.151  0.00  0.00     0.002 A 
ATOM      4  C5  UNL d   1       0.911  -1.001  -0.435  0.00  0.00    -0.080 A 
ATOM      5  C6  UNL d   1       2.167  -1.787  -0.665  0.00  0.00     0.076 C 
ATOM      6  C7  UNL d   1      -0.333  -1.636  -0.508  0.00  0.00     0.002 A 
ATOM      7  C8  UNL d   1      -1.512  -0.909  -0.323  0.00  0.00     0.006 A 
ENDROOT
BRANCH   1   8
ATOM      8  C1  UNL d   1      -2.739   1.258   0.076  0.00  0.00     0.054 C 
ATOM      9  C   UNL d   1      -3.043   1.576   1.533  0.00  0.00     0.018 C 
ENDBRANCH   1   8
TORSDOF 1
ENDMDL
