MODEL 1
REMARK minimizedAffinity -1.77760613
REMARK minimizedRMSD -1
REMARK  1 active torsions:
REMARK  status: ('A' for Active; 'I' for Inactive)
REMARK    1  A    between atoms: C1_2  and  C2_3 
ROOT
ATOM      1  C2  UNL d   1      -0.308  -0.195  -1.427  0.00  0.00    -0.081 A 
ATOM      2  C3  UNL d   1      -0.740  -1.503  -1.176  0.00  0.00     0.006 A 
ATOM      3  C4  UNL d   1       0.182  -2.506  -0.865  0.00  0.00     0.002 A 
ATOM      4  C5  UNL d   1       1.549  -2.215  -0.793  0.00  0.00    -0.080 A 
ATOM      5  C6  UNL d   1       2.546  -3.276  -0.430  0.00  0.00     0.076 C 
ATOM      6  C7  UNL d   1       1.982  -0.913  -1.062  0.00  0.00     0.002 A 
ATOM      7  C8  UNL d   1       1.061   0.090  -1.373  0.00  0.00     0.006 A 
ENDROOT
BRANCH   1   8
ATOM      8  C1  UNL d   1      -1.305   0.902  -1.699  0.00  0.00     0.054 C 
ATOM      9  C   UNL d   1      -2.701   0.508  -1.238  0.00  0.00     0.018 C 
ENDBRANCH   1   8
TORSDOF 1
ENDMDL
