MODEL 1
REMARK minimizedAffinity 9.83386612
REMARK minimizedRMSD -1
REMARK  0 active torsions:
REMARK  status: ('A' for Active; 'I' for Inactive)
ROOT
ATOM      1  C4' PXY d   1      -3.135  -3.574   1.412  0.00  0.00     0.077 C 
ATOM      2  C1' PXY d   1       2.266  -2.224   2.970  0.00  0.00     0.077 C 
ATOM      3  C1  PXY d   1       0.854  -2.585   2.551  0.00  0.00    -0.082 A 
ATOM      4  C2  PXY d   1      -0.157  -1.822   2.935  0.00  0.00     0.003 A 
ATOM      5  C3  PXY d   1      -1.443  -2.151   2.592  0.00  0.00     0.003 A 
ATOM      6  C4  PXY d   1      -1.692  -3.243   1.804  0.00  0.00    -0.082 A 
ATOM      7  C5  PXY d   1      -0.665  -4.020   1.400  0.00  0.00     0.003 A 
ATOM      8  C6  PXY d   1       0.629  -3.692   1.793  0.00  0.00     0.003 A 
ENDROOT
TORSDOF 0
ENDMDL
