MODEL 1
REMARK minimizedAffinity 6.74892902
REMARK minimizedRMSD -1
REMARK  0 active torsions:
REMARK  status: ('A' for Active; 'I' for Inactive)
ROOT
ATOM      1  C4' PXY d   1      -0.373  -0.053   5.513  0.00  0.00     0.077 C 
ATOM      2  C1' PXY d   1      -1.466  -2.114   0.224  0.00  0.00     0.077 C 
ATOM      3  C1  PXY d   1      -1.185  -1.562   1.608  0.00  0.00    -0.082 A 
ATOM      4  C2  PXY d   1      -0.209  -2.083   2.334  0.00  0.00     0.003 A 
ATOM      5  C3  PXY d   1       0.039  -1.617   3.600  0.00  0.00     0.003 A 
ATOM      6  C4  PXY d   1      -0.686  -0.572   4.107  0.00  0.00    -0.082 A 
ATOM      7  C5  PXY d   1      -1.676  -0.028   3.369  0.00  0.00     0.003 A 
ATOM      8  C6  PXY d   1      -1.939  -0.543   2.102  0.00  0.00     0.003 A 
ENDROOT
TORSDOF 0
ENDMDL
