MODEL 1
REMARK minimizedAffinity 9.85288334
REMARK minimizedRMSD -1
REMARK  0 active torsions:
REMARK  status: ('A' for Active; 'I' for Inactive)
ROOT
ATOM      1  C4' PXY d   1      -5.119   0.722   1.234  0.00  0.00     0.077 C 
ATOM      2  C1' PXY d   1      -6.000   0.360  -4.467  0.00  0.00     0.077 C 
ATOM      3  C1  PXY d   1      -5.767   0.468  -2.973  0.00  0.00    -0.082 A 
ATOM      4  C2  PXY d   1      -5.346  -0.589  -2.299  0.00  0.00     0.003 A 
ATOM      5  C3  PXY d   1      -5.161  -0.519  -0.942  0.00  0.00     0.003 A 
ATOM      6  C4  PXY d   1      -5.358   0.662  -0.277  0.00  0.00    -0.082 A 
ATOM      7  C5  PXY d   1      -5.778   1.748  -0.959  0.00  0.00     0.003 A 
ATOM      8  C6  PXY d   1      -6.000   1.644  -2.329  0.00  0.00     0.003 A 
ENDROOT
TORSDOF 0
ENDMDL
