MODEL 1
REMARK minimizedAffinity 9.8848362
REMARK minimizedRMSD -1
REMARK  0 active torsions:
REMARK  status: ('A' for Active; 'I' for Inactive)
ROOT
ATOM      1  C4' PXY d   1       5.973   4.082   1.908  0.00  0.00     0.077 C 
ATOM      2  C1' PXY d   1       5.527   4.412  -3.846  0.00  0.00     0.077 C 
ATOM      3  C1  PXY d   1       5.647   4.338  -2.336  0.00  0.00    -0.082 A 
ATOM      4  C2  PXY d   1       5.919   3.180  -1.757  0.00  0.00     0.003 A 
ATOM      5  C3  PXY d   1       5.999   3.089  -0.392  0.00  0.00     0.003 A 
ATOM      6  C4  PXY d   1       5.852   4.206   0.387  0.00  0.00    -0.082 A 
ATOM      7  C5  PXY d   1       5.586   5.393  -0.197  0.00  0.00     0.003 A 
ATOM      8  C6  PXY d   1       5.467   5.456  -1.582  0.00  0.00     0.003 A 
ENDROOT
TORSDOF 0
ENDMDL
