MODEL 1
REMARK minimizedAffinity 16.1115036
REMARK minimizedRMSD -1
REMARK  0 active torsions:
REMARK  status: ('A' for Active; 'I' for Inactive)
ROOT
ATOM      1  C4' PXY d   1       5.999   4.225  -0.947  0.00  0.00     0.077 C 
ATOM      2  C1' PXY d   1       2.909   3.946  -5.825  0.00  0.00     0.077 C 
ATOM      3  C1  PXY d   1       3.731   4.019  -4.553  0.00  0.00    -0.082 A 
ATOM      4  C2  PXY d   1       3.219   3.571  -3.418  0.00  0.00     0.003 A 
ATOM      5  C3  PXY d   1       3.936   3.659  -2.252  0.00  0.00     0.003 A 
ATOM      6  C4  PXY d   1       5.209   4.162  -2.258  0.00  0.00    -0.082 A 
ATOM      7  C5  PXY d   1       5.742   4.611  -3.414  0.00  0.00     0.003 A 
ATOM      8  C6  PXY d   1       4.983   4.551  -4.579  0.00  0.00     0.003 A 
ENDROOT
TORSDOF 0
ENDMDL
