MODEL 1
REMARK minimizedAffinity 11.584506
REMARK minimizedRMSD -1
REMARK  0 active torsions:
REMARK  status: ('A' for Active; 'I' for Inactive)
ROOT
ATOM      1  C4' PXY d   1      -0.595  -0.717   2.619  0.00  0.00     0.077 C 
ATOM      2  C1' PXY d   1      -3.756   2.745   6.000  0.00  0.00     0.077 C 
ATOM      3  C1  PXY d   1      -2.918   1.836   5.122  0.00  0.00    -0.082 A 
ATOM      4  C2  PXY d   1      -3.049   1.895   3.807  0.00  0.00     0.003 A 
ATOM      5  C3  PXY d   1      -2.322   1.057   3.000  0.00  0.00     0.003 A 
ATOM      6  C4  PXY d   1      -1.413   0.189   3.543  0.00  0.00    -0.082 A 
ATOM      7  C5  PXY d   1      -1.267   0.131   4.883  0.00  0.00     0.003 A 
ATOM      8  C6  PXY d   1      -2.044   0.960   5.687  0.00  0.00     0.003 A 
ENDROOT
TORSDOF 0
ENDMDL
