MODEL 1
REMARK minimizedAffinity 5.70365477
REMARK minimizedRMSD -1
REMARK  0 active torsions:
REMARK  status: ('A' for Active; 'I' for Inactive)
ROOT
ATOM      1  C4' PXY d   1       4.129   0.811   2.250  0.00  0.00     0.077 C 
ATOM      2  C1' PXY d   1       5.485   5.972   0.027  0.00  0.00     0.077 C 
ATOM      3  C1  PXY d   1       5.142   4.616   0.613  0.00  0.00    -0.082 A 
ATOM      4  C2  PXY d   1       4.020   4.013   0.253  0.00  0.00     0.003 A 
ATOM      5  C3  PXY d   1       3.679   2.802   0.797  0.00  0.00     0.003 A 
ATOM      6  C4  PXY d   1       4.520   2.176   1.677  0.00  0.00    -0.082 A 
ATOM      7  C5  PXY d   1       5.672   2.779   2.041  0.00  0.00     0.003 A 
ATOM      8  C6  PXY d   1       5.980   4.028   1.509  0.00  0.00     0.003 A 
ENDROOT
TORSDOF 0
ENDMDL
