MODEL 1
REMARK minimizedAffinity 14.4022655
REMARK minimizedRMSD -1
REMARK  0 active torsions:
REMARK  status: ('A' for Active; 'I' for Inactive)
ROOT
ATOM      1  C4' PXY d   1       0.869  -1.223   2.586  0.00  0.00     0.077 C 
ATOM      2  C1' PXY d   1      -4.879  -1.796   2.387  0.00  0.00     0.077 C 
ATOM      3  C1  PXY d   1      -3.373  -1.633   2.442  0.00  0.00    -0.082 A 
ATOM      4  C2  PXY d   1      -2.600  -2.469   1.769  0.00  0.00     0.003 A 
ATOM      5  C3  PXY d   1      -1.235  -2.356   1.834  0.00  0.00     0.003 A 
ATOM      6  C4  PXY d   1      -0.657  -1.344   2.552  0.00  0.00    -0.082 A 
ATOM      7  C5  PXY d   1      -1.439  -0.480   3.233  0.00  0.00     0.003 A 
ATOM      8  C6  PXY d   1      -2.821  -0.637   3.187  0.00  0.00     0.003 A 
ENDROOT
TORSDOF 0
ENDMDL
