MODEL 1
REMARK minimizedAffinity 23.0767708
REMARK minimizedRMSD -1
REMARK  0 active torsions:
REMARK  status: ('A' for Active; 'I' for Inactive)
ROOT
ATOM      1  C4' PXY d   1       6.000   4.731  -4.499  0.00  0.00     0.077 C 
ATOM      2  C1' PXY d   1       1.177   2.355  -2.375  0.00  0.00     0.077 C 
ATOM      3  C1  PXY d   1       2.442   2.987  -2.923  0.00  0.00    -0.082 A 
ATOM      4  C2  PXY d   1       2.754   2.826  -4.198  0.00  0.00     0.003 A 
ATOM      5  C3  PXY d   1       3.910   3.364  -4.703  0.00  0.00     0.003 A 
ATOM      6  C4  PXY d   1       4.728   4.119  -3.905  0.00  0.00    -0.082 A 
ATOM      7  C5  PXY d   1       4.411   4.297  -2.605  0.00  0.00     0.003 A 
ATOM      8  C6  PXY d   1       3.254   3.708  -2.103  0.00  0.00     0.003 A 
ENDROOT
TORSDOF 0
ENDMDL
