MODEL 1
REMARK minimizedAffinity 13.8521624
REMARK minimizedRMSD -1
REMARK  0 active torsions:
REMARK  status: ('A' for Active; 'I' for Inactive)
ROOT
ATOM      1  C4' PXY d   1       5.999   4.813  -4.927  0.00  0.00     0.077 C 
ATOM      2  C1' PXY d   1       1.607   1.875  -2.582  0.00  0.00     0.077 C 
ATOM      3  C1  PXY d   1       2.760   2.636  -3.206  0.00  0.00    -0.082 A 
ATOM      4  C2  PXY d   1       3.439   3.507  -2.478  0.00  0.00     0.003 A 
ATOM      5  C3  PXY d   1       4.464   4.228  -3.035  0.00  0.00     0.003 A 
ATOM      6  C4  PXY d   1       4.833   4.015  -4.336  0.00  0.00    -0.082 A 
ATOM      7  C5  PXY d   1       4.152   3.120  -5.083  0.00  0.00     0.003 A 
ATOM      8  C6  PXY d   1       3.088   2.429  -4.510  0.00  0.00     0.003 A 
ENDROOT
TORSDOF 0
ENDMDL
