MODEL 1
REMARK minimizedAffinity 16.3901329
REMARK minimizedRMSD -1
REMARK  0 active torsions:
REMARK  status: ('A' for Active; 'I' for Inactive)
ROOT
ATOM      1  C4' PXY d   1       2.283   2.428  -2.367  0.00  0.00     0.077 C 
ATOM      2  C1' PXY d   1       3.327  -0.746   2.349  0.00  0.00     0.077 C 
ATOM      3  C1  PXY d   1       3.063   0.080   1.106  0.00  0.00    -0.082 A 
ATOM      4  C2  PXY d   1       2.424   1.234   1.212  0.00  0.00     0.003 A 
ATOM      5  C3  PXY d   1       2.149   1.979   0.094  0.00  0.00     0.003 A 
ATOM      6  C4  PXY d   1       2.579   1.565  -1.138  0.00  0.00    -0.082 A 
ATOM      7  C5  PXY d   1       3.241   0.394  -1.252  0.00  0.00     0.003 A 
ATOM      8  C6  PXY d   1       3.474  -0.368  -0.111  0.00  0.00     0.003 A 
ENDROOT
TORSDOF 0
ENDMDL
