MODEL 1
REMARK minimizedAffinity 14.4533987
REMARK minimizedRMSD -1
REMARK  0 active torsions:
REMARK  status: ('A' for Active; 'I' for Inactive)
ROOT
ATOM      1  C4' PXY d   1      -5.899   0.453   3.186  0.00  0.00     0.077 C 
ATOM      2  C1' PXY d   1      -5.990   5.503   5.997  0.00  0.00     0.077 C 
ATOM      3  C1  PXY d   1      -5.961   4.173   5.270  0.00  0.00    -0.082 A 
ATOM      4  C2  PXY d   1      -5.993   4.150   3.948  0.00  0.00     0.003 A 
ATOM      5  C3  PXY d   1      -5.999   2.955   3.275  0.00  0.00     0.003 A 
ATOM      6  C4  PXY d   1      -5.918   1.773   3.961  0.00  0.00    -0.082 A 
ATOM      7  C5  PXY d   1      -5.874   1.789   5.310  0.00  0.00     0.003 A 
ATOM      8  C6  PXY d   1      -5.910   3.011   5.976  0.00  0.00     0.003 A 
ENDROOT
TORSDOF 0
ENDMDL
