MODEL 1
REMARK minimizedAffinity 6.50475168
REMARK minimizedRMSD -1
REMARK  0 active torsions:
REMARK  status: ('A' for Active; 'I' for Inactive)
ROOT
ATOM      1  C4' PXY d   1       6.000   3.005  -0.376  0.00  0.00     0.077 C 
ATOM      2  C1' PXY d   1       1.042   0.238   0.712  0.00  0.00     0.077 C 
ATOM      3  C1  PXY d   1       2.339   0.973   0.435  0.00  0.00    -0.082 A 
ATOM      4  C2  PXY d   1       2.967   0.781  -0.713  0.00  0.00     0.003 A 
ATOM      5  C3  PXY d   1       4.158   1.413  -0.967  0.00  0.00     0.003 A 
ATOM      6  C4  PXY d   1       4.683   2.291  -0.057  0.00  0.00    -0.082 A 
ATOM      7  C5  PXY d   1       4.042   2.501   1.112  0.00  0.00     0.003 A 
ATOM      8  C6  PXY d   1       2.856   1.818   1.367  0.00  0.00     0.003 A 
ENDROOT
TORSDOF 0
ENDMDL
