MODEL 1
REMARK minimizedAffinity 11.8603001
REMARK minimizedRMSD -1
REMARK  0 active torsions:
REMARK  status: ('A' for Active; 'I' for Inactive)
ROOT
ATOM      1  C4' PXY d   1       0.365  -1.959   2.266  0.00  0.00     0.077 C 
ATOM      2  C1' PXY d   1      -4.809   0.330   1.082  0.00  0.00     0.077 C 
ATOM      3  C1  PXY d   1      -3.448  -0.259   1.396  0.00  0.00    -0.082 A 
ATOM      4  C2  PXY d   1      -3.046  -1.350   0.766  0.00  0.00     0.003 A 
ATOM      5  C3  PXY d   1      -1.831  -1.914   1.061  0.00  0.00     0.003 A 
ATOM      6  C4  PXY d   1      -0.997  -1.325   1.973  0.00  0.00    -0.082 A 
ATOM      7  C5  PXY d   1      -1.396  -0.205   2.613  0.00  0.00     0.003 A 
ATOM      8  C6  PXY d   1      -2.650   0.328   2.329  0.00  0.00     0.003 A 
ENDROOT
TORSDOF 0
ENDMDL
