MODEL 1
REMARK minimizedAffinity 5.1775074
REMARK minimizedRMSD -1
REMARK  0 active torsions:
REMARK  status: ('A' for Active; 'I' for Inactive)
ROOT
ATOM      1  C4' PXY d   1       3.275   3.200  -5.110  0.00  0.00     0.077 C 
ATOM      2  C1' PXY d   1       1.560   2.684   0.387  0.00  0.00     0.077 C 
ATOM      3  C1  PXY d   1       2.001   2.829  -1.057  0.00  0.00    -0.082 A 
ATOM      4  C2  PXY d   1       2.609   1.820  -1.659  0.00  0.00     0.003 A 
ATOM      5  C3  PXY d   1       3.043   1.945  -2.954  0.00  0.00     0.003 A 
ATOM      6  C4  PXY d   1       2.804   3.095  -3.657  0.00  0.00    -0.082 A 
ATOM      7  C5  PXY d   1       2.175   4.125  -3.053  0.00  0.00     0.003 A 
ATOM      8  C6  PXY d   1       1.779   3.993  -1.725  0.00  0.00     0.003 A 
ENDROOT
TORSDOF 0
ENDMDL
