MODEL 1
REMARK minimizedAffinity 8.65330982
REMARK minimizedRMSD -1
REMARK  0 active torsions:
REMARK  status: ('A' for Active; 'I' for Inactive)
ROOT
ATOM      1  C4' PXY d   1       0.385   1.117  -0.787  0.00  0.00     0.077 C 
ATOM      2  C1' PXY d   1       4.500   3.187  -4.279  0.00  0.00     0.077 C 
ATOM      3  C1  PXY d   1       3.414   2.655  -3.365  0.00  0.00    -0.082 A 
ATOM      4  C2  PXY d   1       3.711   1.733  -2.464  0.00  0.00     0.003 A 
ATOM      5  C3  PXY d   1       2.734   1.217  -1.651  0.00  0.00     0.003 A 
ATOM      6  C4  PXY d   1       1.451   1.690  -1.724  0.00  0.00    -0.082 A 
ATOM      7  C5  PXY d   1       1.143   2.639  -2.633  0.00  0.00     0.003 A 
ATOM      8  C6  PXY d   1       2.140   3.119  -3.477  0.00  0.00     0.003 A 
ENDROOT
TORSDOF 0
ENDMDL
