MODEL 1
REMARK minimizedAffinity 14.5562668
REMARK minimizedRMSD -1
REMARK  0 active torsions:
REMARK  status: ('A' for Active; 'I' for Inactive)
ROOT
ATOM      1  C4' PXY d   1      -3.933  -0.371  -0.805  0.00  0.00     0.077 C 
ATOM      2  C1' PXY d   1      -3.397  -5.305   2.158  0.00  0.00     0.077 C 
ATOM      3  C1  PXY d   1      -3.530  -4.005   1.390  0.00  0.00    -0.082 A 
ATOM      4  C2  PXY d   1      -4.582  -3.810   0.611  0.00  0.00     0.003 A 
ATOM      5  C3  PXY d   1      -4.702  -2.653  -0.115  0.00  0.00     0.003 A 
ATOM      6  C4  PXY d   1      -3.762  -1.664  -0.004  0.00  0.00    -0.082 A 
ATOM      7  C5  PXY d   1      -2.691  -1.851   0.797  0.00  0.00     0.003 A 
ATOM      8  C6  PXY d   1      -2.567  -3.049   1.494  0.00  0.00     0.003 A 
ENDROOT
TORSDOF 0
ENDMDL
