MODEL 1
REMARK minimizedAffinity 7.90148735
REMARK minimizedRMSD -1
REMARK  0 active torsions:
REMARK  status: ('A' for Active; 'I' for Inactive)
ROOT
ATOM      1  C4' PXY d   1       0.715  -0.761   1.837  0.00  0.00     0.077 C 
ATOM      2  C1' PXY d   1      -4.342  -3.532   1.434  0.00  0.00     0.077 C 
ATOM      3  C1  PXY d   1      -3.022  -2.794   1.540  0.00  0.00    -0.082 A 
ATOM      4  C2  PXY d   1      -1.910  -3.378   1.122  0.00  0.00     0.003 A 
ATOM      5  C3  PXY d   1      -0.704  -2.737   1.239  0.00  0.00     0.003 A 
ATOM      6  C4  PXY d   1      -0.641  -1.465   1.741  0.00  0.00    -0.082 A 
ATOM      7  C5  PXY d   1      -1.772  -0.858   2.160  0.00  0.00     0.003 A 
ATOM      8  C6  PXY d   1      -2.981  -1.541   2.070  0.00  0.00     0.003 A 
ENDROOT
TORSDOF 0
ENDMDL
