MODEL 1
REMARK minimizedAffinity 16.3290634
REMARK minimizedRMSD -1
REMARK  0 active torsions:
REMARK  status: ('A' for Active; 'I' for Inactive)
ROOT
ATOM      1  C4' PXY d   1       5.749  -5.998   1.205  0.00  0.00     0.077 C 
ATOM      2  C1' PXY d   1       4.009  -1.413  -1.855  0.00  0.00     0.077 C 
ATOM      3  C1  PXY d   1       4.453  -2.620  -1.052  0.00  0.00    -0.082 A 
ATOM      4  C2  PXY d   1       5.567  -2.558  -0.341  0.00  0.00     0.003 A 
ATOM      5  C3  PXY d   1       6.000  -3.651   0.366  0.00  0.00     0.003 A 
ATOM      6  C4  PXY d   1       5.258  -4.801   0.387  0.00  0.00    -0.082 A 
ATOM      7  C5  PXY d   1       4.114  -4.868  -0.328  0.00  0.00     0.003 A 
ATOM      8  C6  PXY d   1       3.713  -3.762  -1.072  0.00  0.00     0.003 A 
ENDROOT
TORSDOF 0
ENDMDL
