MODEL 1
REMARK minimizedAffinity 14.8362026
REMARK minimizedRMSD -1
REMARK  0 active torsions:
REMARK  status: ('A' for Active; 'I' for Inactive)
ROOT
ATOM      1  C4' PXY d   1      -5.301   0.744   0.056  0.00  0.00     0.077 C 
ATOM      2  C1' PXY d   1      -0.956  -0.104   3.773  0.00  0.00     0.077 C 
ATOM      3  C1  PXY d   1      -2.102   0.125   2.808  0.00  0.00    -0.082 A 
ATOM      4  C2  PXY d   1      -2.262  -0.690   1.777  0.00  0.00     0.003 A 
ATOM      5  C3  PXY d   1      -3.274  -0.479   0.876  0.00  0.00     0.003 A 
ATOM      6  C4  PXY d   1      -4.163   0.546   1.061  0.00  0.00    -0.082 A 
ATOM      7  C5  PXY d   1      -4.013   1.375   2.116  0.00  0.00     0.003 A 
ATOM      8  C6  PXY d   1      -2.955   1.168   2.996  0.00  0.00     0.003 A 
ENDROOT
TORSDOF 0
ENDMDL
