MODEL 1
REMARK minimizedAffinity -4.24469233
REMARK minimizedRMSD -1
REMARK  0 active torsions:
REMARK  status: ('A' for Active; 'I' for Inactive)
ROOT
ATOM      1  C1  BNZ d   1       5.564   4.521  -3.821  0.00  0.00     0.000 A 
ATOM      2  C2  BNZ d   1       5.412   3.585  -4.809  0.00  0.00     0.000 A 
ATOM      3  C3  BNZ d   1       4.168   3.168  -5.193  0.00  0.00     0.000 A 
ATOM      4  C4  BNZ d   1       3.081   3.658  -4.563  0.00  0.00     0.000 A 
ATOM      5  C5  BNZ d   1       3.218   4.595  -3.558  0.00  0.00     0.000 A 
ATOM      6  C6  BNZ d   1       4.470   5.041  -3.201  0.00  0.00     0.000 A 
ENDROOT
TORSDOF 0
ENDMDL
