MODEL 1
REMARK minimizedAffinity -3.89577031
REMARK minimizedRMSD -1
REMARK  0 active torsions:
REMARK  status: ('A' for Active; 'I' for Inactive)
ROOT
ATOM      1  C1  BNZ d   1       5.022   4.650  -4.903  0.00  0.00     0.000 A 
ATOM      2  C2  BNZ d   1       6.000   4.617  -3.946  0.00  0.00     0.000 A 
ATOM      3  C3  BNZ d   1       5.826   5.247  -2.745  0.00  0.00     0.000 A 
ATOM      4  C4  BNZ d   1       4.693   5.943  -2.520  0.00  0.00     0.000 A 
ATOM      5  C5  BNZ d   1       3.701   5.994  -3.480  0.00  0.00     0.000 A 
ATOM      6  C6  BNZ d   1       3.863   5.325  -4.671  0.00  0.00     0.000 A 
ENDROOT
TORSDOF 0
ENDMDL
