MODEL 1
REMARK minimizedAffinity -0.304523379
REMARK minimizedRMSD -1
REMARK  0 active torsions:
REMARK  status: ('A' for Active; 'I' for Inactive)
ROOT
ATOM      1  C1  BNZ d   1       0.082  -1.877  -2.181  0.00  0.00     0.000 A 
ATOM      2  C2  BNZ d   1      -0.311  -2.583  -3.287  0.00  0.00     0.000 A 
ATOM      3  C3  BNZ d   1      -0.845  -3.835  -3.165  0.00  0.00     0.000 A 
ATOM      4  C4  BNZ d   1      -0.948  -4.396  -1.943  0.00  0.00     0.000 A 
ATOM      5  C5  BNZ d   1      -0.548  -3.701  -0.819  0.00  0.00     0.000 A 
ATOM      6  C6  BNZ d   1      -0.047  -2.426  -0.942  0.00  0.00     0.000 A 
ENDROOT
TORSDOF 0
ENDMDL
