MODEL 1
REMARK minimizedAffinity 2.24875832
REMARK minimizedRMSD -1
REMARK  0 active torsions:
REMARK  status: ('A' for Active; 'I' for Inactive)
ROOT
ATOM      1  C1  BNZ d   1       4.049   3.640  -2.959  0.00  0.00     0.000 A 
ATOM      2  C2  BNZ d   1       5.344   3.655  -2.512  0.00  0.00     0.000 A 
ATOM      3  C3  BNZ d   1       6.000   4.836  -2.307  0.00  0.00     0.000 A 
ATOM      4  C4  BNZ d   1       5.376   5.998  -2.586  0.00  0.00     0.000 A 
ATOM      5  C5  BNZ d   1       4.074   6.000  -3.046  0.00  0.00     0.000 A 
ATOM      6  C6  BNZ d   1       3.403   4.810  -3.215  0.00  0.00     0.000 A 
ENDROOT
TORSDOF 0
ENDMDL
