MODEL 1
REMARK minimizedAffinity 4.65127039
REMARK minimizedRMSD -1
REMARK  0 active torsions:
REMARK  status: ('A' for Active; 'I' for Inactive)
ROOT
ATOM      1  C1  BNZ d   1       0.221  -3.628  -3.803  0.00  0.00     0.000 A 
ATOM      2  C2  BNZ d   1       0.873  -3.244  -2.661  0.00  0.00     0.000 A 
ATOM      3  C3  BNZ d   1       0.282  -2.395  -1.768  0.00  0.00     0.000 A 
ATOM      4  C4  BNZ d   1      -0.944  -1.900  -2.037  0.00  0.00     0.000 A 
ATOM      5  C5  BNZ d   1      -1.611  -2.270  -3.188  0.00  0.00     0.000 A 
ATOM      6  C6  BNZ d   1      -1.028  -3.155  -4.065  0.00  0.00     0.000 A 
ENDROOT
TORSDOF 0
ENDMDL
