MODEL 1
REMARK minimizedAffinity -0.517832637
REMARK minimizedRMSD -1
REMARK  0 active torsions:
REMARK  status: ('A' for Active; 'I' for Inactive)
ROOT
ATOM      1  C1  BNZ d   1       4.982  -2.485  -1.467  0.00  0.00     0.000 A 
ATOM      2  C2  BNZ d   1       4.121  -2.225  -2.500  0.00  0.00     0.000 A 
ATOM      3  C3  BNZ d   1       4.177  -2.952  -3.656  0.00  0.00     0.000 A 
ATOM      4  C4  BNZ d   1       5.117  -3.909  -3.794  0.00  0.00     0.000 A 
ATOM      5  C5  BNZ d   1       5.998  -4.176  -2.765  0.00  0.00     0.000 A 
ATOM      6  C6  BNZ d   1       5.914  -3.469  -1.588  0.00  0.00     0.000 A 
ENDROOT
TORSDOF 0
ENDMDL
