MODEL 1
REMARK minimizedAffinity 2.28547192
REMARK minimizedRMSD -1
REMARK  0 active torsions:
REMARK  status: ('A' for Active; 'I' for Inactive)
ROOT
ATOM      1  C1  BNZ d   1       4.889  -2.687  -2.270  0.00  0.00     0.000 A 
ATOM      2  C2  BNZ d   1       3.773  -2.272  -2.947  0.00  0.00     0.000 A 
ATOM      3  C3  BNZ d   1       3.754  -2.245  -4.314  0.00  0.00     0.000 A 
ATOM      4  C4  BNZ d   1       4.862  -2.594  -4.999  0.00  0.00     0.000 A 
ATOM      5  C5  BNZ d   1       5.997  -3.006  -4.331  0.00  0.00     0.000 A 
ATOM      6  C6  BNZ d   1       6.000  -3.069  -2.956  0.00  0.00     0.000 A 
ENDROOT
TORSDOF 0
ENDMDL
