MODEL 1
REMARK minimizedAffinity -0.559071839
REMARK minimizedRMSD -1
REMARK  0 active torsions:
REMARK  status: ('A' for Active; 'I' for Inactive)
ROOT
ATOM      1  C1  BNZ d   1       5.025   5.274  -0.395  0.00  0.00     0.000 A 
ATOM      2  C2  BNZ d   1       5.984   5.976  -1.075  0.00  0.00     0.000 A 
ATOM      3  C3  BNZ d   1       5.998   5.998  -2.442  0.00  0.00     0.000 A 
ATOM      4  C4  BNZ d   1       5.079   5.287  -3.126  0.00  0.00     0.000 A 
ATOM      5  C5  BNZ d   1       4.110   4.568  -2.455  0.00  0.00     0.000 A 
ATOM      6  C6  BNZ d   1       4.076   4.579  -1.079  0.00  0.00     0.000 A 
ENDROOT
TORSDOF 0
ENDMDL
