MODEL 1
REMARK minimizedAffinity 1.26193666
REMARK minimizedRMSD -1
REMARK  0 active torsions:
REMARK  status: ('A' for Active; 'I' for Inactive)
ROOT
ATOM      1  C1  BNZ d   1       5.087   5.235  -3.187  0.00  0.00     0.000 A 
ATOM      2  C2  BNZ d   1       5.999   5.963  -2.471  0.00  0.00     0.000 A 
ATOM      3  C3  BNZ d   1       5.948   6.000  -1.105  0.00  0.00     0.000 A 
ATOM      4  C4  BNZ d   1       4.963   5.342  -0.460  0.00  0.00     0.000 A 
ATOM      5  C5  BNZ d   1       4.030   4.611  -1.169  0.00  0.00     0.000 A 
ATOM      6  C6  BNZ d   1       4.108   4.545  -2.541  0.00  0.00     0.000 A 
ENDROOT
TORSDOF 0
ENDMDL
