MODEL 1
REMARK minimizedAffinity 6.47044706
REMARK minimizedRMSD -1
REMARK  0 active torsions:
REMARK  status: ('A' for Active; 'I' for Inactive)
ROOT
ATOM      1  C1  BNZ d   1      -2.918   0.037   6.000  0.00  0.00     0.000 A 
ATOM      2  C2  BNZ d   1      -2.243  -1.154   5.996  0.00  0.00     0.000 A 
ATOM      3  C3  BNZ d   1      -1.568  -1.573   4.883  0.00  0.00     0.000 A 
ATOM      4  C4  BNZ d   1      -1.603  -0.820   3.765  0.00  0.00     0.000 A 
ATOM      5  C5  BNZ d   1      -2.288   0.379   3.750  0.00  0.00     0.000 A 
ATOM      6  C6  BNZ d   1      -2.933   0.815   4.884  0.00  0.00     0.000 A 
ENDROOT
TORSDOF 0
ENDMDL
