MODEL 1
REMARK minimizedAffinity 4.79738665
REMARK minimizedRMSD -1
REMARK  0 active torsions:
REMARK  status: ('A' for Active; 'I' for Inactive)
ROOT
ATOM      1  C1  BNZ d   1       2.303   4.468  -0.578  0.00  0.00     0.000 A 
ATOM      2  C2  BNZ d   1       3.654   4.636  -0.432  0.00  0.00     0.000 A 
ATOM      3  C3  BNZ d   1       4.427   5.041  -1.484  0.00  0.00     0.000 A 
ATOM      4  C4  BNZ d   1       3.854   5.239  -2.690  0.00  0.00     0.000 A 
ATOM      5  C5  BNZ d   1       2.495   5.064  -2.855  0.00  0.00     0.000 A 
ATOM      6  C6  BNZ d   1       1.714   4.694  -1.784  0.00  0.00     0.000 A 
ENDROOT
TORSDOF 0
ENDMDL
