MODEL 1
REMARK minimizedAffinity 2.2880857
REMARK minimizedRMSD -1
REMARK  0 active torsions:
REMARK  status: ('A' for Active; 'I' for Inactive)
ROOT
ATOM      1  C1  BNZ d   1      -4.152  -2.631   1.040  0.00  0.00     0.000 A 
ATOM      2  C2  BNZ d   1      -3.891  -2.114  -0.201  0.00  0.00     0.000 A 
ATOM      3  C3  BNZ d   1      -2.625  -2.136  -0.717  0.00  0.00     0.000 A 
ATOM      4  C4  BNZ d   1      -1.616  -2.637   0.024  0.00  0.00     0.000 A 
ATOM      5  C5  BNZ d   1      -1.861  -3.153   1.281  0.00  0.00     0.000 A 
ATOM      6  C6  BNZ d   1      -3.143  -3.165   1.781  0.00  0.00     0.000 A 
ENDROOT
TORSDOF 0
ENDMDL
