MODEL 1
REMARK minimizedAffinity 4.44235229
REMARK minimizedRMSD -1
REMARK  0 active torsions:
REMARK  status: ('A' for Active; 'I' for Inactive)
ROOT
ATOM      1  C1  BNZ d   1       5.963  -0.657  -3.940  0.00  0.00     0.000 A 
ATOM      2  C2  BNZ d   1       5.936   0.600  -4.482  0.00  0.00     0.000 A 
ATOM      3  C3  BNZ d   1       4.764   1.144  -4.929  0.00  0.00     0.000 A 
ATOM      4  C4  BNZ d   1       3.630   0.416  -4.870  0.00  0.00     0.000 A 
ATOM      5  C5  BNZ d   1       3.643  -0.856  -4.334  0.00  0.00     0.000 A 
ATOM      6  C6  BNZ d   1       4.817  -1.386  -3.850  0.00  0.00     0.000 A 
ENDROOT
TORSDOF 0
ENDMDL
