MODEL 1
REMARK minimizedAffinity 11.8960104
REMARK minimizedRMSD -1
REMARK  0 active torsions:
REMARK  status: ('A' for Active; 'I' for Inactive)
ROOT
ATOM      1  C   UNL d   1       0.231   1.735   0.137  0.00  0.00     0.023 A 
ATOM      2  C1  UNL d   1       0.280   3.041   0.624  0.00  0.00     0.003 A 
ATOM      3  C2  UNL d   1       1.396   3.479   1.341  0.00  0.00     0.048 A 
ATOM      4  C3  UNL d   1       2.460   2.606   1.565  0.00  0.00     0.023 A 
ATOM      5  C4  UNL d   1       2.416   1.299   1.079  0.00  0.00     0.048 A 
ATOM      6  C5  UNL d   1       1.298   0.865   0.364  0.00  0.00     0.003 A 
ATOM      7  I   UNL d   1       4.122   3.256   2.630  0.00  0.00    -0.146 I 
ENDROOT
TORSDOF 0
ENDMDL
