MODEL 1
REMARK minimizedAffinity 0.586811364
REMARK minimizedRMSD -1
REMARK  0 active torsions:
REMARK  status: ('A' for Active; 'I' for Inactive)
ROOT
ATOM      1  C   UNL d   1       3.977   1.564  -0.845  0.00  0.00     0.023 A 
ATOM      2  C1  UNL d   1       2.822   1.531  -0.064  0.00  0.00     0.003 A 
ATOM      3  C2  UNL d   1       2.184   0.315   0.190  0.00  0.00     0.048 A 
ATOM      4  C3  UNL d   1       2.708  -0.864  -0.339  0.00  0.00     0.023 A 
ATOM      5  C4  UNL d   1       3.864  -0.836  -1.120  0.00  0.00     0.048 A 
ATOM      6  C5  UNL d   1       4.498   0.382  -1.372  0.00  0.00     0.003 A 
ATOM      7  I   UNL d   1       1.761  -2.676   0.039  0.00  0.00    -0.146 I 
ENDROOT
TORSDOF 0
ENDMDL
