MODEL 1
REMARK minimizedAffinity 6.57709122
REMARK minimizedRMSD -1
REMARK  0 active torsions:
REMARK  status: ('A' for Active; 'I' for Inactive)
ROOT
ATOM      1  C   UNL d   1      -1.412   2.587   1.341  0.00  0.00     0.023 A 
ATOM      2  C1  UNL d   1      -0.086   2.296   1.022  0.00  0.00     0.003 A 
ATOM      3  C2  UNL d   1       0.736   1.666   1.958  0.00  0.00     0.048 A 
ATOM      4  C3  UNL d   1       0.226   1.329   3.212  0.00  0.00     0.023 A 
ATOM      5  C4  UNL d   1      -1.101   1.618   3.535  0.00  0.00     0.048 A 
ATOM      6  C5  UNL d   1      -1.919   2.249   2.596  0.00  0.00     0.003 A 
ATOM      7  I   UNL d   1       1.448   0.391   4.607  0.00  0.00    -0.146 I 
ENDROOT
TORSDOF 0
ENDMDL
