MODEL 1
REMARK minimizedAffinity -2.87115288
REMARK minimizedRMSD -1
REMARK  0 active torsions:
REMARK  status: ('A' for Active; 'I' for Inactive)
ROOT
ATOM      1  C   UNL d   1       1.172  -2.436  -0.414  0.00  0.00     0.023 A 
ATOM      2  C1  UNL d   1      -0.051  -1.768  -0.369  0.00  0.00     0.003 A 
ATOM      3  C2  UNL d   1      -0.096  -0.411  -0.042  0.00  0.00     0.048 A 
ATOM      4  C3  UNL d   1       1.087   0.272   0.238  0.00  0.00     0.023 A 
ATOM      5  C4  UNL d   1       2.314  -0.393   0.194  0.00  0.00     0.048 A 
ATOM      6  C5  UNL d   1       2.353  -1.750  -0.133  0.00  0.00     0.003 A 
ATOM      7  I   UNL d   1       1.023   2.291   0.724  0.00  0.00    -0.146 I 
ENDROOT
TORSDOF 0
ENDMDL
