MODEL 1
REMARK minimizedAffinity -0.691424906
REMARK minimizedRMSD -1
REMARK  0 active torsions:
REMARK  status: ('A' for Active; 'I' for Inactive)
ROOT
ATOM      1  C   UNL d   1       2.206  -1.352   0.593  0.00  0.00     0.023 A 
ATOM      2  C1  UNL d   1       1.841  -0.006   0.642  0.00  0.00     0.003 A 
ATOM      3  C2  UNL d   1       0.748   0.449  -0.098  0.00  0.00     0.048 A 
ATOM      4  C3  UNL d   1       0.024  -0.446  -0.885  0.00  0.00     0.023 A 
ATOM      5  C4  UNL d   1       0.385  -1.793  -0.937  0.00  0.00     0.048 A 
ATOM      6  C5  UNL d   1       1.479  -2.244  -0.196  0.00  0.00     0.003 A 
ATOM      7  I   UNL d   1      -1.603   0.230  -1.987  0.00  0.00    -0.146 I 
ENDROOT
TORSDOF 0
ENDMDL
