MODEL 1
REMARK minimizedAffinity 2.34535432
REMARK minimizedRMSD -1
REMARK  0 active torsions:
REMARK  status: ('A' for Active; 'I' for Inactive)
ROOT
ATOM      1  C   UNL d   1       1.190   1.558   1.523  0.00  0.00     0.023 A 
ATOM      2  C1  UNL d   1       0.550   1.988   0.361  0.00  0.00     0.003 A 
ATOM      3  C2  UNL d   1      -0.838   2.137   0.341  0.00  0.00     0.048 A 
ATOM      4  C3  UNL d   1      -1.580   1.855   1.487  0.00  0.00     0.023 A 
ATOM      5  C4  UNL d   1      -0.944   1.425   2.653  0.00  0.00     0.048 A 
ATOM      6  C5  UNL d   1       0.444   1.277   2.668  0.00  0.00     0.003 A 
ATOM      7  I   UNL d   1      -3.647   2.076   1.460  0.00  0.00    -0.146 I 
ENDROOT
TORSDOF 0
ENDMDL
