MODEL 1
REMARK minimizedAffinity 5.2332449
REMARK minimizedRMSD -1
REMARK  0 active torsions:
REMARK  status: ('A' for Active; 'I' for Inactive)
ROOT
ATOM      1  C   UNL d   1       4.236   0.389   0.537  0.00  0.00     0.023 A 
ATOM      2  C1  UNL d   1       3.902   1.740   0.448  0.00  0.00     0.003 A 
ATOM      3  C2  UNL d   1       2.597   2.118   0.124  0.00  0.00     0.048 A 
ATOM      4  C3  UNL d   1       1.632   1.140  -0.110  0.00  0.00     0.023 A 
ATOM      5  C4  UNL d   1       1.961  -0.214  -0.021  0.00  0.00     0.048 A 
ATOM      6  C5  UNL d   1       3.267  -0.587   0.302  0.00  0.00     0.003 A 
ATOM      7  I   UNL d   1      -0.311   1.700  -0.592  0.00  0.00    -0.146 I 
ENDROOT
TORSDOF 0
ENDMDL
