MODEL 1
REMARK minimizedAffinity 3.16089821
REMARK minimizedRMSD -1
REMARK  0 active torsions:
REMARK  status: ('A' for Active; 'I' for Inactive)
ROOT
ATOM      1  C   UNL d   1       0.393   2.224   0.932  0.00  0.00     0.023 A 
ATOM      2  C1  UNL d   1      -0.622   1.375   1.372  0.00  0.00     0.003 A 
ATOM      3  C2  UNL d   1      -0.768   0.107   0.807  0.00  0.00     0.048 A 
ATOM      4  C3  UNL d   1       0.105  -0.307  -0.198  0.00  0.00     0.023 A 
ATOM      5  C4  UNL d   1       1.123   0.539  -0.642  0.00  0.00     0.048 A 
ATOM      6  C5  UNL d   1       1.265   1.807  -0.074  0.00  0.00     0.003 A 
ATOM      7  I   UNL d   1      -0.110  -2.194  -1.041  0.00  0.00    -0.146 I 
ENDROOT
TORSDOF 0
ENDMDL
