MODEL 1
REMARK minimizedAffinity 0.776450157
REMARK minimizedRMSD -1
REMARK  1 active torsions:
REMARK  status: ('A' for Active; 'I' for Inactive)
REMARK    1  A    between atoms: C3_4  and  O_7 
ROOT
ATOM      1  C   UNL d   1       0.874   0.733  -1.354  0.00  0.00    -0.033 A 
ATOM      2  C1  UNL d   1       1.140   0.566  -2.715  0.00  0.00     0.039 A 
ATOM      3  C2  UNL d   1       1.351  -0.712  -3.235  0.00  0.00    -0.080 A 
ATOM      4  C3  UNL d   1       1.292  -1.814  -2.386  0.00  0.00     0.150 A 
ATOM      5  C4  UNL d   1       1.024  -1.656  -1.030  0.00  0.00    -0.007 A 
ATOM      6  C5  UNL d   1       0.814  -0.378  -0.512  0.00  0.00     0.039 A 
ENDROOT
BRANCH   4   7
ATOM      7  O   UNL d   1       1.496  -3.081  -2.847  0.00  0.00    -0.526 OA
ATOM      8  H5  UNL d   1       1.699  -3.034  -3.796  0.00  0.00     0.418 HD
ENDBRANCH   4   7
TORSDOF 1
ENDMDL
