MODEL 1
REMARK minimizedAffinity -1.73213172
REMARK minimizedRMSD -1
REMARK  1 active torsions:
REMARK  status: ('A' for Active; 'I' for Inactive)
REMARK    1  A    between atoms: C3_4  and  O_7 
ROOT
ATOM      1  C   UNL d   1       2.403  -1.045  -0.647  0.00  0.00    -0.033 A 
ATOM      2  C1  UNL d   1       2.304  -2.107   0.254  0.00  0.00     0.039 A 
ATOM      3  C2  UNL d   1       1.050  -2.561   0.666  0.00  0.00    -0.080 A 
ATOM      4  C3  UNL d   1      -0.096  -1.946   0.169  0.00  0.00     0.150 A 
ATOM      5  C4  UNL d   1      -0.005  -0.890  -0.732  0.00  0.00    -0.007 A 
ATOM      6  C5  UNL d   1       1.249  -0.438  -1.141  0.00  0.00     0.039 A 
ENDROOT
BRANCH   4   7
ATOM      7  O   UNL d   1      -1.342  -2.351   0.545  0.00  0.00    -0.526 OA
ATOM      8  H5  UNL d   1      -1.250  -3.070   1.193  0.00  0.00     0.418 HD
ENDBRANCH   4   7
TORSDOF 1
ENDMDL
