MODEL 1
REMARK minimizedAffinity -4.01016474
REMARK minimizedRMSD -1
REMARK  1 active torsions:
REMARK  status: ('A' for Active; 'I' for Inactive)
REMARK    1  A    between atoms: C3_4  and  O_7 
ROOT
ATOM      1  C   UNL d   1      -4.551  -1.093   2.639  0.00  0.00    -0.033 A 
ATOM      2  C1  UNL d   1      -3.380  -1.325   3.364  0.00  0.00     0.039 A 
ATOM      3  C2  UNL d   1      -2.857  -0.326   4.188  0.00  0.00    -0.080 A 
ATOM      4  C3  UNL d   1      -3.514   0.898   4.279  0.00  0.00     0.150 A 
ATOM      5  C4  UNL d   1      -4.683   1.134   3.563  0.00  0.00    -0.007 A 
ATOM      6  C5  UNL d   1      -5.203   0.136   2.740  0.00  0.00     0.039 A 
ENDROOT
BRANCH   4   7
ATOM      7  O   UNL d   1      -3.040   1.904   5.066  0.00  0.00    -0.526 OA
ATOM      8  H5  UNL d   1      -2.211   1.608   5.478  0.00  0.00     0.418 HD
ENDBRANCH   4   7
TORSDOF 1
ENDMDL
