MODEL 1
REMARK minimizedAffinity -4.1811595
REMARK minimizedRMSD -1
REMARK  1 active torsions:
REMARK  status: ('A' for Active; 'I' for Inactive)
REMARK    1  A    between atoms: C3_4  and  O_7 
ROOT
ATOM      1  C   UNL d   1       0.317  -0.910  -0.940  0.00  0.00    -0.033 A 
ATOM      2  C1  UNL d   1      -0.664  -1.713  -0.353  0.00  0.00     0.039 A 
ATOM      3  C2  UNL d   1      -0.296  -2.843   0.379  0.00  0.00    -0.080 A 
ATOM      4  C3  UNL d   1       1.053  -3.159   0.518  0.00  0.00     0.150 A 
ATOM      5  C4  UNL d   1       2.034  -2.362  -0.061  0.00  0.00    -0.007 A 
ATOM      6  C5  UNL d   1       1.666  -1.234  -0.792  0.00  0.00     0.039 A 
ENDROOT
BRANCH   4   7
ATOM      7  O   UNL d   1       1.459  -4.255   1.219  0.00  0.00    -0.526 OA
ATOM      8  H5  UNL d   1       0.672  -4.727   1.538  0.00  0.00     0.418 HD
ENDBRANCH   4   7
TORSDOF 1
ENDMDL
