MODEL 1
REMARK minimizedAffinity -2.34621143
REMARK minimizedRMSD -1
REMARK  1 active torsions:
REMARK  status: ('A' for Active; 'I' for Inactive)
REMARK    1  A    between atoms: C3_4  and  O_7 
ROOT
ATOM      1  C   UNL d   1       0.822   0.561  -0.905  0.00  0.00    -0.033 A 
ATOM      2  C1  UNL d   1       1.632  -0.314  -1.631  0.00  0.00     0.039 A 
ATOM      3  C2  UNL d   1       1.977  -0.018  -2.951  0.00  0.00    -0.080 A 
ATOM      4  C3  UNL d   1       1.507   1.156  -3.532  0.00  0.00     0.150 A 
ATOM      5  C4  UNL d   1       0.702   2.035  -2.815  0.00  0.00    -0.007 A 
ATOM      6  C5  UNL d   1       0.358   1.737  -1.497  0.00  0.00     0.039 A 
ENDROOT
BRANCH   4   7
ATOM      7  O   UNL d   1       1.813   1.486  -4.819  0.00  0.00    -0.526 OA
ATOM      8  H5  UNL d   1       2.352   0.772  -5.200  0.00  0.00     0.418 HD
ENDBRANCH   4   7
TORSDOF 1
ENDMDL
