MODEL 1
REMARK minimizedAffinity 1.81005037
REMARK minimizedRMSD -1
REMARK  1 active torsions:
REMARK  status: ('A' for Active; 'I' for Inactive)
REMARK    1  A    between atoms: C3_4  and  O_7 
ROOT
ATOM      1  C   UNL d   1       0.883   1.255  -3.634  0.00  0.00    -0.033 A 
ATOM      2  C1  UNL d   1       1.304  -0.074  -3.718  0.00  0.00     0.039 A 
ATOM      3  C2  UNL d   1       1.452  -0.837  -2.558  0.00  0.00    -0.080 A 
ATOM      4  C3  UNL d   1       1.176  -0.260  -1.322  0.00  0.00     0.150 A 
ATOM      5  C4  UNL d   1       0.753   1.062  -1.230  0.00  0.00    -0.007 A 
ATOM      6  C5  UNL d   1       0.607   1.822  -2.389  0.00  0.00     0.039 A 
ENDROOT
BRANCH   4   7
ATOM      7  O   UNL d   1       1.310  -0.963  -0.161  0.00  0.00    -0.526 OA
ATOM      8  H5  UNL d   1       1.637  -1.853  -0.377  0.00  0.00     0.418 HD
ENDBRANCH   4   7
TORSDOF 1
ENDMDL
