MODEL 1
REMARK minimizedAffinity 0.767831326
REMARK minimizedRMSD -1
REMARK  1 active torsions:
REMARK  status: ('A' for Active; 'I' for Inactive)
REMARK    1  A    between atoms: C3_4  and  O_7 
ROOT
ATOM      1  C   UNL d   1       1.508  -1.572  -4.364  0.00  0.00    -0.033 A 
ATOM      2  C1  UNL d   1       1.302  -0.237  -4.010  0.00  0.00     0.039 A 
ATOM      3  C2  UNL d   1       1.083   0.107  -2.675  0.00  0.00    -0.080 A 
ATOM      4  C3  UNL d   1       1.073  -0.892  -1.705  0.00  0.00     0.150 A 
ATOM      5  C4  UNL d   1       1.281  -2.223  -2.050  0.00  0.00    -0.007 A 
ATOM      6  C5  UNL d   1       1.498  -2.565  -3.384  0.00  0.00     0.039 A 
ENDROOT
BRANCH   4   7
ATOM      7  O   UNL d   1       0.858  -0.605  -0.389  0.00  0.00    -0.526 OA
ATOM      8  H5  UNL d   1       0.702   0.350  -0.304  0.00  0.00     0.418 HD
ENDBRANCH   4   7
TORSDOF 1
ENDMDL
