MODEL 1
REMARK minimizedAffinity 5.62098455
REMARK minimizedRMSD -1
REMARK  1 active torsions:
REMARK  status: ('A' for Active; 'I' for Inactive)
REMARK    1  A    between atoms: C3_4  and  O_7 
ROOT
ATOM      1  C   UNL d   1       1.189  -1.047  -1.113  0.00  0.00    -0.033 A 
ATOM      2  C1  UNL d   1       0.478   0.037  -0.593  0.00  0.00     0.039 A 
ATOM      3  C2  UNL d   1       0.282   1.181  -1.368  0.00  0.00    -0.080 A 
ATOM      4  C3  UNL d   1       0.799   1.229  -2.659  0.00  0.00     0.150 A 
ATOM      5  C4  UNL d   1       1.505   0.152  -3.185  0.00  0.00    -0.007 A 
ATOM      6  C5  UNL d   1       1.701  -0.990  -2.409  0.00  0.00     0.039 A 
ENDROOT
BRANCH   4   7
ATOM      7  O   UNL d   1       0.637   2.327  -3.451  0.00  0.00    -0.526 OA
ATOM      8  H5  UNL d   1       0.155   3.002  -2.946  0.00  0.00     0.418 HD
ENDBRANCH   4   7
TORSDOF 1
ENDMDL
