MODEL 1
REMARK minimizedAffinity 7.78990269
REMARK minimizedRMSD -1
REMARK  1 active torsions:
REMARK  status: ('A' for Active; 'I' for Inactive)
REMARK    1  A    between atoms: C3_4  and  O_7 
ROOT
ATOM      1  C   UNL d   1      -5.258   5.951   5.983  0.00  0.00    -0.033 A 
ATOM      2  C1  UNL d   1      -5.967   5.636   4.823  0.00  0.00     0.039 A 
ATOM      3  C2  UNL d   1      -5.283   5.357   3.638  0.00  0.00    -0.080 A 
ATOM      4  C3  UNL d   1      -3.892   5.395   3.628  0.00  0.00     0.150 A 
ATOM      5  C4  UNL d   1      -3.178   5.705   4.781  0.00  0.00    -0.007 A 
ATOM      6  C5  UNL d   1      -3.863   5.984   5.963  0.00  0.00     0.039 A 
ENDROOT
BRANCH   4   7
ATOM      7  O   UNL d   1      -3.180   5.135   2.494  0.00  0.00    -0.526 OA
ATOM      8  H5  UNL d   1      -3.806   4.965   1.770  0.00  0.00     0.418 HD
ENDBRANCH   4   7
TORSDOF 1
ENDMDL
