MODEL 1
REMARK minimizedAffinity 2.51472259
REMARK minimizedRMSD -1
REMARK  1 active torsions:
REMARK  status: ('A' for Active; 'I' for Inactive)
REMARK    1  A    between atoms: C3_4  and  O_7 
ROOT
ATOM      1  C   UNL d   1      -5.054   5.986   6.000  0.00  0.00    -0.033 A 
ATOM      2  C1  UNL d   1      -6.000   5.810   4.988  0.00  0.00     0.039 A 
ATOM      3  C2  UNL d   1      -5.587   5.651   3.664  0.00  0.00    -0.080 A 
ATOM      4  C3  UNL d   1      -4.227   5.669   3.365  0.00  0.00     0.150 A 
ATOM      5  C4  UNL d   1      -3.279   5.840   4.369  0.00  0.00    -0.007 A 
ATOM      6  C5  UNL d   1      -3.694   5.999   5.690  0.00  0.00     0.039 A 
ENDROOT
BRANCH   4   7
ATOM      7  O   UNL d   1      -3.777   5.523   2.087  0.00  0.00    -0.526 OA
ATOM      8  H5  UNL d   1      -4.545   5.443   1.497  0.00  0.00     0.418 HD
ENDBRANCH   4   7
TORSDOF 1
ENDMDL
