MODEL 1
REMARK minimizedAffinity 1.79164815
REMARK minimizedRMSD -1
REMARK  1 active torsions:
REMARK  status: ('A' for Active; 'I' for Inactive)
REMARK    1  A    between atoms: C3_4  and  O_7 
ROOT
ATOM      1  C   UNL d   1       1.225  -1.834  -1.481  0.00  0.00    -0.033 A 
ATOM      2  C1  UNL d   1       1.511  -1.538  -2.815  0.00  0.00     0.039 A 
ATOM      3  C2  UNL d   1       1.368  -0.232  -3.289  0.00  0.00    -0.080 A 
ATOM      4  C3  UNL d   1       0.939   0.767  -2.419  0.00  0.00     0.150 A 
ATOM      5  C4  UNL d   1       0.657   0.480  -1.088  0.00  0.00    -0.007 A 
ATOM      6  C5  UNL d   1       0.800  -0.825  -0.617  0.00  0.00     0.039 A 
ENDROOT
BRANCH   4   7
ATOM      7  O   UNL d   1       0.780   2.055  -2.837  0.00  0.00    -0.526 OA
ATOM      8  H5  UNL d   1       0.984   2.098  -3.786  0.00  0.00     0.418 HD
ENDBRANCH   4   7
TORSDOF 1
ENDMDL
