MODEL 1
REMARK minimizedAffinity -1.14166522
REMARK minimizedRMSD -1
REMARK  1 active torsions:
REMARK  status: ('A' for Active; 'I' for Inactive)
REMARK    1  A    between atoms: C3_4  and  O_7 
ROOT
ATOM      1  C   UNL d   1       1.164   0.609  -3.359  0.00  0.00    -0.033 A 
ATOM      2  C1  UNL d   1       0.576   1.464  -2.424  0.00  0.00     0.039 A 
ATOM      3  C2  UNL d   1       0.372   1.033  -1.112  0.00  0.00    -0.080 A 
ATOM      4  C3  UNL d   1       0.761  -0.254  -0.747  0.00  0.00     0.150 A 
ATOM      5  C4  UNL d   1       1.350  -1.109  -1.672  0.00  0.00    -0.007 A 
ATOM      6  C5  UNL d   1       1.552  -0.677  -2.982  0.00  0.00     0.039 A 
ENDROOT
BRANCH   4   7
ATOM      7  O   UNL d   1       0.578  -0.721   0.520  0.00  0.00    -0.526 OA
ATOM      8  H5  UNL d   1       0.134  -0.031   1.042  0.00  0.00     0.418 HD
ENDBRANCH   4   7
TORSDOF 1
ENDMDL
