MODEL 1
REMARK minimizedAffinity -3.64469719
REMARK minimizedRMSD -1
REMARK  1 active torsions:
REMARK  status: ('A' for Active; 'I' for Inactive)
REMARK    1  A    between atoms: C3_4  and  O_7 
ROOT
ATOM      1  C   UNL d   1      -3.774   5.986   3.892  0.00  0.00    -0.033 A 
ATOM      2  C1  UNL d   1      -3.765   6.000   5.288  0.00  0.00     0.039 A 
ATOM      3  C2  UNL d   1      -3.781   4.799   6.000  0.00  0.00    -0.080 A 
ATOM      4  C3  UNL d   1      -3.805   3.593   5.305  0.00  0.00     0.150 A 
ATOM      5  C4  UNL d   1      -3.810   3.572   3.914  0.00  0.00    -0.007 A 
ATOM      6  C5  UNL d   1      -3.795   4.772   3.205  0.00  0.00     0.039 A 
ENDROOT
BRANCH   4   7
ATOM      7  O   UNL d   1      -3.826   2.395   5.956  0.00  0.00    -0.526 OA
ATOM      8  H5  UNL d   1      -3.848   2.565   6.912  0.00  0.00     0.418 HD
ENDBRANCH   4   7
TORSDOF 1
ENDMDL
