MODEL 1
REMARK minimizedAffinity 5.83356285
REMARK minimizedRMSD -1
REMARK  1 active torsions:
REMARK  status: ('A' for Active; 'I' for Inactive)
REMARK    1  A    between atoms: C3_4  and  O_7 
ROOT
ATOM      1  C   UNL d   1       4.615  -5.996   4.631  0.00  0.00    -0.033 A 
ATOM      2  C1  UNL d   1       3.374  -5.996   5.270  0.00  0.00     0.039 A 
ATOM      3  C2  UNL d   1       2.198  -5.996   4.517  0.00  0.00    -0.080 A 
ATOM      4  C3  UNL d   1       2.277  -5.997   3.127  0.00  0.00     0.150 A 
ATOM      5  C4  UNL d   1       3.510  -6.000   2.483  0.00  0.00    -0.007 A 
ATOM      6  C5  UNL d   1       4.683  -5.999   3.237  0.00  0.00     0.039 A 
ENDROOT
BRANCH   4   7
ATOM      7  O   UNL d   1       1.157  -5.992   2.350  0.00  0.00    -0.526 OA
ATOM      8  H5  UNL d   1       0.379  -5.960   2.932  0.00  0.00     0.418 HD
ENDBRANCH   4   7
TORSDOF 1
ENDMDL
