MODEL 1
REMARK minimizedAffinity 2.34533739
REMARK minimizedRMSD -1
REMARK  1 active torsions:
REMARK  status: ('A' for Active; 'I' for Inactive)
REMARK    1  A    between atoms: C3_4  and  O_7 
ROOT
ATOM      1  C   UNL d   1       1.310   0.426  -3.335  0.00  0.00    -0.033 A 
ATOM      2  C1  UNL d   1       1.657  -0.368  -4.430  0.00  0.00     0.039 A 
ATOM      3  C2  UNL d   1       1.668  -1.759  -4.311  0.00  0.00    -0.080 A 
ATOM      4  C3  UNL d   1       1.328  -2.343  -3.094  0.00  0.00     0.150 A 
ATOM      5  C4  UNL d   1       0.977  -1.559  -2.000  0.00  0.00    -0.007 A 
ATOM      6  C5  UNL d   1       0.968  -0.170  -2.121  0.00  0.00     0.039 A 
ENDROOT
BRANCH   4   7
ATOM      7  O   UNL d   1       1.329  -3.696  -2.928  0.00  0.00    -0.526 OA
ATOM      8  H5  UNL d   1       1.619  -4.108  -3.759  0.00  0.00     0.418 HD
ENDBRANCH   4   7
TORSDOF 1
ENDMDL
