MODEL 1
REMARK minimizedAffinity 11.707119
REMARK minimizedRMSD -1
REMARK  0 active torsions:
REMARK  status: ('A' for Active; 'I' for Inactive)
ROOT
ATOM      1  C   UNL d   1       1.194   4.060  -5.114  0.00  0.00    -0.002 A 
ATOM      2  C1  UNL d   1       1.163   5.328  -5.675  0.00  0.00     0.010 A 
ATOM      3  C2  UNL d   1       2.349   6.000  -5.978  0.00  0.00     0.041 A 
ATOM      4  C3  UNL d   1       3.578   5.368  -5.705  0.00  0.00    -0.075 A 
ATOM      5  S   UNL d   1       5.157   5.999  -5.992  0.00  0.00     0.015 SA
ATOM      6  C4  UNL d   1       5.910   4.599  -5.377  0.00  0.00     0.022 A 
ATOM      7  C5  UNL d   1       4.994   3.663  -4.958  0.00  0.00     0.026 A 
ATOM      8  C6  UNL d   1       3.635   4.091  -5.141  0.00  0.00    -0.082 A 
ATOM      9  C7  UNL d   1       2.415   3.436  -4.845  0.00  0.00     0.045 A 
ENDROOT
TORSDOF 0
ENDMDL
