MODEL 1
REMARK minimizedAffinity -3.21012235
REMARK minimizedRMSD -1
REMARK  0 active torsions:
REMARK  status: ('A' for Active; 'I' for Inactive)
ROOT
ATOM      1  C   UNL d   1      -0.029   5.996  -5.415  0.00  0.00    -0.002 A 
ATOM      2  C1  UNL d   1       0.301   5.995  -4.068  0.00  0.00     0.010 A 
ATOM      3  C2  UNL d   1      -0.697   5.997  -3.092  0.00  0.00     0.041 A 
ATOM      4  C3  UNL d   1      -2.046   5.997  -3.497  0.00  0.00    -0.075 A 
ATOM      5  S   UNL d   1      -3.437   5.999  -2.478  0.00  0.00     0.015 SA
ATOM      6  C4  UNL d   1      -4.503   5.999  -3.808  0.00  0.00     0.022 A 
ATOM      7  C5  UNL d   1      -3.831   5.999  -5.007  0.00  0.00     0.026 A 
ATOM      8  C6  UNL d   1      -2.404   5.997  -4.848  0.00  0.00    -0.082 A 
ATOM      9  C7  UNL d   1      -1.369   5.997  -5.813  0.00  0.00     0.045 A 
ENDROOT
TORSDOF 0
ENDMDL
