MODEL 1
REMARK minimizedAffinity 6.99734211
REMARK minimizedRMSD -1
REMARK  0 active torsions:
REMARK  status: ('A' for Active; 'I' for Inactive)
ROOT
ATOM      1  C   UNL d   1       1.438   3.636  -0.310  0.00  0.00    -0.002 A 
ATOM      2  C1  UNL d   1       1.968   3.185  -1.510  0.00  0.00     0.010 A 
ATOM      3  C2  UNL d   1       1.912   1.831  -1.847  0.00  0.00     0.041 A 
ATOM      4  C3  UNL d   1       1.307   0.929  -0.950  0.00  0.00    -0.075 A 
ATOM      5  S   UNL d   1       1.124  -0.773  -1.152  0.00  0.00     0.015 SA
ATOM      6  C4  UNL d   1       0.336  -0.942   0.351  0.00  0.00     0.022 A 
ATOM      7  C5  UNL d   1       0.208   0.261   1.004  0.00  0.00     0.026 A 
ATOM      8  C6  UNL d   1       0.765   1.360   0.265  0.00  0.00    -0.082 A 
ATOM      9  C7  UNL d   1       0.838   2.738   0.578  0.00  0.00     0.045 A 
ENDROOT
TORSDOF 0
ENDMDL
