MODEL 1
REMARK minimizedAffinity -2.19082689
REMARK minimizedRMSD -1
REMARK  0 active torsions:
REMARK  status: ('A' for Active; 'I' for Inactive)
ROOT
ATOM      1  C   UNL d   1       0.783   5.988  -5.995  0.00  0.00    -0.002 A 
ATOM      2  C1  UNL d   1       1.626   5.965  -4.893  0.00  0.00     0.010 A 
ATOM      3  C2  UNL d   1       1.103   5.955  -3.598  0.00  0.00     0.041 A 
ATOM      4  C3  UNL d   1      -0.295   5.967  -3.428  0.00  0.00    -0.075 A 
ATOM      5  S   UNL d   1      -1.160   5.957  -1.937  0.00  0.00     0.015 SA
ATOM      6  C4  UNL d   1      -2.670   5.982  -2.727  0.00  0.00     0.022 A 
ATOM      7  C5  UNL d   1      -2.536   5.998  -4.095  0.00  0.00     0.026 A 
ATOM      8  C6  UNL d   1      -1.165   5.989  -4.522  0.00  0.00    -0.082 A 
ATOM      9  C7  UNL d   1      -0.604   6.000  -5.822  0.00  0.00     0.045 A 
ENDROOT
TORSDOF 0
ENDMDL
