MODEL 1
REMARK minimizedAffinity 0.600081861
REMARK minimizedRMSD -1
REMARK  0 active torsions:
REMARK  status: ('A' for Active; 'I' for Inactive)
ROOT
ATOM      1  C   UNL d   1       1.562   5.988  -4.313  0.00  0.00    -0.002 A 
ATOM      2  C1  UNL d   1       0.880   5.995  -5.522  0.00  0.00     0.010 A 
ATOM      3  C2  UNL d   1      -0.516   5.999  -5.550  0.00  0.00     0.041 A 
ATOM      4  C3  UNL d   1      -1.222   5.996  -4.331  0.00  0.00    -0.075 A 
ATOM      5  S   UNL d   1      -2.933   6.000  -4.121  0.00  0.00     0.015 SA
ATOM      6  C4  UNL d   1      -2.799   5.993  -2.422  0.00  0.00     0.022 A 
ATOM      7  C5  UNL d   1      -1.488   5.987  -2.008  0.00  0.00     0.026 A 
ATOM      8  C6  UNL d   1      -0.557   5.989  -3.101  0.00  0.00    -0.082 A 
ATOM      9  C7  UNL d   1       0.858   5.985  -3.106  0.00  0.00     0.045 A 
ENDROOT
TORSDOF 0
ENDMDL
