MODEL 1
REMARK minimizedAffinity -0.137265205
REMARK minimizedRMSD -1
REMARK  0 active torsions:
REMARK  status: ('A' for Active; 'I' for Inactive)
ROOT
ATOM      1  C   UNL d   1      -1.908   5.997  -1.922  0.00  0.00    -0.002 A 
ATOM      2  C1  UNL d   1      -2.760   5.992  -3.016  0.00  0.00     0.010 A 
ATOM      3  C2  UNL d   1      -2.249   5.990  -4.315  0.00  0.00     0.041 A 
ATOM      4  C3  UNL d   1      -0.852   5.992  -4.497  0.00  0.00    -0.075 A 
ATOM      5  S   UNL d   1       0.001   5.990  -5.996  0.00  0.00     0.015 SA
ATOM      6  C4  UNL d   1       1.518   5.995  -5.218  0.00  0.00     0.022 A 
ATOM      7  C5  UNL d   1       1.395   5.999  -3.848  0.00  0.00     0.026 A 
ATOM      8  C6  UNL d   1       0.027   5.997  -3.411  0.00  0.00    -0.082 A 
ATOM      9  C7  UNL d   1      -0.523   5.999  -2.106  0.00  0.00     0.045 A 
ENDROOT
TORSDOF 0
ENDMDL
