MODEL 1
REMARK minimizedAffinity 3.76436639
REMARK minimizedRMSD -1
REMARK  0 active torsions:
REMARK  status: ('A' for Active; 'I' for Inactive)
ROOT
ATOM      1  C   UNL d   1       5.918   5.432  -5.451  0.00  0.00    -0.002 A 
ATOM      2  C1  UNL d   1       5.825   4.455  -4.470  0.00  0.00     0.010 A 
ATOM      3  C2  UNL d   1       4.577   4.022  -4.016  0.00  0.00     0.041 A 
ATOM      4  C3  UNL d   1       3.414   4.592  -4.571  0.00  0.00    -0.075 A 
ATOM      5  S   UNL d   1       1.780   4.216  -4.170  0.00  0.00     0.015 SA
ATOM      6  C4  UNL d   1       1.168   5.344  -5.292  0.00  0.00     0.022 A 
ATOM      7  C5  UNL d   1       2.172   5.999  -5.964  0.00  0.00     0.026 A 
ATOM      8  C6  UNL d   1       3.483   5.577  -5.560  0.00  0.00    -0.082 A 
ATOM      9  C7  UNL d   1       4.762   5.995  -5.999  0.00  0.00     0.045 A 
ENDROOT
TORSDOF 0
ENDMDL
