MODEL 1
REMARK minimizedAffinity 2.46017933
REMARK minimizedRMSD -1
REMARK  0 active torsions:
REMARK  status: ('A' for Active; 'I' for Inactive)
ROOT
ATOM      1  C   UNL d   1      -4.353   5.990  -2.926  0.00  0.00    -0.002 A 
ATOM      2  C1  UNL d   1      -3.681   5.992  -1.711  0.00  0.00     0.010 A 
ATOM      3  C2  UNL d   1      -2.286   5.994  -1.672  0.00  0.00     0.041 A 
ATOM      4  C3  UNL d   1      -1.569   5.996  -2.885  0.00  0.00    -0.075 A 
ATOM      5  S   UNL d   1       0.144   6.000  -3.081  0.00  0.00     0.015 SA
ATOM      6  C4  UNL d   1       0.024   6.000  -4.781  0.00  0.00     0.022 A 
ATOM      7  C5  UNL d   1      -1.283   5.997  -5.206  0.00  0.00     0.026 A 
ATOM      8  C6  UNL d   1      -2.223   5.995  -4.120  0.00  0.00    -0.082 A 
ATOM      9  C7  UNL d   1      -3.639   5.992  -4.127  0.00  0.00     0.045 A 
ENDROOT
TORSDOF 0
ENDMDL
