MODEL 1
REMARK minimizedAffinity 3.33552599
REMARK minimizedRMSD -1
REMARK  0 active torsions:
REMARK  status: ('A' for Active; 'I' for Inactive)
ROOT
ATOM      1  C   UNL d   1       0.485   5.984  -5.627  0.00  0.00    -0.002 A 
ATOM      2  C1  UNL d   1       0.983   5.993  -4.332  0.00  0.00     0.010 A 
ATOM      3  C2  UNL d   1       0.116   5.999  -3.237  0.00  0.00     0.041 A 
ATOM      4  C3  UNL d   1      -1.273   5.994  -3.468  0.00  0.00    -0.075 A 
ATOM      5  S   UNL d   1      -2.524   5.999  -2.282  0.00  0.00     0.015 SA
ATOM      6  C4  UNL d   1      -3.750   5.988  -3.466  0.00  0.00     0.022 A 
ATOM      7  C5  UNL d   1      -3.235   5.981  -4.741  0.00  0.00     0.026 A 
ATOM      8  C6  UNL d   1      -1.799   5.984  -4.763  0.00  0.00    -0.082 A 
ATOM      9  C7  UNL d   1      -0.895   5.979  -5.852  0.00  0.00     0.045 A 
ENDROOT
TORSDOF 0
ENDMDL
