MODEL 1
REMARK minimizedAffinity -1.38899171
REMARK minimizedRMSD -1
REMARK  0 active torsions:
REMARK  status: ('A' for Active; 'I' for Inactive)
ROOT
ATOM      1  C   UNL d   1      -4.149   5.999  -1.863  0.00  0.00    -0.002 A 
ATOM      2  C1  UNL d   1      -4.537   5.997  -3.195  0.00  0.00     0.010 A 
ATOM      3  C2  UNL d   1      -3.582   5.994  -4.213  0.00  0.00     0.041 A 
ATOM      4  C3  UNL d   1      -2.216   5.990  -3.867  0.00  0.00    -0.075 A 
ATOM      5  S   UNL d   1      -0.870   5.985  -4.944  0.00  0.00     0.015 SA
ATOM      6  C4  UNL d   1       0.252   5.984  -3.661  0.00  0.00     0.022 A 
ATOM      7  C5  UNL d   1      -0.368   5.988  -2.434  0.00  0.00     0.026 A 
ATOM      8  C6  UNL d   1      -1.801   5.991  -2.532  0.00  0.00    -0.082 A 
ATOM      9  C7  UNL d   1      -2.793   5.996  -1.523  0.00  0.00     0.045 A 
ENDROOT
TORSDOF 0
ENDMDL
