MODEL 1
REMARK minimizedAffinity 9.1808939
REMARK minimizedRMSD -1
REMARK  0 active torsions:
REMARK  status: ('A' for Active; 'I' for Inactive)
ROOT
ATOM      1  C   UNL d   1       0.495   2.588   1.740  0.00  0.00    -0.002 A 
ATOM      2  C1  UNL d   1       0.182   1.244   1.883  0.00  0.00     0.010 A 
ATOM      3  C2  UNL d   1       0.497   0.331   0.875  0.00  0.00     0.041 A 
ATOM      4  C3  UNL d   1       1.139   0.795  -0.290  0.00  0.00    -0.075 A 
ATOM      5  S   UNL d   1       1.621  -0.141  -1.655  0.00  0.00     0.015 SA
ATOM      6  C4  UNL d   1       2.254   1.222  -2.459  0.00  0.00     0.022 A 
ATOM      7  C5  UNL d   1       2.109   2.371  -1.719  0.00  0.00     0.026 A 
ATOM      8  C6  UNL d   1       1.465   2.144  -0.456  0.00  0.00    -0.082 A 
ATOM      9  C7  UNL d   1       1.132   3.046   0.584  0.00  0.00     0.045 A 
ENDROOT
TORSDOF 0
ENDMDL
