MODEL 1
REMARK minimizedAffinity 8.84477425
REMARK minimizedRMSD -1
REMARK  0 active torsions:
REMARK  status: ('A' for Active; 'I' for Inactive)
ROOT
ATOM      1  C   UNL d   1       1.570   2.466  -0.937  0.00  0.00    -0.002 A 
ATOM      2  C1  UNL d   1       1.491   3.371   0.112  0.00  0.00     0.010 A 
ATOM      3  C2  UNL d   1       0.939   2.992   1.337  0.00  0.00     0.041 A 
ATOM      4  C3  UNL d   1       0.465   1.674   1.492  0.00  0.00    -0.075 A 
ATOM      5  S   UNL d   1      -0.250   0.986   2.902  0.00  0.00     0.015 SA
ATOM      6  C4  UNL d   1      -0.466  -0.526   2.146  0.00  0.00     0.022 A 
ATOM      7  C5  UNL d   1      -0.010  -0.523   0.849  0.00  0.00     0.026 A 
ATOM      8  C6  UNL d   1       0.535   0.745   0.451  0.00  0.00    -0.082 A 
ATOM      9  C7  UNL d   1       1.099   1.160  -0.779  0.00  0.00     0.045 A 
ENDROOT
TORSDOF 0
ENDMDL
