MODEL 1
REMARK minimizedAffinity -2.37032485
REMARK minimizedRMSD -1
REMARK  0 active torsions:
REMARK  status: ('A' for Active; 'I' for Inactive)
ROOT
ATOM      1  C   UNL d   1       2.451   5.981  -4.756  0.00  0.00    -0.002 A 
ATOM      2  C1  UNL d   1       1.736   5.976  -5.945  0.00  0.00     0.010 A 
ATOM      3  C2  UNL d   1       0.340   5.978  -5.935  0.00  0.00     0.041 A 
ATOM      4  C3  UNL d   1      -0.333   5.986  -4.697  0.00  0.00    -0.075 A 
ATOM      5  S   UNL d   1      -2.037   5.990  -4.439  0.00  0.00     0.015 SA
ATOM      6  C4  UNL d   1      -1.857   6.000  -2.745  0.00  0.00     0.022 A 
ATOM      7  C5  UNL d   1      -0.535   6.000  -2.367  0.00  0.00     0.026 A 
ATOM      8  C6  UNL d   1       0.365   5.992  -3.486  0.00  0.00    -0.082 A 
ATOM      9  C7  UNL d   1       1.780   5.990  -3.530  0.00  0.00     0.045 A 
ENDROOT
TORSDOF 0
ENDMDL
