MODEL 1
REMARK minimizedAffinity 3.98734832
REMARK minimizedRMSD -1
REMARK  0 active torsions:
REMARK  status: ('A' for Active; 'I' for Inactive)
ROOT
ATOM      1  C   UNL d   1       1.269   3.561   0.281  0.00  0.00    -0.002 A 
ATOM      2  C1  UNL d   1       1.335   2.599  -0.717  0.00  0.00     0.010 A 
ATOM      3  C2  UNL d   1       0.880   1.300  -0.482  0.00  0.00     0.041 A 
ATOM      4  C3  UNL d   1       0.350   0.982   0.784  0.00  0.00    -0.075 A 
ATOM      5  S   UNL d   1      -0.268  -0.543   1.298  0.00  0.00     0.015 SA
ATOM      6  C4  UNL d   1      -0.636   0.047   2.854  0.00  0.00     0.022 A 
ATOM      7  C5  UNL d   1      -0.302   1.373   2.995  0.00  0.00     0.026 A 
ATOM      8  C6  UNL d   1       0.272   1.934   1.804  0.00  0.00    -0.082 A 
ATOM      9  C7  UNL d   1       0.742   3.242   1.535  0.00  0.00     0.045 A 
ENDROOT
TORSDOF 0
ENDMDL
