MODEL 1
REMARK minimizedAffinity 1.59853339
REMARK minimizedRMSD -1
REMARK  0 active torsions:
REMARK  status: ('A' for Active; 'I' for Inactive)
ROOT
ATOM      1  C   UNL d   1       1.000   3.369   1.852  0.00  0.00    -0.002 A 
ATOM      2  C1  UNL d   1       0.502   2.317   2.608  0.00  0.00     0.010 A 
ATOM      3  C2  UNL d   1       0.374   1.042   2.054  0.00  0.00     0.041 A 
ATOM      4  C3  UNL d   1       0.760   0.839   0.715  0.00  0.00    -0.075 A 
ATOM      5  S   UNL d   1       0.693  -0.637  -0.174  0.00  0.00     0.015 SA
ATOM      6  C4  UNL d   1       1.324   0.094  -1.579  0.00  0.00     0.022 A 
ATOM      7  C5  UNL d   1       1.584   1.431  -1.392  0.00  0.00     0.026 A 
ATOM      8  C6  UNL d   1       1.264   1.882  -0.067  0.00  0.00    -0.082 A 
ATOM      9  C7  UNL d   1       1.381   3.164   0.523  0.00  0.00     0.045 A 
ENDROOT
TORSDOF 0
ENDMDL
