MODEL 1
REMARK minimizedAffinity 7.77636671
REMARK minimizedRMSD -1
REMARK  0 active torsions:
REMARK  status: ('A' for Active; 'I' for Inactive)
ROOT
ATOM      1  C   UNL d   1      -4.185   5.986  -2.188  0.00  0.00    -0.002 A 
ATOM      2  C1  UNL d   1      -4.447   5.995  -3.550  0.00  0.00     0.010 A 
ATOM      3  C2  UNL d   1      -3.401   6.000  -4.475  0.00  0.00     0.041 A 
ATOM      4  C3  UNL d   1      -2.074   5.993  -4.003  0.00  0.00    -0.075 A 
ATOM      5  S   UNL d   1      -0.633   5.996  -4.950  0.00  0.00     0.015 SA
ATOM      6  C4  UNL d   1       0.364   5.983  -3.569  0.00  0.00     0.022 A 
ATOM      7  C5  UNL d   1      -0.367   5.977  -2.405  0.00  0.00     0.026 A 
ATOM      8  C6  UNL d   1      -1.784   5.982  -2.636  0.00  0.00    -0.082 A 
ATOM      9  C7  UNL d   1      -2.867   5.979  -1.723  0.00  0.00     0.045 A 
ENDROOT
TORSDOF 0
ENDMDL
