MODEL 1
REMARK minimizedAffinity -6.03279161
REMARK minimizedRMSD -1
REMARK  2 active torsions:
REMARK  status: ('A' for Active; 'I' for Inactive)
REMARK    1  A    between atoms: C1_2  and  C2_3 
REMARK    2  A    between atoms: C2_3  and  C3_4 
ROOT
ATOM      1  C3  UNL d   1      -0.094  -0.342  -0.837  0.00  0.00    -0.075 A 
ATOM      2  C4  UNL d   1       0.431  -0.626   0.432  0.00  0.00     0.002 A 
ATOM      3  C5  UNL d   1       0.168   0.218   1.512  0.00  0.00     0.002 A 
ATOM      4  C6  UNL d   1      -0.612   1.358   1.335  0.00  0.00    -0.004 A 
ATOM      5  C7  UNL d   1      -1.125   1.658   0.075  0.00  0.00     0.002 A 
ATOM      6  C8  UNL d   1      -0.867   0.814  -1.007  0.00  0.00     0.002 A 
ENDROOT
BRANCH   1   7
ATOM      7  C2  UNL d   1       0.162  -1.267  -2.003  0.00  0.00     0.056 C 
BRANCH   7   8
ATOM      8  C1  UNL d   1      -0.911  -2.344  -2.193  0.00  0.00     0.007 C 
ATOM      9  C   UNL d   1      -0.382  -3.759  -2.004  0.00  0.00     0.009 C 
ENDBRANCH   7   8
ENDBRANCH   1   7
TORSDOF 2
ENDMDL
