MODEL 1
REMARK minimizedAffinity -4.04810762
REMARK minimizedRMSD -1
REMARK  2 active torsions:
REMARK  status: ('A' for Active; 'I' for Inactive)
REMARK    1  A    between atoms: C1_2  and  C2_3 
REMARK    2  A    between atoms: C2_3  and  C3_4 
ROOT
ATOM      1  C3  UNL d   1       0.396   0.626  -0.001  0.00  0.00    -0.075 A 
ATOM      2  C4  UNL d   1       1.197  -0.430  -0.460  0.00  0.00     0.002 A 
ATOM      3  C5  UNL d   1       1.496  -0.554  -1.817  0.00  0.00     0.002 A 
ATOM      4  C6  UNL d   1       0.991   0.367  -2.732  0.00  0.00    -0.004 A 
ATOM      5  C7  UNL d   1       0.180   1.410  -2.289  0.00  0.00     0.002 A 
ATOM      6  C8  UNL d   1      -0.117   1.539  -0.931  0.00  0.00     0.002 A 
ENDROOT
BRANCH   1   7
ATOM      7  C2  UNL d   1       0.094   0.783   1.470  0.00  0.00     0.056 C 
BRANCH   7   8
ATOM      8  C1  UNL d   1       0.209   2.223   1.980  0.00  0.00     0.007 C 
ATOM      9  C   UNL d   1      -1.126   2.817   2.408  0.00  0.00     0.009 C 
ENDBRANCH   7   8
ENDBRANCH   1   7
TORSDOF 2
ENDMDL
