MODEL 1
REMARK minimizedAffinity -5.76671553
REMARK minimizedRMSD -1
REMARK  2 active torsions:
REMARK  status: ('A' for Active; 'I' for Inactive)
REMARK    1  A    between atoms: C1_2  and  C2_3 
REMARK    2  A    between atoms: C2_3  and  C3_4 
ROOT
ATOM      1  C3  UNL d   1      -0.097  -0.143  -0.166  0.00  0.00    -0.075 A 
ATOM      2  C4  UNL d   1      -0.875   1.021  -0.248  0.00  0.00     0.002 A 
ATOM      3  C5  UNL d   1      -1.086   1.813   0.881  0.00  0.00     0.002 A 
ATOM      4  C6  UNL d   1      -0.532   1.447   2.106  0.00  0.00    -0.004 A 
ATOM      5  C7  UNL d   1       0.229   0.284   2.203  0.00  0.00     0.002 A 
ATOM      6  C8  UNL d   1       0.445  -0.508   1.074  0.00  0.00     0.002 A 
ENDROOT
BRANCH   1   7
ATOM      7  C2  UNL d   1       0.160  -0.989  -1.390  0.00  0.00     0.056 C 
BRANCH   7   8
ATOM      8  C1  UNL d   1       0.200  -2.495  -1.111  0.00  0.00     0.007 C 
ATOM      9  C   UNL d   1      -0.762  -3.293  -1.982  0.00  0.00     0.009 C 
ENDBRANCH   7   8
ENDBRANCH   1   7
TORSDOF 2
ENDMDL
