MODEL 1
REMARK minimizedAffinity -5.19623995
REMARK minimizedRMSD -1
REMARK  2 active torsions:
REMARK  status: ('A' for Active; 'I' for Inactive)
REMARK    1  A    between atoms: C1_2  and  C2_3 
REMARK    2  A    between atoms: C2_3  and  C3_4 
ROOT
ATOM      1  C3  UNL d   1       0.157  -0.070  -0.258  0.00  0.00    -0.075 A 
ATOM      2  C4  UNL d   1      -0.829   0.895  -0.508  0.00  0.00     0.002 A 
ATOM      3  C5  UNL d   1      -1.282   1.727   0.516  0.00  0.00     0.002 A 
ATOM      4  C6  UNL d   1      -0.764   1.598   1.803  0.00  0.00    -0.004 A 
ATOM      5  C7  UNL d   1       0.204   0.631   2.067  0.00  0.00     0.002 A 
ATOM      6  C8  UNL d   1       0.662  -0.200   1.043  0.00  0.00     0.002 A 
ENDROOT
BRANCH   1   7
ATOM      7  C2  UNL d   1       0.673  -0.954  -1.369  0.00  0.00     0.056 C 
BRANCH   7   8
ATOM      8  C1  UNL d   1       0.562  -2.454  -1.075  0.00  0.00     0.007 C 
ATOM      9  C   UNL d   1      -0.862  -2.983  -1.182  0.00  0.00     0.009 C 
ENDBRANCH   7   8
ENDBRANCH   1   7
TORSDOF 2
ENDMDL
