MODEL 1
REMARK minimizedAffinity -1.00902879
REMARK minimizedRMSD -1
REMARK  2 active torsions:
REMARK  status: ('A' for Active; 'I' for Inactive)
REMARK    1  A    between atoms: C1_2  and  C2_3 
REMARK    2  A    between atoms: C2_3  and  C3_4 
ROOT
ATOM      1  C3  UNL d   1       0.549  -0.621  -0.312  0.00  0.00    -0.075 A 
ATOM      2  C4  UNL d   1       0.601  -0.279   1.047  0.00  0.00     0.002 A 
ATOM      3  C5  UNL d   1       0.272   1.010   1.466  0.00  0.00     0.002 A 
ATOM      4  C6  UNL d   1      -0.103   1.975   0.533  0.00  0.00    -0.004 A 
ATOM      5  C7  UNL d   1      -0.142   1.650  -0.821  0.00  0.00     0.002 A 
ATOM      6  C8  UNL d   1       0.183   0.360  -1.243  0.00  0.00     0.002 A 
ENDROOT
BRANCH   1   7
ATOM      7  C2  UNL d   1       0.876  -2.023  -0.768  0.00  0.00     0.056 C 
BRANCH   7   8
ATOM      8  C1  UNL d   1      -0.355  -2.878  -1.088  0.00  0.00     0.007 C 
ATOM      9  C   UNL d   1      -0.141  -4.362  -0.820  0.00  0.00     0.009 C 
ENDBRANCH   7   8
ENDBRANCH   1   7
TORSDOF 2
ENDMDL
