MODEL 1
REMARK minimizedAffinity -0.895916879
REMARK minimizedRMSD -1
REMARK  2 active torsions:
REMARK  status: ('A' for Active; 'I' for Inactive)
REMARK    1  A    between atoms: C1_2  and  C2_3 
REMARK    2  A    between atoms: C2_3  and  C3_4 
ROOT
ATOM      1  C3  UNL d   1      -0.211   0.847   1.216  0.00  0.00    -0.075 A 
ATOM      2  C4  UNL d   1      -1.591   0.634   1.091  0.00  0.00     0.002 A 
ATOM      3  C5  UNL d   1      -2.501   1.555   1.611  0.00  0.00     0.002 A 
ATOM      4  C6  UNL d   1      -2.043   2.693   2.272  0.00  0.00    -0.004 A 
ATOM      5  C7  UNL d   1      -0.674   2.907   2.417  0.00  0.00     0.002 A 
ATOM      6  C8  UNL d   1       0.238   1.989   1.893  0.00  0.00     0.002 A 
ENDROOT
BRANCH   1   7
ATOM      7  C2  UNL d   1       0.778  -0.131   0.629  0.00  0.00     0.056 C 
BRANCH   7   8
ATOM      8  C1  UNL d   1       0.520  -0.472  -0.843  0.00  0.00     0.007 C 
ATOM      9  C   UNL d   1       0.211   0.750  -1.697  0.00  0.00     0.009 C 
ENDBRANCH   7   8
ENDBRANCH   1   7
TORSDOF 2
ENDMDL
