MODEL 1
REMARK minimizedAffinity -4.55509615
REMARK minimizedRMSD -1
REMARK  2 active torsions:
REMARK  status: ('A' for Active; 'I' for Inactive)
REMARK    1  A    between atoms: C1_2  and  C2_3 
REMARK    2  A    between atoms: C2_3  and  C3_4 
ROOT
ATOM      1  C3  UNL d   1       0.157   0.295  -0.444  0.00  0.00    -0.075 A 
ATOM      2  C4  UNL d   1       0.343   0.134   0.936  0.00  0.00     0.002 A 
ATOM      3  C5  UNL d   1       0.086   1.189   1.813  0.00  0.00     0.002 A 
ATOM      4  C6  UNL d   1      -0.349   2.417   1.321  0.00  0.00    -0.004 A 
ATOM      5  C7  UNL d   1      -0.522   2.593  -0.050  0.00  0.00     0.002 A 
ATOM      6  C8  UNL d   1      -0.269   1.539  -0.929  0.00  0.00     0.002 A 
ENDROOT
BRANCH   1   7
ATOM      7  C2  UNL d   1       0.405  -0.851  -1.396  0.00  0.00     0.056 C 
BRANCH   7   8
ATOM      8  C1  UNL d   1       0.051  -2.227  -0.821  0.00  0.00     0.007 C 
ATOM      9  C   UNL d   1      -0.090  -3.304  -1.888  0.00  0.00     0.009 C 
ENDBRANCH   7   8
ENDBRANCH   1   7
TORSDOF 2
ENDMDL
