MODEL 1
REMARK minimizedAffinity 5.34501362
REMARK minimizedRMSD -1
REMARK  2 active torsions:
REMARK  status: ('A' for Active; 'I' for Inactive)
REMARK    1  A    between atoms: C1_2  and  C2_3 
REMARK    2  A    between atoms: C2_3  and  C3_4 
ROOT
ATOM      1  C3  UNL d   1       2.350   4.712   3.505  0.00  0.00    -0.075 A 
ATOM      2  C4  UNL d   1       3.533   4.731   4.257  0.00  0.00     0.002 A 
ATOM      3  C5  UNL d   1       3.573   5.366   5.498  0.00  0.00     0.002 A 
ATOM      4  C6  UNL d   1       2.437   5.998   5.998  0.00  0.00    -0.004 A 
ATOM      5  C7  UNL d   1       1.260   6.000   5.252  0.00  0.00     0.002 A 
ATOM      6  C8  UNL d   1       1.216   5.361   4.011  0.00  0.00     0.002 A 
ENDROOT
BRANCH   1   7
ATOM      7  C2  UNL d   1       2.291   4.001   2.174  0.00  0.00     0.056 C 
BRANCH   7   8
ATOM      8  C1  UNL d   1       3.665   3.726   1.553  0.00  0.00     0.007 C 
ATOM      9  C   UNL d   1       3.709   2.440   0.738  0.00  0.00     0.009 C 
ENDBRANCH   7   8
ENDBRANCH   1   7
TORSDOF 2
ENDMDL
