MODEL 1
REMARK minimizedAffinity 5.22387791
REMARK minimizedRMSD -1
REMARK  2 active torsions:
REMARK  status: ('A' for Active; 'I' for Inactive)
REMARK    1  A    between atoms: C1_2  and  C2_3 
REMARK    2  A    between atoms: C2_3  and  C3_4 
ROOT
ATOM      1  C3  UNL d   1       4.591  -0.427  -0.147  0.00  0.00    -0.075 A 
ATOM      2  C4  UNL d   1       5.841  -1.027   0.060  0.00  0.00     0.002 A 
ATOM      3  C5  UNL d   1       5.967  -2.417   0.069  0.00  0.00     0.002 A 
ATOM      4  C6  UNL d   1       4.845  -3.222  -0.119  0.00  0.00    -0.004 A 
ATOM      5  C7  UNL d   1       3.596  -2.636  -0.309  0.00  0.00     0.002 A 
ATOM      6  C8  UNL d   1       3.468  -1.246  -0.322  0.00  0.00     0.002 A 
ENDROOT
BRANCH   1   7
ATOM      7  C2  UNL d   1       4.453   1.077  -0.187  0.00  0.00     0.056 C 
BRANCH   7   8
ATOM      8  C1  UNL d   1       4.027   1.700   1.147  0.00  0.00     0.007 C 
ATOM      9  C   UNL d   1       2.524   1.917   1.255  0.00  0.00     0.009 C 
ENDBRANCH   7   8
ENDBRANCH   1   7
TORSDOF 2
ENDMDL
