MODEL 1
REMARK minimizedAffinity 1.14275837
REMARK minimizedRMSD -1
REMARK  2 active torsions:
REMARK  status: ('A' for Active; 'I' for Inactive)
REMARK    1  A    between atoms: C1_2  and  C2_3 
REMARK    2  A    between atoms: C2_3  and  C3_4 
ROOT
ATOM      1  C3  UNL d   1       3.818   4.274  -5.986  0.00  0.00    -0.075 A 
ATOM      2  C4  UNL d   1       2.833   3.275  -5.999  0.00  0.00     0.002 A 
ATOM      3  C5  UNL d   1       3.191   1.927  -5.977  0.00  0.00     0.002 A 
ATOM      4  C6  UNL d   1       4.535   1.560  -5.952  0.00  0.00    -0.004 A 
ATOM      5  C7  UNL d   1       5.522   2.544  -5.955  0.00  0.00     0.002 A 
ATOM      6  C8  UNL d   1       5.167   3.893  -5.973  0.00  0.00     0.002 A 
ENDROOT
BRANCH   1   7
ATOM      7  C2  UNL d   1       3.437   5.735  -5.980  0.00  0.00     0.056 C 
BRANCH   7   8
ATOM      8  C1  UNL d   1       1.932   5.986  -5.838  0.00  0.00     0.007 C 
ATOM      9  C   UNL d   1       1.100   4.713  -5.918  0.00  0.00     0.009 C 
ENDBRANCH   7   8
ENDBRANCH   1   7
TORSDOF 2
ENDMDL
