MODEL 1
REMARK minimizedAffinity -3.0878861
REMARK minimizedRMSD -1
REMARK  2 active torsions:
REMARK  status: ('A' for Active; 'I' for Inactive)
REMARK    1  A    between atoms: C1_2  and  C2_3 
REMARK    2  A    between atoms: C2_3  and  C3_4 
ROOT
ATOM      1  C3  UNL d   1       2.106   3.824   3.911  0.00  0.00    -0.075 A 
ATOM      2  C4  UNL d   1       2.602   4.079   5.198  0.00  0.00     0.002 A 
ATOM      3  C5  UNL d   1       2.123   5.158   5.941  0.00  0.00     0.002 A 
ATOM      4  C6  UNL d   1       1.151   6.000   5.404  0.00  0.00    -0.004 A 
ATOM      5  C7  UNL d   1       0.663   5.766   4.121  0.00  0.00     0.002 A 
ATOM      6  C8  UNL d   1       1.138   4.684   3.377  0.00  0.00     0.002 A 
ENDROOT
BRANCH   1   7
ATOM      7  C2  UNL d   1       2.599   2.640   3.113  0.00  0.00     0.056 C 
BRANCH   7   8
ATOM      8  C1  UNL d   1       3.110   3.000   1.714  0.00  0.00     0.007 C 
ATOM      9  C   UNL d   1       4.569   2.624   1.492  0.00  0.00     0.009 C 
ENDBRANCH   7   8
ENDBRANCH   1   7
TORSDOF 2
ENDMDL
