MODEL 1
REMARK minimizedAffinity -2.58850026
REMARK minimizedRMSD -1
REMARK  2 active torsions:
REMARK  status: ('A' for Active; 'I' for Inactive)
REMARK    1  A    between atoms: C1_2  and  C2_3 
REMARK    2  A    between atoms: C2_3  and  C3_4 
ROOT
ATOM      1  C3  UNL d   1       1.936   4.373   3.716  0.00  0.00    -0.075 A 
ATOM      2  C4  UNL d   1       3.024   4.464   4.596  0.00  0.00     0.002 A 
ATOM      3  C5  UNL d   1       2.949   5.269   5.733  0.00  0.00     0.002 A 
ATOM      4  C6  UNL d   1       1.793   6.000   5.999  0.00  0.00    -0.004 A 
ATOM      5  C7  UNL d   1       0.712   5.930   5.123  0.00  0.00     0.002 A 
ATOM      6  C8  UNL d   1       0.782   5.122   3.986  0.00  0.00     0.002 A 
ENDROOT
BRANCH   1   7
ATOM      7  C2  UNL d   1       1.999   3.481   2.499  0.00  0.00     0.056 C 
BRANCH   7   8
ATOM      8  C1  UNL d   1       3.116   2.434   2.551  0.00  0.00     0.007 C 
ATOM      9  C   UNL d   1       4.255   2.721   1.581  0.00  0.00     0.009 C 
ENDBRANCH   7   8
ENDBRANCH   1   7
TORSDOF 2
ENDMDL
