MODEL 1
REMARK minimizedAffinity -0.794543326
REMARK minimizedRMSD -1
REMARK  2 active torsions:
REMARK  status: ('A' for Active; 'I' for Inactive)
REMARK    1  A    between atoms: C1_2  and  C2_3 
REMARK    2  A    between atoms: C2_3  and  C3_4 
ROOT
ATOM      1  C3  UNL d   1       4.546   3.885  -5.900  0.00  0.00    -0.075 A 
ATOM      2  C4  UNL d   1       4.347   5.270  -5.802  0.00  0.00     0.002 A 
ATOM      3  C5  UNL d   1       3.058   5.801  -5.780  0.00  0.00     0.002 A 
ATOM      4  C6  UNL d   1       1.952   4.958  -5.866  0.00  0.00    -0.004 A 
ATOM      5  C7  UNL d   1       2.138   3.582  -5.981  0.00  0.00     0.002 A 
ATOM      6  C8  UNL d   1       3.427   3.047  -5.999  0.00  0.00     0.002 A 
ENDROOT
BRANCH   1   7
ATOM      7  C2  UNL d   1       5.939   3.302  -5.894  0.00  0.00     0.056 C 
BRANCH   7   8
ATOM      8  C1  UNL d   1       5.980   1.789  -5.656  0.00  0.00     0.007 C 
ATOM      9  C   UNL d   1       5.989   1.414  -4.180  0.00  0.00     0.009 C 
ENDBRANCH   7   8
ENDBRANCH   1   7
TORSDOF 2
ENDMDL
