MODEL 1
REMARK minimizedAffinity -5.06048107
REMARK minimizedRMSD -1
REMARK  2 active torsions:
REMARK  status: ('A' for Active; 'I' for Inactive)
REMARK    1  A    between atoms: C1_2  and  C2_3 
REMARK    2  A    between atoms: C2_3  and  C3_4 
ROOT
ATOM      1  C3  UNL d   1       0.140   0.017  -0.300  0.00  0.00    -0.075 A 
ATOM      2  C4  UNL d   1      -1.071  -0.468   0.215  0.00  0.00     0.002 A 
ATOM      3  C5  UNL d   1      -1.297  -0.488   1.592  0.00  0.00     0.002 A 
ATOM      4  C6  UNL d   1      -0.315  -0.034   2.469  0.00  0.00    -0.004 A 
ATOM      5  C7  UNL d   1       0.898   0.435   1.969  0.00  0.00     0.002 A 
ATOM      6  C8  UNL d   1       1.125   0.461   0.592  0.00  0.00     0.002 A 
ENDROOT
BRANCH   1   7
ATOM      7  C2  UNL d   1       0.380   0.069  -1.790  0.00  0.00     0.056 C 
BRANCH   7   8
ATOM      8  C1  UNL d   1       0.498  -1.308  -2.451  0.00  0.00     0.007 C 
ATOM      9  C   UNL d   1       1.128  -1.257  -3.837  0.00  0.00     0.009 C 
ENDBRANCH   7   8
ENDBRANCH   1   7
TORSDOF 2
ENDMDL
