MODEL 1
REMARK minimizedAffinity -4.48752928
REMARK minimizedRMSD -1
REMARK  2 active torsions:
REMARK  status: ('A' for Active; 'I' for Inactive)
REMARK    1  A    between atoms: C1_2  and  C2_3 
REMARK    2  A    between atoms: C2_3  and  C3_4 
ROOT
ATOM      1  C3  UNL d   1       0.024  -0.183   0.101  0.00  0.00    -0.075 A 
ATOM      2  C4  UNL d   1      -1.241  -0.646   0.492  0.00  0.00     0.002 A 
ATOM      3  C5  UNL d   1      -1.556  -0.789   1.844  0.00  0.00     0.002 A 
ATOM      4  C6  UNL d   1      -0.610  -0.483   2.819  0.00  0.00    -0.004 A 
ATOM      5  C7  UNL d   1       0.655  -0.039   2.442  0.00  0.00     0.002 A 
ATOM      6  C8  UNL d   1       0.972   0.110   1.091  0.00  0.00     0.002 A 
ENDROOT
BRANCH   1   7
ATOM      7  C2  UNL d   1       0.362   0.002  -1.359  0.00  0.00     0.056 C 
BRANCH   7   8
ATOM      8  C1  UNL d   1       0.172  -1.259  -2.208  0.00  0.00     0.007 C 
ATOM      9  C   UNL d   1       1.144  -1.348  -3.377  0.00  0.00     0.009 C 
ENDBRANCH   7   8
ENDBRANCH   1   7
TORSDOF 2
ENDMDL
