MODEL 1
REMARK minimizedAffinity -3.25711322
REMARK minimizedRMSD -1
REMARK  2 active torsions:
REMARK  status: ('A' for Active; 'I' for Inactive)
REMARK    1  A    between atoms: C1_2  and  C2_3 
REMARK    2  A    between atoms: C2_3  and  C3_4 
ROOT
ATOM      1  C3  UNL d   1       0.005  -0.453   0.499  0.00  0.00    -0.075 A 
ATOM      2  C4  UNL d   1      -1.000  -0.593   1.468  0.00  0.00     0.002 A 
ATOM      3  C5  UNL d   1      -0.772  -0.196   2.786  0.00  0.00     0.002 A 
ATOM      4  C6  UNL d   1       0.463   0.334   3.154  0.00  0.00    -0.004 A 
ATOM      5  C7  UNL d   1       1.473   0.462   2.203  0.00  0.00     0.002 A 
ATOM      6  C8  UNL d   1       1.247   0.070   0.883  0.00  0.00     0.002 A 
ENDROOT
BRANCH   1   7
ATOM      7  C2  UNL d   1      -0.245  -0.853  -0.935  0.00  0.00     0.056 C 
BRANCH   7   8
ATOM      8  C1  UNL d   1       0.322   0.130  -1.965  0.00  0.00     0.007 C 
ATOM      9  C   UNL d   1       1.203  -0.539  -3.011  0.00  0.00     0.009 C 
ENDBRANCH   7   8
ENDBRANCH   1   7
TORSDOF 2
ENDMDL
