MODEL 1
REMARK minimizedAffinity -4.6795435
REMARK minimizedRMSD -1
REMARK  2 active torsions:
REMARK  status: ('A' for Active; 'I' for Inactive)
REMARK    1  A    between atoms: C1_2  and  C2_3 
REMARK    2  A    between atoms: C2_3  and  C3_4 
ROOT
ATOM      1  C3  UNL d   1       0.631  -0.322  -1.226  0.00  0.00    -0.075 A 
ATOM      2  C4  UNL d   1       0.544  -1.687  -1.537  0.00  0.00     0.002 A 
ATOM      3  C5  UNL d   1       0.895  -2.148  -2.806  0.00  0.00     0.002 A 
ATOM      4  C6  UNL d   1       1.327  -1.252  -3.781  0.00  0.00    -0.004 A 
ATOM      5  C7  UNL d   1       1.402   0.108  -3.488  0.00  0.00     0.002 A 
ATOM      6  C8  UNL d   1       1.055   0.572  -2.218  0.00  0.00     0.002 A 
ENDROOT
BRANCH   1   7
ATOM      7  C2  UNL d   1       0.280   0.179   0.155  0.00  0.00     0.056 C 
BRANCH   7   8
ATOM      8  C1  UNL d   1      -1.046  -0.363   0.697  0.00  0.00     0.007 C 
ATOM      9  C   UNL d   1      -2.264   0.204  -0.020  0.00  0.00     0.009 C 
ENDBRANCH   7   8
ENDBRANCH   1   7
TORSDOF 2
ENDMDL
