MODEL 1
REMARK minimizedAffinity -3.96554375
REMARK minimizedRMSD -1
REMARK  2 active torsions:
REMARK  status: ('A' for Active; 'I' for Inactive)
REMARK    1  A    between atoms: C1_2  and  C2_3 
REMARK    2  A    between atoms: C2_3  and  C3_4 
ROOT
ATOM      1  C3  UNL d   1       0.316  -0.594  -0.983  0.00  0.00    -0.075 A 
ATOM      2  C4  UNL d   1       0.694  -1.945  -0.987  0.00  0.00     0.002 A 
ATOM      3  C5  UNL d   1       1.252  -2.521  -2.129  0.00  0.00     0.002 A 
ATOM      4  C6  UNL d   1       1.430  -1.758  -3.281  0.00  0.00    -0.004 A 
ATOM      5  C7  UNL d   1       1.043  -0.420  -3.293  0.00  0.00     0.002 A 
ATOM      6  C8  UNL d   1       0.488   0.160  -2.151  0.00  0.00     0.002 A 
ENDROOT
BRANCH   1   7
ATOM      7  C2  UNL d   1      -0.261   0.042   0.259  0.00  0.00     0.056 C 
BRANCH   7   8
ATOM      8  C1  UNL d   1       0.616  -0.114   1.506  0.00  0.00     0.007 C 
ATOM      9  C   UNL d   1      -0.175  -0.064   2.806  0.00  0.00     0.009 C 
ENDBRANCH   7   8
ENDBRANCH   1   7
TORSDOF 2
ENDMDL
