MODEL 1
REMARK minimizedAffinity -3.84960008
REMARK minimizedRMSD -1
REMARK  2 active torsions:
REMARK  status: ('A' for Active; 'I' for Inactive)
REMARK    1  A    between atoms: C1_2  and  C2_3 
REMARK    2  A    between atoms: C2_3  and  C3_4 
ROOT
ATOM      1  C3  UNL d   1      -0.046  -0.266   0.847  0.00  0.00    -0.075 A 
ATOM      2  C4  UNL d   1       0.461  -0.315   2.154  0.00  0.00     0.002 A 
ATOM      3  C5  UNL d   1      -0.380  -0.110   3.248  0.00  0.00     0.002 A 
ATOM      4  C6  UNL d   1      -1.733   0.155   3.050  0.00  0.00    -0.004 A 
ATOM      5  C7  UNL d   1      -2.244   0.222   1.756  0.00  0.00     0.002 A 
ATOM      6  C8  UNL d   1      -1.406   0.014   0.660  0.00  0.00     0.002 A 
ENDROOT
BRANCH   1   7
ATOM      7  C2  UNL d   1       0.853  -0.515  -0.340  0.00  0.00     0.056 C 
BRANCH   7   8
ATOM      8  C1  UNL d   1       0.345   0.102  -1.648  0.00  0.00     0.007 C 
ATOM      9  C   UNL d   1       0.808  -0.652  -2.887  0.00  0.00     0.009 C 
ENDBRANCH   7   8
ENDBRANCH   1   7
TORSDOF 2
ENDMDL
