MODEL 1
REMARK minimizedAffinity -4.32709408
REMARK minimizedRMSD -1
REMARK  2 active torsions:
REMARK  status: ('A' for Active; 'I' for Inactive)
REMARK    1  A    between atoms: C1_2  and  C2_3 
REMARK    2  A    between atoms: C2_3  and  C3_4 
ROOT
ATOM      1  C3  UNL d   1       0.089  -0.041   0.092  0.00  0.00    -0.075 A 
ATOM      2  C4  UNL d   1       0.990   0.308   1.108  0.00  0.00     0.002 A 
ATOM      3  C5  UNL d   1       0.803  -0.157   2.410  0.00  0.00     0.002 A 
ATOM      4  C6  UNL d   1      -0.289  -0.966   2.715  0.00  0.00    -0.004 A 
ATOM      5  C7  UNL d   1      -1.200  -1.305   1.716  0.00  0.00     0.002 A 
ATOM      6  C8  UNL d   1      -1.013  -0.845   0.411  0.00  0.00     0.002 A 
ENDROOT
BRANCH   1   7
ATOM      7  C2  UNL d   1       0.302   0.435  -1.326  0.00  0.00     0.056 C 
BRANCH   7   8
ATOM      8  C1  UNL d   1       0.307  -0.689  -2.367  0.00  0.00     0.007 C 
ATOM      9  C   UNL d   1       1.395  -0.527  -3.420  0.00  0.00     0.009 C 
ENDBRANCH   7   8
ENDBRANCH   1   7
TORSDOF 2
ENDMDL
