MODEL 1
REMARK minimizedAffinity -3.80460525
REMARK minimizedRMSD -1
REMARK  2 active torsions:
REMARK  status: ('A' for Active; 'I' for Inactive)
REMARK    1  A    between atoms: C1_2  and  C2_3 
REMARK    2  A    between atoms: C2_3  and  C3_4 
ROOT
ATOM      1  C3  UNL d   1       0.120  -0.098   0.712  0.00  0.00    -0.075 A 
ATOM      2  C4  UNL d   1       0.666  -0.119   2.003  0.00  0.00     0.002 A 
ATOM      3  C5  UNL d   1      -0.155   0.030   3.122  0.00  0.00     0.002 A 
ATOM      4  C6  UNL d   1      -1.527   0.213   2.963  0.00  0.00    -0.004 A 
ATOM      5  C7  UNL d   1      -2.078   0.251   1.684  0.00  0.00     0.002 A 
ATOM      6  C8  UNL d   1      -1.260   0.098   0.563  0.00  0.00     0.002 A 
ENDROOT
BRANCH   1   7
ATOM      7  C2  UNL d   1       0.999  -0.289  -0.502  0.00  0.00     0.056 C 
BRANCH   7   8
ATOM      8  C1  UNL d   1       0.257  -0.825  -1.731  0.00  0.00     0.007 C 
ATOM      9  C   UNL d   1       1.167  -1.045  -2.932  0.00  0.00     0.009 C 
ENDBRANCH   7   8
ENDBRANCH   1   7
TORSDOF 2
ENDMDL
