MODEL 1
REMARK minimizedAffinity -4.12521553
REMARK minimizedRMSD -1
REMARK  2 active torsions:
REMARK  status: ('A' for Active; 'I' for Inactive)
REMARK    1  A    between atoms: C1_2  and  C2_3 
REMARK    2  A    between atoms: C2_3  and  C3_4 
ROOT
ATOM      1  C3  UNL d   1      -0.972  -0.709   0.659  0.00  0.00    -0.075 A 
ATOM      2  C4  UNL d   1       0.134  -0.881  -0.186  0.00  0.00     0.002 A 
ATOM      3  C5  UNL d   1       0.251  -0.134  -1.359  0.00  0.00     0.002 A 
ATOM      4  C6  UNL d   1      -0.738   0.784  -1.706  0.00  0.00    -0.004 A 
ATOM      5  C7  UNL d   1      -1.849   0.950  -0.882  0.00  0.00     0.002 A 
ATOM      6  C8  UNL d   1      -1.967   0.207   0.294  0.00  0.00     0.002 A 
ENDROOT
BRANCH   1   7
ATOM      7  C2  UNL d   1      -1.090  -1.493   1.944  0.00  0.00     0.056 C 
BRANCH   7   8
ATOM      8  C1  UNL d   1      -0.812  -0.669   3.206  0.00  0.00     0.007 C 
ATOM      9  C   UNL d   1      -0.009   0.596   2.931  0.00  0.00     0.009 C 
ENDBRANCH   7   8
ENDBRANCH   1   7
TORSDOF 2
ENDMDL
