MODEL 1
REMARK minimizedAffinity -3.75008035
REMARK minimizedRMSD -1
REMARK  2 active torsions:
REMARK  status: ('A' for Active; 'I' for Inactive)
REMARK    1  A    between atoms: C1_2  and  C2_3 
REMARK    2  A    between atoms: C2_3  and  C3_4 
ROOT
ATOM      1  C3  UNL d   1       0.529  -0.393  -0.262  0.00  0.00    -0.075 A 
ATOM      2  C4  UNL d   1       0.081  -1.258   0.748  0.00  0.00     0.002 A 
ATOM      3  C5  UNL d   1       0.206  -0.903   2.091  0.00  0.00     0.002 A 
ATOM      4  C6  UNL d   1       0.788   0.314   2.442  0.00  0.00    -0.004 A 
ATOM      5  C7  UNL d   1       1.251   1.173   1.448  0.00  0.00     0.002 A 
ATOM      6  C8  UNL d   1       1.124   0.822   0.103  0.00  0.00     0.002 A 
ENDROOT
BRANCH   1   7
ATOM      7  C2  UNL d   1       0.370  -0.759  -1.718  0.00  0.00     0.056 C 
BRANCH   7   8
ATOM      8  C1  UNL d   1       1.564  -0.365  -2.594  0.00  0.00     0.007 C 
ATOM      9  C   UNL d   1       1.914  -1.415  -3.640  0.00  0.00     0.009 C 
ENDBRANCH   7   8
ENDBRANCH   1   7
TORSDOF 2
ENDMDL
