MODEL 1
REMARK minimizedAffinity -4.05326414
REMARK minimizedRMSD -1
REMARK  2 active torsions:
REMARK  status: ('A' for Active; 'I' for Inactive)
REMARK    1  A    between atoms: C1_2  and  C2_3 
REMARK    2  A    between atoms: C2_3  and  C3_4 
ROOT
ATOM      1  C3  UNL d   1       0.255  -0.240  -0.727  0.00  0.00    -0.075 A 
ATOM      2  C4  UNL d   1      -0.216  -1.279   0.088  0.00  0.00     0.002 A 
ATOM      3  C5  UNL d   1      -0.012  -1.245   1.468  0.00  0.00     0.002 A 
ATOM      4  C6  UNL d   1       0.674  -0.179   2.047  0.00  0.00    -0.004 A 
ATOM      5  C7  UNL d   1       1.161   0.850   1.245  0.00  0.00     0.002 A 
ATOM      6  C8  UNL d   1       0.954   0.821  -0.136  0.00  0.00     0.002 A 
ENDROOT
BRANCH   1   7
ATOM      7  C2  UNL d   1       0.011  -0.256  -2.218  0.00  0.00     0.056 C 
BRANCH   7   8
ATOM      8  C1  UNL d   1       1.146  -0.892  -3.028  0.00  0.00     0.007 C 
ATOM      9  C   UNL d   1       0.663  -1.959  -4.001  0.00  0.00     0.009 C 
ENDBRANCH   7   8
ENDBRANCH   1   7
TORSDOF 2
ENDMDL
