MODEL 1
REMARK minimizedAffinity -4.6576457
REMARK minimizedRMSD -1
REMARK  2 active torsions:
REMARK  status: ('A' for Active; 'I' for Inactive)
REMARK    1  A    between atoms: C1_2  and  C2_3 
REMARK    2  A    between atoms: C2_3  and  C3_4 
ROOT
ATOM      1  C3  UNL d   1       0.463  -0.338  -0.466  0.00  0.00    -0.075 A 
ATOM      2  C4  UNL d   1       0.415  -1.734  -0.592  0.00  0.00     0.002 A 
ATOM      3  C5  UNL d   1       0.472  -2.334  -1.850  0.00  0.00     0.002 A 
ATOM      4  C6  UNL d   1       0.567  -1.548  -2.996  0.00  0.00    -0.004 A 
ATOM      5  C7  UNL d   1       0.599  -0.160  -2.884  0.00  0.00     0.002 A 
ATOM      6  C8  UNL d   1       0.547   0.443  -1.627  0.00  0.00     0.002 A 
ENDROOT
BRANCH   1   7
ATOM      7  C2  UNL d   1       0.431   0.317   0.894  0.00  0.00     0.056 C 
BRANCH   7   8
ATOM      8  C1  UNL d   1      -0.833   0.012   1.704  0.00  0.00     0.007 C 
ATOM      9  C   UNL d   1      -0.552  -0.751   2.992  0.00  0.00     0.009 C 
ENDBRANCH   7   8
ENDBRANCH   1   7
TORSDOF 2
ENDMDL
