MODEL 1
REMARK minimizedAffinity -3.05643678
REMARK minimizedRMSD -1
REMARK  2 active torsions:
REMARK  status: ('A' for Active; 'I' for Inactive)
REMARK    1  A    between atoms: C1_2  and  C2_3 
REMARK    2  A    between atoms: C2_3  and  C3_4 
ROOT
ATOM      1  C3  UNL d   1       0.823  -0.379  -2.001  0.00  0.00    -0.075 A 
ATOM      2  C4  UNL d   1       0.788  -1.593  -1.301  0.00  0.00     0.002 A 
ATOM      3  C5  UNL d   1       0.294  -1.646   0.003  0.00  0.00     0.002 A 
ATOM      4  C6  UNL d   1      -0.161  -0.486   0.625  0.00  0.00    -0.004 A 
ATOM      5  C7  UNL d   1      -0.116   0.729  -0.055  0.00  0.00     0.002 A 
ATOM      6  C8  UNL d   1       0.374   0.784  -1.361  0.00  0.00     0.002 A 
ENDROOT
BRANCH   1   7
ATOM      7  C2  UNL d   1       1.329  -0.320  -3.423  0.00  0.00     0.056 C 
BRANCH   7   8
ATOM      8  C1  UNL d   1       1.323  -1.673  -4.143  0.00  0.00     0.007 C 
ATOM      9  C   UNL d   1       0.019  -1.959  -4.874  0.00  0.00     0.009 C 
ENDBRANCH   7   8
ENDBRANCH   1   7
TORSDOF 2
ENDMDL
