MODEL 1
REMARK minimizedAffinity 1.87073195
REMARK minimizedRMSD -1
REMARK  1 active torsions:
REMARK  status: ('A' for Active; 'I' for Inactive)
REMARK    1  A    between atoms: C1_2  and  C2_3 
ROOT
ATOM      1  C2  UNL d   1       4.681  -2.594  -0.823  0.00  0.00    -0.081 A 
ATOM      2  C3  UNL d   1       4.017  -2.309  -2.022  0.00  0.00     0.006 A 
ATOM      3  C4  UNL d   1       3.806  -3.312  -2.971  0.00  0.00     0.002 A 
ATOM      4  C5  UNL d   1       4.247  -4.618  -2.733  0.00  0.00    -0.080 A 
ATOM      5  C6  UNL d   1       4.000  -5.711  -3.730  0.00  0.00     0.076 C 
ATOM      6  C7  UNL d   1       4.927  -4.900  -1.543  0.00  0.00     0.002 A 
ATOM      7  C8  UNL d   1       5.139  -3.897  -0.594  0.00  0.00     0.006 A 
ENDROOT
BRANCH   1   8
ATOM      8  C1  UNL d   1       4.854  -1.530   0.231  0.00  0.00     0.054 C 
ATOM      9  C   UNL d   1       3.525  -1.176   0.882  0.00  0.00     0.018 C 
ENDBRANCH   1   8
TORSDOF 1
ENDMDL
