MODEL 1
REMARK minimizedAffinity 4.34385681
REMARK minimizedRMSD -1
REMARK  1 active torsions:
REMARK  status: ('A' for Active; 'I' for Inactive)
REMARK    1  A    between atoms: C1_2  and  C2_3 
ROOT
ATOM      1  C2  UNL d   1       4.210  -3.238  -0.823  0.00  0.00    -0.081 A 
ATOM      2  C3  UNL d   1       3.789  -3.480  -2.136  0.00  0.00     0.006 A 
ATOM      3  C4  UNL d   1       2.754  -4.382  -2.392  0.00  0.00     0.002 A 
ATOM      4  C5  UNL d   1       2.118  -5.051  -1.341  0.00  0.00    -0.080 A 
ATOM      5  C6  UNL d   1       0.985  -5.999  -1.600  0.00  0.00     0.076 C 
ATOM      6  C7  UNL d   1       2.551  -4.822  -0.030  0.00  0.00     0.002 A 
ATOM      7  C8  UNL d   1       3.586  -3.921   0.227  0.00  0.00     0.006 A 
ENDROOT
BRANCH   1   8
ATOM      8  C1  UNL d   1       5.282  -2.217  -0.538  0.00  0.00     0.054 C 
ATOM      9  C   UNL d   1       4.767  -1.115   0.377  0.00  0.00     0.018 C 
ENDBRANCH   1   8
TORSDOF 1
ENDMDL
