MODEL 1
REMARK minimizedAffinity 2.38839364
REMARK minimizedRMSD -1
REMARK  1 active torsions:
REMARK  status: ('A' for Active; 'I' for Inactive)
REMARK    1  A    between atoms: C1_2  and  C2_3 
ROOT
ATOM      1  C2  UNL d   1       5.018  -4.177  -3.026  0.00  0.00    -0.081 A 
ATOM      2  C3  UNL d   1       5.150  -4.501  -1.670  0.00  0.00     0.006 A 
ATOM      3  C4  UNL d   1       4.583  -3.685  -0.688  0.00  0.00     0.002 A 
ATOM      4  C5  UNL d   1       3.868  -2.536  -1.046  0.00  0.00    -0.080 A 
ATOM      5  C6  UNL d   1       3.229  -1.668  -0.004  0.00  0.00     0.076 C 
ATOM      6  C7  UNL d   1       3.751  -2.203  -2.400  0.00  0.00     0.002 A 
ATOM      7  C8  UNL d   1       4.318  -3.019  -3.381  0.00  0.00     0.006 A 
ENDROOT
BRANCH   1   8
ATOM      8  C1  UNL d   1       5.572  -5.090  -4.089  0.00  0.00     0.054 C 
ATOM      9  C   UNL d   1       4.492  -6.000  -4.656  0.00  0.00     0.018 C 
ENDBRANCH   1   8
TORSDOF 1
ENDMDL
