MODEL 1
REMARK minimizedAffinity 0.713282406
REMARK minimizedRMSD -1
REMARK  1 active torsions:
REMARK  status: ('A' for Active; 'I' for Inactive)
REMARK    1  A    between atoms: C1_2  and  C2_3 
ROOT
ATOM      1  C2  UNL d   1       2.372  -4.883  -1.121  0.00  0.00    -0.081 A 
ATOM      2  C3  UNL d   1       2.955  -4.528   0.102  0.00  0.00     0.006 A 
ATOM      3  C4  UNL d   1       4.136  -3.782   0.133  0.00  0.00     0.002 A 
ATOM      4  C5  UNL d   1       4.748  -3.372  -1.057  0.00  0.00    -0.080 A 
ATOM      5  C6  UNL d   1       5.999  -2.545  -1.037  0.00  0.00     0.076 C 
ATOM      6  C7  UNL d   1       4.175  -3.742  -2.278  0.00  0.00     0.002 A 
ATOM      7  C8  UNL d   1       2.995  -4.488  -2.310  0.00  0.00     0.006 A 
ENDROOT
BRANCH   1   8
ATOM      8  C1  UNL d   1       1.064  -5.632  -1.157  0.00  0.00     0.054 C 
ATOM      9  C   UNL d   1      -0.120  -4.677  -1.170  0.00  0.00     0.018 C 
ENDBRANCH   1   8
TORSDOF 1
ENDMDL
