MODEL 1
REMARK minimizedAffinity 6.36237431
REMARK minimizedRMSD -1
REMARK  1 active torsions:
REMARK  status: ('A' for Active; 'I' for Inactive)
REMARK    1  A    between atoms: C1_2  and  C2_3 
ROOT
ATOM      1  C2  UNL d   1       0.201   3.422  -0.485  0.00  0.00    -0.081 A 
ATOM      2  C3  UNL d   1      -0.384   2.278  -1.042  0.00  0.00     0.006 A 
ATOM      3  C4  UNL d   1      -0.873   1.261  -0.220  0.00  0.00     0.002 A 
ATOM      4  C5  UNL d   1      -0.793   1.373   1.172  0.00  0.00    -0.080 A 
ATOM      5  C6  UNL d   1      -1.341   0.301   2.067  0.00  0.00     0.076 C 
ATOM      6  C7  UNL d   1      -0.192   2.507   1.729  0.00  0.00     0.002 A 
ATOM      7  C8  UNL d   1       0.297   3.525   0.907  0.00  0.00     0.006 A 
ENDROOT
BRANCH   1   8
ATOM      8  C1  UNL d   1       0.671   4.550  -1.367  0.00  0.00     0.054 C 
ATOM      9  C   UNL d   1       1.824   5.310  -0.727  0.00  0.00     0.018 C 
ENDBRANCH   1   8
TORSDOF 1
ENDMDL
