MODEL 1
REMARK minimizedAffinity 3.84413743
REMARK minimizedRMSD -1
REMARK  1 active torsions:
REMARK  status: ('A' for Active; 'I' for Inactive)
REMARK    1  A    between atoms: C1_2  and  C2_3 
ROOT
ATOM      1  C2  UNL d   1      -1.753   2.173  -1.672  0.00  0.00    -0.081 A 
ATOM      2  C3  UNL d   1      -2.478   3.270  -2.153  0.00  0.00     0.006 A 
ATOM      3  C4  UNL d   1      -3.850   3.162  -2.391  0.00  0.00     0.002 A 
ATOM      4  C5  UNL d   1      -4.521   1.959  -2.146  0.00  0.00    -0.080 A 
ATOM      5  C6  UNL d   1      -5.999   1.838  -2.369  0.00  0.00     0.076 C 
ATOM      6  C7  UNL d   1      -3.793   0.858  -1.681  0.00  0.00     0.002 A 
ATOM      7  C8  UNL d   1      -2.421   0.965  -1.443  0.00  0.00     0.006 A 
ENDROOT
BRANCH   1   8
ATOM      8  C1  UNL d   1      -0.285   2.305  -1.352  0.00  0.00     0.054 C 
ATOM      9  C   UNL d   1       0.070   3.733  -0.964  0.00  0.00     0.018 C 
ENDBRANCH   1   8
TORSDOF 1
ENDMDL
