MODEL 1
REMARK minimizedAffinity 1.85256338
REMARK minimizedRMSD -1
REMARK  1 active torsions:
REMARK  status: ('A' for Active; 'I' for Inactive)
REMARK    1  A    between atoms: C1_2  and  C2_3 
ROOT
ATOM      1  C2  UNL d   1       4.209  -4.838  -2.308  0.00  0.00    -0.081 A 
ATOM      2  C3  UNL d   1       4.970  -4.992  -1.143  0.00  0.00     0.006 A 
ATOM      3  C4  UNL d   1       5.114  -3.931  -0.245  0.00  0.00     0.002 A 
ATOM      4  C5  UNL d   1       4.494  -2.703  -0.494  0.00  0.00    -0.080 A 
ATOM      5  C6  UNL d   1       4.615  -1.565   0.476  0.00  0.00     0.076 C 
ATOM      6  C7  UNL d   1       3.748  -2.543  -1.666  0.00  0.00     0.002 A 
ATOM      7  C8  UNL d   1       3.604  -3.603  -2.564  0.00  0.00     0.006 A 
ENDROOT
BRANCH   1   8
ATOM      8  C1  UNL d   1       3.998  -6.000  -3.245  0.00  0.00     0.054 C 
ATOM      9  C   UNL d   1       4.823  -5.843  -4.514  0.00  0.00     0.018 C 
ENDBRANCH   1   8
TORSDOF 1
ENDMDL
