MODEL 1
REMARK minimizedAffinity 7.52354717
REMARK minimizedRMSD -1
REMARK  0 active torsions:
REMARK  status: ('A' for Active; 'I' for Inactive)
ROOT
ATOM      1  O1  BZF d   1      -2.813   1.503  -3.663  0.00  0.00    -0.204 OA
ATOM      2  C2  BZF d   1      -2.407   0.916  -2.480  0.00  0.00     0.174 A 
ATOM      3  C3  BZF d   1      -2.878   1.603  -1.419  0.00  0.00    -0.012 A 
ATOM      4  C3A BZF d   1      -3.702   2.633  -1.973  0.00  0.00    -0.107 A 
ATOM      5  C4  BZF d   1      -4.457   3.629  -1.422  0.00  0.00     0.055 A 
ATOM      6  C5  BZF d   1      -5.083   4.513  -2.243  0.00  0.00    -0.016 A 
ATOM      7  C6  BZF d   1      -4.970   4.435  -3.615  0.00  0.00     0.022 A 
ATOM      8  C7  BZF d   1      -4.236   3.462  -4.208  0.00  0.00     0.029 A 
ATOM      9  C7A BZF d   1      -3.630   2.547  -3.382  0.00  0.00     0.058 A 
ENDROOT
TORSDOF 0
ENDMDL
