MODEL 1
REMARK minimizedAffinity -2.864151
REMARK minimizedRMSD -1
REMARK  0 active torsions:
REMARK  status: ('A' for Active; 'I' for Inactive)
ROOT
ATOM      1  O1  BZF d   1       0.857  -1.107   0.742  0.00  0.00    -0.204 OA
ATOM      2  C2  BZF d   1       0.820  -2.062  -0.256  0.00  0.00     0.174 A 
ATOM      3  C3  BZF d   1       1.407  -3.205   0.153  0.00  0.00    -0.012 A 
ATOM      4  C3A BZF d   1       1.757  -2.980   1.522  0.00  0.00    -0.107 A 
ATOM      5  C4  BZF d   1       2.354  -3.751   2.477  0.00  0.00     0.055 A 
ATOM      6  C5  BZF d   1       2.618  -3.208   3.695  0.00  0.00    -0.016 A 
ATOM      7  C6  BZF d   1       2.302  -1.898   3.989  0.00  0.00     0.022 A 
ATOM      8  C7  BZF d   1       1.704  -1.095   3.075  0.00  0.00     0.029 A 
ATOM      9  C7A BZF d   1       1.406  -1.651   1.855  0.00  0.00     0.058 A 
ENDROOT
TORSDOF 0
ENDMDL
