MODEL 1
REMARK minimizedAffinity 9.41967392
REMARK minimizedRMSD -1
REMARK  0 active torsions:
REMARK  status: ('A' for Active; 'I' for Inactive)
ROOT
ATOM      1  O1  BZF d   1       1.091  -0.425   2.946  0.00  0.00    -0.204 OA
ATOM      2  C2  BZF d   1       2.473  -0.404   2.945  0.00  0.00     0.174 A 
ATOM      3  C3  BZF d   1       2.957  -0.851   1.768  0.00  0.00    -0.012 A 
ATOM      4  C3A BZF d   1       1.806  -1.085   0.952  0.00  0.00    -0.107 A 
ATOM      5  C4  BZF d   1       1.638  -1.521  -0.332  0.00  0.00     0.055 A 
ATOM      6  C5  BZF d   1       0.379  -1.711  -0.805  0.00  0.00    -0.016 A 
ATOM      7  C6  BZF d   1      -0.734  -1.479  -0.023  0.00  0.00     0.022 A 
ATOM      8  C7  BZF d   1      -0.618  -1.041   1.255  0.00  0.00     0.029 A 
ATOM      9  C7A BZF d   1       0.653  -0.817   1.725  0.00  0.00     0.058 A 
ENDROOT
TORSDOF 0
ENDMDL
