MODEL 1
REMARK minimizedAffinity -0.425079405
REMARK minimizedRMSD -1
REMARK  0 active torsions:
REMARK  status: ('A' for Active; 'I' for Inactive)
ROOT
ATOM      1  O1  BZF d   1       1.284  -0.540   3.180  0.00  0.00    -0.204 OA
ATOM      2  C2  BZF d   1       1.810  -0.553   1.903  0.00  0.00     0.174 A 
ATOM      3  C3  BZF d   1       2.735  -1.526   1.776  0.00  0.00    -0.012 A 
ATOM      4  C3A BZF d   1       2.724  -2.221   3.027  0.00  0.00    -0.107 A 
ATOM      5  C4  BZF d   1       3.414  -3.296   3.511  0.00  0.00     0.055 A 
ATOM      6  C5  BZF d   1       3.221  -3.679   4.800  0.00  0.00    -0.016 A 
ATOM      7  C6  BZF d   1       2.351  -3.008   5.635  0.00  0.00     0.022 A 
ATOM      8  C7  BZF d   1       1.641  -1.939   5.199  0.00  0.00     0.029 A 
ATOM      9  C7A BZF d   1       1.810  -1.569   3.887  0.00  0.00     0.058 A 
ENDROOT
TORSDOF 0
ENDMDL
