MODEL 1
REMARK minimizedAffinity 10.6115704
REMARK minimizedRMSD -1
REMARK  0 active torsions:
REMARK  status: ('A' for Active; 'I' for Inactive)
ROOT
ATOM      1  O1  BZF d   1       1.760  -0.812   4.293  0.00  0.00    -0.204 OA
ATOM      2  C2  BZF d   1       2.079  -0.376   3.021  0.00  0.00     0.174 A 
ATOM      3  C3  BZF d   1       2.479  -1.406   2.248  0.00  0.00    -0.012 A 
ATOM      4  C3A BZF d   1       2.317  -2.572   3.062  0.00  0.00    -0.107 A 
ATOM      5  C4  BZF d   1       2.533  -3.903   2.848  0.00  0.00     0.055 A 
ATOM      6  C5  BZF d   1       2.345  -4.776   3.872  0.00  0.00    -0.016 A 
ATOM      7  C6  BZF d   1       1.948  -4.352   5.124  0.00  0.00     0.022 A 
ATOM      8  C7  BZF d   1       1.717  -3.042   5.383  0.00  0.00     0.029 A 
ATOM      9  C7A BZF d   1       1.874  -2.161   4.340  0.00  0.00     0.058 A 
ENDROOT
TORSDOF 0
ENDMDL
