MODEL 1
REMARK minimizedAffinity 10.3589687
REMARK minimizedRMSD -1
REMARK  0 active torsions:
REMARK  status: ('A' for Active; 'I' for Inactive)
ROOT
ATOM      1  O1  BZF d   1       4.715  -0.401   1.281  0.00  0.00    -0.204 OA
ATOM      2  C2  BZF d   1       5.569  -1.430   1.628  0.00  0.00     0.174 A 
ATOM      3  C3  BZF d   1       5.041  -2.176   2.620  0.00  0.00    -0.012 A 
ATOM      4  C3A BZF d   1       3.737  -1.632   2.847  0.00  0.00    -0.107 A 
ATOM      5  C4  BZF d   1       2.720  -1.956   3.698  0.00  0.00     0.055 A 
ATOM      6  C5  BZF d   1       1.605  -1.180   3.721  0.00  0.00    -0.016 A 
ATOM      7  C6  BZF d   1       1.476  -0.070   2.911  0.00  0.00     0.022 A 
ATOM      8  C7  BZF d   1       2.456   0.288   2.046  0.00  0.00     0.029 A 
ATOM      9  C7A BZF d   1       3.570  -0.514   1.997  0.00  0.00     0.058 A 
ENDROOT
TORSDOF 0
ENDMDL
