MODEL 1
REMARK minimizedAffinity 10.9022684
REMARK minimizedRMSD -1
REMARK  0 active torsions:
REMARK  status: ('A' for Active; 'I' for Inactive)
ROOT
ATOM      1  O1  BZF d   1       0.021  -3.564   5.724  0.00  0.00    -0.204 OA
ATOM      2  C2  BZF d   1      -0.305  -4.878   5.999  0.00  0.00     0.174 A 
ATOM      3  C3  BZF d   1       0.718  -5.700   5.689  0.00  0.00    -0.012 A 
ATOM      4  C3A BZF d   1       1.782  -4.837   5.276  0.00  0.00    -0.107 A 
ATOM      5  C4  BZF d   1       3.064  -5.059   4.861  0.00  0.00     0.055 A 
ATOM      6  C5  BZF d   1       3.820  -4.004   4.459  0.00  0.00    -0.016 A 
ATOM      7  C6  BZF d   1       3.326  -2.717   4.455  0.00  0.00     0.022 A 
ATOM      8  C7  BZF d   1       2.063  -2.446   4.863  0.00  0.00     0.029 A 
ATOM      9  C7A BZF d   1       1.307  -3.506   5.301  0.00  0.00     0.058 A 
ENDROOT
TORSDOF 0
ENDMDL
