MODEL 1
REMARK minimizedAffinity -2.3498354
REMARK minimizedRMSD -1
REMARK  0 active torsions:
REMARK  status: ('A' for Active; 'I' for Inactive)
ROOT
ATOM      1  C1  BNZ d   1       0.601  -0.141   0.306  0.00  0.00     0.000 A 
ATOM      2  C2  BNZ d   1      -0.019  -0.723  -0.768  0.00  0.00     0.000 A 
ATOM      3  C3  BNZ d   1      -0.812   0.013  -1.603  0.00  0.00     0.000 A 
ATOM      4  C4  BNZ d   1      -1.016   1.320  -1.341  0.00  0.00     0.000 A 
ATOM      5  C5  BNZ d   1      -0.406   1.920  -0.257  0.00  0.00     0.000 A 
ATOM      6  C6  BNZ d   1       0.423   1.184   0.559  0.00  0.00     0.000 A 
ENDROOT
TORSDOF 0
ENDMDL
