MODEL 1
REMARK minimizedAffinity -1.88836813
REMARK minimizedRMSD -1
REMARK  0 active torsions:
REMARK  status: ('A' for Active; 'I' for Inactive)
ROOT
ATOM      1  C1  BNZ d   1      -1.512   1.164  -1.646  0.00  0.00     0.000 A 
ATOM      2  C2  BNZ d   1      -0.459   1.689  -0.945  0.00  0.00     0.000 A 
ATOM      3  C3  BNZ d   1       0.337   0.889  -0.174  0.00  0.00     0.000 A 
ATOM      4  C4  BNZ d   1       0.057  -0.426  -0.074  0.00  0.00     0.000 A 
ATOM      5  C5  BNZ d   1      -1.006  -0.969  -0.768  0.00  0.00     0.000 A 
ATOM      6  C6  BNZ d   1      -1.782  -0.168  -1.573  0.00  0.00     0.000 A 
ENDROOT
TORSDOF 0
ENDMDL
