MODEL 1
REMARK minimizedAffinity -2.86130452
REMARK minimizedRMSD -1
REMARK  0 active torsions:
REMARK  status: ('A' for Active; 'I' for Inactive)
ROOT
ATOM      1  C1  BNZ d   1       2.194   1.209   1.263  0.00  0.00     0.000 A 
ATOM      2  C2  BNZ d   1       2.250   2.449   1.841  0.00  0.00     0.000 A 
ATOM      3  C3  BNZ d   1       3.015   3.442   1.296  0.00  0.00     0.000 A 
ATOM      4  C4  BNZ d   1       3.755   3.181   0.198  0.00  0.00     0.000 A 
ATOM      5  C5  BNZ d   1       3.717   1.933  -0.390  0.00  0.00     0.000 A 
ATOM      6  C6  BNZ d   1       2.915   0.948   0.139  0.00  0.00     0.000 A 
ENDROOT
TORSDOF 0
ENDMDL
