MODEL 1
REMARK minimizedAffinity -3.41496325
REMARK minimizedRMSD -1
REMARK  0 active torsions:
REMARK  status: ('A' for Active; 'I' for Inactive)
ROOT
ATOM      1  C1  BNZ d   1      -2.656  -2.292   0.467  0.00  0.00     0.000 A 
ATOM      2  C2  BNZ d   1      -2.632  -1.355  -0.532  0.00  0.00     0.000 A 
ATOM      3  C3  BNZ d   1      -1.538  -0.556  -0.717  0.00  0.00     0.000 A 
ATOM      4  C4  BNZ d   1      -0.488  -0.667   0.122  0.00  0.00     0.000 A 
ATOM      5  C5  BNZ d   1      -0.501  -1.599   1.140  0.00  0.00     0.000 A 
ATOM      6  C6  BNZ d   1      -1.587  -2.428   1.298  0.00  0.00     0.000 A 
ENDROOT
TORSDOF 0
ENDMDL
