MODEL 1
REMARK minimizedAffinity -2.583498
REMARK minimizedRMSD -1
REMARK  0 active torsions:
REMARK  status: ('A' for Active; 'I' for Inactive)
ROOT
ATOM      1  C1  BNZ d   1      -0.179  -0.745   0.306  0.00  0.00     0.000 A 
ATOM      2  C2  BNZ d   1      -0.147   0.382  -0.471  0.00  0.00     0.000 A 
ATOM      3  C3  BNZ d   1      -1.119   0.619  -1.402  0.00  0.00     0.000 A 
ATOM      4  C4  BNZ d   1      -2.100  -0.290  -1.582  0.00  0.00     0.000 A 
ATOM      5  C5  BNZ d   1      -2.141  -1.435  -0.813  0.00  0.00     0.000 A 
ATOM      6  C6  BNZ d   1      -1.182  -1.652   0.150  0.00  0.00     0.000 A 
ENDROOT
TORSDOF 0
ENDMDL
