MODEL 1
REMARK minimizedAffinity -3.21581602
REMARK minimizedRMSD -1
REMARK  0 active torsions:
REMARK  status: ('A' for Active; 'I' for Inactive)
ROOT
ATOM      1  C1  BNZ d   1      -2.504  -2.342  -0.379  0.00  0.00     0.000 A 
ATOM      2  C2  BNZ d   1      -2.312  -1.246  -1.178  0.00  0.00     0.000 A 
ATOM      3  C3  BNZ d   1      -1.199  -0.466  -1.040  0.00  0.00     0.000 A 
ATOM      4  C4  BNZ d   1      -0.300  -0.757  -0.078  0.00  0.00     0.000 A 
ATOM      5  C5  BNZ d   1      -0.484  -1.853   0.742  0.00  0.00     0.000 A 
ATOM      6  C6  BNZ d   1      -1.586  -2.659   0.575  0.00  0.00     0.000 A 
ENDROOT
TORSDOF 0
ENDMDL
