MODEL 1
REMARK minimizedAffinity -3.26706719
REMARK minimizedRMSD -1
REMARK  0 active torsions:
REMARK  status: ('A' for Active; 'I' for Inactive)
ROOT
ATOM      1  C1  BNZ d   1      -0.039  -1.050   0.178  0.00  0.00     0.000 A 
ATOM      2  C2  BNZ d   1      -0.386  -2.164   0.895  0.00  0.00     0.000 A 
ATOM      3  C3  BNZ d   1      -1.485  -2.902   0.554  0.00  0.00     0.000 A 
ATOM      4  C4  BNZ d   1      -2.257  -2.504  -0.478  0.00  0.00     0.000 A 
ATOM      5  C5  BNZ d   1      -1.925  -1.378  -1.205  0.00  0.00     0.000 A 
ATOM      6  C6  BNZ d   1      -0.797  -0.659  -0.882  0.00  0.00     0.000 A 
ENDROOT
TORSDOF 0
ENDMDL
