MODEL 1
REMARK minimizedAffinity -1.15159142
REMARK minimizedRMSD -1
REMARK  0 active torsions:
REMARK  status: ('A' for Active; 'I' for Inactive)
ROOT
ATOM      1  C1  BNZ d   1       1.027   0.684   0.297  0.00  0.00     0.000 A 
ATOM      2  C2  BNZ d   1       1.065  -0.103  -0.823  0.00  0.00     0.000 A 
ATOM      3  C3  BNZ d   1       0.031  -0.099  -1.717  0.00  0.00     0.000 A 
ATOM      4  C4  BNZ d   1      -1.056   0.660  -1.470  0.00  0.00     0.000 A 
ATOM      5  C5  BNZ d   1      -1.114   1.452  -0.341  0.00  0.00     0.000 A 
ATOM      6  C6  BNZ d   1      -0.054   1.476   0.537  0.00  0.00     0.000 A 
ENDROOT
TORSDOF 0
ENDMDL
