MODEL 1
REMARK minimizedAffinity -2.53758836
REMARK minimizedRMSD -1
REMARK  0 active torsions:
REMARK  status: ('A' for Active; 'I' for Inactive)
ROOT
ATOM      1  C1  BNZ d   1      -1.308  -0.285  -0.668  0.00  0.00     0.000 A 
ATOM      2  C2  BNZ d   1      -0.499  -0.500   0.417  0.00  0.00     0.000 A 
ATOM      3  C3  BNZ d   1       0.860  -0.530   0.281  0.00  0.00     0.000 A 
ATOM      4  C4  BNZ d   1       1.408  -0.386  -0.943  0.00  0.00     0.000 A 
ATOM      5  C5  BNZ d   1       0.606  -0.178  -2.048  0.00  0.00     0.000 A 
ATOM      6  C6  BNZ d   1      -0.761  -0.109  -1.901  0.00  0.00     0.000 A 
ENDROOT
TORSDOF 0
ENDMDL
