MODEL 1
REMARK minimizedAffinity -4.14621401
REMARK minimizedRMSD -1
REMARK  0 active torsions:
REMARK  status: ('A' for Active; 'I' for Inactive)
ROOT
ATOM      1  C1  BNZ d   1      -2.529  -0.014  -1.189  0.00  0.00     0.000 A 
ATOM      2  C2  BNZ d   1      -1.541   0.930  -1.094  0.00  0.00     0.000 A 
ATOM      3  C3  BNZ d   1      -0.392   0.673  -0.401  0.00  0.00     0.000 A 
ATOM      4  C4  BNZ d   1      -0.248  -0.510   0.229  0.00  0.00     0.000 A 
ATOM      5  C5  BNZ d   1      -1.239  -1.469   0.151  0.00  0.00     0.000 A 
ATOM      6  C6  BNZ d   1      -2.378  -1.221  -0.581  0.00  0.00     0.000 A 
ENDROOT
TORSDOF 0
ENDMDL
