MODEL 1
REMARK minimizedAffinity -3.12577724
REMARK minimizedRMSD -1
REMARK  0 active torsions:
REMARK  status: ('A' for Active; 'I' for Inactive)
ROOT
ATOM      1  C1  BNZ d   1       1.459   0.475   0.500  0.00  0.00     0.000 A 
ATOM      2  C2  BNZ d   1       0.249   1.078   0.285  0.00  0.00     0.000 A 
ATOM      3  C3  BNZ d   1      -0.915   0.466   0.661  0.00  0.00     0.000 A 
ATOM      4  C4  BNZ d   1      -0.869  -0.763   1.215  0.00  0.00     0.000 A 
ATOM      5  C5  BNZ d   1       0.343  -1.388   1.430  0.00  0.00     0.000 A 
ATOM      6  C6  BNZ d   1       1.514  -0.753   1.086  0.00  0.00     0.000 A 
ENDROOT
TORSDOF 0
ENDMDL
