MODEL 1
REMARK minimizedAffinity -3.82396507
REMARK minimizedRMSD -1
REMARK  0 active torsions:
REMARK  status: ('A' for Active; 'I' for Inactive)
ROOT
ATOM      1  C1  BNZ d   1      -2.032  -1.506  -0.068  0.00  0.00     0.000 A 
ATOM      2  C2  BNZ d   1      -0.918  -1.572   0.726  0.00  0.00     0.000 A 
ATOM      3  C3  BNZ d   1       0.169  -0.783   0.473  0.00  0.00     0.000 A 
ATOM      4  C4  BNZ d   1       0.157   0.041  -0.595  0.00  0.00     0.000 A 
ATOM      5  C5  BNZ d   1      -0.955   0.112  -1.410  0.00  0.00     0.000 A 
ATOM      6  C6  BNZ d   1      -2.062  -0.656  -1.130  0.00  0.00     0.000 A 
ENDROOT
TORSDOF 0
ENDMDL
