MODEL 1
REMARK minimizedAffinity -3.80550623
REMARK minimizedRMSD -1
REMARK  0 active torsions:
REMARK  status: ('A' for Active; 'I' for Inactive)
ROOT
ATOM      1  C1  BNZ d   1       1.432   0.515   0.024  0.00  0.00     0.000 A 
ATOM      2  C2  BNZ d   1       2.635   1.051   0.401  0.00  0.00     0.000 A 
ATOM      3  C3  BNZ d   1       2.688   2.187   1.158  0.00  0.00     0.000 A 
ATOM      4  C4  BNZ d   1       1.542   2.809   1.503  0.00  0.00     0.000 A 
ATOM      5  C5  BNZ d   1       0.322   2.287   1.122  0.00  0.00     0.000 A 
ATOM      6  C6  BNZ d   1       0.271   1.121   0.393  0.00  0.00     0.000 A 
ENDROOT
TORSDOF 0
ENDMDL
