MODEL 1
REMARK minimizedAffinity -3.23373604
REMARK minimizedRMSD -1
REMARK  0 active torsions:
REMARK  status: ('A' for Active; 'I' for Inactive)
ROOT
ATOM      1  C1  BNZ d   1       0.618  -0.279  -0.594  0.00  0.00     0.000 A 
ATOM      2  C2  BNZ d   1      -0.701  -0.305  -0.965  0.00  0.00     0.000 A 
ATOM      3  C3  BNZ d   1      -1.474   0.819  -0.881  0.00  0.00     0.000 A 
ATOM      4  C4  BNZ d   1      -0.940   1.956  -0.390  0.00  0.00     0.000 A 
ATOM      5  C5  BNZ d   1       0.385   1.996  -0.003  0.00  0.00     0.000 A 
ATOM      6  C6  BNZ d   1       1.171   0.872  -0.126  0.00  0.00     0.000 A 
ENDROOT
TORSDOF 0
ENDMDL
