MODEL 1
REMARK minimizedAffinity -2.51658416
REMARK minimizedRMSD -1
REMARK  0 active torsions:
REMARK  status: ('A' for Active; 'I' for Inactive)
ROOT
ATOM      1  C1  BNZ d   1      -1.852  -0.280  -1.837  0.00  0.00     0.000 A 
ATOM      2  C2  BNZ d   1      -0.808   0.607  -1.864  0.00  0.00     0.000 A 
ATOM      3  C3  BNZ d   1       0.105   0.643  -0.848  0.00  0.00     0.000 A 
ATOM      4  C4  BNZ d   1      -0.047  -0.178   0.211  0.00  0.00     0.000 A 
ATOM      5  C5  BNZ d   1      -1.099  -1.071   0.257  0.00  0.00     0.000 A 
ATOM      6  C6  BNZ d   1      -1.995  -1.132  -0.786  0.00  0.00     0.000 A 
ENDROOT
TORSDOF 0
ENDMDL
