MODEL 1
REMARK minimizedAffinity -4.87932253
REMARK minimizedRMSD -1
REMARK  0 active torsions:
REMARK  status: ('A' for Active; 'I' for Inactive)
ROOT
ATOM      1  C1  BNZ d   1      -0.683  -0.439  -0.842  0.00  0.00     0.000 A 
ATOM      2  C2  BNZ d   1      -1.985  -0.807  -1.059  0.00  0.00     0.000 A 
ATOM      3  C3  BNZ d   1      -2.960  -0.498  -0.152  0.00  0.00     0.000 A 
ATOM      4  C4  BNZ d   1      -2.627   0.141   0.988  0.00  0.00     0.000 A 
ATOM      5  C5  BNZ d   1      -1.318   0.509   1.226  0.00  0.00     0.000 A 
ATOM      6  C6  BNZ d   1      -0.345   0.232   0.292  0.00  0.00     0.000 A 
ENDROOT
TORSDOF 0
ENDMDL
