MODEL 1
REMARK minimizedAffinity -6.28348064
REMARK minimizedRMSD -1
REMARK  0 active torsions:
REMARK  status: ('A' for Active; 'I' for Inactive)
ROOT
ATOM      1  C1  DEN d   1      -2.572  -1.878   1.133  0.00  0.00     0.130 A 
ATOM      2  C2  DEN d   1      -3.449  -1.625  -0.007  0.00  0.00    -0.031 A 
ATOM      3  C3  DEN d   1      -2.701  -0.814  -0.988  0.00  0.00     0.027 A 
ATOM      4  C4  DEN d   1      -0.280   0.066  -0.855  0.00  0.00     0.027 A 
ATOM      5  C5  DEN d   1       0.855   0.117  -0.076  0.00  0.00    -0.003 A 
ATOM      6  C6  DEN d   1       0.915  -0.459   1.165  0.00  0.00     0.001 A 
ATOM      7  C7  DEN d   1      -0.165  -1.151   1.645  0.00  0.00     0.017 A 
ATOM      8  C8  DEN d   1      -1.316  -1.201   0.869  0.00  0.00    -0.094 A 
ATOM      9  C9  DEN d   1      -1.352  -0.623  -0.389  0.00  0.00    -0.072 A 
ENDROOT
TORSDOF 0
ENDMDL
