MODEL 1
REMARK minimizedAffinity 4.17799664
REMARK minimizedRMSD -1
REMARK  0 active torsions:
REMARK  status: ('A' for Active; 'I' for Inactive)
ROOT
ATOM      1  C1  DEN d   1       1.346   0.516  -1.391  0.00  0.00     0.130 A 
ATOM      2  C2  DEN d   1       0.352   0.757  -2.434  0.00  0.00    -0.031 A 
ATOM      3  C3  DEN d   1      -0.912   0.116  -2.017  0.00  0.00     0.027 A 
ATOM      4  C4  DEN d   1      -1.425  -1.213   0.133  0.00  0.00     0.027 A 
ATOM      5  C5  DEN d   1      -0.894  -1.691   1.311  0.00  0.00    -0.003 A 
ATOM      6  C6  DEN d   1       0.418  -1.498   1.652  0.00  0.00     0.001 A 
ATOM      7  C7  DEN d   1       1.234  -0.769   0.827  0.00  0.00     0.017 A 
ATOM      8  C8  DEN d   1       0.708  -0.290  -0.366  0.00  0.00    -0.094 A 
ATOM      9  C9  DEN d   1      -0.625  -0.486  -0.687  0.00  0.00    -0.072 A 
ENDROOT
TORSDOF 0
ENDMDL
