MODEL 1
REMARK minimizedAffinity 1.06699741
REMARK minimizedRMSD -1
REMARK  0 active torsions:
REMARK  status: ('A' for Active; 'I' for Inactive)
ROOT
ATOM      1  C1  DEN d   1      -1.009  -1.575  -1.034  0.00  0.00     0.130 A 
ATOM      2  C2  DEN d   1      -2.431  -1.278  -1.184  0.00  0.00    -0.031 A 
ATOM      3  C3  DEN d   1      -2.642   0.137  -0.820  0.00  0.00     0.027 A 
ATOM      4  C4  DEN d   1      -0.915   1.889  -0.046  0.00  0.00     0.027 A 
ATOM      5  C5  DEN d   1       0.414   2.103   0.245  0.00  0.00    -0.003 A 
ATOM      6  C6  DEN d   1       1.349   1.105   0.163  0.00  0.00     0.001 A 
ATOM      7  C7  DEN d   1       0.975  -0.142  -0.262  0.00  0.00     0.017 A 
ATOM      8  C8  DEN d   1      -0.365  -0.367  -0.550  0.00  0.00    -0.094 A 
ATOM      9  C9  DEN d   1      -1.292   0.658  -0.473  0.00  0.00    -0.072 A 
ENDROOT
TORSDOF 0
ENDMDL
