MODEL 1
REMARK minimizedAffinity -4.66665506
REMARK minimizedRMSD -1
REMARK  0 active torsions:
REMARK  status: ('A' for Active; 'I' for Inactive)
ROOT
ATOM      1  C1  DEN d   1       2.517   2.168   0.451  0.00  0.00     0.130 A 
ATOM      2  C2  DEN d   1       2.756   2.955   1.657  0.00  0.00    -0.031 A 
ATOM      3  C3  DEN d   1       2.015   2.324   2.768  0.00  0.00     0.027 A 
ATOM      4  C4  DEN d   1       0.534   0.213   2.738  0.00  0.00     0.027 A 
ATOM      5  C5  DEN d   1       0.021  -0.788   1.942  0.00  0.00    -0.003 A 
ATOM      6  C6  DEN d   1       0.275  -0.853   0.598  0.00  0.00     0.001 A 
ATOM      7  C7  DEN d   1       1.100   0.074   0.016  0.00  0.00     0.017 A 
ATOM      8  C8  DEN d   1       1.614   1.090   0.811  0.00  0.00    -0.094 A 
ATOM      9  C9  DEN d   1       1.356   1.132   2.171  0.00  0.00    -0.072 A 
ENDROOT
TORSDOF 0
ENDMDL
