MODEL 1
REMARK minimizedAffinity -0.699974537
REMARK minimizedRMSD -1
REMARK  0 active torsions:
REMARK  status: ('A' for Active; 'I' for Inactive)
ROOT
ATOM      1  C1  DEN d   1      -2.303  -0.712  -1.440  0.00  0.00     0.130 A 
ATOM      2  C2  DEN d   1      -1.983   0.323  -2.420  0.00  0.00    -0.031 A 
ATOM      3  C3  DEN d   1      -0.740   0.994  -1.986  0.00  0.00     0.027 A 
ATOM      4  C4  DEN d   1       0.713   0.529   0.093  0.00  0.00     0.027 A 
ATOM      5  C5  DEN d   1       0.838  -0.246   1.225  0.00  0.00    -0.003 A 
ATOM      6  C6  DEN d   1      -0.085  -1.200   1.563  0.00  0.00     0.001 A 
ATOM      7  C7  DEN d   1      -1.152  -1.434   0.736  0.00  0.00     0.017 A 
ATOM      8  C8  DEN d   1      -1.289  -0.652  -0.403  0.00  0.00    -0.094 A 
ATOM      9  C9  DEN d   1      -0.338   0.299  -0.733  0.00  0.00    -0.072 A 
ENDROOT
TORSDOF 0
ENDMDL
