MODEL 1
REMARK minimizedAffinity -2.03107619
REMARK minimizedRMSD -1
REMARK  0 active torsions:
REMARK  status: ('A' for Active; 'I' for Inactive)
ROOT
ATOM      1  C1  DEN d   1       0.320   1.713  -1.527  0.00  0.00     0.130 A 
ATOM      2  C2  DEN d   1       1.493   1.803  -0.662  0.00  0.00    -0.031 A 
ATOM      3  C3  DEN d   1       1.493   0.626   0.230  0.00  0.00     0.027 A 
ATOM      4  C4  DEN d   1      -0.197  -1.319   0.351  0.00  0.00     0.027 A 
ATOM      5  C5  DEN d   1      -1.363  -1.827  -0.178  0.00  0.00    -0.003 A 
ATOM      6  C6  DEN d   1      -2.063  -1.178  -1.161  0.00  0.00     0.001 A 
ATOM      7  C7  DEN d   1      -1.577  -0.007  -1.679  0.00  0.00     0.017 A 
ATOM      8  C8  DEN d   1      -0.406   0.515  -1.147  0.00  0.00    -0.094 A 
ATOM      9  C9  DEN d   1       0.293  -0.161  -0.161  0.00  0.00    -0.072 A 
ENDROOT
TORSDOF 0
ENDMDL
