MODEL 1
REMARK minimizedAffinity -4.47836351
REMARK minimizedRMSD -1
REMARK  0 active torsions:
REMARK  status: ('A' for Active; 'I' for Inactive)
ROOT
ATOM      1  C1  DEN d   1       0.701  -0.473   1.095  0.00  0.00     0.130 A 
ATOM      2  C2  DEN d   1       0.759   0.658   0.173  0.00  0.00    -0.031 A 
ATOM      3  C3  DEN d   1      -0.421   0.586  -0.712  0.00  0.00     0.027 A 
ATOM      4  C4  DEN d   1      -2.324  -1.155  -0.741  0.00  0.00     0.027 A 
ATOM      5  C5  DEN d   1      -2.801  -2.307  -0.155  0.00  0.00    -0.003 A 
ATOM      6  C6  DEN d   1      -2.132  -2.942   0.858  0.00  0.00     0.001 A 
ATOM      7  C7  DEN d   1      -0.970  -2.403   1.346  0.00  0.00     0.017 A 
ATOM      8  C8  DEN d   1      -0.480  -1.246   0.755  0.00  0.00    -0.094 A 
ATOM      9  C9  DEN d   1      -1.177  -0.613  -0.259  0.00  0.00    -0.072 A 
ENDROOT
TORSDOF 0
ENDMDL
