MODEL 1
REMARK minimizedAffinity -6.50009346
REMARK minimizedRMSD -1
REMARK  0 active torsions:
REMARK  status: ('A' for Active; 'I' for Inactive)
ROOT
ATOM      1  C1  DEN d   1      -0.047   0.553  -1.268  0.00  0.00     0.130 A 
ATOM      2  C2  DEN d   1       1.135   0.502  -0.412  0.00  0.00    -0.031 A 
ATOM      3  C3  DEN d   1       0.786  -0.258   0.804  0.00  0.00     0.027 A 
ATOM      4  C4  DEN d   1      -1.457  -1.361   1.441  0.00  0.00     0.027 A 
ATOM      5  C5  DEN d   1      -2.756  -1.576   1.038  0.00  0.00    -0.003 A 
ATOM      6  C6  DEN d   1      -3.250  -1.072  -0.137  0.00  0.00     0.001 A 
ATOM      7  C7  DEN d   1      -2.425  -0.365  -0.971  0.00  0.00     0.017 A 
ATOM      8  C8  DEN d   1      -1.116  -0.138  -0.568  0.00  0.00    -0.094 A 
ATOM      9  C9  DEN d   1      -0.632  -0.666   0.617  0.00  0.00    -0.072 A 
ENDROOT
TORSDOF 0
ENDMDL
