MODEL 1
REMARK minimizedAffinity -3.60782552
REMARK minimizedRMSD -1
REMARK  0 active torsions:
REMARK  status: ('A' for Active; 'I' for Inactive)
ROOT
ATOM      1  C1  DEN d   1       0.549  -0.291   1.114  0.00  0.00     0.130 A 
ATOM      2  C2  DEN d   1       0.509   0.712   0.054  0.00  0.00    -0.031 A 
ATOM      3  C3  DEN d   1      -0.569   0.341  -0.885  0.00  0.00     0.027 A 
ATOM      4  C4  DEN d   1      -2.174  -1.676  -0.798  0.00  0.00     0.027 A 
ATOM      5  C5  DEN d   1      -2.516  -2.808  -0.093  0.00  0.00    -0.003 A 
ATOM      6  C6  DEN d   1      -1.844  -3.197   1.036  0.00  0.00     0.001 A 
ATOM      7  C7  DEN d   1      -0.824  -2.421   1.519  0.00  0.00     0.017 A 
ATOM      8  C8  DEN d   1      -0.468  -1.282   0.809  0.00  0.00    -0.094 A 
ATOM      9  C9  DEN d   1      -1.167  -0.899  -0.323  0.00  0.00    -0.072 A 
ENDROOT
TORSDOF 0
ENDMDL
