MODEL 1
REMARK minimizedAffinity -5.98294878
REMARK minimizedRMSD -1
REMARK  0 active torsions:
REMARK  status: ('A' for Active; 'I' for Inactive)
ROOT
ATOM      1  C1  DEN d   1      -2.245  -1.146  -0.698  0.00  0.00     0.130 A 
ATOM      2  C2  DEN d   1      -2.283   0.003  -1.597  0.00  0.00    -0.031 A 
ATOM      3  C3  DEN d   1      -1.010   0.738  -1.453  0.00  0.00     0.027 A 
ATOM      4  C4  DEN d   1       1.007   0.207   0.064  0.00  0.00     0.027 A 
ATOM      5  C5  DEN d   1       1.500  -0.660   1.014  0.00  0.00    -0.003 A 
ATOM      6  C6  DEN d   1       0.771  -1.722   1.481  0.00  0.00     0.001 A 
ATOM      7  C7  DEN d   1      -0.473  -1.970   0.966  0.00  0.00     0.017 A 
ATOM      8  C8  DEN d   1      -0.980  -1.096   0.013  0.00  0.00    -0.094 A 
ATOM      9  C9  DEN d   1      -0.223  -0.036  -0.456  0.00  0.00    -0.072 A 
ENDROOT
TORSDOF 0
ENDMDL
