MODEL 1
REMARK minimizedAffinity -2.89728045
REMARK minimizedRMSD -1
REMARK  0 active torsions:
REMARK  status: ('A' for Active; 'I' for Inactive)
ROOT
ATOM      1  C1  DEN d   1       0.831   0.163   2.246  0.00  0.00     0.130 A 
ATOM      2  C2  DEN d   1       0.950  -0.991   1.358  0.00  0.00    -0.031 A 
ATOM      3  C3  DEN d   1       1.749  -0.584   0.185  0.00  0.00     0.027 A 
ATOM      4  C4  DEN d   1       2.813   1.706  -0.339  0.00  0.00     0.027 A 
ATOM      5  C5  DEN d   1       2.974   2.998   0.111  0.00  0.00    -0.003 A 
ATOM      6  C6  DEN d   1       2.409   3.441   1.278  0.00  0.00     0.001 A 
ATOM      7  C7  DEN d   1       1.693   2.572   2.058  0.00  0.00     0.017 A 
ATOM      8  C8  DEN d   1       1.519   1.270   1.607  0.00  0.00    -0.094 A 
ATOM      9  C9  DEN d   1       2.109   0.838   0.431  0.00  0.00    -0.072 A 
ENDROOT
TORSDOF 0
ENDMDL
