MODEL 1
REMARK minimizedAffinity -5.19434118
REMARK minimizedRMSD -1
REMARK  0 active torsions:
REMARK  status: ('A' for Active; 'I' for Inactive)
ROOT
ATOM      1  C1  DEN d   1      -0.562   0.100  -1.716  0.00  0.00     0.130 A 
ATOM      2  C2  DEN d   1      -2.005  -0.121  -1.684  0.00  0.00    -0.031 A 
ATOM      3  C3  DEN d   1      -2.382  -0.477  -0.301  0.00  0.00     0.027 A 
ATOM      4  C4  DEN d   1      -0.880  -0.700   1.784  0.00  0.00     0.027 A 
ATOM      5  C5  DEN d   1       0.414  -0.620   2.248  0.00  0.00    -0.003 A 
ATOM      6  C6  DEN d   1       1.469  -0.330   1.425  0.00  0.00     0.001 A 
ATOM      7  C7  DEN d   1       1.243  -0.065   0.100  0.00  0.00     0.017 A 
ATOM      8  C8  DEN d   1      -0.058  -0.151  -0.378  0.00  0.00    -0.094 A 
ATOM      9  C9  DEN d   1      -1.113  -0.434   0.474  0.00  0.00    -0.072 A 
ENDROOT
TORSDOF 0
ENDMDL
