MODEL 1
REMARK minimizedAffinity 8.19357204
REMARK minimizedRMSD -1
REMARK  0 active torsions:
REMARK  status: ('A' for Active; 'I' for Inactive)
ROOT
ATOM      1  C1  DEN d   1       4.862  -2.153   0.228  0.00  0.00     0.130 A 
ATOM      2  C2  DEN d   1       5.821  -2.640   1.216  0.00  0.00    -0.031 A 
ATOM      3  C3  DEN d   1       5.243  -2.426   2.558  0.00  0.00     0.027 A 
ATOM      4  C4  DEN d   1       2.966  -1.398   3.199  0.00  0.00     0.027 A 
ATOM      5  C5  DEN d   1       1.813  -0.829   2.706  0.00  0.00    -0.003 A 
ATOM      6  C6  DEN d   1       1.611  -0.632   1.365  0.00  0.00     0.001 A 
ATOM      7  C7  DEN d   1       2.558  -1.049   0.468  0.00  0.00     0.017 A 
ATOM      8  C8  DEN d   1       3.727  -1.616   0.958  0.00  0.00    -0.094 A 
ATOM      9  C9  DEN d   1       3.907  -1.818   2.316  0.00  0.00    -0.072 A 
ENDROOT
TORSDOF 0
ENDMDL
