MODEL 1
REMARK minimizedAffinity -1.27550328
REMARK minimizedRMSD -1
REMARK  0 active torsions:
REMARK  status: ('A' for Active; 'I' for Inactive)
ROOT
ATOM      1  C1  DEN d   1      -3.007   2.161   1.851  0.00  0.00     0.130 A 
ATOM      2  C2  DEN d   1      -1.613   2.231   1.421  0.00  0.00    -0.031 A 
ATOM      3  C3  DEN d   1      -1.365   3.588   0.895  0.00  0.00     0.027 A 
ATOM      4  C4  DEN d   1      -2.993   5.580   0.712  0.00  0.00     0.027 A 
ATOM      5  C5  DEN d   1      -4.286   5.998   0.938  0.00  0.00    -0.003 A 
ATOM      6  C6  DEN d   1      -5.244   5.163   1.448  0.00  0.00     0.001 A 
ATOM      7  C7  DEN d   1      -4.912   3.879   1.792  0.00  0.00     0.017 A 
ATOM      8  C8  DEN d   1      -3.613   3.449   1.560  0.00  0.00    -0.094 A 
ATOM      9  C9  DEN d   1      -2.655   4.312   1.054  0.00  0.00    -0.072 A 
ENDROOT
TORSDOF 0
ENDMDL
