MODEL 1
REMARK minimizedAffinity 12.9130259
REMARK minimizedRMSD -1
REMARK  0 active torsions:
REMARK  status: ('A' for Active; 'I' for Inactive)
ROOT
ATOM      1  C1  DEN d   1       4.091  -6.000  -1.091  0.00  0.00     0.130 A 
ATOM      2  C2  DEN d   1       4.196  -5.771  -2.529  0.00  0.00    -0.031 A 
ATOM      3  C3  DEN d   1       2.845  -5.468  -3.043  0.00  0.00     0.027 A 
ATOM      4  C4  DEN d   1       0.613  -5.328  -1.758  0.00  0.00     0.027 A 
ATOM      5  C5  DEN d   1       0.020  -5.456  -0.521  0.00  0.00    -0.003 A 
ATOM      6  C6  DEN d   1       0.731  -5.804   0.597  0.00  0.00     0.001 A 
ATOM      7  C7  DEN d   1       2.085  -5.993   0.509  0.00  0.00     0.017 A 
ATOM      8  C8  DEN d   1       2.689  -5.873  -0.735  0.00  0.00    -0.094 A 
ATOM      9  C9  DEN d   1       1.955  -5.508  -1.852  0.00  0.00    -0.072 A 
ENDROOT
TORSDOF 0
ENDMDL
