MODEL 1
REMARK minimizedAffinity 13.8718805
REMARK minimizedRMSD -1
REMARK  0 active torsions:
REMARK  status: ('A' for Active; 'I' for Inactive)
ROOT
ATOM      1  C1  DEN d   1       5.214  -2.367   2.987  0.00  0.00     0.130 A 
ATOM      2  C2  DEN d   1       5.875  -2.908   1.803  0.00  0.00    -0.031 A 
ATOM      3  C3  DEN d   1       5.005  -2.653   0.637  0.00  0.00     0.027 A 
ATOM      4  C4  DEN d   1       2.713  -1.472   0.550  0.00  0.00     0.027 A 
ATOM      5  C5  DEN d   1       1.740  -0.853   1.304  0.00  0.00    -0.003 A 
ATOM      6  C6  DEN d   1       1.840  -0.727   2.664  0.00  0.00     0.001 A 
ATOM      7  C7  DEN d   1       2.958  -1.186   3.308  0.00  0.00     0.017 A 
ATOM      8  C8  DEN d   1       3.940  -1.818   2.556  0.00  0.00    -0.094 A 
ATOM      9  C9  DEN d   1       3.827  -1.925   1.181  0.00  0.00    -0.072 A 
ENDROOT
TORSDOF 0
ENDMDL
