MODEL 1
REMARK minimizedAffinity 17.6201897
REMARK minimizedRMSD -1
REMARK  0 active torsions:
REMARK  status: ('A' for Active; 'I' for Inactive)
ROOT
ATOM      1  C1  DEN d   1       1.431   4.602  -1.823  0.00  0.00     0.130 A 
ATOM      2  C2  DEN d   1       0.881   5.749  -2.542  0.00  0.00    -0.031 A 
ATOM      3  C3  DEN d   1      -0.587   5.596  -2.590  0.00  0.00     0.027 A 
ATOM      4  C4  DEN d   1      -2.055   3.709  -1.623  0.00  0.00     0.027 A 
ATOM      5  C5  DEN d   1      -2.040   2.514  -0.938  0.00  0.00    -0.003 A 
ATOM      6  C6  DEN d   1      -0.875   1.919  -0.533  0.00  0.00     0.001 A 
ATOM      7  C7  DEN d   1       0.323   2.541  -0.770  0.00  0.00     0.017 A 
ATOM      8  C8  DEN d   1       0.316   3.743  -1.467  0.00  0.00    -0.094 A 
ATOM      9  C9  DEN d   1      -0.873   4.334  -1.857  0.00  0.00    -0.072 A 
ENDROOT
TORSDOF 0
ENDMDL
