MODEL 1
REMARK minimizedAffinity -2.0300262
REMARK minimizedRMSD -1
REMARK  0 active torsions:
REMARK  status: ('A' for Active; 'I' for Inactive)
ROOT
ATOM      1  C   UNL d   1       0.739  -1.778   2.245  0.00  0.00     0.124 A 
ATOM      2  C1  UNL d   1      -0.333  -0.939   2.517  0.00  0.00     0.062 A 
ATOM      3  C2  UNL d   1      -0.717   0.029   1.593  0.00  0.00     0.162 A 
ATOM      4  C3  UNL d   1      -0.028   0.163   0.387  0.00  0.00    -0.034 A 
ATOM      5  C4  UNL d   1       1.050  -0.684   0.121  0.00  0.00     0.162 A 
ATOM      6  C5  UNL d   1       1.429  -1.649   1.048  0.00  0.00     0.062 A 
ATOM      7  F   UNL d   1       2.466  -2.458   0.784  0.00  0.00    -0.097 F 
ATOM      8  F1  UNL d   1       1.734  -0.582  -1.028  0.00  0.00    -0.096 F 
ATOM      9  I   UNL d   1      -0.599   1.608  -0.997  0.00  0.00    -0.060 I 
ATOM     10  F2  UNL d   1      -1.756   0.825   1.882  0.00  0.00    -0.096 F 
ATOM     11  F3  UNL d   1      -1.001  -1.061   3.673  0.00  0.00    -0.097 F 
ATOM     12  F4  UNL d   1       1.107  -2.707   3.136  0.00  0.00    -0.092 F 
ENDROOT
TORSDOF 0
ENDMDL
