MODEL 1
REMARK minimizedAffinity -1.30607581
REMARK minimizedRMSD -1
REMARK  0 active torsions:
REMARK  status: ('A' for Active; 'I' for Inactive)
ROOT
ATOM      1  C   UNL d   1      -1.182   3.501  -4.691  0.00  0.00     0.124 A 
ATOM      2  C1  UNL d   1      -0.002   3.571  -3.962  0.00  0.00     0.062 A 
ATOM      3  C2  UNL d   1       0.100   2.928  -2.732  0.00  0.00     0.162 A 
ATOM      4  C3  UNL d   1      -0.981   2.209  -2.222  0.00  0.00    -0.034 A 
ATOM      5  C4  UNL d   1      -2.164   2.144  -2.960  0.00  0.00     0.162 A 
ATOM      6  C5  UNL d   1      -2.261   2.788  -4.189  0.00  0.00     0.062 A 
ATOM      7  F   UNL d   1      -3.401   2.719  -4.892  0.00  0.00    -0.097 F 
ATOM      8  F1  UNL d   1      -3.223   1.461  -2.500  0.00  0.00    -0.096 F 
ATOM      9  I   UNL d   1      -0.833   1.246  -0.383  0.00  0.00    -0.060 I 
ATOM     10  F2  UNL d   1       1.251   3.012  -2.049  0.00  0.00    -0.096 F 
ATOM     11  F3  UNL d   1       1.042   4.260  -4.444  0.00  0.00    -0.097 F 
ATOM     12  F4  UNL d   1      -1.277   4.121  -5.874  0.00  0.00    -0.092 F 
ENDROOT
TORSDOF 0
ENDMDL
