MODEL 1
REMARK minimizedAffinity -2.41587806
REMARK minimizedRMSD -1
REMARK  0 active torsions:
REMARK  status: ('A' for Active; 'I' for Inactive)
ROOT
ATOM      1  C   UNL d   1      -0.723  -1.312   2.808  0.00  0.00     0.124 A 
ATOM      2  C1  UNL d   1       0.427  -1.976   2.405  0.00  0.00     0.062 A 
ATOM      3  C2  UNL d   1       1.154  -1.516   1.311  0.00  0.00     0.162 A 
ATOM      4  C3  UNL d   1       0.735  -0.384   0.613  0.00  0.00    -0.034 A 
ATOM      5  C4  UNL d   1      -0.423   0.279   1.024  0.00  0.00     0.162 A 
ATOM      6  C5  UNL d   1      -1.147  -0.185   2.118  0.00  0.00     0.062 A 
ATOM      7  F   UNL d   1      -2.257   0.458   2.506  0.00  0.00    -0.097 F 
ATOM      8  F1  UNL d   1      -0.855   1.370   0.375  0.00  0.00    -0.096 F 
ATOM      9  I   UNL d   1       1.819   0.307  -1.023  0.00  0.00    -0.060 I 
ATOM     10  F2  UNL d   1       2.261  -2.178   0.944  0.00  0.00    -0.096 F 
ATOM     11  F3  UNL d   1       0.838  -3.066   3.070  0.00  0.00    -0.097 F 
ATOM     12  F4  UNL d   1      -1.421  -1.757   3.860  0.00  0.00    -0.092 F 
ENDROOT
TORSDOF 0
ENDMDL
