MODEL 1
REMARK minimizedAffinity 1.71773076
REMARK minimizedRMSD -1
REMARK  0 active torsions:
REMARK  status: ('A' for Active; 'I' for Inactive)
ROOT
ATOM      1  C   UNL d   1       1.225  -1.598   1.813  0.00  0.00     0.124 A 
ATOM      2  C1  UNL d   1      -0.025  -1.125   2.185  0.00  0.00     0.062 A 
ATOM      3  C2  UNL d   1      -0.710  -0.235   1.364  0.00  0.00     0.162 A 
ATOM      4  C3  UNL d   1      -0.146   0.188   0.160  0.00  0.00    -0.034 A 
ATOM      5  C4  UNL d   1       1.112  -0.291  -0.208  0.00  0.00     0.162 A 
ATOM      6  C5  UNL d   1       1.793  -1.181   0.617  0.00  0.00     0.062 A 
ATOM      7  F   UNL d   1       3.001  -1.637   0.255  0.00  0.00    -0.097 F 
ATOM      8  F1  UNL d   1       1.683   0.095  -1.358  0.00  0.00    -0.096 F 
ATOM      9  I   UNL d   1      -1.167   1.520  -1.071  0.00  0.00    -0.060 I 
ATOM     10  F2  UNL d   1      -1.917   0.206   1.749  0.00  0.00    -0.096 F 
ATOM     11  F3  UNL d   1      -0.575  -1.526   3.341  0.00  0.00    -0.097 F 
ATOM     12  F4  UNL d   1       1.883  -2.454   2.606  0.00  0.00    -0.092 F 
ENDROOT
TORSDOF 0
ENDMDL
