MODEL 1
REMARK minimizedAffinity -0.596594036
REMARK minimizedRMSD -1
REMARK  0 active torsions:
REMARK  status: ('A' for Active; 'I' for Inactive)
ROOT
ATOM      1  C   UNL d   1       0.720  -1.551   1.260  0.00  0.00     0.124 A 
ATOM      2  C1  UNL d   1       1.429  -1.282   0.097  0.00  0.00     0.062 A 
ATOM      3  C2  UNL d   1       1.017  -0.261  -0.754  0.00  0.00     0.162 A 
ATOM      4  C3  UNL d   1      -0.109   0.501  -0.445  0.00  0.00    -0.034 A 
ATOM      5  C4  UNL d   1      -0.818   0.225   0.726  0.00  0.00     0.162 A 
ATOM      6  C5  UNL d   1      -0.402  -0.797   1.573  0.00  0.00     0.062 A 
ATOM      7  F   UNL d   1      -1.088  -1.055   2.696  0.00  0.00    -0.097 F 
ATOM      8  F1  UNL d   1      -1.905   0.938   1.053  0.00  0.00    -0.096 F 
ATOM      9  I   UNL d   1      -0.729   2.029  -1.715  0.00  0.00    -0.060 I 
ATOM     10  F2  UNL d   1       1.721  -0.024  -1.871  0.00  0.00    -0.096 F 
ATOM     11  F3  UNL d   1       2.514  -2.010  -0.209  0.00  0.00    -0.097 F 
ATOM     12  F4  UNL d   1       1.119  -2.535   2.076  0.00  0.00    -0.092 F 
ENDROOT
TORSDOF 0
ENDMDL
