MODEL 1
REMARK minimizedAffinity -2.22767544
REMARK minimizedRMSD -1
REMARK  0 active torsions:
REMARK  status: ('A' for Active; 'I' for Inactive)
ROOT
ATOM      1  C   UNL d   1       0.986  -2.131   1.698  0.00  0.00     0.124 A 
ATOM      2  C1  UNL d   1       1.631  -1.652   0.567  0.00  0.00     0.062 A 
ATOM      3  C2  UNL d   1       1.052  -0.639  -0.193  0.00  0.00     0.162 A 
ATOM      4  C3  UNL d   1      -0.179  -0.098   0.177  0.00  0.00    -0.034 A 
ATOM      5  C4  UNL d   1      -0.822  -0.586   1.316  0.00  0.00     0.162 A 
ATOM      6  C5  UNL d   1      -0.240  -1.598   2.072  0.00  0.00     0.062 A 
ATOM      7  F   UNL d   1      -0.865  -2.060   3.164  0.00  0.00    -0.097 F 
ATOM      8  F1  UNL d   1      -2.007  -0.089   1.700  0.00  0.00    -0.096 F 
ATOM      9  I   UNL d   1      -1.048   1.416  -0.956  0.00  0.00    -0.060 I 
ATOM     10  F2  UNL d   1       1.698  -0.195  -1.281  0.00  0.00    -0.096 F 
ATOM     11  F3  UNL d   1       2.815  -2.165   0.204  0.00  0.00    -0.097 F 
ATOM     12  F4  UNL d   1       1.545  -3.106   2.427  0.00  0.00    -0.092 F 
ENDROOT
TORSDOF 0
ENDMDL
