MODEL 1
REMARK minimizedAffinity -3.02997184
REMARK minimizedRMSD -1
REMARK  0 active torsions:
REMARK  status: ('A' for Active; 'I' for Inactive)
ROOT
ATOM      1  C   UNL d   1       1.532  -1.806   1.754  0.00  0.00     0.124 A 
ATOM      2  C1  UNL d   1       2.274  -1.084   0.830  0.00  0.00     0.062 A 
ATOM      3  C2  UNL d   1       1.644  -0.186  -0.026  0.00  0.00     0.162 A 
ATOM      4  C3  UNL d   1       0.263  -0.004   0.038  0.00  0.00    -0.034 A 
ATOM      5  C4  UNL d   1      -0.478  -0.734   0.969  0.00  0.00     0.162 A 
ATOM      6  C5  UNL d   1       0.157  -1.630   1.823  0.00  0.00     0.062 A 
ATOM      7  F   UNL d   1      -0.562  -2.327   2.715  0.00  0.00    -0.097 F 
ATOM      8  F1  UNL d   1      -1.808  -0.583   1.058  0.00  0.00    -0.096 F 
ATOM      9  I   UNL d   1      -0.684   1.338  -1.241  0.00  0.00    -0.060 I 
ATOM     10  F2  UNL d   1       2.387   0.498  -0.909  0.00  0.00    -0.096 F 
ATOM     11  F3  UNL d   1       3.603  -1.253   0.761  0.00  0.00    -0.097 F 
ATOM     12  F4  UNL d   1       2.141  -2.670   2.577  0.00  0.00    -0.092 F 
ENDROOT
TORSDOF 0
ENDMDL
