MODEL 1
REMARK minimizedAffinity -4.62689209
REMARK minimizedRMSD -1
REMARK  0 active torsions:
REMARK  status: ('A' for Active; 'I' for Inactive)
ROOT
ATOM      1  C   UNL d   1      -0.452  -1.633   2.281  0.00  0.00     0.124 A 
ATOM      2  C1  UNL d   1      -0.910  -0.395   1.851  0.00  0.00     0.062 A 
ATOM      3  C2  UNL d   1      -0.234   0.291   0.845  0.00  0.00     0.162 A 
ATOM      4  C3  UNL d   1       0.907  -0.260   0.262  0.00  0.00    -0.034 A 
ATOM      5  C4  UNL d   1       1.362  -1.505   0.700  0.00  0.00     0.162 A 
ATOM      6  C5  UNL d   1       0.683  -2.187   1.705  0.00  0.00     0.062 A 
ATOM      7  F   UNL d   1       1.127  -3.382   2.120  0.00  0.00    -0.097 F 
ATOM      8  F1  UNL d   1       2.456  -2.064   0.161  0.00  0.00    -0.096 F 
ATOM      9  I   UNL d   1       1.920   0.762  -1.242  0.00  0.00    -0.060 I 
ATOM     10  F2  UNL d   1      -0.699   1.485   0.450  0.00  0.00    -0.096 F 
ATOM     11  F3  UNL d   1      -2.006   0.142   2.406  0.00  0.00    -0.097 F 
ATOM     12  F4  UNL d   1      -1.103  -2.290   3.249  0.00  0.00    -0.092 F 
ENDROOT
TORSDOF 0
ENDMDL
