MODEL 1
REMARK minimizedAffinity 0.301464587
REMARK minimizedRMSD -1
REMARK  0 active torsions:
REMARK  status: ('A' for Active; 'I' for Inactive)
ROOT
ATOM      1  C   UNL d   1      -0.734  -2.022   2.825  0.00  0.00     0.124 A 
ATOM      2  C1  UNL d   1      -1.389  -0.922   2.290  0.00  0.00     0.062 A 
ATOM      3  C2  UNL d   1      -0.766  -0.138   1.324  0.00  0.00     0.162 A 
ATOM      4  C3  UNL d   1       0.520  -0.452   0.885  0.00  0.00    -0.034 A 
ATOM      5  C4  UNL d   1       1.173  -1.560   1.428  0.00  0.00     0.162 A 
ATOM      6  C5  UNL d   1       0.546  -2.340   2.394  0.00  0.00     0.062 A 
ATOM      7  F   UNL d   1       1.181  -3.403   2.910  0.00  0.00    -0.097 F 
ATOM      8  F1  UNL d   1       2.410  -1.890   1.029  0.00  0.00    -0.096 F 
ATOM      9  I   UNL d   1       1.455   0.718  -0.560  0.00  0.00    -0.060 I 
ATOM     10  F2  UNL d   1      -1.423   0.920   0.824  0.00  0.00    -0.096 F 
ATOM     11  F3  UNL d   1      -2.626  -0.612   2.706  0.00  0.00    -0.097 F 
ATOM     12  F4  UNL d   1      -1.335  -2.774   3.756  0.00  0.00    -0.092 F 
ENDROOT
TORSDOF 0
ENDMDL
