MODEL 1
REMARK minimizedAffinity -3.91787601
REMARK minimizedRMSD -1
REMARK  0 active torsions:
REMARK  status: ('A' for Active; 'I' for Inactive)
ROOT
ATOM      1  C   UNL d   1       0.466  -1.758   1.450  0.00  0.00     0.124 A 
ATOM      2  C1  UNL d   1      -0.672  -1.018   1.740  0.00  0.00     0.062 A 
ATOM      3  C2  UNL d   1      -1.013   0.078   0.953  0.00  0.00     0.162 A 
ATOM      4  C3  UNL d   1      -0.215   0.441  -0.132  0.00  0.00    -0.034 A 
ATOM      5  C4  UNL d   1       0.928  -0.307  -0.416  0.00  0.00     0.162 A 
ATOM      6  C5  UNL d   1       1.265  -1.402   0.373  0.00  0.00     0.062 A 
ATOM      7  F   UNL d   1       2.365  -2.116   0.091  0.00  0.00    -0.097 F 
ATOM      8  F1  UNL d   1       1.717   0.015  -1.452  0.00  0.00    -0.096 F 
ATOM      9  I   UNL d   1      -0.722   2.080  -1.310  0.00  0.00    -0.060 I 
ATOM     10  F2  UNL d   1      -2.119   0.775   1.256  0.00  0.00    -0.096 F 
ATOM     11  F3  UNL d   1      -1.445  -1.360   2.781  0.00  0.00    -0.097 F 
ATOM     12  F4  UNL d   1       0.792  -2.812   2.209  0.00  0.00    -0.092 F 
ENDROOT
TORSDOF 0
ENDMDL
