MODEL 1
REMARK minimizedAffinity 2.15009308
REMARK minimizedRMSD -1
REMARK  0 active torsions:
REMARK  status: ('A' for Active; 'I' for Inactive)
ROOT
ATOM      1  C   UNL d   1      -0.515  -0.667   1.599  0.00  0.00     0.124 A 
ATOM      2  C1  UNL d   1       0.489  -0.494   0.657  0.00  0.00     0.062 A 
ATOM      3  C2  UNL d   1       0.278   0.325  -0.449  0.00  0.00     0.162 A 
ATOM      4  C3  UNL d   1      -0.942   0.979  -0.618  0.00  0.00    -0.034 A 
ATOM      5  C4  UNL d   1      -1.948   0.799   0.334  0.00  0.00     0.162 A 
ATOM      6  C5  UNL d   1      -1.733  -0.020   1.437  0.00  0.00     0.062 A 
ATOM      7  F   UNL d   1      -2.704  -0.186   2.346  0.00  0.00    -0.097 F 
ATOM      8  F1  UNL d   1      -3.134   1.413   0.202  0.00  0.00    -0.096 F 
ATOM      9  I   UNL d   1      -1.261   2.204  -2.269  0.00  0.00    -0.060 I 
ATOM     10  F2  UNL d   1       1.267   0.474  -1.343  0.00  0.00    -0.096 F 
ATOM     11  F3  UNL d   1       1.666  -1.118   0.811  0.00  0.00    -0.097 F 
ATOM     12  F4  UNL d   1      -0.310  -1.456   2.662  0.00  0.00    -0.092 F 
ENDROOT
TORSDOF 0
ENDMDL
