MODEL 1
REMARK minimizedAffinity -2.8368938
REMARK minimizedRMSD -1
REMARK  0 active torsions:
REMARK  status: ('A' for Active; 'I' for Inactive)
ROOT
ATOM      1  C   UNL d   1       0.869  -1.963   1.107  0.00  0.00     0.124 A 
ATOM      2  C1  UNL d   1       1.730  -1.422   0.162  0.00  0.00     0.062 A 
ATOM      3  C2  UNL d   1       1.348  -0.303  -0.573  0.00  0.00     0.162 A 
ATOM      4  C3  UNL d   1       0.100   0.284  -0.365  0.00  0.00    -0.034 A 
ATOM      5  C4  UNL d   1      -0.760  -0.266   0.587  0.00  0.00     0.162 A 
ATOM      6  C5  UNL d   1      -0.375  -1.385   1.319  0.00  0.00     0.062 A 
ATOM      7  F   UNL d   1      -1.207  -1.906   2.232  0.00  0.00    -0.097 F 
ATOM      8  F1  UNL d   1      -1.968   0.272   0.812  0.00  0.00    -0.096 F 
ATOM      9  I   UNL d   1      -0.474   1.957  -1.462  0.00  0.00    -0.060 I 
ATOM     10  F2  UNL d   1       2.200   0.199  -1.480  0.00  0.00    -0.096 F 
ATOM     11  F3  UNL d   1       2.932  -1.979  -0.045  0.00  0.00    -0.097 F 
ATOM     12  F4  UNL d   1       1.238  -3.040   1.812  0.00  0.00    -0.092 F 
ENDROOT
TORSDOF 0
ENDMDL
