MODEL 1
REMARK minimizedAffinity -3.67485833
REMARK minimizedRMSD -1
REMARK  0 active torsions:
REMARK  status: ('A' for Active; 'I' for Inactive)
ROOT
ATOM      1  C   UNL d   1       1.122  -1.859   0.813  0.00  0.00     0.124 A 
ATOM      2  C1  UNL d   1      -0.205  -1.454   0.799  0.00  0.00     0.062 A 
ATOM      3  C2  UNL d   1      -0.564  -0.256   0.188  0.00  0.00     0.162 A 
ATOM      4  C3  UNL d   1       0.405   0.545  -0.415  0.00  0.00    -0.034 A 
ATOM      5  C4  UNL d   1       1.738   0.131  -0.396  0.00  0.00     0.162 A 
ATOM      6  C5  UNL d   1       2.092  -1.067   0.216  0.00  0.00     0.062 A 
ATOM      7  F   UNL d   1       3.375  -1.457   0.228  0.00  0.00    -0.097 F 
ATOM      8  F1  UNL d   1       2.696   0.877  -0.967  0.00  0.00    -0.096 F 
ATOM      9  I   UNL d   1      -0.128   2.337  -1.330  0.00  0.00    -0.060 I 
ATOM     10  F2  UNL d   1      -1.854   0.112   0.189  0.00  0.00    -0.096 F 
ATOM     11  F3  UNL d   1      -1.144  -2.217   1.376  0.00  0.00    -0.097 F 
ATOM     12  F4  UNL d   1       1.465  -3.012   1.402  0.00  0.00    -0.092 F 
ENDROOT
TORSDOF 0
ENDMDL
