MODEL 1
REMARK minimizedAffinity -1.30424011
REMARK minimizedRMSD -1
REMARK  0 active torsions:
REMARK  status: ('A' for Active; 'I' for Inactive)
ROOT
ATOM      1  C   UNL d   1       1.844  -1.268   0.014  0.00  0.00     0.124 A 
ATOM      2  C1  UNL d   1       0.743  -1.612   0.786  0.00  0.00     0.062 A 
ATOM      3  C2  UNL d   1      -0.346  -0.750   0.877  0.00  0.00     0.162 A 
ATOM      4  C3  UNL d   1      -0.340   0.465   0.192  0.00  0.00    -0.034 A 
ATOM      5  C4  UNL d   1       0.771   0.805  -0.581  0.00  0.00     0.162 A 
ATOM      6  C5  UNL d   1       1.857  -0.060  -0.668  0.00  0.00     0.062 A 
ATOM      7  F   UNL d   1       2.920   0.275  -1.415  0.00  0.00    -0.097 F 
ATOM      8  F1  UNL d   1       0.810   1.966  -1.253  0.00  0.00    -0.096 F 
ATOM      9  I   UNL d   1      -1.967   1.757   0.325  0.00  0.00    -0.060 I 
ATOM     10  F2  UNL d   1      -1.397  -1.109   1.630  0.00  0.00    -0.096 F 
ATOM     11  F3  UNL d   1       0.728  -2.778   1.448  0.00  0.00    -0.097 F 
ATOM     12  F4  UNL d   1       2.890  -2.099  -0.070  0.00  0.00    -0.092 F 
ENDROOT
TORSDOF 0
ENDMDL
