MODEL 1
REMARK minimizedAffinity -2.73138833
REMARK minimizedRMSD -1
REMARK  1 active torsions:
REMARK  status: ('A' for Active; 'I' for Inactive)
REMARK    1  A    between atoms: C1_2  and  C2_3 
ROOT
ATOM      1  C2  UNL d   1       0.163  -1.293   1.278  0.00  0.00    -0.081 A 
ATOM      2  C3  UNL d   1       1.046  -1.948   0.411  0.00  0.00     0.006 A 
ATOM      3  C4  UNL d   1       1.738  -3.086   0.833  0.00  0.00     0.002 A 
ATOM      4  C5  UNL d   1       1.551  -3.593   2.123  0.00  0.00    -0.080 A 
ATOM      5  C6  UNL d   1       2.264  -4.832   2.578  0.00  0.00     0.076 C 
ATOM      6  C7  UNL d   1       0.681  -2.929   2.995  0.00  0.00     0.002 A 
ATOM      7  C8  UNL d   1      -0.010  -1.790   2.574  0.00  0.00     0.006 A 
ENDROOT
BRANCH   1   8
ATOM      8  C1  UNL d   1      -0.633  -0.103   0.805  0.00  0.00     0.054 C 
ATOM      9  C   UNL d   1      -2.108  -0.448   0.655  0.00  0.00     0.018 C 
ENDBRANCH   1   8
TORSDOF 1
ENDMDL
