MODEL 1
REMARK minimizedAffinity -3.71786976
REMARK minimizedRMSD -1
REMARK  1 active torsions:
REMARK  status: ('A' for Active; 'I' for Inactive)
REMARK    1  A    between atoms: C1_2  and  C2_3 
ROOT
ATOM      1  C2  UNL d   1       1.472  -2.781   1.509  0.00  0.00    -0.081 A 
ATOM      2  C3  UNL d   1       0.533  -2.632   2.536  0.00  0.00     0.006 A 
ATOM      3  C4  UNL d   1      -0.372  -1.568   2.519  0.00  0.00     0.002 A 
ATOM      4  C5  UNL d   1      -0.358  -0.641   1.472  0.00  0.00    -0.080 A 
ATOM      5  C6  UNL d   1      -1.344   0.488   1.426  0.00  0.00     0.076 C 
ATOM      6  C7  UNL d   1       0.592  -0.780   0.454  0.00  0.00     0.002 A 
ATOM      7  C8  UNL d   1       1.497  -1.843   0.471  0.00  0.00     0.006 A 
ENDROOT
BRANCH   1   8
ATOM      8  C1  UNL d   1       2.407  -3.964   1.490  0.00  0.00     0.054 C 
ATOM      9  C   UNL d   1       3.307  -3.939   0.263  0.00  0.00     0.018 C 
ENDBRANCH   1   8
TORSDOF 1
ENDMDL
