MODEL 1
REMARK minimizedAffinity 6.02961302
REMARK minimizedRMSD -1
REMARK  1 active torsions:
REMARK  status: ('A' for Active; 'I' for Inactive)
REMARK    1  A    between atoms: C1_2  and  C2_3 
ROOT
ATOM      1  C2  UNL d   1       2.291  -2.268  -0.123  0.00  0.00    -0.081 A 
ATOM      2  C3  UNL d   1       1.735  -3.156   0.805  0.00  0.00     0.006 A 
ATOM      3  C4  UNL d   1       2.414  -4.323   1.164  0.00  0.00     0.002 A 
ATOM      4  C5  UNL d   1       3.663  -4.617   0.607  0.00  0.00    -0.080 A 
ATOM      5  C6  UNL d   1       4.416  -5.851   1.006  0.00  0.00     0.076 C 
ATOM      6  C7  UNL d   1       4.210  -3.739  -0.334  0.00  0.00     0.002 A 
ATOM      7  C8  UNL d   1       3.532  -2.573  -0.694  0.00  0.00     0.006 A 
ENDROOT
BRANCH   1   8
ATOM      8  C1  UNL d   1       1.591  -0.977  -0.464  0.00  0.00     0.054 C 
ATOM      9  C   UNL d   1       2.588   0.150  -0.691  0.00  0.00     0.018 C 
ENDBRANCH   1   8
TORSDOF 1
ENDMDL
