MODEL 1
REMARK minimizedAffinity 0.322084427
REMARK minimizedRMSD -1
REMARK  1 active torsions:
REMARK  status: ('A' for Active; 'I' for Inactive)
REMARK    1  A    between atoms: C1_2  and  C2_3 
ROOT
ATOM      1  C2  UNL d   1       0.742  -1.874   0.812  0.00  0.00    -0.081 A 
ATOM      2  C3  UNL d   1       0.175  -2.162   2.060  0.00  0.00     0.006 A 
ATOM      3  C4  UNL d   1      -0.981  -1.501   2.482  0.00  0.00     0.002 A 
ATOM      4  C5  UNL d   1      -1.594  -0.548   1.661  0.00  0.00    -0.080 A 
ATOM      5  C6  UNL d   1      -2.852   0.147   2.089  0.00  0.00     0.076 C 
ATOM      6  C7  UNL d   1      -1.018  -0.248   0.422  0.00  0.00     0.002 A 
ATOM      7  C8  UNL d   1       0.139  -0.908  -0.000  0.00  0.00     0.006 A 
ENDROOT
BRANCH   1   8
ATOM      8  C1  UNL d   1       1.951  -2.631   0.327  0.00  0.00     0.054 C 
ATOM      9  C   UNL d   1       2.090  -3.969   1.040  0.00  0.00     0.018 C 
ENDBRANCH   1   8
TORSDOF 1
ENDMDL
