MODEL 1
REMARK minimizedAffinity -0.242355153
REMARK minimizedRMSD -1
REMARK  1 active torsions:
REMARK  status: ('A' for Active; 'I' for Inactive)
REMARK    1  A    between atoms: C1_2  and  C2_3 
ROOT
ATOM      1  C2  UNL d   1       1.116  -2.794   1.435  0.00  0.00    -0.081 A 
ATOM      2  C3  UNL d   1       0.212  -2.661   2.496  0.00  0.00     0.006 A 
ATOM      3  C4  UNL d   1      -0.775  -1.672   2.465  0.00  0.00     0.002 A 
ATOM      4  C5  UNL d   1      -0.878  -0.806   1.371  0.00  0.00    -0.080 A 
ATOM      5  C6  UNL d   1      -1.952   0.239   1.312  0.00  0.00     0.076 C 
ATOM      6  C7  UNL d   1       0.036  -0.928   0.319  0.00  0.00     0.002 A 
ATOM      7  C8  UNL d   1       1.023  -1.916   0.350  0.00  0.00     0.006 A 
ENDROOT
BRANCH   1   8
ATOM      8  C1  UNL d   1       2.140  -3.900   1.435  0.00  0.00     0.054 C 
ATOM      9  C   UNL d   1       2.956  -3.899   0.151  0.00  0.00     0.018 C 
ENDBRANCH   1   8
TORSDOF 1
ENDMDL
