MODEL 1
REMARK minimizedAffinity 5.64787054
REMARK minimizedRMSD -1
REMARK  1 active torsions:
REMARK  status: ('A' for Active; 'I' for Inactive)
REMARK    1  A    between atoms: C1_2  and  C2_3 
ROOT
ATOM      1  C2  UNL d   1       3.106  -2.044  -0.368  0.00  0.00    -0.081 A 
ATOM      2  C3  UNL d   1       1.981  -1.214  -0.435  0.00  0.00     0.006 A 
ATOM      3  C4  UNL d   1       2.127   0.175  -0.491  0.00  0.00     0.002 A 
ATOM      4  C5  UNL d   1       3.400   0.755  -0.487  0.00  0.00    -0.080 A 
ATOM      5  C6  UNL d   1       3.571   2.242  -0.577  0.00  0.00     0.076 C 
ATOM      6  C7  UNL d   1       4.524  -0.073  -0.402  0.00  0.00     0.002 A 
ATOM      7  C8  UNL d   1       4.378  -1.461  -0.346  0.00  0.00     0.006 A 
ENDROOT
BRANCH   1   8
ATOM      8  C1  UNL d   1       2.954  -3.543  -0.373  0.00  0.00     0.054 C 
ATOM      9  C   UNL d   1       2.493  -4.057   0.984  0.00  0.00     0.018 C 
ENDBRANCH   1   8
TORSDOF 1
ENDMDL
