MODEL 1
REMARK minimizedAffinity -4.502069
REMARK minimizedRMSD -1
REMARK  0 active torsions:
REMARK  status: ('A' for Active; 'I' for Inactive)
ROOT
ATOM      1  C   UNL d   1      -0.375   3.025   1.137  0.00  0.00     0.124 A 
ATOM      2  C1  UNL d   1      -0.670   2.879  -0.211  0.00  0.00     0.062 A 
ATOM      3  C2  UNL d   1      -0.479   1.652  -0.841  0.00  0.00     0.162 A 
ATOM      4  C3  UNL d   1       0.007   0.561  -0.122  0.00  0.00    -0.034 A 
ATOM      5  C4  UNL d   1       0.302   0.715   1.233  0.00  0.00     0.162 A 
ATOM      6  C5  UNL d   1       0.110   1.943   1.858  0.00  0.00     0.062 A 
ATOM      7  F   UNL d   1       0.395   2.082   3.161  0.00  0.00    -0.097 F 
ATOM      8  F1  UNL d   1       0.772  -0.314   1.954  0.00  0.00    -0.096 F 
ATOM      9  I   UNL d   1       0.294  -1.275  -1.060  0.00  0.00    -0.060 I 
ATOM     10  F2  UNL d   1      -0.772   1.541  -2.145  0.00  0.00    -0.096 F 
ATOM     11  F3  UNL d   1      -1.138   3.923  -0.910  0.00  0.00    -0.097 F 
ATOM     12  F4  UNL d   1      -0.559   4.206   1.740  0.00  0.00    -0.092 F 
ENDROOT
TORSDOF 0
ENDMDL
