MODEL 1
REMARK minimizedAffinity -3.05802989
REMARK minimizedRMSD -1
REMARK  0 active torsions:
REMARK  status: ('A' for Active; 'I' for Inactive)
ROOT
ATOM      1  C   UNL d   1      -0.710   2.568   1.418  0.00  0.00     0.124 A 
ATOM      2  C1  UNL d   1       0.263   1.814   2.058  0.00  0.00     0.062 A 
ATOM      3  C2  UNL d   1       0.566   0.533   1.606  0.00  0.00     0.162 A 
ATOM      4  C3  UNL d   1      -0.105  -0.002   0.506  0.00  0.00    -0.034 A 
ATOM      5  C4  UNL d   1      -1.083   0.762  -0.132  0.00  0.00     0.162 A 
ATOM      6  C5  UNL d   1      -1.382   2.042   0.323  0.00  0.00     0.062 A 
ATOM      7  F   UNL d   1      -2.323   2.769  -0.296  0.00  0.00    -0.097 F 
ATOM      8  F1  UNL d   1      -1.747   0.279  -1.193  0.00  0.00    -0.096 F 
ATOM      9  I   UNL d   1       0.345  -1.917  -0.174  0.00  0.00    -0.060 I 
ATOM     10  F2  UNL d   1       1.511  -0.174   2.243  0.00  0.00    -0.096 F 
ATOM     11  F3  UNL d   1       0.914   2.319   3.116  0.00  0.00    -0.097 F 
ATOM     12  F4  UNL d   1      -1.000   3.800   1.856  0.00  0.00    -0.092 F 
ENDROOT
TORSDOF 0
ENDMDL
