MODEL 1
REMARK minimizedAffinity -0.751525223
REMARK minimizedRMSD -1
REMARK  0 active torsions:
REMARK  status: ('A' for Active; 'I' for Inactive)
ROOT
ATOM      1  C   UNL d   1       0.327   0.755   2.149  0.00  0.00     0.124 A 
ATOM      2  C1  UNL d   1       0.714  -0.569   1.994  0.00  0.00     0.062 A 
ATOM      3  C2  UNL d   1       0.471  -1.234   0.796  0.00  0.00     0.162 A 
ATOM      4  C3  UNL d   1      -0.162  -0.576  -0.258  0.00  0.00    -0.034 A 
ATOM      5  C4  UNL d   1      -0.550   0.755  -0.095  0.00  0.00     0.162 A 
ATOM      6  C5  UNL d   1      -0.304   1.416   1.104  0.00  0.00     0.062 A 
ATOM      7  F   UNL d   1      -0.679   2.695   1.251  0.00  0.00    -0.097 F 
ATOM      8  F1  UNL d   1      -1.160   1.418  -1.089  0.00  0.00    -0.096 F 
ATOM      9  I   UNL d   1      -0.527  -1.567  -2.051  0.00  0.00    -0.060 I 
ATOM     10  F2  UNL d   1       0.856  -2.513   0.675  0.00  0.00    -0.096 F 
ATOM     11  F3  UNL d   1       1.323  -1.210   3.003  0.00  0.00    -0.097 F 
ATOM     12  F4  UNL d   1       0.561   1.393   3.303  0.00  0.00    -0.092 F 
ENDROOT
TORSDOF 0
ENDMDL
