MODEL 1
REMARK minimizedAffinity -0.37260586
REMARK minimizedRMSD -1
REMARK  0 active torsions:
REMARK  status: ('A' for Active; 'I' for Inactive)
ROOT
ATOM      1  C   UNL d   1       0.680   1.201   2.047  0.00  0.00     0.124 A 
ATOM      2  C1  UNL d   1       1.240   0.063   1.481  0.00  0.00     0.062 A 
ATOM      3  C2  UNL d   1       0.695  -0.482   0.322  0.00  0.00     0.162 A 
ATOM      4  C3  UNL d   1      -0.415   0.110  -0.280  0.00  0.00    -0.034 A 
ATOM      5  C4  UNL d   1      -0.972   1.253   0.295  0.00  0.00     0.162 A 
ATOM      6  C5  UNL d   1      -0.425   1.794   1.453  0.00  0.00     0.062 A 
ATOM      7  F   UNL d   1      -0.966   2.893   1.998  0.00  0.00    -0.097 F 
ATOM      8  F1  UNL d   1      -2.040   1.848  -0.259  0.00  0.00    -0.096 F 
ATOM      9  I   UNL d   1      -1.231  -0.703  -2.014  0.00  0.00    -0.060 I 
ATOM     10  F2  UNL d   1       1.256  -1.582  -0.202  0.00  0.00    -0.096 F 
ATOM     11  F3  UNL d   1       2.307  -0.513   2.053  0.00  0.00    -0.097 F 
ATOM     12  F4  UNL d   1       1.205   1.723   3.163  0.00  0.00    -0.092 F 
ENDROOT
TORSDOF 0
ENDMDL
