MODEL 1
REMARK minimizedAffinity -1.65071738
REMARK minimizedRMSD -1
REMARK  0 active torsions:
REMARK  status: ('A' for Active; 'I' for Inactive)
ROOT
ATOM      1  C   UNL d   1       1.483   0.285  -1.100  0.00  0.00     0.124 A 
ATOM      2  C1  UNL d   1       1.579   0.196   0.282  0.00  0.00     0.062 A 
ATOM      3  C2  UNL d   1       0.669   0.870   1.091  0.00  0.00     0.162 A 
ATOM      4  C3  UNL d   1      -0.346   1.638   0.521  0.00  0.00    -0.034 A 
ATOM      5  C4  UNL d   1      -0.436   1.723  -0.869  0.00  0.00     0.162 A 
ATOM      6  C5  UNL d   1       0.476   1.048  -1.674  0.00  0.00     0.062 A 
ATOM      7  F   UNL d   1       0.381   1.135  -3.009  0.00  0.00    -0.097 F 
ATOM      8  F1  UNL d   1      -1.400   2.453  -1.450  0.00  0.00    -0.096 F 
ATOM      9  I   UNL d   1      -1.709   2.647   1.729  0.00  0.00    -0.060 I 
ATOM     10  F2  UNL d   1       0.786   0.767   2.424  0.00  0.00    -0.096 F 
ATOM     11  F3  UNL d   1       2.551  -0.539   0.839  0.00  0.00    -0.097 F 
ATOM     12  F4  UNL d   1       2.360  -0.363  -1.877  0.00  0.00    -0.092 F 
ENDROOT
TORSDOF 0
ENDMDL
