MODEL 1
REMARK minimizedAffinity 6.46840763
REMARK minimizedRMSD -1
REMARK  1 active torsions:
REMARK  status: ('A' for Active; 'I' for Inactive)
REMARK    1  A    between atoms: C1_2  and  C2_3 
ROOT
ATOM      1  C2  UNL d   1       5.300  -0.109  -4.689  0.00  0.00    -0.076 A 
ATOM      2  C3  UNL d   1       6.000  -0.250  -3.478  0.00  0.00     0.004 A 
ATOM      3  C4  UNL d   1       5.632   0.478  -2.347  0.00  0.00    -0.003 A 
ATOM      4  C5  UNL d   1       4.557   1.358  -2.410  0.00  0.00     0.000 A 
ATOM      5  C6  UNL d   1       3.840   1.497  -3.598  0.00  0.00     0.000 A 
ATOM      6  C7  UNL d   1       4.188   0.759  -4.742  0.00  0.00    -0.073 A 
ATOM      7  C8  UNL d   1       3.385   0.953  -5.998  0.00  0.00     0.078 C 
ENDROOT
BRANCH   1   8
ATOM      8  C1  UNL d   1       5.762  -0.904  -5.889  0.00  0.00     0.053 C 
ATOM      9  C   UNL d   1       5.951  -2.380  -5.573  0.00  0.00     0.018 C 
ENDBRANCH   1   8
TORSDOF 1
ENDMDL
