MODEL 1
REMARK minimizedAffinity 7.27699137
REMARK minimizedRMSD -1
REMARK  1 active torsions:
REMARK  status: ('A' for Active; 'I' for Inactive)
REMARK    1  A    between atoms: C1_2  and  C2_3 
ROOT
ATOM      1  C2  UNL d   1       0.516  -3.696   0.868  0.00  0.00    -0.076 A 
ATOM      2  C3  UNL d   1       1.830  -3.306   1.180  0.00  0.00     0.004 A 
ATOM      3  C4  UNL d   1       2.349  -2.099   0.715  0.00  0.00    -0.003 A 
ATOM      4  C5  UNL d   1       1.563  -1.262  -0.069  0.00  0.00     0.000 A 
ATOM      5  C6  UNL d   1       0.251  -1.625  -0.374  0.00  0.00     0.000 A 
ATOM      6  C7  UNL d   1      -0.293  -2.831   0.101  0.00  0.00    -0.073 A 
ATOM      7  C8  UNL d   1      -1.712  -3.175  -0.263  0.00  0.00     0.078 C 
ENDROOT
BRANCH   1   8
ATOM      8  C1  UNL d   1       0.016  -5.028   1.378  0.00  0.00     0.053 C 
ATOM      9  C   UNL d   1       1.147  -6.000   1.677  0.00  0.00     0.018 C 
ENDBRANCH   1   8
TORSDOF 1
ENDMDL
