MODEL 1
REMARK minimizedAffinity 9.04497051
REMARK minimizedRMSD -1
REMARK  1 active torsions:
REMARK  status: ('A' for Active; 'I' for Inactive)
REMARK    1  A    between atoms: C1_2  and  C2_3 
ROOT
ATOM      1  C2  UNL d   1       0.817  -1.414  -1.368  0.00  0.00    -0.076 A 
ATOM      2  C3  UNL d   1       1.174  -2.537  -2.134  0.00  0.00     0.004 A 
ATOM      3  C4  UNL d   1       1.531  -2.407  -3.475  0.00  0.00    -0.003 A 
ATOM      4  C5  UNL d   1       1.538  -1.151  -4.072  0.00  0.00     0.000 A 
ATOM      5  C6  UNL d   1       1.203  -0.024  -3.322  0.00  0.00     0.000 A 
ATOM      6  C7  UNL d   1       0.856  -0.136  -1.965  0.00  0.00    -0.073 A 
ATOM      7  C8  UNL d   1       0.498   1.112  -1.206  0.00  0.00     0.078 C 
ENDROOT
BRANCH   1   8
ATOM      8  C1  UNL d   1       0.412  -1.620   0.074  0.00  0.00     0.053 C 
ATOM      9  C   UNL d   1      -0.936  -2.311   0.208  0.00  0.00     0.018 C 
ENDBRANCH   1   8
TORSDOF 1
ENDMDL
