MODEL 1
REMARK minimizedAffinity 2.93196535
REMARK minimizedRMSD -1
REMARK  1 active torsions:
REMARK  status: ('A' for Active; 'I' for Inactive)
REMARK    1  A    between atoms: C1_2  and  C2_3 
ROOT
ATOM      1  C2  UNL d   1       1.263  -0.445  -2.793  0.00  0.00    -0.076 A 
ATOM      2  C3  UNL d   1       0.700  -0.072  -1.560  0.00  0.00     0.004 A 
ATOM      3  C4  UNL d   1       0.263   1.232  -1.336  0.00  0.00    -0.003 A 
ATOM      4  C5  UNL d   1       0.382   2.185  -2.342  0.00  0.00     0.000 A 
ATOM      5  C6  UNL d   1       0.923   1.828  -3.577  0.00  0.00     0.000 A 
ATOM      6  C7  UNL d   1       1.353   0.514  -3.825  0.00  0.00    -0.073 A 
ATOM      7  C8  UNL d   1       1.934   0.186  -5.173  0.00  0.00     0.078 C 
ENDROOT
BRANCH   1   8
ATOM      8  C1  UNL d   1       1.744  -1.868  -2.968  0.00  0.00     0.053 C 
ATOM      9  C   UNL d   1       0.621  -2.820  -3.347  0.00  0.00     0.018 C 
ENDBRANCH   1   8
TORSDOF 1
ENDMDL
