MODEL 1
REMARK minimizedAffinity 1.40804577
REMARK minimizedRMSD -1
REMARK  1 active torsions:
REMARK  status: ('A' for Active; 'I' for Inactive)
REMARK    1  A    between atoms: C1_2  and  C2_3 
ROOT
ATOM      1  C2  UNL d   1       0.771  -0.598  -2.038  0.00  0.00    -0.076 A 
ATOM      2  C3  UNL d   1       0.755   0.806  -1.977  0.00  0.00     0.004 A 
ATOM      3  C4  UNL d   1       0.873   1.577  -3.132  0.00  0.00    -0.003 A 
ATOM      4  C5  UNL d   1       1.009   0.955  -4.369  0.00  0.00     0.000 A 
ATOM      5  C6  UNL d   1       1.009  -0.437  -4.450  0.00  0.00     0.000 A 
ATOM      6  C7  UNL d   1       0.875  -1.228  -3.297  0.00  0.00    -0.073 A 
ATOM      7  C8  UNL d   1       0.888  -2.725  -3.443  0.00  0.00     0.078 C 
ENDROOT
BRANCH   1   8
ATOM      8  C1  UNL d   1       0.667  -1.381  -0.749  0.00  0.00     0.053 C 
ATOM      9  C   UNL d   1       1.488  -0.767   0.374  0.00  0.00     0.018 C 
ENDBRANCH   1   8
TORSDOF 1
ENDMDL
