MODEL 1
REMARK minimizedAffinity 10.4416714
REMARK minimizedRMSD -1
REMARK  1 active torsions:
REMARK  status: ('A' for Active; 'I' for Inactive)
REMARK    1  A    between atoms: C1_2  and  C2_3 
ROOT
ATOM      1  C2  UNL d   1       5.055   1.782  -5.513  0.00  0.00    -0.076 A 
ATOM      2  C3  UNL d   1       5.966   2.817  -5.788  0.00  0.00     0.004 A 
ATOM      3  C4  UNL d   1       5.554   4.148  -5.809  0.00  0.00    -0.003 A 
ATOM      4  C5  UNL d   1       4.225   4.467  -5.554  0.00  0.00     0.000 A 
ATOM      5  C6  UNL d   1       3.311   3.455  -5.262  0.00  0.00     0.000 A 
ATOM      6  C7  UNL d   1       3.713   2.109  -5.221  0.00  0.00    -0.073 A 
ATOM      7  C8  UNL d   1       2.685   1.057  -4.906  0.00  0.00     0.078 C 
ENDROOT
BRANCH   1   8
ATOM      8  C1  UNL d   1       5.553   0.355  -5.530  0.00  0.00     0.053 C 
ATOM      9  C   UNL d   1       5.992  -0.127  -4.156  0.00  0.00     0.018 C 
ENDBRANCH   1   8
TORSDOF 1
ENDMDL
