MODEL 1
REMARK minimizedAffinity 0.881803513
REMARK minimizedRMSD -1
REMARK  1 active torsions:
REMARK  status: ('A' for Active; 'I' for Inactive)
REMARK    1  A    between atoms: C1_2  and  C2_3 
ROOT
ATOM      1  C2  UNL d   1       0.343  -1.347  -0.995  0.00  0.00    -0.076 A 
ATOM      2  C3  UNL d   1       0.235  -0.024  -0.531  0.00  0.00     0.004 A 
ATOM      3  C4  UNL d   1       0.715   1.043  -1.287  0.00  0.00    -0.003 A 
ATOM      4  C5  UNL d   1       1.312   0.805  -2.521  0.00  0.00     0.000 A 
ATOM      5  C6  UNL d   1       1.413  -0.499  -3.004  0.00  0.00     0.000 A 
ATOM      6  C7  UNL d   1       0.918  -1.585  -2.261  0.00  0.00    -0.073 A 
ATOM      7  C8  UNL d   1       1.058  -2.971  -2.828  0.00  0.00     0.078 C 
ENDROOT
BRANCH   1   8
ATOM      8  C1  UNL d   1      -0.171  -2.466  -0.118  0.00  0.00     0.053 C 
ATOM      9  C   UNL d   1      -1.541  -2.163   0.469  0.00  0.00     0.018 C 
ENDBRANCH   1   8
TORSDOF 1
ENDMDL
