MODEL 1
REMARK minimizedAffinity 2.35526991
REMARK minimizedRMSD -1
REMARK  1 active torsions:
REMARK  status: ('A' for Active; 'I' for Inactive)
REMARK    1  A    between atoms: C1_2  and  C2_3 
ROOT
ATOM      1  C2  UNL d   1       1.298  -0.706  -3.290  0.00  0.00    -0.076 A 
ATOM      2  C3  UNL d   1       1.014   0.598  -2.849  0.00  0.00     0.004 A 
ATOM      3  C4  UNL d   1       0.545   0.832  -1.557  0.00  0.00    -0.003 A 
ATOM      4  C5  UNL d   1       0.353  -0.235  -0.685  0.00  0.00     0.000 A 
ATOM      5  C6  UNL d   1       0.647  -1.533  -1.101  0.00  0.00     0.000 A 
ATOM      6  C7  UNL d   1       1.135  -1.785  -2.394  0.00  0.00    -0.073 A 
ATOM      7  C8  UNL d   1       1.430  -3.205  -2.791  0.00  0.00     0.078 C 
ENDROOT
BRANCH   1   8
ATOM      8  C1  UNL d   1       1.778  -0.902  -4.710  0.00  0.00     0.053 C 
ATOM      9  C   UNL d   1       3.005  -0.063  -5.031  0.00  0.00     0.018 C 
ENDBRANCH   1   8
TORSDOF 1
ENDMDL
