MODEL 1
REMARK minimizedAffinity 7.52663517
REMARK minimizedRMSD -1
REMARK  1 active torsions:
REMARK  status: ('A' for Active; 'I' for Inactive)
REMARK    1  A    between atoms: C1_2  and  C2_3 
ROOT
ATOM      1  C2  UNL d   1       4.727   3.659  -5.030  0.00  0.00    -0.076 A 
ATOM      2  C3  UNL d   1       3.721   3.455  -5.991  0.00  0.00     0.004 A 
ATOM      3  C4  UNL d   1       2.519   4.157  -5.931  0.00  0.00    -0.003 A 
ATOM      4  C5  UNL d   1       2.303   5.076  -4.910  0.00  0.00     0.000 A 
ATOM      5  C6  UNL d   1       3.296   5.304  -3.959  0.00  0.00     0.000 A 
ATOM      6  C7  UNL d   1       4.521   4.616  -4.014  0.00  0.00    -0.073 A 
ATOM      7  C8  UNL d   1       5.555   4.898  -2.958  0.00  0.00     0.078 C 
ENDROOT
BRANCH   1   8
ATOM      8  C1  UNL d   1       6.000   2.849  -5.130  0.00  0.00     0.053 C 
ATOM      9  C   UNL d   1       5.802   1.544  -5.886  0.00  0.00     0.018 C 
ENDBRANCH   1   8
TORSDOF 1
ENDMDL
