MODEL 1
REMARK minimizedAffinity 1.1136905
REMARK minimizedRMSD -1
REMARK  1 active torsions:
REMARK  status: ('A' for Active; 'I' for Inactive)
REMARK    1  A    between atoms: C1_2  and  C2_3 
ROOT
ATOM      1  C2  UNL d   1       0.817   0.393  -2.149  0.00  0.00    -0.076 A 
ATOM      2  C3  UNL d   1       0.926  -0.964  -1.801  0.00  0.00     0.004 A 
ATOM      3  C4  UNL d   1       1.396  -1.904  -2.717  0.00  0.00    -0.003 A 
ATOM      4  C5  UNL d   1       1.764  -1.501  -3.996  0.00  0.00     0.000 A 
ATOM      5  C6  UNL d   1       1.679  -0.156  -4.353  0.00  0.00     0.000 A 
ATOM      6  C7  UNL d   1       1.223   0.807  -3.436  0.00  0.00    -0.073 A 
ATOM      7  C8  UNL d   1       1.145   2.243  -3.876  0.00  0.00     0.078 C 
ENDROOT
BRANCH   1   8
ATOM      8  C1  UNL d   1       0.275   1.363  -1.123  0.00  0.00     0.053 C 
ATOM      9  C   UNL d   1       1.377   2.030  -0.314  0.00  0.00     0.018 C 
ENDBRANCH   1   8
TORSDOF 1
ENDMDL
