MODEL 1
REMARK minimizedAffinity 5.49099731
REMARK minimizedRMSD -1
REMARK  1 active torsions:
REMARK  status: ('A' for Active; 'I' for Inactive)
REMARK    1  A    between atoms: C1_2  and  C2_3 
ROOT
ATOM      1  C2  UNL d   1       1.001  -1.068  -2.145  0.00  0.00    -0.076 A 
ATOM      2  C3  UNL d   1       1.423  -0.095  -3.067  0.00  0.00     0.004 A 
ATOM      3  C4  UNL d   1       1.191   1.260  -2.838  0.00  0.00    -0.003 A 
ATOM      4  C5  UNL d   1       0.533   1.664  -1.681  0.00  0.00     0.000 A 
ATOM      5  C6  UNL d   1       0.124   0.714  -0.746  0.00  0.00     0.000 A 
ATOM      6  C7  UNL d   1       0.364  -0.655  -0.955  0.00  0.00    -0.073 A 
ATOM      7  C8  UNL d   1      -0.105  -1.637   0.084  0.00  0.00     0.078 C 
ENDROOT
BRANCH   1   8
ATOM      8  C1  UNL d   1       1.257  -2.524  -2.460  0.00  0.00     0.053 C 
ATOM      9  C   UNL d   1       1.117  -2.832  -3.943  0.00  0.00     0.018 C 
ENDBRANCH   1   8
TORSDOF 1
ENDMDL
