MODEL 1
REMARK minimizedAffinity 7.59995651
REMARK minimizedRMSD -1
REMARK  1 active torsions:
REMARK  status: ('A' for Active; 'I' for Inactive)
REMARK    1  A    between atoms: C1_2  and  C2_3 
ROOT
ATOM      1  C2  UNL d   1      -3.759  -1.032   4.971  0.00  0.00    -0.076 A 
ATOM      2  C3  UNL d   1      -4.542  -0.297   5.877  0.00  0.00     0.004 A 
ATOM      3  C4  UNL d   1      -4.393   1.084   5.999  0.00  0.00    -0.003 A 
ATOM      4  C5  UNL d   1      -3.458   1.751   5.216  0.00  0.00     0.000 A 
ATOM      5  C6  UNL d   1      -2.684   1.040   4.299  0.00  0.00     0.000 A 
ATOM      6  C7  UNL d   1      -2.834  -0.350   4.152  0.00  0.00    -0.073 A 
ATOM      7  C8  UNL d   1      -1.969  -1.067   3.152  0.00  0.00     0.078 C 
ENDROOT
BRANCH   1   8
ATOM      8  C1  UNL d   1      -3.946  -2.531   4.902  0.00  0.00     0.053 C 
ATOM      9  C   UNL d   1      -3.185  -3.264   5.996  0.00  0.00     0.018 C 
ENDBRANCH   1   8
TORSDOF 1
ENDMDL
