MODEL 1
REMARK minimizedAffinity -0.782347858
REMARK minimizedRMSD -1
REMARK  1 active torsions:
REMARK  status: ('A' for Active; 'I' for Inactive)
REMARK    1  A    between atoms: C1_2  and  C2_3 
ROOT
ATOM      1  C2  UNL d   1       3.393   2.774  -5.259  0.00  0.00    -0.076 A 
ATOM      2  C3  UNL d   1       3.637   1.546  -5.899  0.00  0.00     0.004 A 
ATOM      3  C4  UNL d   1       4.930   1.034  -6.000  0.00  0.00    -0.003 A 
ATOM      4  C5  UNL d   1       5.999   1.742  -5.462  0.00  0.00     0.000 A 
ATOM      5  C6  UNL d   1       5.773   2.952  -4.808  0.00  0.00     0.000 A 
ATOM      6  C7  UNL d   1       4.474   3.474  -4.683  0.00  0.00    -0.073 A 
ATOM      7  C8  UNL d   1       4.288   4.787  -3.973  0.00  0.00     0.078 C 
ENDROOT
BRANCH   1   8
ATOM      8  C1  UNL d   1       1.973   3.292  -5.205  0.00  0.00     0.053 C 
ATOM      9  C   UNL d   1       1.791   4.576  -5.999  0.00  0.00     0.018 C 
ENDBRANCH   1   8
TORSDOF 1
ENDMDL
