MODEL 1
REMARK minimizedAffinity 5.47583151
REMARK minimizedRMSD -1
REMARK  1 active torsions:
REMARK  status: ('A' for Active; 'I' for Inactive)
REMARK    1  A    between atoms: C1_2  and  C2_3 
ROOT
ATOM      1  C2  UNL d   1       0.740  -1.050  -1.261  0.00  0.00    -0.076 A 
ATOM      2  C3  UNL d   1       1.007  -2.290  -1.867  0.00  0.00     0.004 A 
ATOM      3  C4  UNL d   1       1.274  -2.378  -3.232  0.00  0.00    -0.003 A 
ATOM      4  C5  UNL d   1       1.277  -1.228  -4.014  0.00  0.00     0.000 A 
ATOM      5  C6  UNL d   1       1.032   0.012  -3.426  0.00  0.00     0.000 A 
ATOM      6  C7  UNL d   1       0.777   0.121  -2.048  0.00  0.00    -0.073 A 
ATOM      7  C8  UNL d   1       0.512   1.483  -1.468  0.00  0.00     0.078 C 
ENDROOT
BRANCH   1   8
ATOM      8  C1  UNL d   1       0.431  -1.019   0.219  0.00  0.00     0.053 C 
ATOM      9  C   UNL d   1      -0.725  -1.933   0.592  0.00  0.00     0.018 C 
ENDBRANCH   1   8
TORSDOF 1
ENDMDL
