MODEL 1
REMARK minimizedAffinity 0.148904517
REMARK minimizedRMSD -1
REMARK  1 active torsions:
REMARK  status: ('A' for Active; 'I' for Inactive)
REMARK    1  A    between atoms: C1_2  and  C2_3 
ROOT
ATOM      1  C2  UNL d   1       2.222   0.623  -3.452  0.00  0.00    -0.076 A 
ATOM      2  C3  UNL d   1       2.286  -0.581  -2.730  0.00  0.00     0.004 A 
ATOM      3  C4  UNL d   1       1.454  -0.807  -1.635  0.00  0.00    -0.003 A 
ATOM      4  C5  UNL d   1       0.543   0.168  -1.245  0.00  0.00     0.000 A 
ATOM      5  C6  UNL d   1       0.453   1.362  -1.960  0.00  0.00     0.000 A 
ATOM      6  C7  UNL d   1       1.273   1.598  -3.076  0.00  0.00    -0.073 A 
ATOM      7  C8  UNL d   1       1.138   2.906  -3.807  0.00  0.00     0.078 C 
ENDROOT
BRANCH   1   8
ATOM      8  C1  UNL d   1       3.168   0.823  -4.614  0.00  0.00     0.053 C 
ATOM      9  C   UNL d   1       4.625   0.860  -4.179  0.00  0.00     0.018 C 
ENDBRANCH   1   8
TORSDOF 1
ENDMDL
