MODEL 1
REMARK minimizedAffinity 6.51237202
REMARK minimizedRMSD -1
REMARK  0 active torsions:
REMARK  status: ('A' for Active; 'I' for Inactive)
ROOT
ATOM      1  C   UNL d   1      -1.147  -0.087   0.388  0.00  0.00    -0.002 A 
ATOM      2  C1  UNL d   1       0.222   0.141   0.372  0.00  0.00     0.010 A 
ATOM      3  C2  UNL d   1       0.783   1.151   1.156  0.00  0.00     0.041 A 
ATOM      4  C3  UNL d   1      -0.062   1.934   1.966  0.00  0.00    -0.075 A 
ATOM      5  S   UNL d   1       0.402   3.225   3.010  0.00  0.00     0.015 SA
ATOM      6  C4  UNL d   1      -1.206   3.504   3.503  0.00  0.00     0.022 A 
ATOM      7  C5  UNL d   1      -2.088   2.643   2.896  0.00  0.00     0.026 A 
ATOM      8  C6  UNL d   1      -1.444   1.723   2.000  0.00  0.00    -0.082 A 
ATOM      9  C7  UNL d   1      -1.982   0.692   1.193  0.00  0.00     0.045 A 
ENDROOT
TORSDOF 0
ENDMDL
