MODEL 1
REMARK minimizedAffinity 10.4117479
REMARK minimizedRMSD -1
REMARK  0 active torsions:
REMARK  status: ('A' for Active; 'I' for Inactive)
ROOT
ATOM      1  C   UNL d   1      -3.901  -5.998   0.362  0.00  0.00    -0.002 A 
ATOM      2  C1  UNL d   1      -5.288  -6.000   0.374  0.00  0.00     0.010 A 
ATOM      3  C2  UNL d   1      -6.000  -4.802   0.462  0.00  0.00     0.041 A 
ATOM      4  C3  UNL d   1      -5.286  -3.589   0.536  0.00  0.00    -0.075 A 
ATOM      5  S   UNL d   1      -5.946  -2.000   0.649  0.00  0.00     0.015 SA
ATOM      6  C4  UNL d   1      -4.401  -1.281   0.683  0.00  0.00     0.022 A 
ATOM      7  C5  UNL d   1      -3.395  -2.216   0.611  0.00  0.00     0.026 A 
ATOM      8  C6  UNL d   1      -3.889  -3.561   0.525  0.00  0.00    -0.082 A 
ATOM      9  C7  UNL d   1      -3.196  -4.793   0.436  0.00  0.00     0.045 A 
ENDROOT
TORSDOF 0
ENDMDL
