MODEL 1
REMARK minimizedAffinity 1.53463292
REMARK minimizedRMSD -1
REMARK  0 active torsions:
REMARK  status: ('A' for Active; 'I' for Inactive)
ROOT
ATOM      1  C   UNL d   1      -3.685  -5.992   2.710  0.00  0.00    -0.002 A 
ATOM      2  C1  UNL d   1      -3.226  -5.998   1.400  0.00  0.00     0.010 A 
ATOM      3  C2  UNL d   1      -1.856  -6.000   1.128  0.00  0.00     0.041 A 
ATOM      4  C3  UNL d   1      -0.947  -5.996   2.204  0.00  0.00    -0.075 A 
ATOM      5  S   UNL d   1       0.774  -5.998   2.110  0.00  0.00     0.015 SA
ATOM      6  C4  UNL d   1       0.941  -5.992   3.806  0.00  0.00     0.022 A 
ATOM      7  C5  UNL d   1      -0.277  -5.988   4.444  0.00  0.00     0.026 A 
ATOM      8  C6  UNL d   1      -1.385  -5.991   3.531  0.00  0.00    -0.082 A 
ATOM      9  C7  UNL d   1      -2.780  -5.989   3.775  0.00  0.00     0.045 A 
ENDROOT
TORSDOF 0
ENDMDL
