MODEL 1
REMARK minimizedAffinity 10.5540752
REMARK minimizedRMSD -1
REMARK  0 active torsions:
REMARK  status: ('A' for Active; 'I' for Inactive)
ROOT
ATOM      1  C   UNL d   1      -1.763  -1.225   3.401  0.00  0.00    -0.002 A 
ATOM      2  C1  UNL d   1      -1.749  -2.241   2.456  0.00  0.00     0.010 A 
ATOM      3  C2  UNL d   1      -1.036  -2.093   1.264  0.00  0.00     0.041 A 
ATOM      4  C3  UNL d   1      -0.328  -0.897   1.038  0.00  0.00    -0.075 A 
ATOM      5  S   UNL d   1       0.616  -0.494  -0.348  0.00  0.00     0.015 SA
ATOM      6  C4  UNL d   1       1.025   1.035   0.283  0.00  0.00     0.022 A 
ATOM      7  C5  UNL d   1       0.463   1.250   1.519  0.00  0.00     0.026 A 
ATOM      8  C6  UNL d   1      -0.325   0.140   1.975  0.00  0.00    -0.082 A 
ATOM      9  C7  UNL d   1      -1.059  -0.040   3.173  0.00  0.00     0.045 A 
ENDROOT
TORSDOF 0
ENDMDL
