MODEL 1
REMARK minimizedAffinity 5.32904053
REMARK minimizedRMSD -1
REMARK  0 active torsions:
REMARK  status: ('A' for Active; 'I' for Inactive)
ROOT
ATOM      1  C   UNL d   1       2.554  -5.993   3.097  0.00  0.00    -0.002 A 
ATOM      2  C1  UNL d   1       2.057  -5.992   4.392  0.00  0.00     0.010 A 
ATOM      3  C2  UNL d   1       0.680  -5.992   4.624  0.00  0.00     0.041 A 
ATOM      4  C3  UNL d   1      -0.197  -5.994   3.522  0.00  0.00    -0.075 A 
ATOM      5  S   UNL d   1      -1.921  -5.995   3.564  0.00  0.00     0.015 SA
ATOM      6  C4  UNL d   1      -2.037  -5.997   1.864  0.00  0.00     0.022 A 
ATOM      7  C5  UNL d   1      -0.801  -5.997   1.262  0.00  0.00     0.026 A 
ATOM      8  C6  UNL d   1       0.280  -5.996   2.208  0.00  0.00    -0.082 A 
ATOM      9  C7  UNL d   1       1.681  -5.995   2.006  0.00  0.00     0.045 A 
ENDROOT
TORSDOF 0
ENDMDL
