MODEL 1
REMARK minimizedAffinity 11.3365641
REMARK minimizedRMSD -1
REMARK  0 active torsions:
REMARK  status: ('A' for Active; 'I' for Inactive)
ROOT
ATOM      1  C   UNL d   1      -1.771  -0.675   3.154  0.00  0.00    -0.002 A 
ATOM      2  C1  UNL d   1      -1.541  -1.847   2.448  0.00  0.00     0.010 A 
ATOM      3  C2  UNL d   1      -0.670  -1.859   1.356  0.00  0.00     0.041 A 
ATOM      4  C3  UNL d   1      -0.028  -0.661   0.984  0.00  0.00    -0.075 A 
ATOM      5  S   UNL d   1       1.080  -0.437  -0.318  0.00  0.00     0.015 SA
ATOM      6  C4  UNL d   1       1.274   1.219   0.033  0.00  0.00     0.022 A 
ATOM      7  C5  UNL d   1       0.519   1.609   1.114  0.00  0.00     0.026 A 
ATOM      8  C6  UNL d   1      -0.243   0.531   1.680  0.00  0.00    -0.082 A 
ATOM      9  C7  UNL d   1      -1.132   0.511   2.782  0.00  0.00     0.045 A 
ENDROOT
TORSDOF 0
ENDMDL
