MODEL 1
REMARK minimizedAffinity 1.34970546
REMARK minimizedRMSD -1
REMARK  0 active torsions:
REMARK  status: ('A' for Active; 'I' for Inactive)
ROOT
ATOM      1  C   UNL d   1       1.490  -6.000   3.773  0.00  0.00    -0.002 A 
ATOM      2  C1  UNL d   1       2.000  -5.999   2.482  0.00  0.00     0.010 A 
ATOM      3  C2  UNL d   1       1.143  -6.000   1.380  0.00  0.00     0.041 A 
ATOM      4  C3  UNL d   1      -0.248  -5.999   1.598  0.00  0.00    -0.075 A 
ATOM      5  S   UNL d   1      -1.488  -5.999   0.400  0.00  0.00     0.015 SA
ATOM      6  C4  UNL d   1      -2.725  -5.999   1.573  0.00  0.00     0.022 A 
ATOM      7  C5  UNL d   1      -2.222  -6.000   2.853  0.00  0.00     0.026 A 
ATOM      8  C6  UNL d   1      -0.786  -5.999   2.888  0.00  0.00    -0.082 A 
ATOM      9  C7  UNL d   1       0.109  -5.999   3.985  0.00  0.00     0.045 A 
ENDROOT
TORSDOF 0
ENDMDL
