MODEL 1
REMARK minimizedAffinity 17.8727112
REMARK minimizedRMSD -1
REMARK  0 active torsions:
REMARK  status: ('A' for Active; 'I' for Inactive)
ROOT
ATOM      1  C   UNL d   1       2.882  -4.017   5.120  0.00  0.00    -0.002 A 
ATOM      2  C1  UNL d   1       1.904  -4.512   5.971  0.00  0.00     0.010 A 
ATOM      3  C2  UNL d   1       0.768  -5.140   5.458  0.00  0.00     0.041 A 
ATOM      4  C3  UNL d   1       0.631  -5.266   4.062  0.00  0.00    -0.075 A 
ATOM      5  S   UNL d   1      -0.675  -6.000   3.208  0.00  0.00     0.015 SA
ATOM      6  C4  UNL d   1       0.035  -5.675   1.693  0.00  0.00     0.022 A 
ATOM      7  C5  UNL d   1       1.239  -5.023   1.817  0.00  0.00     0.026 A 
ATOM      8  C6  UNL d   1       1.603  -4.778   3.185  0.00  0.00    -0.082 A 
ATOM      9  C7  UNL d   1       2.743  -4.145   3.736  0.00  0.00     0.045 A 
ENDROOT
TORSDOF 0
ENDMDL
