MODEL 1
REMARK minimizedAffinity 12.7609529
REMARK minimizedRMSD -1
REMARK  0 active torsions:
REMARK  status: ('A' for Active; 'I' for Inactive)
ROOT
ATOM      1  C   UNL d   1      -3.475  -2.053  -3.958  0.00  0.00    -0.002 A 
ATOM      2  C1  UNL d   1      -3.152  -1.300  -2.837  0.00  0.00     0.010 A 
ATOM      3  C2  UNL d   1      -1.818  -1.101  -2.476  0.00  0.00     0.041 A 
ATOM      4  C3  UNL d   1      -0.804  -1.674  -3.268  0.00  0.00    -0.075 A 
ATOM      5  S   UNL d   1       0.898  -1.562  -3.019  0.00  0.00     0.015 SA
ATOM      6  C4  UNL d   1       1.237  -2.510  -4.395  0.00  0.00     0.022 A 
ATOM      7  C5  UNL d   1       0.091  -2.910  -5.040  0.00  0.00     0.026 A 
ATOM      8  C6  UNL d   1      -1.104  -2.435  -4.402  0.00  0.00    -0.082 A 
ATOM      9  C7  UNL d   1      -2.466  -2.620  -4.741  0.00  0.00     0.045 A 
ENDROOT
TORSDOF 0
ENDMDL
