MODEL 1
REMARK minimizedAffinity 8.72357464
REMARK minimizedRMSD -1
REMARK  0 active torsions:
REMARK  status: ('A' for Active; 'I' for Inactive)
ROOT
ATOM      1  C   UNL d   1       2.054  -5.996   2.660  0.00  0.00    -0.002 A 
ATOM      2  C1  UNL d   1       1.276  -5.998   3.809  0.00  0.00     0.010 A 
ATOM      3  C2  UNL d   1      -0.117  -5.999   3.724  0.00  0.00     0.041 A 
ATOM      4  C3  UNL d   1      -0.722  -5.998   2.451  0.00  0.00    -0.075 A 
ATOM      5  S   UNL d   1      -2.410  -6.000   2.103  0.00  0.00     0.015 SA
ATOM      6  C4  UNL d   1      -2.139  -5.998   0.420  0.00  0.00     0.022 A 
ATOM      7  C5  UNL d   1      -0.799  -5.996   0.114  0.00  0.00     0.026 A 
ATOM      8  C6  UNL d   1       0.040  -5.997   1.280  0.00  0.00    -0.082 A 
ATOM      9  C7  UNL d   1       1.451  -5.996   1.400  0.00  0.00     0.045 A 
ENDROOT
TORSDOF 0
ENDMDL
