MODEL 1
REMARK minimizedAffinity 8.14724636
REMARK minimizedRMSD -1
REMARK  0 active torsions:
REMARK  status: ('A' for Active; 'I' for Inactive)
ROOT
ATOM      1  C   UNL d   1      -1.552  -5.996   3.013  0.00  0.00    -0.002 A 
ATOM      2  C1  UNL d   1      -0.594  -5.997   2.008  0.00  0.00     0.010 A 
ATOM      3  C2  UNL d   1       0.766  -5.996   2.324  0.00  0.00     0.041 A 
ATOM      4  C3  UNL d   1       1.152  -5.996   3.679  0.00  0.00    -0.075 A 
ATOM      5  S   UNL d   1       2.759  -5.996   4.302  0.00  0.00     0.015 SA
ATOM      6  C4  UNL d   1       2.213  -5.995   5.916  0.00  0.00     0.022 A 
ATOM      7  C5  UNL d   1       0.840  -5.995   5.996  0.00  0.00     0.026 A 
ATOM      8  C6  UNL d   1       0.206  -5.996   4.708  0.00  0.00    -0.082 A 
ATOM      9  C7  UNL d   1      -1.165  -5.996   4.356  0.00  0.00     0.045 A 
ENDROOT
TORSDOF 0
ENDMDL
