MODEL 1
REMARK minimizedAffinity -2.20925522
REMARK minimizedRMSD -1
REMARK  1 active torsions:
REMARK  status: ('A' for Active; 'I' for Inactive)
REMARK    1  A    between atoms: C1_2  and  C2_3 
ROOT
ATOM      1  C2  UNL d   1      -0.649   0.928   1.056  0.00  0.00    -0.077 A 
ATOM      2  C3  UNL d   1      -0.294  -0.427   0.998  0.00  0.00     0.002 A 
ATOM      3  C4  UNL d   1       0.431  -0.921  -0.088  0.00  0.00     0.002 A 
ATOM      4  C5  UNL d   1       0.810  -0.067  -1.122  0.00  0.00    -0.004 A 
ATOM      5  C6  UNL d   1       0.460   1.282  -1.074  0.00  0.00     0.002 A 
ATOM      6  C7  UNL d   1      -0.266   1.777   0.010  0.00  0.00     0.002 A 
ENDROOT
BRANCH   1   7
ATOM      7  C1  UNL d   1      -1.388   1.473   2.250  0.00  0.00     0.055 C 
ATOM      8  C   UNL d   1      -2.415   2.517   1.837  0.00  0.00     0.019 C 
ENDBRANCH   1   7
TORSDOF 1
ENDMDL
