MODEL 1
REMARK minimizedAffinity -5.42286253
REMARK minimizedRMSD -1
REMARK  1 active torsions:
REMARK  status: ('A' for Active; 'I' for Inactive)
REMARK    1  A    between atoms: C1_2  and  C2_3 
ROOT
ATOM      1  C2  UNL d   1       0.531   0.418  -0.693  0.00  0.00    -0.077 A 
ATOM      2  C3  UNL d   1      -0.494  -0.443  -0.276  0.00  0.00     0.002 A 
ATOM      3  C4  UNL d   1      -1.750   0.066   0.062  0.00  0.00     0.002 A 
ATOM      4  C5  UNL d   1      -1.993   1.436  -0.018  0.00  0.00    -0.004 A 
ATOM      5  C6  UNL d   1      -0.980   2.300  -0.430  0.00  0.00     0.002 A 
ATOM      6  C7  UNL d   1       0.276   1.793  -0.767  0.00  0.00     0.002 A 
ENDROOT
BRANCH   1   7
ATOM      7  C1  UNL d   1       1.871  -0.134  -1.105  0.00  0.00     0.055 C 
ATOM      8  C   UNL d   1       1.818  -1.645  -1.274  0.00  0.00     0.019 C 
ENDBRANCH   1   7
TORSDOF 1
ENDMDL
