MODEL 1
REMARK minimizedAffinity -3.67247057
REMARK minimizedRMSD -1
REMARK  1 active torsions:
REMARK  status: ('A' for Active; 'I' for Inactive)
REMARK    1  A    between atoms: C1_2  and  C2_3 
ROOT
ATOM      1  C2  UNL d   1       0.347  -0.123   0.362  0.00  0.00    -0.077 A 
ATOM      2  C3  UNL d   1      -0.203   1.148   0.142  0.00  0.00     0.002 A 
ATOM      3  C4  UNL d   1      -1.119   1.687   1.047  0.00  0.00     0.002 A 
ATOM      4  C5  UNL d   1      -1.489   0.966   2.180  0.00  0.00    -0.004 A 
ATOM      5  C6  UNL d   1      -0.949  -0.299   2.407  0.00  0.00     0.002 A 
ATOM      6  C7  UNL d   1      -0.034  -0.841   1.503  0.00  0.00     0.002 A 
ENDROOT
BRANCH   1   7
ATOM      7  C1  UNL d   1       1.372  -0.686  -0.588  0.00  0.00     0.055 C 
ATOM      8  C   UNL d   1       0.892  -1.989  -1.211  0.00  0.00     0.019 C 
ENDBRANCH   1   7
TORSDOF 1
ENDMDL
