MODEL 1
REMARK minimizedAffinity -2.99647069
REMARK minimizedRMSD -1
REMARK  1 active torsions:
REMARK  status: ('A' for Active; 'I' for Inactive)
REMARK    1  A    between atoms: C1_2  and  C2_3 
ROOT
ATOM      1  C2  UNL d   1      -0.581   1.084   0.326  0.00  0.00    -0.077 A 
ATOM      2  C3  UNL d   1      -0.232  -0.260   0.518  0.00  0.00     0.002 A 
ATOM      3  C4  UNL d   1       0.701  -0.873  -0.321  0.00  0.00     0.002 A 
ATOM      4  C5  UNL d   1       1.294  -0.150  -1.353  0.00  0.00    -0.004 A 
ATOM      5  C6  UNL d   1       0.952   1.187  -1.553  0.00  0.00     0.002 A 
ATOM      6  C7  UNL d   1       0.019   1.802  -0.717  0.00  0.00     0.002 A 
ENDROOT
BRANCH   1   7
ATOM      7  C1  UNL d   1      -1.550   1.762   1.260  0.00  0.00     0.055 C 
ATOM      8  C   UNL d   1      -0.891   2.107   2.587  0.00  0.00     0.019 C 
ENDBRANCH   1   7
TORSDOF 1
ENDMDL
