MODEL 1
REMARK minimizedAffinity -1.60921144
REMARK minimizedRMSD -1
REMARK  1 active torsions:
REMARK  status: ('A' for Active; 'I' for Inactive)
REMARK    1  A    between atoms: C1_2  and  C2_3 
ROOT
ATOM      1  C2  UNL d   1      -0.019   0.503   0.487  0.00  0.00    -0.077 A 
ATOM      2  C3  UNL d   1       0.918   1.138  -0.340  0.00  0.00     0.002 A 
ATOM      3  C4  UNL d   1       0.503   2.077  -1.286  0.00  0.00     0.002 A 
ATOM      4  C5  UNL d   1      -0.848   2.392  -1.411  0.00  0.00    -0.004 A 
ATOM      5  C6  UNL d   1      -1.788   1.765  -0.595  0.00  0.00     0.002 A 
ATOM      6  C7  UNL d   1      -1.375   0.826   0.351  0.00  0.00     0.002 A 
ENDROOT
BRANCH   1   7
ATOM      7  C1  UNL d   1       0.431  -0.473   1.542  0.00  0.00     0.055 C 
ATOM      8  C   UNL d   1      -0.003  -0.027   2.931  0.00  0.00     0.019 C 
ENDBRANCH   1   7
TORSDOF 1
ENDMDL
