MODEL 1
REMARK minimizedAffinity -3.25610042
REMARK minimizedRMSD -1
REMARK  1 active torsions:
REMARK  status: ('A' for Active; 'I' for Inactive)
REMARK    1  A    between atoms: C1_2  and  C2_3 
ROOT
ATOM      1  C2  UNL d   1      -0.110   0.178   0.762  0.00  0.00    -0.077 A 
ATOM      2  C3  UNL d   1      -0.751   1.417   0.906  0.00  0.00     0.002 A 
ATOM      3  C4  UNL d   1      -1.136   1.870   2.169  0.00  0.00     0.002 A 
ATOM      4  C5  UNL d   1      -0.880   1.094   3.297  0.00  0.00    -0.004 A 
ATOM      5  C6  UNL d   1      -0.245  -0.140   3.164  0.00  0.00     0.002 A 
ATOM      6  C7  UNL d   1       0.139  -0.596   1.902  0.00  0.00     0.002 A 
ENDROOT
BRANCH   1   7
ATOM      7  C1  UNL d   1       0.350  -0.290  -0.594  0.00  0.00     0.055 C 
ATOM      8  C   UNL d   1      -0.121  -1.709  -0.879  0.00  0.00     0.019 C 
ENDBRANCH   1   7
TORSDOF 1
ENDMDL
