MODEL 1
REMARK minimizedAffinity -5.14244652
REMARK minimizedRMSD -1
REMARK  1 active torsions:
REMARK  status: ('A' for Active; 'I' for Inactive)
REMARK    1  A    between atoms: C1_2  and  C2_3 
ROOT
ATOM      1  C2  UNL d   1      -0.851   0.680   1.315  0.00  0.00    -0.077 A 
ATOM      2  C3  UNL d   1      -0.392   0.939   0.016  0.00  0.00     0.002 A 
ATOM      3  C4  UNL d   1       0.770   0.326  -0.457  0.00  0.00     0.002 A 
ATOM      4  C5  UNL d   1       1.479  -0.552   0.359  0.00  0.00    -0.004 A 
ATOM      5  C6  UNL d   1       1.032  -0.814   1.654  0.00  0.00     0.002 A 
ATOM      6  C7  UNL d   1      -0.129  -0.202   2.129  0.00  0.00     0.002 A 
ENDROOT
BRANCH   1   7
ATOM      7  C1  UNL d   1      -2.131   1.302   1.811  0.00  0.00     0.055 C 
ATOM      8  C   UNL d   1      -3.217   1.257   0.746  0.00  0.00     0.019 C 
ENDBRANCH   1   7
TORSDOF 1
ENDMDL
