MODEL 1
REMARK minimizedAffinity -3.25946426
REMARK minimizedRMSD -1
REMARK  1 active torsions:
REMARK  status: ('A' for Active; 'I' for Inactive)
REMARK    1  A    between atoms: C1_2  and  C2_3 
ROOT
ATOM      1  C2  UNL d   1      -0.075  -0.094   0.756  0.00  0.00    -0.077 A 
ATOM      2  C3  UNL d   1       0.628  -1.291   0.563  0.00  0.00     0.002 A 
ATOM      3  C4  UNL d   1       1.443  -1.458  -0.559  0.00  0.00     0.002 A 
ATOM      4  C5  UNL d   1       1.566  -0.431  -1.492  0.00  0.00    -0.004 A 
ATOM      5  C6  UNL d   1       0.869   0.763  -1.310  0.00  0.00     0.002 A 
ATOM      6  C7  UNL d   1       0.053   0.931  -0.190  0.00  0.00     0.002 A 
ENDROOT
BRANCH   1   7
ATOM      7  C1  UNL d   1      -0.915   0.107   1.990  0.00  0.00     0.055 C 
ATOM      8  C   UNL d   1      -1.419   1.540   2.089  0.00  0.00     0.019 C 
ENDBRANCH   1   7
TORSDOF 1
ENDMDL
