MODEL 1
REMARK minimizedAffinity -4.95049667
REMARK minimizedRMSD -1
REMARK  1 active torsions:
REMARK  status: ('A' for Active; 'I' for Inactive)
REMARK    1  A    between atoms: C1_2  and  C2_3 
ROOT
ATOM      1  C2  UNL d   1      -0.512   0.977  -0.196  0.00  0.00    -0.077 A 
ATOM      2  C3  UNL d   1       0.020  -0.286   0.097  0.00  0.00     0.002 A 
ATOM      3  C4  UNL d   1       1.197  -0.717  -0.518  0.00  0.00     0.002 A 
ATOM      4  C5  UNL d   1       1.855   0.111  -1.425  0.00  0.00    -0.004 A 
ATOM      5  C6  UNL d   1       1.333   1.369  -1.725  0.00  0.00     0.002 A 
ATOM      6  C7  UNL d   1       0.155   1.801  -1.112  0.00  0.00     0.002 A 
ENDROOT
BRANCH   1   7
ATOM      7  C1  UNL d   1      -1.755   1.463   0.502  0.00  0.00     0.055 C 
ATOM      8  C   UNL d   1      -1.448   1.931   1.917  0.00  0.00     0.019 C 
ENDBRANCH   1   7
TORSDOF 1
ENDMDL
