MODEL 1
REMARK minimizedAffinity -4.87267017
REMARK minimizedRMSD -1
REMARK  1 active torsions:
REMARK  status: ('A' for Active; 'I' for Inactive)
REMARK    1  A    between atoms: C1_2  and  C2_3 
ROOT
ATOM      1  C2  UNL d   1      -0.201  -0.255   0.223  0.00  0.00    -0.077 A 
ATOM      2  C3  UNL d   1       0.240   0.019   1.526  0.00  0.00     0.002 A 
ATOM      3  C4  UNL d   1      -0.502   0.858   2.360  0.00  0.00     0.002 A 
ATOM      4  C5  UNL d   1      -1.690   1.425   1.903  0.00  0.00    -0.004 A 
ATOM      5  C6  UNL d   1      -2.135   1.160   0.608  0.00  0.00     0.002 A 
ATOM      6  C7  UNL d   1      -1.394   0.323  -0.227  0.00  0.00     0.002 A 
ENDROOT
BRANCH   1   7
ATOM      7  C1  UNL d   1       0.572  -1.199  -0.661  0.00  0.00     0.055 C 
ATOM      8  C   UNL d   1      -0.354  -2.176  -1.370  0.00  0.00     0.019 C 
ENDBRANCH   1   7
TORSDOF 1
ENDMDL
