MODEL 1
REMARK minimizedAffinity -3.13662601
REMARK minimizedRMSD -1
REMARK  1 active torsions:
REMARK  status: ('A' for Active; 'I' for Inactive)
REMARK    1  A    between atoms: C1_2  and  C2_3 
ROOT
ATOM      1  C2  UNL d   1      -0.306  -0.287   0.524  0.00  0.00    -0.077 A 
ATOM      2  C3  UNL d   1       0.265   0.399   1.605  0.00  0.00     0.002 A 
ATOM      3  C4  UNL d   1      -0.381   1.504   2.162  0.00  0.00     0.002 A 
ATOM      4  C5  UNL d   1      -1.604   1.931   1.647  0.00  0.00    -0.004 A 
ATOM      5  C6  UNL d   1      -2.179   1.257   0.571  0.00  0.00     0.002 A 
ATOM      6  C7  UNL d   1      -1.534   0.153   0.012  0.00  0.00     0.002 A 
ENDROOT
BRANCH   1   7
ATOM      7  C1  UNL d   1       0.365  -1.509  -0.047  0.00  0.00     0.055 C 
ATOM      8  C   UNL d   1      -0.420  -2.074  -1.221  0.00  0.00     0.019 C 
ENDBRANCH   1   7
TORSDOF 1
ENDMDL
