MODEL 1
REMARK minimizedAffinity -2.16232133
REMARK minimizedRMSD -1
REMARK  1 active torsions:
REMARK  status: ('A' for Active; 'I' for Inactive)
REMARK    1  A    between atoms: C1_2  and  C2_3 
ROOT
ATOM      1  C2  UNL d   1      -0.732   1.611   0.542  0.00  0.00    -0.077 A 
ATOM      2  C3  UNL d   1      -0.565   0.221   0.616  0.00  0.00     0.002 A 
ATOM      3  C4  UNL d   1       0.295  -0.436  -0.267  0.00  0.00     0.002 A 
ATOM      4  C5  UNL d   1       0.998   0.290  -1.226  0.00  0.00    -0.004 A 
ATOM      5  C6  UNL d   1       0.837   1.672  -1.309  0.00  0.00     0.002 A 
ATOM      6  C7  UNL d   1      -0.023   2.330  -0.429  0.00  0.00     0.002 A 
ENDROOT
BRANCH   1   7
ATOM      7  C1  UNL d   1      -1.621   2.327   1.525  0.00  0.00     0.055 C 
ATOM      8  C   UNL d   1      -0.947   2.464   2.882  0.00  0.00     0.019 C 
ENDBRANCH   1   7
TORSDOF 1
ENDMDL
