MODEL 1
REMARK minimizedAffinity -3.36296844
REMARK minimizedRMSD -1
REMARK  1 active torsions:
REMARK  status: ('A' for Active; 'I' for Inactive)
REMARK    1  A    between atoms: C1_2  and  C2_3 
ROOT
ATOM      1  C2  UNL d   1       0.276  -1.063  -0.595  0.00  0.00    -0.077 A 
ATOM      2  C3  UNL d   1      -0.499  -1.321   0.544  0.00  0.00     0.002 A 
ATOM      3  C4  UNL d   1      -0.942  -0.270   1.350  0.00  0.00     0.002 A 
ATOM      4  C5  UNL d   1      -0.618   1.045   1.023  0.00  0.00    -0.004 A 
ATOM      5  C6  UNL d   1       0.154   1.311  -0.107  0.00  0.00     0.002 A 
ATOM      6  C7  UNL d   1       0.598   0.262  -0.913  0.00  0.00     0.002 A 
ENDROOT
BRANCH   1   7
ATOM      7  C1  UNL d   1       0.712  -2.192  -1.493  0.00  0.00     0.055 C 
ATOM      8  C   UNL d   1      -0.377  -3.246  -1.626  0.00  0.00     0.019 C 
ENDBRANCH   1   7
TORSDOF 1
ENDMDL
