MODEL 1
REMARK minimizedAffinity -4.73464394
REMARK minimizedRMSD -1
REMARK  1 active torsions:
REMARK  status: ('A' for Active; 'I' for Inactive)
REMARK    1  A    between atoms: C1_2  and  C2_3 
ROOT
ATOM      1  C2  UNL d   1      -0.054   0.223   0.530  0.00  0.00    -0.077 A 
ATOM      2  C3  UNL d   1      -0.625   1.499   0.424  0.00  0.00     0.002 A 
ATOM      3  C4  UNL d   1      -1.506   1.962   1.402  0.00  0.00     0.002 A 
ATOM      4  C5  UNL d   1      -1.821   1.158   2.496  0.00  0.00    -0.004 A 
ATOM      5  C6  UNL d   1      -1.261  -0.114   2.609  0.00  0.00     0.002 A 
ATOM      6  C7  UNL d   1      -0.380  -0.579   1.631  0.00  0.00     0.002 A 
ENDROOT
BRANCH   1   7
ATOM      7  C1  UNL d   1       0.934  -0.260  -0.499  0.00  0.00     0.055 C 
ATOM      8  C   UNL d   1       0.679  -1.712  -0.874  0.00  0.00     0.019 C 
ENDBRANCH   1   7
TORSDOF 1
ENDMDL
