MODEL 1
REMARK minimizedAffinity -3.14273429
REMARK minimizedRMSD -1
REMARK  1 active torsions:
REMARK  status: ('A' for Active; 'I' for Inactive)
REMARK    1  A    between atoms: C1_2  and  C2_3 
ROOT
ATOM      1  C2  UNL d   1      -0.050   0.215   0.350  0.00  0.00    -0.077 A 
ATOM      2  C3  UNL d   1      -0.870   1.344   0.476  0.00  0.00     0.002 A 
ATOM      3  C4  UNL d   1      -1.346   1.735   1.730  0.00  0.00     0.002 A 
ATOM      4  C5  UNL d   1      -1.004   1.004   2.865  0.00  0.00    -0.004 A 
ATOM      5  C6  UNL d   1      -0.190  -0.122   2.750  0.00  0.00     0.002 A 
ATOM      6  C7  UNL d   1       0.286  -0.515   1.498  0.00  0.00     0.002 A 
ENDROOT
BRANCH   1   7
ATOM      7  C1  UNL d   1       0.504  -0.180  -0.994  0.00  0.00     0.055 C 
ATOM      8  C   UNL d   1       1.005   1.034  -1.764  0.00  0.00     0.019 C 
ENDBRANCH   1   7
TORSDOF 1
ENDMDL
