MODEL 1
REMARK minimizedAffinity 5.57860756
REMARK minimizedRMSD -1
REMARK  0 active torsions:
REMARK  status: ('A' for Active; 'I' for Inactive)
ROOT
ATOM      1  C   UNL d   1       3.070   1.578  -2.054  0.00  0.00    -0.002 A 
ATOM      2  C1  UNL d   1       1.838   2.006  -1.578  0.00  0.00     0.010 A 
ATOM      3  C2  UNL d   1       1.403   1.638  -0.304  0.00  0.00     0.041 A 
ATOM      4  C3  UNL d   1       2.235   0.828   0.493  0.00  0.00    -0.075 A 
ATOM      5  S   UNL d   1       1.910   0.254   2.087  0.00  0.00     0.015 SA
ATOM      6  C4  UNL d   1       3.399  -0.571   2.174  0.00  0.00     0.022 A 
ATOM      7  C5  UNL d   1       4.138  -0.423   1.024  0.00  0.00     0.026 A 
ATOM      8  C6  UNL d   1       3.480   0.386   0.037  0.00  0.00    -0.082 A 
ATOM      9  C7  UNL d   1       3.892   0.775  -1.260  0.00  0.00     0.045 A 
ENDROOT
TORSDOF 0
ENDMDL
