MODEL 1
REMARK minimizedAffinity 4.12109041
REMARK minimizedRMSD -1
REMARK  0 active torsions:
REMARK  status: ('A' for Active; 'I' for Inactive)
ROOT
ATOM      1  C   UNL d   1      -1.443  -2.443  -1.658  0.00  0.00    -0.002 A 
ATOM      2  C1  UNL d   1      -0.969  -2.301  -2.955  0.00  0.00     0.010 A 
ATOM      3  C2  UNL d   1      -1.691  -2.812  -4.035  0.00  0.00     0.041 A 
ATOM      4  C3  UNL d   1      -2.910  -3.473  -3.787  0.00  0.00    -0.075 A 
ATOM      5  S   UNL d   1      -3.965  -4.179  -4.954  0.00  0.00     0.015 SA
ATOM      6  C4  UNL d   1      -5.070  -4.685  -3.759  0.00  0.00     0.022 A 
ATOM      7  C5  UNL d   1      -4.660  -4.332  -2.495  0.00  0.00     0.026 A 
ATOM      8  C6  UNL d   1      -3.409  -3.628  -2.491  0.00  0.00    -0.082 A 
ATOM      9  C7  UNL d   1      -2.652  -3.099  -1.417  0.00  0.00     0.045 A 
ENDROOT
TORSDOF 0
ENDMDL
