MODEL 1
REMARK minimizedAffinity 16.0664654
REMARK minimizedRMSD -1
REMARK  0 active torsions:
REMARK  status: ('A' for Active; 'I' for Inactive)
ROOT
ATOM      1  C   UNL d   1       0.534  -2.651   0.024  0.00  0.00    -0.002 A 
ATOM      2  C1  UNL d   1       1.110  -3.321  -1.046  0.00  0.00     0.010 A 
ATOM      3  C2  UNL d   1       0.347  -3.665  -2.164  0.00  0.00     0.041 A 
ATOM      4  C3  UNL d   1      -1.018  -3.318  -2.189  0.00  0.00    -0.075 A 
ATOM      5  S   UNL d   1      -2.148  -3.635  -3.452  0.00  0.00     0.015 SA
ATOM      6  C4  UNL d   1      -3.422  -2.888  -2.602  0.00  0.00     0.022 A 
ATOM      7  C5  UNL d   1      -3.013  -2.403  -1.382  0.00  0.00     0.026 A 
ATOM      8  C6  UNL d   1      -1.621  -2.642  -1.124  0.00  0.00    -0.082 A 
ATOM      9  C7  UNL d   1      -0.820  -2.309  -0.005  0.00  0.00     0.045 A 
ENDROOT
TORSDOF 0
ENDMDL
