MODEL 1
REMARK minimizedAffinity 9.73519611
REMARK minimizedRMSD -1
REMARK  0 active torsions:
REMARK  status: ('A' for Active; 'I' for Inactive)
ROOT
ATOM      1  C   UNL d   1       4.155   0.243   0.115  0.00  0.00    -0.002 A 
ATOM      2  C1  UNL d   1       4.677  -0.484   1.175  0.00  0.00     0.010 A 
ATOM      3  C2  UNL d   1       4.060  -0.458   2.427  0.00  0.00     0.041 A 
ATOM      4  C3  UNL d   1       2.895   0.316   2.597  0.00  0.00    -0.075 A 
ATOM      5  S   UNL d   1       1.969   0.498   4.039  0.00  0.00     0.015 SA
ATOM      6  C4  UNL d   1       0.857   1.544   3.282  0.00  0.00     0.022 A 
ATOM      7  C5  UNL d   1       1.170   1.761   1.961  0.00  0.00     0.026 A 
ATOM      8  C6  UNL d   1       2.349   1.056   1.544  0.00  0.00    -0.082 A 
ATOM      9  C7  UNL d   1       2.999   1.011   0.287  0.00  0.00     0.045 A 
ENDROOT
TORSDOF 0
ENDMDL
