MODEL 1
REMARK minimizedAffinity 1.17949033
REMARK minimizedRMSD -1
REMARK  0 active torsions:
REMARK  status: ('A' for Active; 'I' for Inactive)
ROOT
ATOM      1  C   UNL d   1       1.505   0.968   1.499  0.00  0.00    -0.002 A 
ATOM      2  C1  UNL d   1       2.092  -0.233   1.872  0.00  0.00     0.010 A 
ATOM      3  C2  UNL d   1       3.481  -0.374   1.874  0.00  0.00     0.041 A 
ATOM      4  C3  UNL d   1       4.278   0.723   1.494  0.00  0.00    -0.075 A 
ATOM      5  S   UNL d   1       6.000   0.781   1.421  0.00  0.00     0.015 SA
ATOM      6  C4  UNL d   1       5.997   2.402   0.895  0.00  0.00     0.022 A 
ATOM      7  C5  UNL d   1       4.723   2.903   0.772  0.00  0.00     0.026 A 
ATOM      8  C6  UNL d   1       3.711   1.943   1.115  0.00  0.00    -0.082 A 
ATOM      9  C7  UNL d   1       2.300   2.055   1.123  0.00  0.00     0.045 A 
ENDROOT
TORSDOF 0
ENDMDL
