MODEL 1
REMARK minimizedAffinity 6.44435596
REMARK minimizedRMSD -1
REMARK  0 active torsions:
REMARK  status: ('A' for Active; 'I' for Inactive)
ROOT
ATOM      1  C   UNL d   1      -0.986  -3.646   1.214  0.00  0.00    -0.002 A 
ATOM      2  C1  UNL d   1      -2.102  -4.431   1.465  0.00  0.00     0.010 A 
ATOM      3  C2  UNL d   1      -3.155  -4.482   0.550  0.00  0.00     0.041 A 
ATOM      4  C3  UNL d   1      -3.066  -3.724  -0.634  0.00  0.00    -0.075 A 
ATOM      5  S   UNL d   1      -4.234  -3.631  -1.899  0.00  0.00     0.015 SA
ATOM      6  C4  UNL d   1      -3.278  -2.547  -2.803  0.00  0.00     0.022 A 
ATOM      7  C5  UNL d   1      -2.094  -2.252  -2.169  0.00  0.00     0.026 A 
ATOM      8  C6  UNL d   1      -1.952  -2.926  -0.909  0.00  0.00    -0.082 A 
ATOM      9  C7  UNL d   1      -0.901  -2.895   0.039  0.00  0.00     0.045 A 
ENDROOT
TORSDOF 0
ENDMDL
