MODEL 1
REMARK minimizedAffinity 6.69596481
REMARK minimizedRMSD -1
REMARK  0 active torsions:
REMARK  status: ('A' for Active; 'I' for Inactive)
ROOT
ATOM      1  C   UNL d   1       4.066   0.009   0.798  0.00  0.00    -0.002 A 
ATOM      2  C1  UNL d   1       3.290   0.856   0.020  0.00  0.00     0.010 A 
ATOM      3  C2  UNL d   1       2.182   1.507   0.567  0.00  0.00     0.041 A 
ATOM      4  C3  UNL d   1       1.865   1.291   1.922  0.00  0.00    -0.075 A 
ATOM      5  S   UNL d   1       0.556   1.982   2.807  0.00  0.00     0.015 SA
ATOM      6  C4  UNL d   1       0.997   1.169   4.239  0.00  0.00     0.022 A 
ATOM      7  C5  UNL d   1       2.114   0.386   4.064  0.00  0.00     0.026 A 
ATOM      8  C6  UNL d   1       2.633   0.444   2.727  0.00  0.00    -0.082 A 
ATOM      9  C7  UNL d   1       3.749  -0.202   2.143  0.00  0.00     0.045 A 
ENDROOT
TORSDOF 0
ENDMDL
