MODEL 1
REMARK minimizedAffinity 2.26599169
REMARK minimizedRMSD -1
REMARK  0 active torsions:
REMARK  status: ('A' for Active; 'I' for Inactive)
ROOT
ATOM      1  C   UNL d   1      -2.394  -2.638   0.437  0.00  0.00    -0.002 A 
ATOM      2  C1  UNL d   1      -3.281  -2.730  -0.626  0.00  0.00     0.010 A 
ATOM      3  C2  UNL d   1      -2.828  -3.069  -1.903  0.00  0.00     0.041 A 
ATOM      4  C3  UNL d   1      -1.454  -3.319  -2.094  0.00  0.00    -0.075 A 
ATOM      5  S   UNL d   1      -0.672  -3.751  -3.568  0.00  0.00     0.015 SA
ATOM      6  C4  UNL d   1       0.858  -3.826  -2.821  0.00  0.00     0.022 A 
ATOM      7  C5  UNL d   1       0.792  -3.531  -1.480  0.00  0.00     0.026 A 
ATOM      8  C6  UNL d   1      -0.542  -3.234  -1.038  0.00  0.00    -0.082 A 
ATOM      9  C7  UNL d   1      -1.033  -2.887   0.243  0.00  0.00     0.045 A 
ENDROOT
TORSDOF 0
ENDMDL
