MODEL 1
REMARK minimizedAffinity 16.4524097
REMARK minimizedRMSD -1
REMARK  0 active torsions:
REMARK  status: ('A' for Active; 'I' for Inactive)
ROOT
ATOM      1  C   UNL d   1       2.986   0.879   0.427  0.00  0.00    -0.002 A 
ATOM      2  C1  UNL d   1       4.103   0.060   0.506  0.00  0.00     0.010 A 
ATOM      3  C2  UNL d   1       4.965  -0.073  -0.585  0.00  0.00     0.041 A 
ATOM      4  C3  UNL d   1       4.684   0.640  -1.767  0.00  0.00    -0.075 A 
ATOM      5  S   UNL d   1       5.598   0.632  -3.228  0.00  0.00     0.015 SA
ATOM      6  C4  UNL d   1       4.528   1.717  -3.991  0.00  0.00     0.022 A 
ATOM      7  C5  UNL d   1       3.492   2.086  -3.166  0.00  0.00     0.026 A 
ATOM      8  C6  UNL d   1       3.565   1.472  -1.870  0.00  0.00    -0.082 A 
ATOM      9  C7  UNL d   1       2.710   1.585  -0.747  0.00  0.00     0.045 A 
ENDROOT
TORSDOF 0
ENDMDL
