MODEL 1
REMARK minimizedAffinity 7.02744579
REMARK minimizedRMSD -1
REMARK  0 active torsions:
REMARK  status: ('A' for Active; 'I' for Inactive)
ROOT
ATOM      1  C   UNL d   1      -2.497  -2.481   0.365  0.00  0.00    -0.002 A 
ATOM      2  C1  UNL d   1      -1.186  -2.910   0.517  0.00  0.00     0.010 A 
ATOM      3  C2  UNL d   1      -0.427  -3.283  -0.595  0.00  0.00     0.041 A 
ATOM      4  C3  UNL d   1      -1.014  -3.216  -1.874  0.00  0.00    -0.075 A 
ATOM      5  S   UNL d   1      -0.276  -3.622  -3.378  0.00  0.00     0.015 SA
ATOM      6  C4  UNL d   1      -1.684  -3.235  -4.258  0.00  0.00     0.022 A 
ATOM      7  C5  UNL d   1      -2.701  -2.805  -3.440  0.00  0.00     0.026 A 
ATOM      8  C6  UNL d   1      -2.332  -2.787  -2.052  0.00  0.00    -0.082 A 
ATOM      9  C7  UNL d   1      -3.075  -2.416  -0.906  0.00  0.00     0.045 A 
ENDROOT
TORSDOF 0
ENDMDL
