MODEL 1
REMARK minimizedAffinity 1.40685034
REMARK minimizedRMSD -1
REMARK  0 active torsions:
REMARK  status: ('A' for Active; 'I' for Inactive)
ROOT
ATOM      1  C   UNL d   1       1.683   0.779   2.257  0.00  0.00    -0.002 A 
ATOM      2  C1  UNL d   1       2.302   0.002   3.227  0.00  0.00     0.010 A 
ATOM      3  C2  UNL d   1       3.639  -0.375   3.088  0.00  0.00     0.041 A 
ATOM      4  C3  UNL d   1       4.352   0.048   1.949  0.00  0.00    -0.075 A 
ATOM      5  S   UNL d   1       5.999  -0.291   1.569  0.00  0.00     0.015 SA
ATOM      6  C4  UNL d   1       5.921   0.589   0.111  0.00  0.00     0.022 A 
ATOM      7  C5  UNL d   1       4.676   1.134  -0.096  0.00  0.00     0.026 A 
ATOM      8  C6  UNL d   1       3.752   0.832   0.960  0.00  0.00    -0.082 A 
ATOM      9  C7  UNL d   1       2.394   1.197   1.129  0.00  0.00     0.045 A 
ENDROOT
TORSDOF 0
ENDMDL
