MODEL 1
REMARK minimizedAffinity -0.851298809
REMARK minimizedRMSD -1
REMARK  0 active torsions:
REMARK  status: ('A' for Active; 'I' for Inactive)
ROOT
ATOM      1  C   UNL d   1       1.676   0.319  -0.126  0.00  0.00     0.124 A 
ATOM      2  C1  UNL d   1       0.953   1.129  -0.991  0.00  0.00     0.062 A 
ATOM      3  C2  UNL d   1      -0.380   1.424  -0.723  0.00  0.00     0.162 A 
ATOM      4  C3  UNL d   1      -1.000   0.909   0.416  0.00  0.00    -0.034 A 
ATOM      5  C4  UNL d   1      -0.267   0.094   1.280  0.00  0.00     0.162 A 
ATOM      6  C5  UNL d   1       1.066  -0.198   1.008  0.00  0.00     0.062 A 
ATOM      7  F   UNL d   1       1.763  -0.981   1.844  0.00  0.00    -0.097 F 
ATOM      8  F1  UNL d   1      -0.831  -0.418   2.384  0.00  0.00    -0.096 F 
ATOM      9  I   UNL d   1      -2.994   1.348   0.821  0.00  0.00    -0.060 I 
ATOM     10  F2  UNL d   1      -1.055   2.210  -1.575  0.00  0.00    -0.096 F 
ATOM     11  F3  UNL d   1       1.540   1.629  -2.088  0.00  0.00    -0.097 F 
ATOM     12  F4  UNL d   1       2.959   0.036  -0.387  0.00  0.00    -0.092 F 
ENDROOT
TORSDOF 0
ENDMDL
