MODEL 1
REMARK minimizedAffinity -1.08344603
REMARK minimizedRMSD -1
REMARK  0 active torsions:
REMARK  status: ('A' for Active; 'I' for Inactive)
ROOT
ATOM      1  C   UNL d   1      -0.691   0.957   2.055  0.00  0.00     0.124 A 
ATOM      2  C1  UNL d   1      -1.235   1.595   0.949  0.00  0.00     0.062 A 
ATOM      3  C2  UNL d   1      -0.902   1.175  -0.335  0.00  0.00     0.162 A 
ATOM      4  C3  UNL d   1      -0.020   0.111  -0.521  0.00  0.00    -0.034 A 
ATOM      5  C4  UNL d   1       0.524  -0.525   0.596  0.00  0.00     0.162 A 
ATOM      6  C5  UNL d   1       0.188  -0.102   1.878  0.00  0.00     0.062 A 
ATOM      7  F   UNL d   1       0.716  -0.720   2.945  0.00  0.00    -0.097 F 
ATOM      8  F1  UNL d   1       1.376  -1.552   0.453  0.00  0.00    -0.096 F 
ATOM      9  I   UNL d   1       0.481  -0.519  -2.441  0.00  0.00    -0.060 I 
ATOM     10  F2  UNL d   1      -1.444   1.810  -1.386  0.00  0.00    -0.096 F 
ATOM     11  F3  UNL d   1      -2.084   2.619   1.119  0.00  0.00    -0.097 F 
ATOM     12  F4  UNL d   1      -1.012   1.363   3.290  0.00  0.00    -0.092 F 
ENDROOT
TORSDOF 0
ENDMDL
