MODEL 1
REMARK minimizedAffinity -4.02534151
REMARK minimizedRMSD -1
REMARK  0 active torsions:
REMARK  status: ('A' for Active; 'I' for Inactive)
ROOT
ATOM      1  C   UNL d   1      -1.223   2.185   0.876  0.00  0.00     0.124 A 
ATOM      2  C1  UNL d   1      -0.684   2.207  -0.403  0.00  0.00     0.062 A 
ATOM      3  C2  UNL d   1      -0.017   1.092  -0.902  0.00  0.00     0.162 A 
ATOM      4  C3  UNL d   1       0.114  -0.057  -0.121  0.00  0.00    -0.034 A 
ATOM      5  C4  UNL d   1      -0.431  -0.072   1.164  0.00  0.00     0.162 A 
ATOM      6  C5  UNL d   1      -1.096   1.046   1.658  0.00  0.00     0.062 A 
ATOM      7  F   UNL d   1      -1.616   1.022   2.894  0.00  0.00    -0.097 F 
ATOM      8  F1  UNL d   1      -0.323  -1.160   1.942  0.00  0.00    -0.096 F 
ATOM      9  I   UNL d   1       1.110  -1.727  -0.862  0.00  0.00    -0.060 I 
ATOM     10  F2  UNL d   1       0.494   1.142  -2.141  0.00  0.00    -0.096 F 
ATOM     11  F3  UNL d   1      -0.804   3.307  -1.161  0.00  0.00    -0.097 F 
ATOM     12  F4  UNL d   1      -1.863   3.260   1.353  0.00  0.00    -0.092 F 
ENDROOT
TORSDOF 0
ENDMDL
