MODEL 1
REMARK minimizedAffinity -2.73083878
REMARK minimizedRMSD -1
REMARK  0 active torsions:
REMARK  status: ('A' for Active; 'I' for Inactive)
ROOT
ATOM      1  C   UNL d   1      -1.275   1.823   1.017  0.00  0.00     0.124 A 
ATOM      2  C1  UNL d   1      -0.838   1.857  -0.300  0.00  0.00     0.062 A 
ATOM      3  C2  UNL d   1      -0.052   0.824  -0.804  0.00  0.00     0.162 A 
ATOM      4  C3  UNL d   1       0.300  -0.253   0.010  0.00  0.00    -0.034 A 
ATOM      5  C4  UNL d   1      -0.142  -0.279   1.334  0.00  0.00     0.162 A 
ATOM      6  C5  UNL d   1      -0.927   0.756   1.832  0.00  0.00     0.062 A 
ATOM      7  F   UNL d   1      -1.349   0.721   3.105  0.00  0.00    -0.097 F 
ATOM      8  F1  UNL d   1       0.178  -1.299   2.143  0.00  0.00    -0.096 F 
ATOM      9  I   UNL d   1       1.475  -1.799  -0.739  0.00  0.00    -0.060 I 
ATOM     10  F2  UNL d   1       0.356   0.883  -2.080  0.00  0.00    -0.096 F 
ATOM     11  F3  UNL d   1      -1.172   2.888  -1.090  0.00  0.00    -0.097 F 
ATOM     12  F4  UNL d   1      -2.030   2.819   1.499  0.00  0.00    -0.092 F 
ENDROOT
TORSDOF 0
ENDMDL
