MODEL 1
REMARK minimizedAffinity 6.4383316
REMARK minimizedRMSD -1
REMARK  0 active torsions:
REMARK  status: ('A' for Active; 'I' for Inactive)
ROOT
ATOM      1  C   UNL d   1      -0.229  -0.525  -1.118  0.00  0.00     0.124 A 
ATOM      2  C1  UNL d   1      -1.132   0.526  -1.038  0.00  0.00     0.062 A 
ATOM      3  C2  UNL d   1      -1.270   1.241   0.148  0.00  0.00     0.162 A 
ATOM      4  C3  UNL d   1      -0.504   0.907   1.264  0.00  0.00    -0.034 A 
ATOM      5  C4  UNL d   1       0.401  -0.152   1.176  0.00  0.00     0.162 A 
ATOM      6  C5  UNL d   1       0.536  -0.864  -0.011  0.00  0.00     0.062 A 
ATOM      7  F   UNL d   1       1.408  -1.879  -0.087  0.00  0.00    -0.097 F 
ATOM      8  F1  UNL d   1       1.154  -0.500   2.231  0.00  0.00    -0.096 F 
ATOM      9  I   UNL d   1      -0.708   1.973   3.040  0.00  0.00    -0.060 I 
ATOM     10  F2  UNL d   1      -2.150   2.252   0.197  0.00  0.00    -0.096 F 
ATOM     11  F3  UNL d   1      -1.873   0.854  -2.106  0.00  0.00    -0.097 F 
ATOM     12  F4  UNL d   1      -0.099  -1.212  -2.261  0.00  0.00    -0.092 F 
ENDROOT
TORSDOF 0
ENDMDL
