MODEL 1
REMARK minimizedAffinity -3.79850864
REMARK minimizedRMSD -1
REMARK  0 active torsions:
REMARK  status: ('A' for Active; 'I' for Inactive)
ROOT
ATOM      1  C   UNL d   1      -1.128   1.783  -0.006  0.00  0.00     0.124 A 
ATOM      2  C1  UNL d   1       0.102   1.690  -0.643  0.00  0.00     0.062 A 
ATOM      3  C2  UNL d   1       0.641   0.443  -0.947  0.00  0.00     0.162 A 
ATOM      4  C3  UNL d   1      -0.051  -0.722  -0.615  0.00  0.00    -0.034 A 
ATOM      5  C4  UNL d   1      -1.286  -0.621   0.026  0.00  0.00     0.162 A 
ATOM      6  C5  UNL d   1      -1.821   0.627   0.328  0.00  0.00     0.062 A 
ATOM      7  F   UNL d   1      -3.009   0.715   0.943  0.00  0.00    -0.097 F 
ATOM      8  F1  UNL d   1      -1.977  -1.721   0.360  0.00  0.00    -0.096 F 
ATOM      9  I   UNL d   1       0.752  -2.588  -1.068  0.00  0.00    -0.060 I 
ATOM     10  F2  UNL d   1       1.831   0.384  -1.563  0.00  0.00    -0.096 F 
ATOM     11  F3  UNL d   1       0.773   2.805  -0.966  0.00  0.00    -0.097 F 
ATOM     12  F4  UNL d   1      -1.644   2.983   0.286  0.00  0.00    -0.092 F 
ENDROOT
TORSDOF 0
ENDMDL
