MODEL 1
REMARK minimizedAffinity -1.13658261
REMARK minimizedRMSD -1
REMARK  0 active torsions:
REMARK  status: ('A' for Active; 'I' for Inactive)
ROOT
ATOM      1  C   UNL d   1      -1.001   2.588   0.962  0.00  0.00     0.124 A 
ATOM      2  C1  UNL d   1      -1.222   2.218  -0.357  0.00  0.00     0.062 A 
ATOM      3  C2  UNL d   1      -1.042   0.895  -0.753  0.00  0.00     0.162 A 
ATOM      4  C3  UNL d   1      -0.641  -0.068   0.173  0.00  0.00    -0.034 A 
ATOM      5  C4  UNL d   1      -0.420   0.312   1.498  0.00  0.00     0.162 A 
ATOM      6  C5  UNL d   1      -0.601   1.635   1.888  0.00  0.00     0.062 A 
ATOM      7  F   UNL d   1      -0.388   1.990   3.164  0.00  0.00    -0.097 F 
ATOM      8  F1  UNL d   1      -0.034  -0.589   2.414  0.00  0.00    -0.096 F 
ATOM      9  I   UNL d   1      -0.371  -2.046  -0.415  0.00  0.00    -0.060 I 
ATOM     10  F2  UNL d   1      -1.262   0.566  -2.034  0.00  0.00    -0.096 F 
ATOM     11  F3  UNL d   1      -1.608   3.137  -1.254  0.00  0.00    -0.097 F 
ATOM     12  F4  UNL d   1      -1.174   3.861   1.340  0.00  0.00    -0.092 F 
ENDROOT
TORSDOF 0
ENDMDL
