MODEL 1
REMARK minimizedAffinity -0.00135233277
REMARK minimizedRMSD -1
REMARK  0 active torsions:
REMARK  status: ('A' for Active; 'I' for Inactive)
ROOT
ATOM      1  C   UNL d   1      -0.443   0.752   2.057  0.00  0.00     0.124 A 
ATOM      2  C1  UNL d   1      -1.487   0.827   1.146  0.00  0.00     0.062 A 
ATOM      3  C2  UNL d   1      -1.421   0.126  -0.055  0.00  0.00     0.162 A 
ATOM      4  C3  UNL d   1      -0.306  -0.657  -0.351  0.00  0.00    -0.034 A 
ATOM      5  C4  UNL d   1       0.742  -0.727   0.569  0.00  0.00     0.162 A 
ATOM      6  C5  UNL d   1       0.670  -0.025   1.768  0.00  0.00     0.062 A 
ATOM      7  F   UNL d   1       1.680  -0.099   2.647  0.00  0.00    -0.097 F 
ATOM      8  F1  UNL d   1       1.829  -1.471   0.316  0.00  0.00    -0.096 F 
ATOM      9  I   UNL d   1      -0.202  -1.707  -2.146  0.00  0.00    -0.060 I 
ATOM     10  F2  UNL d   1      -2.445   0.217  -0.916  0.00  0.00    -0.096 F 
ATOM     11  F3  UNL d   1      -2.564   1.577   1.423  0.00  0.00    -0.097 F 
ATOM     12  F4  UNL d   1      -0.509   1.428   3.211  0.00  0.00    -0.092 F 
ENDROOT
TORSDOF 0
ENDMDL
