MODEL 1
REMARK minimizedAffinity -1.24699664
REMARK minimizedRMSD -1
REMARK  0 active torsions:
REMARK  status: ('A' for Active; 'I' for Inactive)
ROOT
ATOM      1  C   UNL d   1      -1.316   2.073   1.311  0.00  0.00     0.124 A 
ATOM      2  C1  UNL d   1      -0.813   1.008   2.046  0.00  0.00     0.062 A 
ATOM      3  C2  UNL d   1      -0.034   0.035   1.426  0.00  0.00     0.162 A 
ATOM      4  C3  UNL d   1       0.247   0.122   0.062  0.00  0.00    -0.034 A 
ATOM      5  C4  UNL d   1      -0.263   1.195  -0.671  0.00  0.00     0.162 A 
ATOM      6  C5  UNL d   1      -1.041   2.165  -0.046  0.00  0.00     0.062 A 
ATOM      7  F   UNL d   1      -1.526   3.193  -0.758  0.00  0.00    -0.097 F 
ATOM      8  F1  UNL d   1      -0.012   1.310  -1.983  0.00  0.00    -0.096 F 
ATOM      9  I   UNL d   1       1.411  -1.330  -0.868  0.00  0.00    -0.060 I 
ATOM     10  F2  UNL d   1       0.439  -0.982   2.161  0.00  0.00    -0.096 F 
ATOM     11  F3  UNL d   1      -1.078   0.916   3.357  0.00  0.00    -0.097 F 
ATOM     12  F4  UNL d   1      -2.066   3.007   1.910  0.00  0.00    -0.092 F 
ENDROOT
TORSDOF 0
ENDMDL
