MODEL 1
REMARK minimizedAffinity -2.23639822
REMARK minimizedRMSD -1
REMARK  0 active torsions:
REMARK  status: ('A' for Active; 'I' for Inactive)
ROOT
ATOM      1  C   UNL d   1      -0.880   1.784  -0.754  0.00  0.00     0.124 A 
ATOM      2  C1  UNL d   1       0.471   1.764  -1.072  0.00  0.00     0.062 A 
ATOM      3  C2  UNL d   1       1.171   0.561  -1.077  0.00  0.00     0.162 A 
ATOM      4  C3  UNL d   1       0.522  -0.633  -0.762  0.00  0.00    -0.034 A 
ATOM      5  C4  UNL d   1      -0.837  -0.604  -0.442  0.00  0.00     0.162 A 
ATOM      6  C5  UNL d   1      -1.532   0.601  -0.439  0.00  0.00     0.062 A 
ATOM      7  F   UNL d   1      -2.837   0.619  -0.131  0.00  0.00    -0.097 F 
ATOM      8  F1  UNL d   1      -1.493  -1.733  -0.135  0.00  0.00    -0.096 F 
ATOM      9  I   UNL d   1       1.565  -2.433  -0.768  0.00  0.00    -0.060 I 
ATOM     10  F2  UNL d   1       2.476   0.571  -1.389  0.00  0.00    -0.096 F 
ATOM     11  F3  UNL d   1       1.104   2.906  -1.376  0.00  0.00    -0.097 F 
ATOM     12  F4  UNL d   1      -1.550   2.943  -0.749  0.00  0.00    -0.092 F 
ENDROOT
TORSDOF 0
ENDMDL
