MODEL 1
REMARK minimizedAffinity -2.97119355
REMARK minimizedRMSD -1
REMARK  0 active torsions:
REMARK  status: ('A' for Active; 'I' for Inactive)
ROOT
ATOM      1  C   UNL d   1      -1.104   1.777   1.622  0.00  0.00     0.124 A 
ATOM      2  C1  UNL d   1      -0.455   0.756   2.302  0.00  0.00     0.062 A 
ATOM      3  C2  UNL d   1       0.052  -0.337   1.606  0.00  0.00     0.162 A 
ATOM      4  C3  UNL d   1      -0.087  -0.414   0.220  0.00  0.00    -0.034 A 
ATOM      5  C4  UNL d   1      -0.742   0.616  -0.457  0.00  0.00     0.162 A 
ATOM      6  C5  UNL d   1      -1.247   1.706   0.244  0.00  0.00     0.062 A 
ATOM      7  F   UNL d   1      -1.874   2.692  -0.415  0.00  0.00    -0.097 F 
ATOM      8  F1  UNL d   1      -0.893   0.573  -1.789  0.00  0.00    -0.096 F 
ATOM      9  I   UNL d   1       0.670  -2.047  -0.826  0.00  0.00    -0.060 I 
ATOM     10  F2  UNL d   1       0.675  -1.309   2.289  0.00  0.00    -0.096 F 
ATOM     11  F3  UNL d   1      -0.317   0.822   3.634  0.00  0.00    -0.097 F 
ATOM     12  F4  UNL d   1      -1.592   2.827   2.295  0.00  0.00    -0.092 F 
ENDROOT
TORSDOF 0
ENDMDL
