MODEL 1
REMARK minimizedAffinity -1.58193266
REMARK minimizedRMSD -1
REMARK  0 active torsions:
REMARK  status: ('A' for Active; 'I' for Inactive)
ROOT
ATOM      1  C   UNL d   1      -1.969   1.169   1.664  0.00  0.00     0.124 A 
ATOM      2  C1  UNL d   1      -1.065   0.194   2.063  0.00  0.00     0.062 A 
ATOM      3  C2  UNL d   1       0.003  -0.150   1.238  0.00  0.00     0.162 A 
ATOM      4  C3  UNL d   1       0.172   0.482   0.006  0.00  0.00    -0.034 A 
ATOM      5  C4  UNL d   1      -0.742   1.460  -0.389  0.00  0.00     0.162 A 
ATOM      6  C5  UNL d   1      -1.807   1.800   0.439  0.00  0.00     0.062 A 
ATOM      7  F   UNL d   1      -2.680   2.742   0.052  0.00  0.00    -0.097 F 
ATOM      8  F1  UNL d   1      -0.609   2.087  -1.567  0.00  0.00    -0.096 F 
ATOM      9  I   UNL d   1       1.767  -0.030  -1.230  0.00  0.00    -0.060 I 
ATOM     10  F2  UNL d   1       0.861  -1.094   1.649  0.00  0.00    -0.096 F 
ATOM     11  F3  UNL d   1      -1.219  -0.418   3.245  0.00  0.00    -0.097 F 
ATOM     12  F4  UNL d   1      -2.996   1.497   2.459  0.00  0.00    -0.092 F 
ENDROOT
TORSDOF 0
ENDMDL
