MODEL 1
REMARK minimizedAffinity -3.81784177
REMARK minimizedRMSD -1
REMARK  0 active torsions:
REMARK  status: ('A' for Active; 'I' for Inactive)
ROOT
ATOM      1  C   UNL d   1      -0.720   2.505   1.130  0.00  0.00     0.124 A 
ATOM      2  C1  UNL d   1       0.079   2.647   0.005  0.00  0.00     0.062 A 
ATOM      3  C2  UNL d   1       0.627   1.526  -0.611  0.00  0.00     0.162 A 
ATOM      4  C3  UNL d   1       0.377   0.251  -0.103  0.00  0.00    -0.034 A 
ATOM      5  C4  UNL d   1      -0.426   0.116   1.030  0.00  0.00     0.162 A 
ATOM      6  C5  UNL d   1      -0.972   1.239   1.642  0.00  0.00     0.062 A 
ATOM      7  F   UNL d   1      -1.744   1.100   2.730  0.00  0.00    -0.097 F 
ATOM      8  F1  UNL d   1      -0.687  -1.095   1.545  0.00  0.00    -0.096 F 
ATOM      9  I   UNL d   1       1.196  -1.428  -1.021  0.00  0.00    -0.060 I 
ATOM     10  F2  UNL d   1       1.395   1.694  -1.698  0.00  0.00    -0.096 F 
ATOM     11  F3  UNL d   1       0.324   3.869  -0.491  0.00  0.00    -0.097 F 
ATOM     12  F4  UNL d   1      -1.246   3.585   1.722  0.00  0.00    -0.092 F 
ENDROOT
TORSDOF 0
ENDMDL
