MODEL 1
REMARK minimizedAffinity 0.813296854
REMARK minimizedRMSD -1
REMARK  0 active torsions:
REMARK  status: ('A' for Active; 'I' for Inactive)
ROOT
ATOM      1  C   UNL d   1      -1.046   1.349   0.940  0.00  0.00     0.124 A 
ATOM      2  C1  UNL d   1      -0.518   0.504   1.906  0.00  0.00     0.062 A 
ATOM      3  C2  UNL d   1       0.148  -0.659   1.530  0.00  0.00     0.162 A 
ATOM      4  C3  UNL d   1       0.290  -0.984   0.181  0.00  0.00    -0.034 A 
ATOM      5  C4  UNL d   1      -0.244  -0.129  -0.784  0.00  0.00     0.162 A 
ATOM      6  C5  UNL d   1      -0.909   1.032  -0.404  0.00  0.00     0.062 A 
ATOM      7  F   UNL d   1      -1.419   1.847  -1.338  0.00  0.00    -0.097 F 
ATOM      8  F1  UNL d   1      -0.126  -0.411  -2.090  0.00  0.00    -0.096 F 
ATOM      9  I   UNL d   1       1.285  -2.722  -0.385  0.00  0.00    -0.060 I 
ATOM     10  F2  UNL d   1       0.648  -1.457   2.485  0.00  0.00    -0.096 F 
ATOM     11  F3  UNL d   1      -0.649   0.808   3.206  0.00  0.00    -0.097 F 
ATOM     12  F4  UNL d   1      -1.687   2.467   1.305  0.00  0.00    -0.092 F 
ENDROOT
TORSDOF 0
ENDMDL
