MODEL 1
REMARK minimizedAffinity -0.457796037
REMARK minimizedRMSD -1
REMARK  0 active torsions:
REMARK  status: ('A' for Active; 'I' for Inactive)
ROOT
ATOM      1  C   UNL d   1       0.548  -3.264  -2.902  0.00  0.00     0.124 A 
ATOM      2  C1  UNL d   1       1.257  -3.027  -1.733  0.00  0.00     0.062 A 
ATOM      3  C2  UNL d   1       0.980  -1.902  -0.962  0.00  0.00     0.162 A 
ATOM      4  C3  UNL d   1      -0.013  -1.005  -1.357  0.00  0.00    -0.034 A 
ATOM      5  C4  UNL d   1      -0.722  -1.250  -2.535  0.00  0.00     0.162 A 
ATOM      6  C5  UNL d   1      -0.441  -2.376  -3.302  0.00  0.00     0.062 A 
ATOM      7  F   UNL d   1      -1.127  -2.604  -4.431  0.00  0.00    -0.097 F 
ATOM      8  F1  UNL d   1      -1.683  -0.409  -2.944  0.00  0.00    -0.096 F 
ATOM      9  I   UNL d   1      -0.431   0.678  -0.207  0.00  0.00    -0.060 I 
ATOM     10  F2  UNL d   1       1.681  -1.698   0.163  0.00  0.00    -0.096 F 
ATOM     11  F3  UNL d   1       2.214  -3.883  -1.346  0.00  0.00    -0.097 F 
ATOM     12  F4  UNL d   1       0.818  -4.347  -3.643  0.00  0.00    -0.092 F 
ENDROOT
TORSDOF 0
ENDMDL
