MODEL 1
REMARK minimizedAffinity -1.43629324
REMARK minimizedRMSD -1
REMARK  0 active torsions:
REMARK  status: ('A' for Active; 'I' for Inactive)
ROOT
ATOM      1  C   UNL d   1      -1.320   1.682   0.843  0.00  0.00     0.124 A 
ATOM      2  C1  UNL d   1      -0.169   1.734   0.068  0.00  0.00     0.062 A 
ATOM      3  C2  UNL d   1       0.446   0.558  -0.352  0.00  0.00     0.162 A 
ATOM      4  C3  UNL d   1      -0.090  -0.681   0.000  0.00  0.00    -0.034 A 
ATOM      5  C4  UNL d   1      -1.247  -0.725   0.780  0.00  0.00     0.162 A 
ATOM      6  C5  UNL d   1      -1.857   0.453   1.198  0.00  0.00     0.062 A 
ATOM      7  F   UNL d   1      -2.969   0.400   1.946  0.00  0.00    -0.097 F 
ATOM      8  F1  UNL d   1      -1.788  -1.899   1.137  0.00  0.00    -0.096 F 
ATOM      9  I   UNL d   1       0.827  -2.441  -0.626  0.00  0.00    -0.060 I 
ATOM     10  F2  UNL d   1       1.556   0.639  -1.100  0.00  0.00    -0.096 F 
ATOM     11  F3  UNL d   1       0.352   2.920  -0.276  0.00  0.00    -0.097 F 
ATOM     12  F4  UNL d   1      -1.909   2.815   1.247  0.00  0.00    -0.092 F 
ENDROOT
TORSDOF 0
ENDMDL
