MODEL 1
REMARK minimizedAffinity 13.706542
REMARK minimizedRMSD -1
REMARK  2 active torsions:
REMARK  status: ('A' for Active; 'I' for Inactive)
REMARK    1  A    between atoms: C2'_3  and  C1'_4 
REMARK    2  A    between atoms: C1'_4  and  C1_5 
ROOT
ATOM      1  C1  I4B d   1      -3.558  -1.220   4.598  0.00  0.00    -0.075 A 
ATOM      2  C2  I4B d   1      -3.404  -1.809   3.368  0.00  0.00     0.003 A 
ATOM      3  C3  I4B d   1      -3.519  -3.213   3.229  0.00  0.00     0.002 A 
ATOM      4  C4  I4B d   1      -3.738  -3.990   4.348  0.00  0.00    -0.004 A 
ATOM      5  C5  I4B d   1      -3.917  -3.391   5.591  0.00  0.00     0.002 A 
ATOM      6  C6  I4B d   1      -3.839  -1.996   5.716  0.00  0.00     0.003 A 
ENDROOT
BRANCH   1   7
ATOM      7  C1' I4B d   1      -3.397   0.262   4.714  0.00  0.00     0.060 C 
BRANCH   7   8
ATOM      8  C2' I4B d   1      -3.834   0.883   3.402  0.00  0.00    -0.013 C 
ATOM      9  C4' I4B d   1      -4.659   2.121   3.633  0.00  0.00     0.013 C 
ATOM     10  C3' I4B d   1      -2.602   1.193   2.604  0.00  0.00     0.013 C 
ENDBRANCH   7   8
ENDBRANCH   1   7
TORSDOF 2
ENDMDL
