MODEL 1
REMARK minimizedAffinity 7.18258286
REMARK minimizedRMSD -1
REMARK  2 active torsions:
REMARK  status: ('A' for Active; 'I' for Inactive)
REMARK    1  A    between atoms: C2'_3  and  C1'_4 
REMARK    2  A    between atoms: C1'_4  and  C1_5 
ROOT
ATOM      1  C1  I4B d   1       3.058  -0.233  -0.002  0.00  0.00    -0.075 A 
ATOM      2  C2  I4B d   1       2.544   0.589  -0.974  0.00  0.00     0.003 A 
ATOM      3  C3  I4B d   1       3.090   1.879  -1.178  0.00  0.00     0.002 A 
ATOM      4  C4  I4B d   1       4.110   2.323  -0.361  0.00  0.00    -0.004 A 
ATOM      5  C5  I4B d   1       4.645   1.479   0.608  0.00  0.00     0.002 A 
ATOM      6  C6  I4B d   1       4.125   0.189   0.781  0.00  0.00     0.003 A 
ENDROOT
BRANCH   1   7
ATOM      7  C1' I4B d   1       2.435  -1.577   0.208  0.00  0.00     0.060 C 
BRANCH   7   8
ATOM      8  C2' I4B d   1       3.400  -2.625  -0.309  0.00  0.00    -0.013 C 
ATOM      9  C4' I4B d   1       4.698  -2.596   0.456  0.00  0.00     0.013 C 
ATOM     10  C3' I4B d   1       2.734  -3.964  -0.194  0.00  0.00     0.013 C 
ENDBRANCH   7   8
ENDBRANCH   1   7
TORSDOF 2
ENDMDL
