MODEL 1
REMARK minimizedAffinity 14.792654
REMARK minimizedRMSD -1
REMARK  2 active torsions:
REMARK  status: ('A' for Active; 'I' for Inactive)
REMARK    1  A    between atoms: C2'_3  and  C1'_4 
REMARK    2  A    between atoms: C1'_4  and  C1_5 
ROOT
ATOM      1  C1  I4B d   1       2.077   1.002   0.231  0.00  0.00    -0.075 A 
ATOM      2  C2  I4B d   1       2.889   1.822   0.974  0.00  0.00     0.003 A 
ATOM      3  C3  I4B d   1       2.451   2.315   2.227  0.00  0.00     0.002 A 
ATOM      4  C4  I4B d   1       1.181   2.007   2.672  0.00  0.00    -0.004 A 
ATOM      5  C5  I4B d   1       0.367   1.158   1.928  0.00  0.00     0.002 A 
ATOM      6  C6  I4B d   1       0.822   0.642   0.706  0.00  0.00     0.003 A 
ENDROOT
BRANCH   1   7
ATOM      7  C1' I4B d   1       2.559   0.526  -1.102  0.00  0.00     0.060 C 
BRANCH   7   8
ATOM      8  C2' I4B d   1       2.002  -0.865  -1.330  0.00  0.00    -0.013 C 
ATOM      9  C4' I4B d   1       2.181  -1.296  -2.762  0.00  0.00     0.013 C 
ATOM     10  C3' I4B d   1       2.701  -1.803  -0.391  0.00  0.00     0.013 C 
ENDBRANCH   7   8
ENDBRANCH   1   7
TORSDOF 2
ENDMDL
