MODEL 1
REMARK minimizedAffinity 14.0427856
REMARK minimizedRMSD -1
REMARK  2 active torsions:
REMARK  status: ('A' for Active; 'I' for Inactive)
REMARK    1  A    between atoms: C2'_3  and  C1'_4 
REMARK    2  A    between atoms: C1'_4  and  C1_5 
ROOT
ATOM      1  C1  I4B d   1       2.987  -0.500  -0.819  0.00  0.00    -0.075 A 
ATOM      2  C2  I4B d   1       3.981  -1.235  -0.222  0.00  0.00     0.003 A 
ATOM      3  C3  I4B d   1       3.867  -2.643  -0.129  0.00  0.00     0.002 A 
ATOM      4  C4  I4B d   1       2.728  -3.266  -0.597  0.00  0.00    -0.004 A 
ATOM      5  C5  I4B d   1       1.732  -2.521  -1.222  0.00  0.00     0.002 A 
ATOM      6  C6  I4B d   1       1.868  -1.130  -1.345  0.00  0.00     0.003 A 
ENDROOT
BRANCH   1   7
ATOM      7  C1' I4B d   1       3.125   0.989  -0.871  0.00  0.00     0.060 C 
BRANCH   7   8
ATOM      8  C2' I4B d   1       4.205   1.393   0.111  0.00  0.00    -0.013 C 
ATOM      9  C4' I4B d   1       5.405   1.960  -0.600  0.00  0.00     0.013 C 
ATOM     10  C3' I4B d   1       3.617   2.392   1.062  0.00  0.00     0.013 C 
ENDBRANCH   7   8
ENDBRANCH   1   7
TORSDOF 2
ENDMDL
