MODEL 1
REMARK minimizedAffinity 17.5180645
REMARK minimizedRMSD -1
REMARK  2 active torsions:
REMARK  status: ('A' for Active; 'I' for Inactive)
REMARK    1  A    between atoms: C2'_3  and  C1'_4 
REMARK    2  A    between atoms: C1'_4  and  C1_5 
ROOT
ATOM      1  C1  I4B d   1       3.142  -2.011  -0.475  0.00  0.00    -0.075 A 
ATOM      2  C2  I4B d   1       2.032  -2.784  -0.241  0.00  0.00     0.003 A 
ATOM      3  C3  I4B d   1       2.175  -4.122   0.200  0.00  0.00     0.002 A 
ATOM      4  C4  I4B d   1       3.438  -4.658   0.344  0.00  0.00    -0.004 A 
ATOM      5  C5  I4B d   1       4.562  -3.866   0.129  0.00  0.00     0.002 A 
ATOM      6  C6  I4B d   1       4.414  -2.530  -0.271  0.00  0.00     0.003 A 
ENDROOT
BRANCH   1   7
ATOM      7  C1' I4B d   1       2.955  -0.612  -0.971  0.00  0.00     0.060 C 
BRANCH   7   8
ATOM      8  C2' I4B d   1       2.010  -0.659  -2.155  0.00  0.00    -0.013 C 
ATOM      9  C4' I4B d   1       1.771   0.717  -2.717  0.00  0.00     0.013 C 
ATOM     10  C3' I4B d   1       2.607  -1.569  -3.187  0.00  0.00     0.013 C 
ENDBRANCH   7   8
ENDBRANCH   1   7
TORSDOF 2
ENDMDL
