MODEL 1
REMARK minimizedAffinity 16.5528641
REMARK minimizedRMSD -1
REMARK  2 active torsions:
REMARK  status: ('A' for Active; 'I' for Inactive)
REMARK    1  A    between atoms: C2'_3  and  C1'_4 
REMARK    2  A    between atoms: C1'_4  and  C1_5 
ROOT
ATOM      1  C1  I4B d   1      -4.072  -2.397   2.357  0.00  0.00    -0.075 A 
ATOM      2  C2  I4B d   1      -3.357  -3.522   2.026  0.00  0.00     0.003 A 
ATOM      3  C3  I4B d   1      -3.951  -4.538   1.239  0.00  0.00     0.002 A 
ATOM      4  C4  I4B d   1      -5.269  -4.413   0.849  0.00  0.00    -0.004 A 
ATOM      5  C5  I4B d   1      -5.985  -3.262   1.166  0.00  0.00     0.002 A 
ATOM      6  C6  I4B d   1      -5.379  -2.242   1.914  0.00  0.00     0.003 A 
ENDROOT
BRANCH   1   7
ATOM      7  C1' I4B d   1      -3.424  -1.359   3.217  0.00  0.00     0.060 C 
BRANCH   7   8
ATOM      8  C2' I4B d   1      -3.287  -0.092   2.397  0.00  0.00    -0.013 C 
ATOM      9  C4' I4B d   1      -3.526   1.132   3.241  0.00  0.00     0.013 C 
ATOM     10  C3' I4B d   1      -1.914  -0.076   1.795  0.00  0.00     0.013 C 
ENDBRANCH   7   8
ENDBRANCH   1   7
TORSDOF 2
ENDMDL
