MODEL 1
REMARK minimizedAffinity 19.4389668
REMARK minimizedRMSD -1
REMARK  2 active torsions:
REMARK  status: ('A' for Active; 'I' for Inactive)
REMARK    1  A    between atoms: C2'_3  and  C1'_4 
REMARK    2  A    between atoms: C1'_4  and  C1_5 
ROOT
ATOM      1  C1  I4B d   1      -1.057   0.551   2.424  0.00  0.00    -0.075 A 
ATOM      2  C2  I4B d   1      -0.698   1.832   2.763  0.00  0.00     0.003 A 
ATOM      3  C3  I4B d   1       0.462   2.065   3.540  0.00  0.00     0.002 A 
ATOM      4  C4  I4B d   1       1.201   0.993   3.997  0.00  0.00    -0.004 A 
ATOM      5  C5  I4B d   1       0.848  -0.304   3.634  0.00  0.00     0.002 A 
ATOM      6  C6  I4B d   1      -0.281  -0.526   2.832  0.00  0.00     0.003 A 
ENDROOT
BRANCH   1   7
ATOM      7  C1' I4B d   1      -2.307   0.339   1.630  0.00  0.00     0.060 C 
BRANCH   7   8
ATOM      8  C2' I4B d   1      -3.408  -0.060   2.590  0.00  0.00    -0.013 C 
ATOM      9  C4' I4B d   1      -4.134   1.149   3.120  0.00  0.00     0.013 C 
ATOM     10  C3' I4B d   1      -4.346  -0.978   1.864  0.00  0.00     0.013 C 
ENDBRANCH   7   8
ENDBRANCH   1   7
TORSDOF 2
ENDMDL
