MODEL 1
REMARK minimizedAffinity 18.0493965
REMARK minimizedRMSD -1
REMARK  2 active torsions:
REMARK  status: ('A' for Active; 'I' for Inactive)
REMARK    1  A    between atoms: C2'_3  and  C1'_4 
REMARK    2  A    between atoms: C1'_4  and  C1_5 
ROOT
ATOM      1  C1  I4B d   1      -4.373  -0.831   2.667  0.00  0.00    -0.075 A 
ATOM      2  C2  I4B d   1      -4.110  -1.235   3.952  0.00  0.00     0.003 A 
ATOM      3  C3  I4B d   1      -4.789  -2.350   4.500  0.00  0.00     0.002 A 
ATOM      4  C4  I4B d   1      -5.751  -2.996   3.752  0.00  0.00    -0.004 A 
ATOM      5  C5  I4B d   1      -6.000  -2.599   2.441  0.00  0.00     0.002 A 
ATOM      6  C6  I4B d   1      -5.297  -1.517   1.890  0.00  0.00     0.003 A 
ENDROOT
BRANCH   1   7
ATOM      7  C1' I4B d   1      -3.662   0.371   2.130  0.00  0.00     0.060 C 
BRANCH   7   8
ATOM      8  C2' I4B d   1      -3.131   1.164   3.307  0.00  0.00    -0.013 C 
ATOM      9  C4' I4B d   1      -1.857   1.883   2.950  0.00  0.00     0.013 C 
ATOM     10  C3' I4B d   1      -4.196   2.129   3.734  0.00  0.00     0.013 C 
ENDBRANCH   7   8
ENDBRANCH   1   7
TORSDOF 2
ENDMDL
