MODEL 1
REMARK minimizedAffinity 15.36654
REMARK minimizedRMSD -1
REMARK  2 active torsions:
REMARK  status: ('A' for Active; 'I' for Inactive)
REMARK    1  A    between atoms: C2'_3  and  C1'_4 
REMARK    2  A    between atoms: C1'_4  and  C1_5 
ROOT
ATOM      1  C1  I4B d   1      -1.101   0.944   3.017  0.00  0.00    -0.075 A 
ATOM      2  C2  I4B d   1      -0.991   0.270   1.826  0.00  0.00     0.003 A 
ATOM      3  C3  I4B d   1      -2.132   0.074   1.010  0.00  0.00     0.002 A 
ATOM      4  C4  I4B d   1      -3.363   0.522   1.444  0.00  0.00    -0.004 A 
ATOM      5  C5  I4B d   1      -3.468   1.225   2.640  0.00  0.00     0.002 A 
ATOM      6  C6  I4B d   1      -2.328   1.448   3.426  0.00  0.00     0.003 A 
ENDROOT
BRANCH   1   7
ATOM      7  C1' I4B d   1       0.118   1.103   3.870  0.00  0.00     0.060 C 
BRANCH   7   8
ATOM      8  C2' I4B d   1      -0.243   0.687   5.281  0.00  0.00    -0.013 C 
ATOM      9  C4' I4B d   1       0.947   0.107   5.999  0.00  0.00     0.013 C 
ATOM     10  C3' I4B d   1      -0.773   1.893   5.998  0.00  0.00     0.013 C 
ENDBRANCH   7   8
ENDBRANCH   1   7
TORSDOF 2
ENDMDL
