MODEL 1
REMARK minimizedAffinity 8.22152996
REMARK minimizedRMSD -1
REMARK  2 active torsions:
REMARK  status: ('A' for Active; 'I' for Inactive)
REMARK    1  A    between atoms: C2'_3  and  C1'_4 
REMARK    2  A    between atoms: C1'_4  and  C1_5 
ROOT
ATOM      1  C1  I4B d   1       3.008  -1.022  -0.986  0.00  0.00    -0.075 A 
ATOM      2  C2  I4B d   1       4.054  -1.702  -0.416  0.00  0.00     0.003 A 
ATOM      3  C3  I4B d   1       3.931  -3.081  -0.118  0.00  0.00     0.002 A 
ATOM      4  C4  I4B d   1       2.735  -3.724  -0.360  0.00  0.00    -0.004 A 
ATOM      5  C5  I4B d   1       1.682  -3.038  -0.960  0.00  0.00     0.002 A 
ATOM      6  C6  I4B d   1       1.823  -1.682  -1.287  0.00  0.00     0.003 A 
ENDROOT
BRANCH   1   7
ATOM      7  C1' I4B d   1       3.160   0.442  -1.257  0.00  0.00     0.060 C 
BRANCH   7   8
ATOM      8  C2' I4B d   1       4.115   1.009  -0.227  0.00  0.00    -0.013 C 
ATOM      9  C4' I4B d   1       5.175   1.860  -0.876  0.00  0.00     0.013 C 
ATOM     10  C3' I4B d   1       3.313   1.804   0.760  0.00  0.00     0.013 C 
ENDBRANCH   7   8
ENDBRANCH   1   7
TORSDOF 2
ENDMDL
