MODEL 1
REMARK minimizedAffinity 9.44092846
REMARK minimizedRMSD -1
REMARK  2 active torsions:
REMARK  status: ('A' for Active; 'I' for Inactive)
REMARK    1  A    between atoms: C2'_3  and  C1'_4 
REMARK    2  A    between atoms: C1'_4  and  C1_5 
ROOT
ATOM      1  C1  I4B d   1      -1.357   0.899   2.787  0.00  0.00    -0.075 A 
ATOM      2  C2  I4B d   1      -0.982   2.110   3.313  0.00  0.00     0.003 A 
ATOM      3  C3  I4B d   1       0.258   2.241   3.985  0.00  0.00     0.002 A 
ATOM      4  C4  I4B d   1       1.062   1.132   4.151  0.00  0.00    -0.004 A 
ATOM      5  C5  I4B d   1       0.690  -0.089   3.597  0.00  0.00     0.002 A 
ATOM      6  C6  I4B d   1      -0.521  -0.204   2.900  0.00  0.00     0.003 A 
ENDROOT
BRANCH   1   7
ATOM      7  C1' I4B d   1      -2.687   0.787   2.112  0.00  0.00     0.060 C 
BRANCH   7   8
ATOM      8  C2' I4B d   1      -3.710   0.396   3.159  0.00  0.00    -0.013 C 
ATOM      9  C4' I4B d   1      -4.429   1.604   3.698  0.00  0.00     0.013 C 
ATOM     10  C3' I4B d   1      -4.671  -0.569   2.529  0.00  0.00     0.013 C 
ENDBRANCH   7   8
ENDBRANCH   1   7
TORSDOF 2
ENDMDL
