MODEL 1
REMARK minimizedAffinity -5.06078482
REMARK minimizedRMSD -1
REMARK  0 active torsions:
REMARK  status: ('A' for Active; 'I' for Inactive)
ROOT
ATOM      1  C1  DEN d   1      -0.092   0.396  -1.624  0.00  0.00     0.130 A 
ATOM      2  C2  DEN d   1      -0.735   0.452  -2.934  0.00  0.00    -0.031 A 
ATOM      3  C3  DEN d   1      -2.092  -0.115  -2.800  0.00  0.00     0.027 A 
ATOM      4  C4  DEN d   1      -3.255  -1.064  -0.703  0.00  0.00     0.027 A 
ATOM      5  C5  DEN d   1      -3.103  -1.335   0.639  0.00  0.00    -0.003 A 
ATOM      6  C6  DEN d   1      -1.935  -1.080   1.308  0.00  0.00     0.001 A 
ATOM      7  C7  DEN d   1      -0.887  -0.498   0.646  0.00  0.00     0.017 A 
ATOM      8  C8  DEN d   1      -1.030  -0.229  -0.709  0.00  0.00    -0.094 A 
ATOM      9  C9  DEN d   1      -2.223  -0.482  -1.364  0.00  0.00    -0.072 A 
ENDROOT
TORSDOF 0
ENDMDL
