MODEL 1
REMARK minimizedAffinity -4.79036236
REMARK minimizedRMSD -1
REMARK  0 active torsions:
REMARK  status: ('A' for Active; 'I' for Inactive)
ROOT
ATOM      1  C1  DEN d   1      -2.259  -1.136   0.718  0.00  0.00     0.130 A 
ATOM      2  C2  DEN d   1      -3.139  -0.677  -0.354  0.00  0.00    -0.031 A 
ATOM      3  C3  DEN d   1      -2.298  -0.083  -1.412  0.00  0.00     0.027 A 
ATOM      4  C4  DEN d   1       0.268   0.165  -1.498  0.00  0.00     0.027 A 
ATOM      5  C5  DEN d   1       1.441  -0.066  -0.814  0.00  0.00    -0.003 A 
ATOM      6  C6  DEN d   1       1.461  -0.634   0.432  0.00  0.00     0.001 A 
ATOM      7  C7  DEN d   1       0.287  -1.032   1.015  0.00  0.00     0.017 A 
ATOM      8  C8  DEN d   1      -0.901  -0.796   0.335  0.00  0.00    -0.094 A 
ATOM      9  C9  DEN d   1      -0.899  -0.232  -0.929  0.00  0.00    -0.072 A 
ENDROOT
TORSDOF 0
ENDMDL
