MODEL 1
REMARK minimizedAffinity -1.25774837
REMARK minimizedRMSD -1
REMARK  0 active torsions:
REMARK  status: ('A' for Active; 'I' for Inactive)
ROOT
ATOM      1  C1  DEN d   1      -2.537  -0.343   1.216  0.00  0.00     0.130 A 
ATOM      2  C2  DEN d   1      -3.416  -0.890   0.186  0.00  0.00    -0.031 A 
ATOM      3  C3  DEN d   1      -2.681  -0.875  -1.095  0.00  0.00     0.027 A 
ATOM      4  C4  DEN d   1      -0.280  -0.068  -1.580  0.00  0.00     0.027 A 
ATOM      5  C5  DEN d   1       0.851   0.489  -1.024  0.00  0.00    -0.003 A 
ATOM      6  C6  DEN d   1       0.919   0.836   0.299  0.00  0.00     0.001 A 
ATOM      7  C7  DEN d   1      -0.148   0.588   1.122  0.00  0.00     0.017 A 
ATOM      8  C8  DEN d   1      -1.294   0.034   0.567  0.00  0.00    -0.094 A 
ATOM      9  C9  DEN d   1      -1.339  -0.321  -0.770  0.00  0.00    -0.072 A 
ENDROOT
TORSDOF 0
ENDMDL
