MODEL 1
REMARK minimizedAffinity -4.7120409
REMARK minimizedRMSD -1
REMARK  0 active torsions:
REMARK  status: ('A' for Active; 'I' for Inactive)
ROOT
ATOM      1  C1  DEN d   1      -2.216  -0.623   0.647  0.00  0.00     0.130 A 
ATOM      2  C2  DEN d   1      -3.182  -0.634  -0.448  0.00  0.00    -0.031 A 
ATOM      3  C3  DEN d   1      -2.509  -0.117  -1.657  0.00  0.00     0.027 A 
ATOM      4  C4  DEN d   1      -0.076   0.692  -1.938  0.00  0.00     0.027 A 
ATOM      5  C5  DEN d   1       1.120   0.900  -1.287  0.00  0.00    -0.003 A 
ATOM      6  C6  DEN d   1       1.277   0.649   0.050  0.00  0.00     0.001 A 
ATOM      7  C7  DEN d   1       0.233   0.133   0.771  0.00  0.00     0.017 A 
ATOM      8  C8  DEN d   1      -0.978  -0.073   0.124  0.00  0.00    -0.094 A 
ATOM      9  C9  DEN d   1      -1.114   0.175  -1.232  0.00  0.00    -0.072 A 
ENDROOT
TORSDOF 0
ENDMDL
