MODEL 1
REMARK minimizedAffinity -5.17508936
REMARK minimizedRMSD -1
REMARK  0 active torsions:
REMARK  status: ('A' for Active; 'I' for Inactive)
ROOT
ATOM      1  C1  DEN d   1      -2.230  -1.193   0.880  0.00  0.00     0.130 A 
ATOM      2  C2  DEN d   1      -3.207  -1.145  -0.205  0.00  0.00    -0.031 A 
ATOM      3  C3  DEN d   1      -2.581  -0.458  -1.352  0.00  0.00     0.027 A 
ATOM      4  C4  DEN d   1      -0.205   0.526  -1.556  0.00  0.00     0.027 A 
ATOM      5  C5  DEN d   1       0.984   0.735  -0.892  0.00  0.00    -0.003 A 
ATOM      6  C6  DEN d   1       1.171   0.350   0.409  0.00  0.00     0.001 A 
ATOM      7  C7  DEN d   1       0.169  -0.306   1.074  0.00  0.00     0.017 A 
ATOM      8  C8  DEN d   1      -1.035  -0.514   0.414  0.00  0.00    -0.094 A 
ATOM      9  C9  DEN d   1      -1.201  -0.128  -0.905  0.00  0.00    -0.072 A 
ENDROOT
TORSDOF 0
ENDMDL
