MODEL 1
REMARK minimizedAffinity -3.05272174
REMARK minimizedRMSD -1
REMARK  0 active torsions:
REMARK  status: ('A' for Active; 'I' for Inactive)
ROOT
ATOM      1  C1  DEN d   1      -1.653  -1.673   0.690  0.00  0.00     0.130 A 
ATOM      2  C2  DEN d   1      -0.944  -2.315   1.794  0.00  0.00    -0.031 A 
ATOM      3  C3  DEN d   1       0.439  -1.799   1.810  0.00  0.00     0.027 A 
ATOM      4  C4  DEN d   1       1.546  -0.073   0.245  0.00  0.00     0.027 A 
ATOM      5  C5  DEN d   1       1.347   0.741  -0.848  0.00  0.00    -0.003 A 
ATOM      6  C6  DEN d   1       0.154   0.782  -1.520  0.00  0.00     0.001 A 
ATOM      7  C7  DEN d   1      -0.900   0.028  -1.078  0.00  0.00     0.017 A 
ATOM      8  C8  DEN d   1      -0.705  -0.801   0.019  0.00  0.00    -0.094 A 
ATOM      9  C9  DEN d   1       0.504  -0.819   0.692  0.00  0.00    -0.072 A 
ENDROOT
TORSDOF 0
ENDMDL
