MODEL 1
REMARK minimizedAffinity -5.21058798
REMARK minimizedRMSD -1
REMARK  0 active torsions:
REMARK  status: ('A' for Active; 'I' for Inactive)
ROOT
ATOM      1  C1  DEN d   1       0.998   0.649  -0.842  0.00  0.00     0.130 A 
ATOM      2  C2  DEN d   1       1.752   0.364   0.375  0.00  0.00    -0.031 A 
ATOM      3  C3  DEN d   1       0.854  -0.335   1.316  0.00  0.00     0.027 A 
ATOM      4  C4  DEN d   1      -1.618  -1.003   1.005  0.00  0.00     0.027 A 
ATOM      5  C5  DEN d   1      -2.692  -0.963   0.143  0.00  0.00    -0.003 A 
ATOM      6  C6  DEN d   1      -2.621  -0.358  -1.084  0.00  0.00     0.001 A 
ATOM      7  C7  DEN d   1      -1.439   0.192  -1.502  0.00  0.00     0.017 A 
ATOM      8  C8  DEN d   1      -0.354   0.163  -0.636  0.00  0.00    -0.094 A 
ATOM      9  C9  DEN d   1      -0.442  -0.465   0.596  0.00  0.00    -0.072 A 
ENDROOT
TORSDOF 0
ENDMDL
