MODEL 1
REMARK minimizedAffinity 0.011631975
REMARK minimizedRMSD -1
REMARK  0 active torsions:
REMARK  status: ('A' for Active; 'I' for Inactive)
ROOT
ATOM      1  C1  DEN d   1       1.782   0.523  -0.358  0.00  0.00     0.130 A 
ATOM      2  C2  DEN d   1       2.640  -0.096   0.648  0.00  0.00    -0.031 A 
ATOM      3  C3  DEN d   1       1.799  -0.971   1.490  0.00  0.00     0.027 A 
ATOM      4  C4  DEN d   1      -0.734  -1.428   1.329  0.00  0.00     0.027 A 
ATOM      5  C5  DEN d   1      -1.889  -1.123   0.643  0.00  0.00    -0.003 A 
ATOM      6  C6  DEN d   1      -1.907  -0.229  -0.395  0.00  0.00     0.001 A 
ATOM      7  C7  DEN d   1      -0.739   0.357  -0.806  0.00  0.00     0.017 A 
ATOM      8  C8  DEN d   1       0.428   0.060  -0.114  0.00  0.00    -0.094 A 
ATOM      9  C9  DEN d   1       0.427  -0.856   0.924  0.00  0.00    -0.072 A 
ENDROOT
TORSDOF 0
ENDMDL
