MODEL 1
REMARK minimizedAffinity -6.21715689
REMARK minimizedRMSD -1
REMARK  0 active torsions:
REMARK  status: ('A' for Active; 'I' for Inactive)
ROOT
ATOM      1  C1  DEN d   1       0.349   0.632  -1.132  0.00  0.00     0.130 A 
ATOM      2  C2  DEN d   1       1.414   0.780  -0.143  0.00  0.00    -0.031 A 
ATOM      3  C3  DEN d   1       0.962   0.146   1.112  0.00  0.00     0.027 A 
ATOM      4  C4  DEN d   1      -1.268  -1.048   1.617  0.00  0.00     0.027 A 
ATOM      5  C5  DEN d   1      -2.489  -1.413   1.094  0.00  0.00    -0.003 A 
ATOM      6  C6  DEN d   1      -2.860  -1.096  -0.186  0.00  0.00     0.001 A 
ATOM      7  C7  DEN d   1      -1.983  -0.431  -1.001  0.00  0.00     0.017 A 
ATOM      8  C8  DEN d   1      -0.753  -0.053  -0.479  0.00  0.00    -0.094 A 
ATOM      9  C9  DEN d   1      -0.391  -0.394   0.813  0.00  0.00    -0.072 A 
ENDROOT
TORSDOF 0
ENDMDL
