MODEL 1
REMARK minimizedAffinity -1.35278416
REMARK minimizedRMSD -1
REMARK  0 active torsions:
REMARK  status: ('A' for Active; 'I' for Inactive)
ROOT
ATOM      1  C1  DEN d   1      -0.064   1.034   1.009  0.00  0.00     0.130 A 
ATOM      2  C2  DEN d   1      -0.068   0.025  -0.046  0.00  0.00    -0.031 A 
ATOM      3  C3  DEN d   1       1.237   0.078  -0.734  0.00  0.00     0.027 A 
ATOM      4  C4  DEN d   1       3.255   1.615  -0.269  0.00  0.00     0.027 A 
ATOM      5  C5  DEN d   1       3.726   2.642   0.520  0.00  0.00    -0.003 A 
ATOM      6  C6  DEN d   1       2.961   3.222   1.497  0.00  0.00     0.001 A 
ATOM      7  C7  DEN d   1       1.698   2.750   1.740  0.00  0.00     0.017 A 
ATOM      8  C8  DEN d   1       1.214   1.720   0.944  0.00  0.00    -0.094 A 
ATOM      9  C9  DEN d   1       2.007   1.139  -0.030  0.00  0.00    -0.072 A 
ENDROOT
TORSDOF 0
ENDMDL
