MODEL 1
REMARK minimizedAffinity 7.60228157
REMARK minimizedRMSD -1
REMARK  1 active torsions:
REMARK  status: ('A' for Active; 'I' for Inactive)
REMARK    1  A    between atoms: N_2  and  C1_3 
ROOT
ATOM      1  C1  UNL d   1       4.486  -4.990  -2.545  0.00  0.00     0.143 A 
ATOM      2  C2  UNL d   1       4.884  -5.999  -1.663  0.00  0.00    -0.057 A 
ATOM      3  C3  UNL d   1       5.567  -5.700  -0.478  0.00  0.00     0.033 A 
ATOM      4  C4  UNL d   1       5.891  -4.384  -0.168  0.00  0.00    -0.042 A 
ATOM      5  C5  UNL d   1       5.527  -3.366  -1.043  0.00  0.00     0.033 A 
ATOM      6  C6  UNL d   1       4.839  -3.670  -2.221  0.00  0.00    -0.057 A 
ENDROOT
BRANCH   1   7
ATOM      7  N   UNL d   1       3.891  -5.231  -3.786  0.00  0.00    -0.732 N 
ATOM      8  C   UNL d   1       4.616  -5.924  -4.829  0.00  0.00     0.284 C 
ATOM      9  H3  UNL d   1       2.916  -5.511  -3.702  0.00  0.00     0.395 HD
ENDBRANCH   1   7
TORSDOF 1
ENDMDL
