MODEL 1
REMARK minimizedAffinity -0.358089119
REMARK minimizedRMSD -1
REMARK  1 active torsions:
REMARK  status: ('A' for Active; 'I' for Inactive)
REMARK    1  A    between atoms: N_2  and  C1_3 
ROOT
ATOM      1  C1  UNL d   1      -5.387   3.096  -3.501  0.00  0.00     0.143 A 
ATOM      2  C2  UNL d   1      -6.000   3.796  -4.547  0.00  0.00    -0.057 A 
ATOM      3  C3  UNL d   1      -5.353   3.979  -5.775  0.00  0.00     0.033 A 
ATOM      4  C4  UNL d   1      -4.065   3.490  -5.970  0.00  0.00    -0.042 A 
ATOM      5  C5  UNL d   1      -3.427   2.813  -4.936  0.00  0.00     0.033 A 
ATOM      6  C6  UNL d   1      -4.081   2.627  -3.714  0.00  0.00    -0.057 A 
ENDROOT
BRANCH   1   7
ATOM      7  N   UNL d   1      -5.939   2.965  -2.225  0.00  0.00    -0.732 N 
ATOM      8  C   UNL d   1      -5.703   1.774  -1.438  0.00  0.00     0.284 C 
ATOM      9  H3  UNL d   1      -5.894   3.831  -1.692  0.00  0.00     0.395 HD
ENDBRANCH   1   7
TORSDOF 1
ENDMDL
