MODEL 1
REMARK minimizedAffinity 6.18904066
REMARK minimizedRMSD -1
REMARK  1 active torsions:
REMARK  status: ('A' for Active; 'I' for Inactive)
REMARK    1  A    between atoms: N_2  and  C1_3 
ROOT
ATOM      1  C1  UNL d   1       0.377   2.210   0.621  0.00  0.00     0.143 A 
ATOM      2  C2  UNL d   1       1.309   2.202   1.665  0.00  0.00    -0.057 A 
ATOM      3  C3  UNL d   1       0.914   2.409   2.992  0.00  0.00     0.033 A 
ATOM      4  C4  UNL d   1      -0.420   2.659   3.296  0.00  0.00    -0.042 A 
ATOM      5  C5  UNL d   1      -1.360   2.697   2.272  0.00  0.00     0.033 A 
ATOM      6  C6  UNL d   1      -0.960   2.483   0.949  0.00  0.00    -0.057 A 
ENDROOT
BRANCH   1   7
ATOM      7  N   UNL d   1       0.721   2.108  -0.729  0.00  0.00    -0.732 N 
ATOM      8  C   UNL d   1       0.552   0.860  -1.441  0.00  0.00     0.284 C 
ATOM      9  H3  UNL d   1       0.449   2.931  -1.263  0.00  0.00     0.395 HD
ENDBRANCH   1   7
TORSDOF 1
ENDMDL
