MODEL 1
REMARK minimizedAffinity 2.90945673
REMARK minimizedRMSD -1
REMARK  1 active torsions:
REMARK  status: ('A' for Active; 'I' for Inactive)
REMARK    1  A    between atoms: N_2  and  C1_3 
ROOT
ATOM      1  C1  UNL d   1      -5.508   2.284  -2.728  0.00  0.00     0.143 A 
ATOM      2  C2  UNL d   1      -5.997   3.544  -2.366  0.00  0.00    -0.057 A 
ATOM      3  C3  UNL d   1      -5.400   4.718  -2.840  0.00  0.00     0.033 A 
ATOM      4  C4  UNL d   1      -4.281   4.653  -3.663  0.00  0.00    -0.042 A 
ATOM      5  C5  UNL d   1      -3.763   3.412  -4.016  0.00  0.00     0.033 A 
ATOM      6  C6  UNL d   1      -4.368   2.243  -3.545  0.00  0.00    -0.057 A 
ENDROOT
BRANCH   1   7
ATOM      7  N   UNL d   1      -5.998   1.082  -2.211  0.00  0.00    -0.732 N 
ATOM      8  C   UNL d   1      -5.999   0.839  -0.785  0.00  0.00     0.284 C 
ATOM      9  H3  UNL d   1      -6.841   0.769  -2.687  0.00  0.00     0.395 HD
ENDBRANCH   1   7
TORSDOF 1
ENDMDL
