MODEL 1
REMARK minimizedAffinity -4.59921885
REMARK minimizedRMSD -1
REMARK  0 active torsions:
REMARK  status: ('A' for Active; 'I' for Inactive)
ROOT
ATOM      1  C2' OXE d   1       0.483   2.964   0.671  0.00  0.00     0.078 C 
ATOM      2  C1' OXE d   1      -0.338   1.283   2.763  0.00  0.00     0.078 C 
ATOM      3  C1  OXE d   1      -0.239   0.688   1.381  0.00  0.00    -0.078 A 
ATOM      4  C2  OXE d   1       0.118   1.529   0.355  0.00  0.00    -0.078 A 
ATOM      5  C3  OXE d   1       0.277   1.020  -0.931  0.00  0.00     0.003 A 
ATOM      6  C4  OXE d   1      -0.072  -0.305  -1.216  0.00  0.00    -0.002 A 
ATOM      7  C5  OXE d   1      -0.476  -1.169  -0.193  0.00  0.00    -0.002 A 
ATOM      8  C6  OXE d   1      -0.524  -0.700   1.115  0.00  0.00     0.003 A 
ENDROOT
TORSDOF 0
ENDMDL
