MODEL 1
REMARK minimizedAffinity -3.84649086
REMARK minimizedRMSD -1
REMARK  0 active torsions:
REMARK  status: ('A' for Active; 'I' for Inactive)
ROOT
ATOM      1  C2' OXE d   1      -1.402   0.765   0.722  0.00  0.00     0.078 C 
ATOM      2  C1' OXE d   1       0.928   2.330   0.682  0.00  0.00     0.078 C 
ATOM      3  C1  OXE d   1       1.027   0.908   0.187  0.00  0.00    -0.078 A 
ATOM      4  C2  OXE d   1      -0.108   0.136   0.254  0.00  0.00    -0.078 A 
ATOM      5  C3  OXE d   1      -0.086  -1.166  -0.239  0.00  0.00     0.003 A 
ATOM      6  C4  OXE d   1       1.118  -1.744  -0.661  0.00  0.00    -0.002 A 
ATOM      7  C5  OXE d   1       2.293  -0.986  -0.700  0.00  0.00    -0.002 A 
ATOM      8  C6  OXE d   1       2.256   0.351  -0.320  0.00  0.00     0.003 A 
ENDROOT
TORSDOF 0
ENDMDL
