MODEL 1
REMARK minimizedAffinity -4.41985893
REMARK minimizedRMSD -1
REMARK  0 active torsions:
REMARK  status: ('A' for Active; 'I' for Inactive)
ROOT
ATOM      1  C2' OXE d   1      -1.574   0.495   1.922  0.00  0.00     0.078 C 
ATOM      2  C1' OXE d   1       0.757   2.030   1.615  0.00  0.00     0.078 C 
ATOM      3  C1  OXE d   1       0.653   0.744   0.834  0.00  0.00    -0.078 A 
ATOM      4  C2  OXE d   1      -0.470  -0.024   1.026  0.00  0.00    -0.078 A 
ATOM      5  C3  OXE d   1      -0.641  -1.193   0.290  0.00  0.00     0.003 A 
ATOM      6  C4  OXE d   1       0.389  -1.672  -0.529  0.00  0.00    -0.002 A 
ATOM      7  C5  OXE d   1       1.559  -0.925  -0.708  0.00  0.00    -0.002 A 
ATOM      8  C6  OXE d   1       1.688   0.303  -0.069  0.00  0.00     0.003 A 
ENDROOT
TORSDOF 0
ENDMDL
