MODEL 1
REMARK minimizedAffinity -3.94740033
REMARK minimizedRMSD -1
REMARK  0 active torsions:
REMARK  status: ('A' for Active; 'I' for Inactive)
ROOT
ATOM      1  C2' OXE d   1       1.368   2.616   1.517  0.00  0.00     0.078 C 
ATOM      2  C1' OXE d   1      -0.203   1.248   3.399  0.00  0.00     0.078 C 
ATOM      3  C1  OXE d   1      -0.105   0.668   2.010  0.00  0.00    -0.078 A 
ATOM      4  C2  OXE d   1       0.628   1.369   1.083  0.00  0.00    -0.078 A 
ATOM      5  C3  OXE d   1       0.796   0.851  -0.198  0.00  0.00     0.003 A 
ATOM      6  C4  OXE d   1       0.099  -0.297  -0.595  0.00  0.00    -0.002 A 
ATOM      7  C5  OXE d   1      -0.684  -1.005   0.322  0.00  0.00    -0.002 A 
ATOM      8  C6  OXE d   1      -0.763  -0.560   1.637  0.00  0.00     0.003 A 
ENDROOT
TORSDOF 0
ENDMDL
