MODEL 1
REMARK minimizedAffinity -1.48571765
REMARK minimizedRMSD -1
REMARK  0 active torsions:
REMARK  status: ('A' for Active; 'I' for Inactive)
ROOT
ATOM      1  C2' OXE d   1      -0.039  -1.267  -1.022  0.00  0.00     0.078 C 
ATOM      2  C1' OXE d   1       2.423   0.064  -0.815  0.00  0.00     0.078 C 
ATOM      3  C1  OXE d   1       1.315   0.486   0.117  0.00  0.00    -0.078 A 
ATOM      4  C2  OXE d   1       0.099  -0.139  -0.023  0.00  0.00    -0.078 A 
ATOM      5  C3  OXE d   1      -0.941   0.174   0.848  0.00  0.00     0.003 A 
ATOM      6  C4  OXE d   1      -0.808   1.225   1.762  0.00  0.00    -0.002 A 
ATOM      7  C5  OXE d   1       0.410   1.902   1.894  0.00  0.00    -0.002 A 
ATOM      8  C6  OXE d   1       1.492   1.516   1.110  0.00  0.00     0.003 A 
ENDROOT
TORSDOF 0
ENDMDL
