MODEL 1
REMARK minimizedAffinity -2.18671274
REMARK minimizedRMSD -1
REMARK  0 active torsions:
REMARK  status: ('A' for Active; 'I' for Inactive)
ROOT
ATOM      1  C2' OXE d   1      -3.149  -2.408  -3.771  0.00  0.00     0.078 C 
ATOM      2  C1' OXE d   1      -3.491  -3.263  -1.119  0.00  0.00     0.078 C 
ATOM      3  C1  OXE d   1      -2.308  -2.380  -1.426  0.00  0.00    -0.078 A 
ATOM      4  C2  OXE d   1      -2.122  -2.004  -2.735  0.00  0.00    -0.078 A 
ATOM      5  C3  OXE d   1      -1.078  -1.145  -3.064  0.00  0.00     0.003 A 
ATOM      6  C4  OXE d   1      -0.126  -0.785  -2.102  0.00  0.00    -0.002 A 
ATOM      7  C5  OXE d   1      -0.275  -1.189  -0.771  0.00  0.00    -0.002 A 
ATOM      8  C6  OXE d   1      -1.381  -1.950  -0.409  0.00  0.00     0.003 A 
ENDROOT
TORSDOF 0
ENDMDL
