MODEL 1
REMARK minimizedAffinity 0.243680328
REMARK minimizedRMSD -1
REMARK  0 active torsions:
REMARK  status: ('A' for Active; 'I' for Inactive)
ROOT
ATOM      1  C2' OXE d   1       2.947   0.609  -0.929  0.00  0.00     0.078 C 
ATOM      2  C1' OXE d   1       1.232   2.088   0.731  0.00  0.00     0.078 C 
ATOM      3  C1  OXE d   1       0.739   0.759   0.215  0.00  0.00    -0.078 A 
ATOM      4  C2  OXE d   1       1.566   0.064  -0.634  0.00  0.00    -0.078 A 
ATOM      5  C3  OXE d   1       1.182  -1.192  -1.094  0.00  0.00     0.003 A 
ATOM      6  C4  OXE d   1      -0.101  -1.685  -0.825  0.00  0.00    -0.002 A 
ATOM      7  C5  OXE d   1      -0.974  -0.974   0.005  0.00  0.00    -0.002 A 
ATOM      8  C6  OXE d   1      -0.554   0.227   0.567  0.00  0.00     0.003 A 
ENDROOT
TORSDOF 0
ENDMDL
