MODEL 1
REMARK minimizedAffinity -5.57300377
REMARK minimizedRMSD -1
REMARK  0 active torsions:
REMARK  status: ('A' for Active; 'I' for Inactive)
ROOT
ATOM      1  C2' OXE d   1      -0.673  -0.763  -0.143  0.00  0.00     0.078 C 
ATOM      2  C1' OXE d   1      -1.599   0.883   1.934  0.00  0.00     0.078 C 
ATOM      3  C1  OXE d   1      -0.296   1.254   1.270  0.00  0.00    -0.078 A 
ATOM      4  C2  OXE d   1       0.173   0.416   0.286  0.00  0.00    -0.078 A 
ATOM      5  C3  OXE d   1       1.341   0.741  -0.397  0.00  0.00     0.003 A 
ATOM      6  C4  OXE d   1       2.123   1.828   0.013  0.00  0.00    -0.002 A 
ATOM      7  C5  OXE d   1       1.683   2.672   1.039  0.00  0.00    -0.002 A 
ATOM      8  C6  OXE d   1       0.458   2.423   1.648  0.00  0.00     0.003 A 
ENDROOT
TORSDOF 0
ENDMDL
