MODEL 1
REMARK minimizedAffinity -3.71009898
REMARK minimizedRMSD -1
REMARK  0 active torsions:
REMARK  status: ('A' for Active; 'I' for Inactive)
ROOT
ATOM      1  C2' OXE d   1       0.951   1.887   1.229  0.00  0.00     0.078 C 
ATOM      2  C1' OXE d   1       2.311   0.455  -0.766  0.00  0.00     0.078 C 
ATOM      3  C1  OXE d   1       1.094  -0.185  -0.146  0.00  0.00    -0.078 A 
ATOM      4  C2  OXE d   1       0.462   0.503   0.862  0.00  0.00    -0.078 A 
ATOM      5  C3  OXE d   1      -0.697  -0.017   1.430  0.00  0.00     0.003 A 
ATOM      6  C4  OXE d   1      -1.137  -1.303   1.092  0.00  0.00    -0.002 A 
ATOM      7  C5  OXE d   1      -0.485  -2.037   0.096  0.00  0.00    -0.002 A 
ATOM      8  C6  OXE d   1       0.604  -1.476  -0.562  0.00  0.00     0.003 A 
ENDROOT
TORSDOF 0
ENDMDL
