MODEL 1
REMARK minimizedAffinity -3.16887403
REMARK minimizedRMSD -1
REMARK  0 active torsions:
REMARK  status: ('A' for Active; 'I' for Inactive)
ROOT
ATOM      1  C2' OXE d   1       0.318   1.125   2.724  0.00  0.00     0.078 C 
ATOM      2  C1' OXE d   1       1.361   2.712   0.656  0.00  0.00     0.078 C 
ATOM      3  C1  OXE d   1       0.716   1.402   0.280  0.00  0.00    -0.078 A 
ATOM      4  C2  OXE d   1       0.250   0.610   1.302  0.00  0.00    -0.078 A 
ATOM      5  C3  OXE d   1      -0.404  -0.583   1.007  0.00  0.00     0.003 A 
ATOM      6  C4  OXE d   1      -0.454  -1.057  -0.310  0.00  0.00    -0.002 A 
ATOM      7  C5  OXE d   1       0.050  -0.285  -1.362  0.00  0.00    -0.002 A 
ATOM      8  C6  OXE d   1       0.599   0.964  -1.089  0.00  0.00     0.003 A 
ENDROOT
TORSDOF 0
ENDMDL
