MODEL 1
REMARK minimizedAffinity 0.69673264
REMARK minimizedRMSD -1
REMARK  0 active torsions:
REMARK  status: ('A' for Active; 'I' for Inactive)
ROOT
ATOM      1  C2' OXE d   1      -3.006  -2.954  -0.606  0.00  0.00     0.078 C 
ATOM      2  C1' OXE d   1      -0.410  -1.913  -0.843  0.00  0.00     0.078 C 
ATOM      3  C1  OXE d   1      -1.364  -1.691  -1.990  0.00  0.00    -0.078 A 
ATOM      4  C2  OXE d   1      -2.618  -2.244  -1.885  0.00  0.00    -0.078 A 
ATOM      5  C3  OXE d   1      -3.555  -2.022  -2.890  0.00  0.00     0.003 A 
ATOM      6  C4  OXE d   1      -3.184  -1.373  -4.074  0.00  0.00    -0.002 A 
ATOM      7  C5  OXE d   1      -1.900  -0.837  -4.218  0.00  0.00    -0.002 A 
ATOM      8  C6  OXE d   1      -0.994  -0.949  -3.170  0.00  0.00     0.003 A 
ENDROOT
TORSDOF 0
ENDMDL
