MODEL 1
REMARK minimizedAffinity -4.92570353
REMARK minimizedRMSD -1
REMARK  0 active torsions:
REMARK  status: ('A' for Active; 'I' for Inactive)
ROOT
ATOM      1  C2' OXE d   1       0.277  -1.013  -0.598  0.00  0.00     0.078 C 
ATOM      2  C1' OXE d   1       2.618   0.536  -0.661  0.00  0.00     0.078 C 
ATOM      3  C1  OXE d   1       1.464   1.039   0.169  0.00  0.00    -0.078 A 
ATOM      4  C2  OXE d   1       0.306   0.298   0.157  0.00  0.00    -0.078 A 
ATOM      5  C3  OXE d   1      -0.770   0.688   0.949  0.00  0.00     0.003 A 
ATOM      6  C4  OXE d   1      -0.739   1.908   1.637  0.00  0.00    -0.002 A 
ATOM      7  C5  OXE d   1       0.416   2.697   1.630  0.00  0.00    -0.002 A 
ATOM      8  C6  OXE d   1       1.538   2.257   0.938  0.00  0.00     0.003 A 
ENDROOT
TORSDOF 0
ENDMDL
