MODEL 1
REMARK minimizedAffinity -5.67489862
REMARK minimizedRMSD -1
REMARK  0 active torsions:
REMARK  status: ('A' for Active; 'I' for Inactive)
ROOT
ATOM      1  C2' OXE d   1       1.115  -1.225  -0.389  0.00  0.00     0.078 C 
ATOM      2  C1' OXE d   1       3.158   0.693  -0.223  0.00  0.00     0.078 C 
ATOM      3  C1  OXE d   1       1.820   1.036   0.384  0.00  0.00    -0.078 A 
ATOM      4  C2  OXE d   1       0.813   0.110   0.257  0.00  0.00    -0.078 A 
ATOM      5  C3  OXE d   1      -0.424   0.353   0.847  0.00  0.00     0.003 A 
ATOM      6  C4  OXE d   1      -0.699   1.594   1.435  0.00  0.00    -0.002 A 
ATOM      7  C5  OXE d   1       0.302   2.566   1.540  0.00  0.00    -0.002 A 
ATOM      8  C6  OXE d   1       1.576   2.287   1.058  0.00  0.00     0.003 A 
ENDROOT
TORSDOF 0
ENDMDL
