MODEL 1
REMARK minimizedAffinity -3.91385555
REMARK minimizedRMSD -1
REMARK  0 active torsions:
REMARK  status: ('A' for Active; 'I' for Inactive)
ROOT
ATOM      1  C2' OXE d   1      -1.500  -0.162   1.515  0.00  0.00     0.078 C 
ATOM      2  C1' OXE d   1      -0.245  -1.168  -0.785  0.00  0.00     0.078 C 
ATOM      3  C1  OXE d   1       0.274   0.126  -0.210  0.00  0.00    -0.078 A 
ATOM      4  C2  OXE d   1      -0.376   0.635   0.888  0.00  0.00    -0.078 A 
ATOM      5  C3  OXE d   1       0.096   1.798   1.491  0.00  0.00     0.003 A 
ATOM      6  C4  OXE d   1       1.129   2.534   0.899  0.00  0.00    -0.002 A 
ATOM      7  C5  OXE d   1       1.779   2.054  -0.243  0.00  0.00    -0.002 A 
ATOM      8  C6  OXE d   1       1.392   0.832  -0.784  0.00  0.00     0.003 A 
ENDROOT
TORSDOF 0
ENDMDL
