MODEL 1
REMARK minimizedAffinity -2.48361588
REMARK minimizedRMSD -1
REMARK  0 active torsions:
REMARK  status: ('A' for Active; 'I' for Inactive)
ROOT
ATOM      1  C2' OXE d   1      -0.002   1.384   1.891  0.00  0.00     0.078 C 
ATOM      2  C1' OXE d   1      -0.837   2.399  -0.589  0.00  0.00     0.078 C 
ATOM      3  C1  OXE d   1      -0.823   0.901  -0.411  0.00  0.00    -0.078 A 
ATOM      4  C2  OXE d   1      -0.368   0.412   0.791  0.00  0.00    -0.078 A 
ATOM      5  C3  OXE d   1      -0.386  -0.960   1.027  0.00  0.00     0.003 A 
ATOM      6  C4  OXE d   1      -0.717  -1.852   0.000  0.00  0.00    -0.002 A 
ATOM      7  C5  OXE d   1      -1.144  -1.376  -1.244  0.00  0.00    -0.002 A 
ATOM      8  C6  OXE d   1      -1.243  -0.005  -1.451  0.00  0.00     0.003 A 
ENDROOT
TORSDOF 0
ENDMDL
