MODEL 1
REMARK minimizedAffinity -4.73913765
REMARK minimizedRMSD -1
REMARK  0 active torsions:
REMARK  status: ('A' for Active; 'I' for Inactive)
ROOT
ATOM      1  C2' OXE d   1      -1.946   0.416   2.147  0.00  0.00     0.078 C 
ATOM      2  C1' OXE d   1      -1.211  -0.847  -0.249  0.00  0.00     0.078 C 
ATOM      3  C1  OXE d   1      -0.355   0.296   0.234  0.00  0.00    -0.078 A 
ATOM      4  C2  OXE d   1      -0.748   0.939   1.384  0.00  0.00    -0.078 A 
ATOM      5  C3  OXE d   1       0.037   1.964   1.903  0.00  0.00     0.003 A 
ATOM      6  C4  OXE d   1       1.137   2.448   1.185  0.00  0.00    -0.002 A 
ATOM      7  C5  OXE d   1       1.532   1.833  -0.008  0.00  0.00    -0.002 A 
ATOM      8  C6  OXE d   1       0.824   0.731  -0.474  0.00  0.00     0.003 A 
ENDROOT
TORSDOF 0
ENDMDL
