MODEL 1
REMARK minimizedAffinity -4.59737492
REMARK minimizedRMSD -1
REMARK  0 active torsions:
REMARK  status: ('A' for Active; 'I' for Inactive)
ROOT
ATOM      1  C2' OXE d   1      -1.489   0.309   1.997  0.00  0.00     0.078 C 
ATOM      2  C1' OXE d   1      -0.464  -0.943  -0.298  0.00  0.00     0.078 C 
ATOM      3  C1  OXE d   1       0.302   0.227   0.267  0.00  0.00    -0.078 A 
ATOM      4  C2  OXE d   1      -0.231   0.863   1.363  0.00  0.00    -0.078 A 
ATOM      5  C3  OXE d   1       0.464   1.913   1.956  0.00  0.00     0.003 A 
ATOM      6  C4  OXE d   1       1.621   2.425   1.358  0.00  0.00    -0.002 A 
ATOM      7  C5  OXE d   1       2.160   1.817   0.219  0.00  0.00    -0.002 A 
ATOM      8  C6  OXE d   1       1.537   0.693  -0.313  0.00  0.00     0.003 A 
ENDROOT
TORSDOF 0
ENDMDL
