MODEL 1
REMARK minimizedAffinity -0.848573089
REMARK minimizedRMSD -1
REMARK  0 active torsions:
REMARK  status: ('A' for Active; 'I' for Inactive)
ROOT
ATOM      1  C   UNL d   1       4.382  -6.000  -5.953  0.00  0.00     0.172 C 
ATOM      2  N   UNL d   1       4.800  -5.634  -4.620  0.00  0.00    -0.070 N 
ATOM      3  C1  UNL d   1       5.978  -5.998  -4.025  0.00  0.00    -0.004 A 
ATOM      4  C2  UNL d   1       5.999  -5.450  -2.760  0.00  0.00    -0.047 A 
ATOM      5  C3  UNL d   1       4.791  -4.734  -2.589  0.00  0.00    -0.047 A 
ATOM      6  C4  UNL d   1       4.067  -4.864  -3.756  0.00  0.00    -0.004 A 
ENDROOT
TORSDOF 0
ENDMDL
