MODEL 1
REMARK minimizedAffinity -1.63266087
REMARK minimizedRMSD -1
REMARK  0 active torsions:
REMARK  status: ('A' for Active; 'I' for Inactive)
ROOT
ATOM      1  C   UNL d   1      -2.458   3.090  -5.138  0.00  0.00     0.172 C 
ATOM      2  N   UNL d   1      -3.897   3.000  -5.214  0.00  0.00    -0.070 N 
ATOM      3  C1  UNL d   1      -4.680   2.115  -4.521  0.00  0.00    -0.004 A 
ATOM      4  C2  UNL d   1      -5.992   2.350  -4.869  0.00  0.00    -0.047 A 
ATOM      5  C3  UNL d   1      -5.999   3.412  -5.804  0.00  0.00    -0.047 A 
ATOM      6  C4  UNL d   1      -4.689   3.795  -6.000  0.00  0.00    -0.004 A 
ENDROOT
TORSDOF 0
ENDMDL
