MODEL 1
REMARK minimizedAffinity 2.41231275
REMARK minimizedRMSD -1
REMARK  0 active torsions:
REMARK  status: ('A' for Active; 'I' for Inactive)
ROOT
ATOM      1  C   UNL d   1      -0.524   2.545   2.252  0.00  0.00     0.172 C 
ATOM      2  N   UNL d   1       0.876   2.218   2.121  0.00  0.00    -0.070 N 
ATOM      3  C1  UNL d   1       1.529   1.961   0.945  0.00  0.00    -0.004 A 
ATOM      4  C2  UNL d   1       2.848   1.693   1.244  0.00  0.00    -0.047 A 
ATOM      5  C3  UNL d   1       2.992   1.793   2.649  0.00  0.00    -0.047 A 
ATOM      6  C4  UNL d   1       1.756   2.119   3.166  0.00  0.00    -0.004 A 
ENDROOT
TORSDOF 0
ENDMDL
