MODEL 1
REMARK minimizedAffinity 5.2471838
REMARK minimizedRMSD -1
REMARK  0 active torsions:
REMARK  status: ('A' for Active; 'I' for Inactive)
ROOT
ATOM      1  C   UNL d   1       4.537  -5.986  -5.956  0.00  0.00     0.172 C 
ATOM      2  N   UNL d   1       3.232  -5.662  -5.429  0.00  0.00    -0.070 N 
ATOM      3  C1  UNL d   1       2.034  -6.000  -6.000  0.00  0.00    -0.004 A 
ATOM      4  C2  UNL d   1       1.029  -5.509  -5.194  0.00  0.00    -0.047 A 
ATOM      5  C3  UNL d   1       1.645  -4.853  -4.102  0.00  0.00    -0.047 A 
ATOM      6  C4  UNL d   1       3.009  -4.962  -4.273  0.00  0.00    -0.004 A 
ENDROOT
TORSDOF 0
ENDMDL
