MODEL 1
REMARK minimizedAffinity 7.12010765
REMARK minimizedRMSD -1
REMARK  0 active torsions:
REMARK  status: ('A' for Active; 'I' for Inactive)
ROOT
ATOM      1  C   UNL d   1       2.800   1.734   1.961  0.00  0.00     0.172 C 
ATOM      2  N   UNL d   1       1.543   2.129   1.371  0.00  0.00    -0.070 N 
ATOM      3  C1  UNL d   1       0.304   1.709   1.776  0.00  0.00    -0.004 A 
ATOM      4  C2  UNL d   1      -0.632   2.311   0.963  0.00  0.00    -0.047 A 
ATOM      5  C3  UNL d   1       0.069   3.119   0.037  0.00  0.00    -0.047 A 
ATOM      6  C4  UNL d   1       1.413   2.988   0.312  0.00  0.00    -0.004 A 
ENDROOT
TORSDOF 0
ENDMDL
