MODEL 1
REMARK minimizedAffinity 1.1789155
REMARK minimizedRMSD -1
REMARK  0 active torsions:
REMARK  status: ('A' for Active; 'I' for Inactive)
ROOT
ATOM      1  C   UNL d   1       6.000   5.125  -5.998  0.00  0.00     0.172 C 
ATOM      2  N   UNL d   1       5.068   4.184  -5.423  0.00  0.00    -0.070 N 
ATOM      3  C1  UNL d   1       5.225   3.535  -4.227  0.00  0.00    -0.004 A 
ATOM      4  C2  UNL d   1       4.123   2.728  -4.037  0.00  0.00    -0.047 A 
ATOM      5  C3  UNL d   1       3.276   2.898  -5.157  0.00  0.00    -0.047 A 
ATOM      6  C4  UNL d   1       3.885   3.804  -6.000  0.00  0.00    -0.004 A 
ENDROOT
TORSDOF 0
ENDMDL
