MODEL 1
REMARK minimizedAffinity 4.09726286
REMARK minimizedRMSD -1
REMARK  0 active torsions:
REMARK  status: ('A' for Active; 'I' for Inactive)
ROOT
ATOM      1  C   UNL d   1       2.343  -5.943  -5.978  0.00  0.00     0.172 C 
ATOM      2  N   UNL d   1       3.645  -5.359  -5.759  0.00  0.00    -0.070 N 
ATOM      3  C1  UNL d   1       3.886  -4.096  -5.289  0.00  0.00    -0.004 A 
ATOM      4  C2  UNL d   1       5.251  -3.923  -5.222  0.00  0.00    -0.047 A 
ATOM      5  C3  UNL d   1       5.853  -5.124  -5.669  0.00  0.00    -0.047 A 
ATOM      6  C4  UNL d   1       4.836  -5.996  -5.995  0.00  0.00    -0.004 A 
ENDROOT
TORSDOF 0
ENDMDL
