MODEL 1
REMARK minimizedAffinity -0.0809094012
REMARK minimizedRMSD -1
REMARK  0 active torsions:
REMARK  status: ('A' for Active; 'I' for Inactive)
ROOT
ATOM      1  C   UNL d   1       5.812  -4.943  -4.873  0.00  0.00     0.172 C 
ATOM      2  N   UNL d   1       4.386  -5.171  -4.913  0.00  0.00    -0.070 N 
ATOM      3  C1  UNL d   1       3.678  -5.611  -6.000  0.00  0.00    -0.004 A 
ATOM      4  C2  UNL d   1       2.353  -5.700  -5.632  0.00  0.00    -0.047 A 
ATOM      5  C3  UNL d   1       2.261  -5.298  -4.279  0.00  0.00    -0.047 A 
ATOM      6  C4  UNL d   1       3.534  -4.977  -3.858  0.00  0.00    -0.004 A 
ENDROOT
TORSDOF 0
ENDMDL
