MODEL 1
REMARK minimizedAffinity -0.437468916
REMARK minimizedRMSD -1
REMARK  0 active torsions:
REMARK  status: ('A' for Active; 'I' for Inactive)
ROOT
ATOM      1  C   UNL d   1       2.459  -5.696  -5.269  0.00  0.00     0.172 C 
ATOM      2  N   UNL d   1       3.830  -5.264  -5.410  0.00  0.00    -0.070 N 
ATOM      3  C1  UNL d   1       4.338  -4.067  -4.981  0.00  0.00    -0.004 A 
ATOM      4  C2  UNL d   1       5.678  -4.038  -5.301  0.00  0.00    -0.047 A 
ATOM      5  C3  UNL d   1       5.986  -5.260  -5.945  0.00  0.00    -0.047 A 
ATOM      6  C4  UNL d   1       4.823  -6.000  -6.000  0.00  0.00    -0.004 A 
ENDROOT
TORSDOF 0
ENDMDL
