MODEL 1
REMARK minimizedAffinity -2.16507411
REMARK minimizedRMSD -1
REMARK  0 active torsions:
REMARK  status: ('A' for Active; 'I' for Inactive)
ROOT
ATOM      1  C   UNL d   1       5.853  -5.193  -4.877  0.00  0.00     0.172 C 
ATOM      2  N   UNL d   1       4.422  -5.358  -4.975  0.00  0.00    -0.070 N 
ATOM      3  C1  UNL d   1       3.502  -4.904  -4.068  0.00  0.00    -0.004 A 
ATOM      4  C2  UNL d   1       2.250  -5.260  -4.521  0.00  0.00    -0.047 A 
ATOM      5  C3  UNL d   1       2.424  -5.953  -5.743  0.00  0.00    -0.047 A 
ATOM      6  C4  UNL d   1       3.778  -5.999  -6.000  0.00  0.00    -0.004 A 
ENDROOT
TORSDOF 0
ENDMDL
