MODEL 1
REMARK minimizedAffinity 4.15098381
REMARK minimizedRMSD -1
REMARK  0 active torsions:
REMARK  status: ('A' for Active; 'I' for Inactive)
ROOT
ATOM      1  C   UNL d   1       2.250  -6.000  -5.857  0.00  0.00     0.172 C 
ATOM      2  N   UNL d   1       3.538  -5.348  -5.867  0.00  0.00    -0.070 N 
ATOM      3  C1  UNL d   1       3.752  -4.000  -5.749  0.00  0.00    -0.004 A 
ATOM      4  C2  UNL d   1       5.111  -3.782  -5.805  0.00  0.00    -0.047 A 
ATOM      5  C3  UNL d   1       5.736  -5.042  -5.963  0.00  0.00    -0.047 A 
ATOM      6  C4  UNL d   1       4.739  -5.993  -5.998  0.00  0.00    -0.004 A 
ENDROOT
TORSDOF 0
ENDMDL
