MODEL 1
REMARK minimizedAffinity 7.62625408
REMARK minimizedRMSD -1
REMARK  0 active torsions:
REMARK  status: ('A' for Active; 'I' for Inactive)
ROOT
ATOM      1  C   UNL d   1      -0.107   2.193   1.421  0.00  0.00     0.172 C 
ATOM      2  N   UNL d   1       1.332   2.113   1.339  0.00  0.00    -0.070 N 
ATOM      3  C1  UNL d   1       2.192   2.090   2.404  0.00  0.00    -0.004 A 
ATOM      4  C2  UNL d   1       3.476   2.009   1.908  0.00  0.00    -0.047 A 
ATOM      5  C3  UNL d   1       3.383   1.982   0.496  0.00  0.00    -0.047 A 
ATOM      6  C4  UNL d   1       2.045   2.048   0.171  0.00  0.00    -0.004 A 
ENDROOT
TORSDOF 0
ENDMDL
