MODEL 1
REMARK minimizedAffinity 7.3785491
REMARK minimizedRMSD -1
REMARK  0 active torsions:
REMARK  status: ('A' for Active; 'I' for Inactive)
ROOT
ATOM      1  C   UNL d   1       5.400  -5.705  -5.563  0.00  0.00     0.172 C 
ATOM      2  N   UNL d   1       4.015  -5.712  -5.157  0.00  0.00    -0.070 N 
ATOM      3  C1  UNL d   1       2.947  -5.997  -5.967  0.00  0.00    -0.004 A 
ATOM      4  C2  UNL d   1       1.802  -5.898  -5.206  0.00  0.00    -0.047 A 
ATOM      5  C3  UNL d   1       2.195  -5.541  -3.894  0.00  0.00    -0.047 A 
ATOM      6  C4  UNL d   1       3.570  -5.432  -3.892  0.00  0.00    -0.004 A 
ENDROOT
TORSDOF 0
ENDMDL
