MODEL 1
REMARK minimizedAffinity 6.66122103
REMARK minimizedRMSD -1
REMARK  0 active torsions:
REMARK  status: ('A' for Active; 'I' for Inactive)
ROOT
ATOM      1  C   UNL d   1       5.366   3.135  -0.071  0.00  0.00     0.172 C 
ATOM      2  N   UNL d   1       4.207   2.590   0.597  0.00  0.00    -0.070 N 
ATOM      3  C1  UNL d   1       3.115   2.041  -0.020  0.00  0.00    -0.004 A 
ATOM      4  C2  UNL d   1       2.233   1.640   0.961  0.00  0.00    -0.047 A 
ATOM      5  C3  UNL d   1       2.816   1.960   2.210  0.00  0.00    -0.047 A 
ATOM      6  C4  UNL d   1       4.038   2.547   1.956  0.00  0.00    -0.004 A 
ENDROOT
TORSDOF 0
ENDMDL
