MODEL 1
REMARK minimizedAffinity 3.65045619
REMARK minimizedRMSD -1
REMARK  0 active torsions:
REMARK  status: ('A' for Active; 'I' for Inactive)
ROOT
ATOM      1  C   UNL d   1      -2.415  -2.698   1.129  0.00  0.00     0.172 C 
ATOM      2  N   UNL d   1      -2.189  -3.834   0.266  0.00  0.00    -0.070 N 
ATOM      3  C1  UNL d   1      -1.973  -3.779  -1.085  0.00  0.00    -0.004 A 
ATOM      4  C2  UNL d   1      -1.801  -5.070  -1.537  0.00  0.00    -0.047 A 
ATOM      5  C3  UNL d   1      -1.919  -5.930  -0.420  0.00  0.00    -0.047 A 
ATOM      6  C4  UNL d   1      -2.159  -5.138   0.684  0.00  0.00    -0.004 A 
ENDROOT
TORSDOF 0
ENDMDL
