MODEL 1
REMARK minimizedAffinity 10.7937336
REMARK minimizedRMSD -1
REMARK  0 active torsions:
REMARK  status: ('A' for Active; 'I' for Inactive)
ROOT
ATOM      1  C   UNL d   1       3.475   1.881   2.654  0.00  0.00     0.172 C 
ATOM      2  N   UNL d   1       2.305   2.075   1.829  0.00  0.00    -0.070 N 
ATOM      3  C1  UNL d   1       2.275   2.728   0.626  0.00  0.00    -0.004 A 
ATOM      4  C2  UNL d   1       0.978   2.696   0.161  0.00  0.00    -0.047 A 
ATOM      5  C3  UNL d   1       0.202   2.000   1.117  0.00  0.00    -0.047 A 
ATOM      6  C4  UNL d   1       1.048   1.627   2.140  0.00  0.00    -0.004 A 
ENDROOT
TORSDOF 0
ENDMDL
