MODEL 1
REMARK minimizedAffinity -0.636877716
REMARK minimizedRMSD -1
REMARK  0 active torsions:
REMARK  status: ('A' for Active; 'I' for Inactive)
ROOT
ATOM      1  C   UNL d   1       1.520   0.392  -0.392  0.00  0.00     0.172 C 
ATOM      2  N   UNL d   1       1.289   1.216   0.771  0.00  0.00    -0.070 N 
ATOM      3  C1  UNL d   1       2.259   1.760   1.570  0.00  0.00    -0.004 A 
ATOM      4  C2  UNL d   1       1.632   2.476   2.567  0.00  0.00    -0.047 A 
ATOM      5  C3  UNL d   1       0.237   2.359   2.359  0.00  0.00    -0.047 A 
ATOM      6  C4  UNL d   1       0.053   1.574   1.241  0.00  0.00    -0.004 A 
ENDROOT
TORSDOF 0
ENDMDL
