MODEL 1
REMARK minimizedAffinity 5.55719328
REMARK minimizedRMSD -1
REMARK  2 active torsions:
REMARK  status: ('A' for Active; 'I' for Inactive)
REMARK    1  A    between atoms: C1_2  and  C2_3 
REMARK    2  A    between atoms: C2_3  and  C3_4 
ROOT
ATOM      1  C3  UNL d   1      -1.385  -0.346   1.392  0.00  0.00    -0.075 A 
ATOM      2  C4  UNL d   1      -0.429   0.538   1.913  0.00  0.00     0.002 A 
ATOM      3  C5  UNL d   1       0.097   0.339   3.190  0.00  0.00     0.002 A 
ATOM      4  C6  UNL d   1      -0.333  -0.737   3.964  0.00  0.00    -0.004 A 
ATOM      5  C7  UNL d   1      -1.294  -1.611   3.463  0.00  0.00     0.002 A 
ATOM      6  C8  UNL d   1      -1.819  -1.417   2.184  0.00  0.00     0.002 A 
ENDROOT
BRANCH   1   7
ATOM      7  C2  UNL d   1      -1.936  -0.153  -0.001  0.00  0.00     0.056 C 
BRANCH   7   8
ATOM      8  C1  UNL d   1      -0.878   0.219  -1.045  0.00  0.00     0.007 C 
ATOM      9  C   UNL d   1      -0.513  -0.935  -1.968  0.00  0.00     0.009 C 
ENDBRANCH   7   8
ENDBRANCH   1   7
TORSDOF 2
ENDMDL
