MODEL 1
REMARK minimizedAffinity 0.522702456
REMARK minimizedRMSD -1
REMARK  2 active torsions:
REMARK  status: ('A' for Active; 'I' for Inactive)
REMARK    1  A    between atoms: C1_2  and  C2_3 
REMARK    2  A    between atoms: C2_3  and  C3_4 
ROOT
ATOM      1  C3  UNL d   1       0.785  -0.435   2.809  0.00  0.00    -0.075 A 
ATOM      2  C4  UNL d   1       0.191   0.541   1.995  0.00  0.00     0.002 A 
ATOM      3  C5  UNL d   1      -1.165   0.468   1.677  0.00  0.00     0.002 A 
ATOM      4  C6  UNL d   1      -1.942  -0.583   2.159  0.00  0.00    -0.004 A 
ATOM      5  C7  UNL d   1      -1.359  -1.567   2.955  0.00  0.00     0.002 A 
ATOM      6  C8  UNL d   1      -0.003  -1.495   3.279  0.00  0.00     0.002 A 
ENDROOT
BRANCH   1   7
ATOM      7  C2  UNL d   1       2.245  -0.347   3.181  0.00  0.00     0.056 C 
BRANCH   7   8
ATOM      8  C1  UNL d   1       3.193  -0.294   1.978  0.00  0.00     0.007 C 
ATOM      9  C   UNL d   1       4.663  -0.244   2.374  0.00  0.00     0.009 C 
ENDBRANCH   7   8
ENDBRANCH   1   7
TORSDOF 2
ENDMDL
