MODEL 1
REMARK minimizedAffinity -3.36768365
REMARK minimizedRMSD -1
REMARK  2 active torsions:
REMARK  status: ('A' for Active; 'I' for Inactive)
REMARK    1  A    between atoms: C1_2  and  C2_3 
REMARK    2  A    between atoms: C2_3  and  C3_4 
ROOT
ATOM      1  C3  UNL d   1       5.978  -3.753   3.514  0.00  0.00    -0.075 A 
ATOM      2  C4  UNL d   1       5.994  -3.672   4.914  0.00  0.00     0.002 A 
ATOM      3  C5  UNL d   1       5.998  -2.431   5.551  0.00  0.00     0.002 A 
ATOM      4  C6  UNL d   1       5.998  -1.258   4.799  0.00  0.00    -0.004 A 
ATOM      5  C7  UNL d   1       6.000  -1.327   3.408  0.00  0.00     0.002 A 
ATOM      6  C8  UNL d   1       5.991  -2.568   2.767  0.00  0.00     0.002 A 
ENDROOT
BRANCH   1   7
ATOM      7  C2  UNL d   1       5.944  -5.093   2.818  0.00  0.00     0.056 C 
BRANCH   7   8
ATOM      8  C1  UNL d   1       4.700  -5.929   3.136  0.00  0.00     0.007 C 
ATOM      9  C   UNL d   1       3.467  -5.493   2.356  0.00  0.00     0.009 C 
ENDBRANCH   7   8
ENDBRANCH   1   7
TORSDOF 2
ENDMDL
