MODEL 1
REMARK minimizedAffinity -0.0801470801
REMARK minimizedRMSD -1
REMARK  2 active torsions:
REMARK  status: ('A' for Active; 'I' for Inactive)
REMARK    1  A    between atoms: C1_2  and  C2_3 
REMARK    2  A    between atoms: C2_3  and  C3_4 
ROOT
ATOM      1  C3  UNL d   1      -1.505   0.090   1.206  0.00  0.00    -0.075 A 
ATOM      2  C4  UNL d   1      -2.004  -0.957   1.994  0.00  0.00     0.002 A 
ATOM      3  C5  UNL d   1      -1.527  -1.158   3.290  0.00  0.00     0.002 A 
ATOM      4  C6  UNL d   1      -0.540  -0.323   3.809  0.00  0.00    -0.004 A 
ATOM      5  C7  UNL d   1      -0.026   0.711   3.029  0.00  0.00     0.002 A 
ATOM      6  C8  UNL d   1      -0.504   0.917   1.734  0.00  0.00     0.002 A 
ENDROOT
BRANCH   1   7
ATOM      7  C2  UNL d   1      -2.038   0.331  -0.186  0.00  0.00     0.056 C 
BRANCH   7   8
ATOM      8  C1  UNL d   1      -0.953   0.628  -1.227  0.00  0.00     0.007 C 
ATOM      9  C   UNL d   1      -0.636  -0.563  -2.121  0.00  0.00     0.009 C 
ENDBRANCH   7   8
ENDBRANCH   1   7
TORSDOF 2
ENDMDL
