MODEL 1
REMARK minimizedAffinity 7.89076996
REMARK minimizedRMSD -1
REMARK  2 active torsions:
REMARK  status: ('A' for Active; 'I' for Inactive)
REMARK    1  A    between atoms: C1_2  and  C2_3 
REMARK    2  A    between atoms: C2_3  and  C3_4 
ROOT
ATOM      1  C3  UNL d   1       0.002   0.098   2.672  0.00  0.00    -0.075 A 
ATOM      2  C4  UNL d   1      -0.485  -1.020   3.365  0.00  0.00     0.002 A 
ATOM      3  C5  UNL d   1      -1.593  -1.721   2.889  0.00  0.00     0.002 A 
ATOM      4  C6  UNL d   1      -2.233  -1.309   1.722  0.00  0.00    -0.004 A 
ATOM      5  C7  UNL d   1      -1.768  -0.191   1.034  0.00  0.00     0.002 A 
ATOM      6  C8  UNL d   1      -0.656   0.510   1.506  0.00  0.00     0.002 A 
ENDROOT
BRANCH   1   7
ATOM      7  C2  UNL d   1       1.219   0.843   3.166  0.00  0.00     0.056 C 
BRANCH   7   8
ATOM      8  C1  UNL d   1       0.933   1.807   4.323  0.00  0.00     0.007 C 
ATOM      9  C   UNL d   1       0.922   3.269   3.897  0.00  0.00     0.009 C 
ENDBRANCH   7   8
ENDBRANCH   1   7
TORSDOF 2
ENDMDL
