MODEL 1
REMARK minimizedAffinity 5.5456357
REMARK minimizedRMSD -1
REMARK  2 active torsions:
REMARK  status: ('A' for Active; 'I' for Inactive)
REMARK    1  A    between atoms: C1_2  and  C2_3 
REMARK    2  A    between atoms: C2_3  and  C3_4 
ROOT
ATOM      1  C3  UNL d   1      -2.376   0.142   0.330  0.00  0.00    -0.075 A 
ATOM      2  C4  UNL d   1      -1.172   0.046   1.043  0.00  0.00     0.002 A 
ATOM      3  C5  UNL d   1      -1.115   0.410   2.389  0.00  0.00     0.002 A 
ATOM      4  C6  UNL d   1      -2.256   0.882   3.035  0.00  0.00    -0.004 A 
ATOM      5  C7  UNL d   1      -3.453   0.996   2.332  0.00  0.00     0.002 A 
ATOM      6  C8  UNL d   1      -3.514   0.629   0.987  0.00  0.00     0.002 A 
ENDROOT
BRANCH   1   7
ATOM      7  C2  UNL d   1      -2.452  -0.278  -1.118  0.00  0.00     0.056 C 
BRANCH   7   8
ATOM      8  C1  UNL d   1      -1.265  -1.128  -1.584  0.00  0.00     0.007 C 
ATOM      9  C   UNL d   1      -1.448  -2.615  -1.314  0.00  0.00     0.009 C 
ENDBRANCH   7   8
ENDBRANCH   1   7
TORSDOF 2
ENDMDL
