MODEL 1
REMARK minimizedAffinity 2.46057248
REMARK minimizedRMSD -1
REMARK  2 active torsions:
REMARK  status: ('A' for Active; 'I' for Inactive)
REMARK    1  A    between atoms: C1_2  and  C2_3 
REMARK    2  A    between atoms: C2_3  and  C3_4 
ROOT
ATOM      1  C3  UNL d   1      -1.550  -0.371   1.676  0.00  0.00    -0.075 A 
ATOM      2  C4  UNL d   1      -0.204  -0.616   1.986  0.00  0.00     0.002 A 
ATOM      3  C5  UNL d   1       0.168  -0.998   3.275  0.00  0.00     0.002 A 
ATOM      4  C6  UNL d   1      -0.796  -1.130   4.271  0.00  0.00    -0.004 A 
ATOM      5  C7  UNL d   1      -2.134  -0.873   3.979  0.00  0.00     0.002 A 
ATOM      6  C8  UNL d   1      -2.510  -0.495   2.689  0.00  0.00     0.002 A 
ENDROOT
BRANCH   1   7
ATOM      7  C2  UNL d   1      -1.963   0.013   0.276  0.00  0.00     0.056 C 
BRANCH   7   8
ATOM      8  C1  UNL d   1      -0.788   0.231  -0.684  0.00  0.00     0.007 C 
ATOM      9  C   UNL d   1      -0.872  -0.625  -1.940  0.00  0.00     0.009 C 
ENDBRANCH   7   8
ENDBRANCH   1   7
TORSDOF 2
ENDMDL
