MODEL 1
REMARK minimizedAffinity 7.58787107
REMARK minimizedRMSD -1
REMARK  2 active torsions:
REMARK  status: ('A' for Active; 'I' for Inactive)
REMARK    1  A    between atoms: C1_2  and  C2_3 
REMARK    2  A    between atoms: C2_3  and  C3_4 
ROOT
ATOM      1  C3  UNL d   1      -1.558  -0.292   1.567  0.00  0.00    -0.075 A 
ATOM      2  C4  UNL d   1      -0.379   0.426   1.815  0.00  0.00     0.002 A 
ATOM      3  C5  UNL d   1       0.227   0.381   3.071  0.00  0.00     0.002 A 
ATOM      4  C6  UNL d   1      -0.342  -0.372   4.095  0.00  0.00    -0.004 A 
ATOM      5  C7  UNL d   1      -1.522  -1.075   3.865  0.00  0.00     0.002 A 
ATOM      6  C8  UNL d   1      -2.128  -1.036   2.608  0.00  0.00     0.002 A 
ENDROOT
BRANCH   1   7
ATOM      7  C2  UNL d   1      -2.203  -0.271   0.201  0.00  0.00     0.056 C 
BRANCH   7   8
ATOM      8  C1  UNL d   1      -1.355   0.411  -0.878  0.00  0.00     0.007 C 
ATOM      9  C   UNL d   1      -0.768  -0.567  -1.887  0.00  0.00     0.009 C 
ENDBRANCH   7   8
ENDBRANCH   1   7
TORSDOF 2
ENDMDL
