MODEL 1
REMARK minimizedAffinity 4.75324202
REMARK minimizedRMSD -1
REMARK  2 active torsions:
REMARK  status: ('A' for Active; 'I' for Inactive)
REMARK    1  A    between atoms: C1_2  and  C2_3 
REMARK    2  A    between atoms: C2_3  and  C3_4 
ROOT
ATOM      1  C3  UNL d   1       0.624   0.144   1.069  0.00  0.00    -0.075 A 
ATOM      2  C4  UNL d   1       0.667   0.223   2.469  0.00  0.00     0.002 A 
ATOM      3  C5  UNL d   1      -0.433   0.695   3.185  0.00  0.00     0.002 A 
ATOM      4  C6  UNL d   1      -1.584   1.103   2.513  0.00  0.00    -0.004 A 
ATOM      5  C7  UNL d   1      -1.631   1.044   1.122  0.00  0.00     0.002 A 
ATOM      6  C8  UNL d   1      -0.533   0.568   0.403  0.00  0.00     0.002 A 
ENDROOT
BRANCH   1   7
ATOM      7  C2  UNL d   1       1.800  -0.393   0.289  0.00  0.00     0.056 C 
BRANCH   7   8
ATOM      8  C1  UNL d   1       1.514  -1.708  -0.444  0.00  0.00     0.007 C 
ATOM      9  C   UNL d   1       2.636  -2.729  -0.305  0.00  0.00     0.009 C 
ENDBRANCH   7   8
ENDBRANCH   1   7
TORSDOF 2
ENDMDL
