MODEL 1
REMARK minimizedAffinity 9.25270176
REMARK minimizedRMSD -1
REMARK  2 active torsions:
REMARK  status: ('A' for Active; 'I' for Inactive)
REMARK    1  A    between atoms: C1_2  and  C2_3 
REMARK    2  A    between atoms: C2_3  and  C3_4 
ROOT
ATOM      1  C3  UNL d   1       0.360   1.977   2.121  0.00  0.00    -0.075 A 
ATOM      2  C4  UNL d   1       1.310   2.123   3.143  0.00  0.00     0.002 A 
ATOM      3  C5  UNL d   1       2.646   2.384   2.836  0.00  0.00     0.002 A 
ATOM      4  C6  UNL d   1       3.050   2.492   1.508  0.00  0.00    -0.004 A 
ATOM      5  C7  UNL d   1       2.119   2.333   0.484  0.00  0.00     0.002 A 
ATOM      6  C8  UNL d   1       0.781   2.077   0.788  0.00  0.00     0.002 A 
ENDROOT
BRANCH   1   7
ATOM      7  C2  UNL d   1      -1.092   1.724   2.446  0.00  0.00     0.056 C 
BRANCH   7   8
ATOM      8  C1  UNL d   1      -1.585   0.327   2.055  0.00  0.00     0.007 C 
ATOM      9  C   UNL d   1      -3.098   0.245   1.900  0.00  0.00     0.009 C 
ENDBRANCH   7   8
ENDBRANCH   1   7
TORSDOF 2
ENDMDL
