MODEL 1
REMARK minimizedAffinity -2.79841161
REMARK minimizedRMSD -1
REMARK  1 active torsions:
REMARK  status: ('A' for Active; 'I' for Inactive)
REMARK    1  A    between atoms: C1_2  and  C2_3 
ROOT
ATOM      1  C2  UNL d   1      -2.624   3.432   5.055  0.00  0.00    -0.077 A 
ATOM      2  C3  UNL d   1      -1.584   3.457   5.995  0.00  0.00     0.002 A 
ATOM      3  C4  UNL d   1      -0.661   4.504   6.000  0.00  0.00     0.002 A 
ATOM      4  C5  UNL d   1      -0.771   5.537   5.071  0.00  0.00    -0.004 A 
ATOM      5  C6  UNL d   1      -1.801   5.521   4.131  0.00  0.00     0.002 A 
ATOM      6  C7  UNL d   1      -2.724   4.474   4.123  0.00  0.00     0.002 A 
ENDROOT
BRANCH   1   7
ATOM      7  C1  UNL d   1      -3.649   2.329   5.079  0.00  0.00     0.055 C 
ATOM      8  C   UNL d   1      -4.791   2.613   4.114  0.00  0.00     0.019 C 
ENDBRANCH   1   7
TORSDOF 1
ENDMDL
