MODEL 1
REMARK minimizedAffinity -0.411168933
REMARK minimizedRMSD -1
REMARK  1 active torsions:
REMARK  status: ('A' for Active; 'I' for Inactive)
REMARK    1  A    between atoms: C1_2  and  C2_3 
ROOT
ATOM      1  C2  UNL d   1       1.293  -3.849   2.052  0.00  0.00    -0.077 A 
ATOM      2  C3  UNL d   1       0.804  -2.722   1.376  0.00  0.00     0.002 A 
ATOM      3  C4  UNL d   1       1.686  -1.825   0.770  0.00  0.00     0.002 A 
ATOM      4  C5  UNL d   1       3.060  -2.048   0.830  0.00  0.00    -0.004 A 
ATOM      5  C6  UNL d   1       3.556  -3.165   1.501  0.00  0.00     0.002 A 
ATOM      6  C7  UNL d   1       2.676  -4.062   2.109  0.00  0.00     0.002 A 
ENDROOT
BRANCH   1   7
ATOM      7  C1  UNL d   1       0.341  -4.843   2.664  0.00  0.00     0.055 C 
ATOM      8  C   UNL d   1       1.090  -5.994   3.321  0.00  0.00     0.019 C 
ENDBRANCH   1   7
TORSDOF 1
ENDMDL
