MODEL 1
REMARK minimizedAffinity 0.0809411034
REMARK minimizedRMSD -1
REMARK  1 active torsions:
REMARK  status: ('A' for Active; 'I' for Inactive)
REMARK    1  A    between atoms: C1_2  and  C2_3 
ROOT
ATOM      1  C2  UNL d   1      -0.733   5.504   4.797  0.00  0.00    -0.077 A 
ATOM      2  C3  UNL d   1      -1.547   5.998   5.826  0.00  0.00     0.002 A 
ATOM      3  C4  UNL d   1      -2.842   5.506   6.000  0.00  0.00     0.002 A 
ATOM      4  C5  UNL d   1      -3.332   4.514   5.152  0.00  0.00    -0.004 A 
ATOM      5  C6  UNL d   1      -2.531   4.018   4.125  0.00  0.00     0.002 A 
ATOM      6  C7  UNL d   1      -1.237   4.510   3.949  0.00  0.00     0.002 A 
ENDROOT
BRANCH   1   7
ATOM      7  C1  UNL d   1       0.681   5.998   4.638  0.00  0.00     0.055 C 
ATOM      8  C   UNL d   1       1.420   5.997   5.968  0.00  0.00     0.019 C 
ENDBRANCH   1   7
TORSDOF 1
ENDMDL
