MODEL 1
REMARK minimizedAffinity 6.4461112
REMARK minimizedRMSD -1
REMARK  1 active torsions:
REMARK  status: ('A' for Active; 'I' for Inactive)
REMARK    1  A    between atoms: C1_2  and  C2_3 
ROOT
ATOM      1  C2  UNL d   1       1.583  -2.638   1.923  0.00  0.00    -0.077 A 
ATOM      2  C3  UNL d   1       1.269  -1.762   2.971  0.00  0.00     0.002 A 
ATOM      3  C4  UNL d   1       1.241  -0.383   2.754  0.00  0.00     0.002 A 
ATOM      4  C5  UNL d   1       1.520   0.131   1.490  0.00  0.00    -0.004 A 
ATOM      5  C6  UNL d   1       1.835  -0.732   0.441  0.00  0.00     0.002 A 
ATOM      6  C7  UNL d   1       1.866  -2.111   0.657  0.00  0.00     0.002 A 
ENDROOT
BRANCH   1   7
ATOM      7  C1  UNL d   1       1.567  -4.128   2.143  0.00  0.00     0.055 C 
ATOM      8  C   UNL d   1       0.191  -4.608   2.584  0.00  0.00     0.019 C 
ENDBRANCH   1   7
TORSDOF 1
ENDMDL
