MODEL 1
REMARK minimizedAffinity -1.08209109
REMARK minimizedRMSD -1
REMARK  1 active torsions:
REMARK  status: ('A' for Active; 'I' for Inactive)
REMARK    1  A    between atoms: C1_2  and  C2_3 
ROOT
ATOM      1  C2  UNL d   1      -1.662   4.955   5.278  0.00  0.00    -0.077 A 
ATOM      2  C3  UNL d   1      -1.477   4.693   3.913  0.00  0.00     0.002 A 
ATOM      3  C4  UNL d   1      -0.287   5.058   3.279  0.00  0.00     0.002 A 
ATOM      4  C5  UNL d   1       0.727   5.681   4.002  0.00  0.00    -0.004 A 
ATOM      5  C6  UNL d   1       0.551   5.948   5.360  0.00  0.00     0.002 A 
ATOM      6  C7  UNL d   1      -0.637   5.585   5.995  0.00  0.00     0.002 A 
ENDROOT
BRANCH   1   7
ATOM      7  C1  UNL d   1      -2.924   4.518   5.974  0.00  0.00     0.055 C 
ATOM      8  C   UNL d   1      -3.958   5.635   5.999  0.00  0.00     0.019 C 
ENDBRANCH   1   7
TORSDOF 1
ENDMDL
