MODEL 1
REMARK minimizedAffinity 3.19902325
REMARK minimizedRMSD -1
REMARK  1 active torsions:
REMARK  status: ('A' for Active; 'I' for Inactive)
REMARK    1  A    between atoms: C1_2  and  C2_3 
ROOT
ATOM      1  C2  UNL d   1       1.261   5.692   4.547  0.00  0.00    -0.077 A 
ATOM      2  C3  UNL d   1       0.397   5.377   3.489  0.00  0.00     0.002 A 
ATOM      3  C4  UNL d   1      -0.986   5.369   3.684  0.00  0.00     0.002 A 
ATOM      4  C5  UNL d   1      -1.516   5.679   4.935  0.00  0.00    -0.004 A 
ATOM      5  C6  UNL d   1      -0.665   5.992   5.994  0.00  0.00     0.002 A 
ATOM      6  C7  UNL d   1       0.717   6.000   5.801  0.00  0.00     0.002 A 
ENDROOT
BRANCH   1   7
ATOM      7  C1  UNL d   1       2.749   5.750   4.326  0.00  0.00     0.055 C 
ATOM      8  C   UNL d   1       3.494   5.999   5.630  0.00  0.00     0.019 C 
ENDBRANCH   1   7
TORSDOF 1
ENDMDL
