MODEL 1
REMARK minimizedAffinity -1.91724777
REMARK minimizedRMSD -1
REMARK  1 active torsions:
REMARK  status: ('A' for Active; 'I' for Inactive)
REMARK    1  A    between atoms: C1_2  and  C2_3 
ROOT
ATOM      1  C2  UNL d   1      -1.253   4.708   5.293  0.00  0.00    -0.077 A 
ATOM      2  C3  UNL d   1      -0.086   5.028   6.000  0.00  0.00     0.002 A 
ATOM      3  C4  UNL d   1       0.977   5.664   5.356  0.00  0.00     0.002 A 
ATOM      4  C5  UNL d   1       0.882   5.989   4.005  0.00  0.00    -0.004 A 
ATOM      5  C6  UNL d   1      -0.274   5.673   3.292  0.00  0.00     0.002 A 
ATOM      6  C7  UNL d   1      -1.338   5.036   3.934  0.00  0.00     0.002 A 
ENDROOT
BRANCH   1   7
ATOM      7  C1  UNL d   1      -2.420   4.066   5.997  0.00  0.00     0.055 C 
ATOM      8  C   UNL d   1      -2.318   2.548   5.968  0.00  0.00     0.019 C 
ENDBRANCH   1   7
TORSDOF 1
ENDMDL
