MODEL 1
REMARK minimizedAffinity -1.38766515
REMARK minimizedRMSD -1
REMARK  1 active torsions:
REMARK  status: ('A' for Active; 'I' for Inactive)
REMARK    1  A    between atoms: C1_2  and  C2_3 
ROOT
ATOM      1  C2  UNL d   1      -2.124   4.957   5.375  0.00  0.00    -0.077 A 
ATOM      2  C3  UNL d   1      -1.885   5.796   4.278  0.00  0.00     0.002 A 
ATOM      3  C4  UNL d   1      -0.584   5.999   3.814  0.00  0.00     0.002 A 
ATOM      4  C5  UNL d   1       0.487   5.364   4.438  0.00  0.00    -0.004 A 
ATOM      5  C6  UNL d   1       0.260   4.529   5.532  0.00  0.00     0.002 A 
ATOM      6  C7  UNL d   1      -1.039   4.326   5.998  0.00  0.00     0.002 A 
ENDROOT
BRANCH   1   7
ATOM      7  C1  UNL d   1      -3.531   4.698   5.846  0.00  0.00     0.055 C 
ATOM      8  C   UNL d   1      -4.313   5.995   5.994  0.00  0.00     0.019 C 
ENDBRANCH   1   7
TORSDOF 1
ENDMDL
