MODEL 1
REMARK minimizedAffinity -0.461867303
REMARK minimizedRMSD -1
REMARK  1 active torsions:
REMARK  status: ('A' for Active; 'I' for Inactive)
REMARK    1  A    between atoms: C1_2  and  C2_3 
ROOT
ATOM      1  C2  UNL d   1       0.565   1.179  -0.252  0.00  0.00    -0.076 A 
ATOM      2  C3  UNL d   1      -0.341   2.125  -0.763  0.00  0.00     0.004 A 
ATOM      3  C4  UNL d   1      -0.502   3.367  -0.151  0.00  0.00    -0.003 A 
ATOM      4  C5  UNL d   1       0.241   3.683   0.981  0.00  0.00     0.000 A 
ATOM      5  C6  UNL d   1       1.157   2.764   1.491  0.00  0.00     0.000 A 
ATOM      6  C7  UNL d   1       1.343   1.513   0.876  0.00  0.00    -0.073 A 
ATOM      7  C8  UNL d   1       2.340   0.557   1.472  0.00  0.00     0.078 C 
ENDROOT
BRANCH   1   8
ATOM      8  C1  UNL d   1       0.677  -0.162  -0.942  0.00  0.00     0.053 C 
ATOM      9  C   UNL d   1      -0.677  -0.723  -1.349  0.00  0.00     0.018 C 
ENDBRANCH   1   8
TORSDOF 1
ENDMDL
