MODEL 1
REMARK minimizedAffinity 11.414793
REMARK minimizedRMSD -1
REMARK  1 active torsions:
REMARK  status: ('A' for Active; 'I' for Inactive)
REMARK    1  A    between atoms: C1_2  and  C2_3 
ROOT
ATOM      1  C2  UNL d   1       3.423   0.806   0.629  0.00  0.00    -0.076 A 
ATOM      2  C3  UNL d   1       4.516   1.658   0.866  0.00  0.00     0.004 A 
ATOM      3  C4  UNL d   1       5.131   2.344  -0.180  0.00  0.00    -0.003 A 
ATOM      4  C5  UNL d   1       4.662   2.191  -1.480  0.00  0.00     0.000 A 
ATOM      5  C6  UNL d   1       3.567   1.364  -1.730  0.00  0.00     0.000 A 
ATOM      6  C7  UNL d   1       2.926   0.677  -0.685  0.00  0.00    -0.073 A 
ATOM      7  C8  UNL d   1       1.754  -0.206  -1.014  0.00  0.00     0.078 C 
ENDROOT
BRANCH   1   8
ATOM      8  C1  UNL d   1       2.814   0.066   1.799  0.00  0.00     0.053 C 
ATOM      9  C   UNL d   1       3.742  -1.001   2.360  0.00  0.00     0.018 C 
ENDBRANCH   1   8
TORSDOF 1
ENDMDL
