MODEL 1
REMARK minimizedAffinity 8.30693531
REMARK minimizedRMSD -1
REMARK  1 active torsions:
REMARK  status: ('A' for Active; 'I' for Inactive)
REMARK    1  A    between atoms: C1_2  and  C2_3 
ROOT
ATOM      1  C2  UNL d   1       4.113   3.938   4.893  0.00  0.00    -0.076 A 
ATOM      2  C3  UNL d   1       3.267   3.750   6.000  0.00  0.00     0.004 A 
ATOM      3  C4  UNL d   1       1.973   3.258   5.838  0.00  0.00    -0.003 A 
ATOM      4  C5  UNL d   1       1.504   2.945   4.567  0.00  0.00     0.000 A 
ATOM      5  C6  UNL d   1       2.336   3.108   3.460  0.00  0.00     0.000 A 
ATOM      6  C7  UNL d   1       3.648   3.588   3.607  0.00  0.00    -0.073 A 
ATOM      7  C8  UNL d   1       4.500   3.751   2.378  0.00  0.00     0.078 C 
ENDROOT
BRANCH   1   8
ATOM      8  C1  UNL d   1       5.497   4.501   5.127  0.00  0.00     0.053 C 
ATOM      9  C   UNL d   1       5.480   5.746   5.999  0.00  0.00     0.018 C 
ENDBRANCH   1   8
TORSDOF 1
ENDMDL
