MODEL 1
REMARK minimizedAffinity 1.62181818
REMARK minimizedRMSD -1
REMARK  1 active torsions:
REMARK  status: ('A' for Active; 'I' for Inactive)
REMARK    1  A    between atoms: C1_2  and  C2_3 
ROOT
ATOM      1  C2  UNL d   1       3.045   4.805   3.959  0.00  0.00    -0.076 A 
ATOM      2  C3  UNL d   1       2.682   5.584   5.071  0.00  0.00     0.004 A 
ATOM      3  C4  UNL d   1       3.635   5.998   6.000  0.00  0.00    -0.003 A 
ATOM      4  C5  UNL d   1       4.968   5.640   5.831  0.00  0.00     0.000 A 
ATOM      5  C6  UNL d   1       5.349   4.882   4.725  0.00  0.00     0.000 A 
ATOM      6  C7  UNL d   1       4.404   4.470   3.771  0.00  0.00    -0.073 A 
ATOM      7  C8  UNL d   1       4.870   3.649   2.600  0.00  0.00     0.078 C 
ENDROOT
BRANCH   1   8
ATOM      8  C1  UNL d   1       1.964   4.362   3.000  0.00  0.00     0.053 C 
ATOM      9  C   UNL d   1       1.375   3.009   3.369  0.00  0.00     0.018 C 
ENDBRANCH   1   8
TORSDOF 1
ENDMDL
