MODEL 1
REMARK minimizedAffinity 9.46463203
REMARK minimizedRMSD -1
REMARK  1 active torsions:
REMARK  status: ('A' for Active; 'I' for Inactive)
REMARK    1  A    between atoms: C1_2  and  C2_3 
ROOT
ATOM      1  C2  UNL d   1       4.489   0.902  -1.874  0.00  0.00    -0.076 A 
ATOM      2  C3  UNL d   1       4.215   1.290  -0.550  0.00  0.00     0.004 A 
ATOM      3  C4  UNL d   1       3.147   0.736   0.153  0.00  0.00    -0.003 A 
ATOM      4  C5  UNL d   1       2.335  -0.216  -0.456  0.00  0.00     0.000 A 
ATOM      5  C6  UNL d   1       2.603  -0.624  -1.762  0.00  0.00     0.000 A 
ATOM      6  C7  UNL d   1       3.686  -0.088  -2.479  0.00  0.00    -0.073 A 
ATOM      7  C8  UNL d   1       3.926  -0.561  -3.887  0.00  0.00     0.078 C 
ENDROOT
BRANCH   1   8
ATOM      8  C1  UNL d   1       5.645   1.558  -2.595  0.00  0.00     0.053 C 
ATOM      9  C   UNL d   1       5.649   3.070  -2.437  0.00  0.00     0.018 C 
ENDBRANCH   1   8
TORSDOF 1
ENDMDL
