MODEL 1
REMARK minimizedAffinity -0.289677322
REMARK minimizedRMSD -1
REMARK  1 active torsions:
REMARK  status: ('A' for Active; 'I' for Inactive)
REMARK    1  A    between atoms: N_2  and  C1_3 
ROOT
ATOM      1  C1  UNL d   1      -3.159  -4.775   1.597  0.00  0.00     0.143 A 
ATOM      2  C2  UNL d   1      -2.442  -5.046   0.426  0.00  0.00    -0.057 A 
ATOM      3  C3  UNL d   1      -3.058  -5.638  -0.682  0.00  0.00     0.033 A 
ATOM      4  C4  UNL d   1      -4.401  -5.999  -0.629  0.00  0.00    -0.042 A 
ATOM      5  C5  UNL d   1      -5.127  -5.762   0.533  0.00  0.00     0.033 A 
ATOM      6  C6  UNL d   1      -4.507  -5.163   1.634  0.00  0.00    -0.057 A 
ENDROOT
BRANCH   1   7
ATOM      7  N   UNL d   1      -2.579  -4.277   2.766  0.00  0.00    -0.732 N 
ATOM      8  C   UNL d   1      -2.565  -5.071   3.977  0.00  0.00     0.284 C 
ATOM      9  H3  UNL d   1      -1.712  -3.776   2.588  0.00  0.00     0.395 HD
ENDBRANCH   1   7
TORSDOF 1
ENDMDL
