MODEL 1
REMARK minimizedAffinity -2.91995907
REMARK minimizedRMSD -1
REMARK  1 active torsions:
REMARK  status: ('A' for Active; 'I' for Inactive)
REMARK    1  A    between atoms: N_2  and  C1_3 
ROOT
ATOM      1  C1  UNL d   1       0.246  -0.008   0.019  0.00  0.00     0.143 A 
ATOM      2  C2  UNL d   1       1.635  -0.177   0.007  0.00  0.00    -0.057 A 
ATOM      3  C3  UNL d   1       2.230  -1.338   0.515  0.00  0.00     0.033 A 
ATOM      4  C4  UNL d   1       1.445  -2.342   1.073  0.00  0.00    -0.042 A 
ATOM      5  C5  UNL d   1       0.064  -2.185   1.118  0.00  0.00     0.033 A 
ATOM      6  C6  UNL d   1      -0.524  -1.026   0.603  0.00  0.00    -0.057 A 
ENDROOT
BRANCH   1   7
ATOM      7  N   UNL d   1      -0.398   1.165  -0.381  0.00  0.00    -0.732 N 
ATOM      8  C   UNL d   1      -1.376   1.141  -1.448  0.00  0.00     0.284 C 
ATOM      9  H3  UNL d   1      -0.657   1.754   0.407  0.00  0.00     0.395 HD
ENDBRANCH   1   7
TORSDOF 1
ENDMDL
