MODEL 1
REMARK minimizedAffinity -4.48810625
REMARK minimizedRMSD -1
REMARK  1 active torsions:
REMARK  status: ('A' for Active; 'I' for Inactive)
REMARK    1  A    between atoms: N_2  and  C1_3 
ROOT
ATOM      1  C1  UNL d   1      -0.079  -0.279   0.212  0.00  0.00     0.143 A 
ATOM      2  C2  UNL d   1       1.092  -0.631  -0.470  0.00  0.00    -0.057 A 
ATOM      3  C3  UNL d   1       1.863  -1.729  -0.070  0.00  0.00     0.033 A 
ATOM      4  C4  UNL d   1       1.491  -2.480   1.040  0.00  0.00    -0.042 A 
ATOM      5  C5  UNL d   1       0.345  -2.134   1.747  0.00  0.00     0.033 A 
ATOM      6  C6  UNL d   1      -0.424  -1.040   1.339  0.00  0.00    -0.057 A 
ENDROOT
BRANCH   1   7
ATOM      7  N   UNL d   1      -0.834   0.860  -0.076  0.00  0.00    -0.732 N 
ATOM      8  C   UNL d   1      -1.242   1.150  -1.434  0.00  0.00     0.284 C 
ATOM      9  H3  UNL d   1      -1.555   1.034   0.620  0.00  0.00     0.395 HD
ENDBRANCH   1   7
TORSDOF 1
ENDMDL
