MODEL 1
REMARK minimizedAffinity -4.68144846
REMARK minimizedRMSD -1
REMARK  1 active torsions:
REMARK  status: ('A' for Active; 'I' for Inactive)
REMARK    1  A    between atoms: N_2  and  C1_3 
ROOT
ATOM      1  C1  UNL d   1       0.001   0.677  -0.478  0.00  0.00     0.143 A 
ATOM      2  C2  UNL d   1      -0.848  -0.156   0.260  0.00  0.00    -0.057 A 
ATOM      3  C3  UNL d   1      -0.362  -1.302   0.902  0.00  0.00     0.033 A 
ATOM      4  C4  UNL d   1       0.980  -1.651   0.793  0.00  0.00    -0.042 A 
ATOM      5  C5  UNL d   1       1.836  -0.852   0.044  0.00  0.00     0.033 A 
ATOM      6  C6  UNL d   1       1.347   0.295  -0.589  0.00  0.00    -0.057 A 
ENDROOT
BRANCH   1   7
ATOM      7  N   UNL d   1      -0.440   1.775  -1.220  0.00  0.00    -0.732 N 
ATOM      8  C   UNL d   1      -1.385   1.602  -2.302  0.00  0.00     0.284 C 
ATOM      9  H3  UNL d   1      -0.619   2.591  -0.638  0.00  0.00     0.395 HD
ENDBRANCH   1   7
TORSDOF 1
ENDMDL
