MODEL 1
REMARK minimizedAffinity -4.16579819
REMARK minimizedRMSD -1
REMARK  1 active torsions:
REMARK  status: ('A' for Active; 'I' for Inactive)
REMARK    1  A    between atoms: N_2  and  C1_3 
ROOT
ATOM      1  C1  UNL d   1       0.132  -0.017   0.177  0.00  0.00     0.143 A 
ATOM      2  C2  UNL d   1       1.491  -0.294  -0.004  0.00  0.00    -0.057 A 
ATOM      3  C3  UNL d   1       2.011  -1.571   0.241  0.00  0.00     0.033 A 
ATOM      4  C4  UNL d   1       1.182  -2.590   0.699  0.00  0.00    -0.042 A 
ATOM      5  C5  UNL d   1      -0.168  -2.331   0.910  0.00  0.00     0.033 A 
ATOM      6  C6  UNL d   1      -0.682  -1.055   0.658  0.00  0.00    -0.057 A 
ENDROOT
BRANCH   1   7
ATOM      7  N   UNL d   1      -0.426   1.257   0.046  0.00  0.00    -0.732 N 
ATOM      8  C   UNL d   1      -1.014   1.679  -1.208  0.00  0.00     0.284 C 
ATOM      9  H3  UNL d   1      -0.957   1.535   0.868  0.00  0.00     0.395 HD
ENDBRANCH   1   7
TORSDOF 1
ENDMDL
