MODEL 1
REMARK minimizedAffinity -4.50396252
REMARK minimizedRMSD -1
REMARK  1 active torsions:
REMARK  status: ('A' for Active; 'I' for Inactive)
REMARK    1  A    between atoms: N_2  and  C1_3 
ROOT
ATOM      1  C1  UNL d   1       0.503  -0.968   0.470  0.00  0.00     0.143 A 
ATOM      2  C2  UNL d   1       1.422  -2.005   0.274  0.00  0.00    -0.057 A 
ATOM      3  C3  UNL d   1       1.409  -3.149   1.082  0.00  0.00     0.033 A 
ATOM      4  C4  UNL d   1       0.492  -3.263   2.122  0.00  0.00    -0.042 A 
ATOM      5  C5  UNL d   1      -0.414  -2.234   2.351  0.00  0.00     0.033 A 
ATOM      6  C6  UNL d   1      -0.400  -1.097   1.537  0.00  0.00    -0.057 A 
ENDROOT
BRANCH   1   7
ATOM      7  N   UNL d   1       0.529   0.237  -0.235  0.00  0.00    -0.732 N 
ATOM      8  C   UNL d   1      -0.681   1.011  -0.417  0.00  0.00     0.284 C 
ATOM      9  H3  UNL d   1       1.351   0.796  -0.020  0.00  0.00     0.395 HD
ENDBRANCH   1   7
TORSDOF 1
ENDMDL
