MODEL 1
REMARK minimizedAffinity -4.48148632
REMARK minimizedRMSD -1
REMARK  1 active torsions:
REMARK  status: ('A' for Active; 'I' for Inactive)
REMARK    1  A    between atoms: N_2  and  C1_3 
ROOT
ATOM      1  C1  UNL d   1      -0.146  -0.119   0.062  0.00  0.00     0.143 A 
ATOM      2  C2  UNL d   1       1.102  -0.738  -0.074  0.00  0.00    -0.057 A 
ATOM      3  C3  UNL d   1       1.416  -1.903   0.635  0.00  0.00     0.033 A 
ATOM      4  C4  UNL d   1       0.495  -2.456   1.519  0.00  0.00    -0.042 A 
ATOM      5  C5  UNL d   1      -0.742  -1.845   1.689  0.00  0.00     0.033 A 
ATOM      6  C6  UNL d   1      -1.052  -0.685   0.973  0.00  0.00    -0.057 A 
ENDROOT
BRANCH   1   7
ATOM      7  N   UNL d   1      -0.482   1.095  -0.540  0.00  0.00    -0.732 N 
ATOM      8  C   UNL d   1      -1.491   1.150  -1.576  0.00  0.00     0.284 C 
ATOM      9  H3  UNL d   1      -0.531   1.860   0.129  0.00  0.00     0.395 HD
ENDBRANCH   1   7
TORSDOF 1
ENDMDL
