MODEL 1
REMARK minimizedAffinity -3.98454547
REMARK minimizedRMSD -1
REMARK  1 active torsions:
REMARK  status: ('A' for Active; 'I' for Inactive)
REMARK    1  A    between atoms: N_2  and  C1_3 
ROOT
ATOM      1  C1  UNL d   1       0.673  -0.764   0.559  0.00  0.00     0.143 A 
ATOM      2  C2  UNL d   1       1.949  -1.317   0.716  0.00  0.00    -0.057 A 
ATOM      3  C3  UNL d   1       2.160  -2.435   1.532  0.00  0.00     0.033 A 
ATOM      4  C4  UNL d   1       1.100  -3.005   2.230  0.00  0.00    -0.042 A 
ATOM      5  C5  UNL d   1      -0.172  -2.457   2.109  0.00  0.00     0.033 A 
ATOM      6  C6  UNL d   1      -0.378  -1.344   1.288  0.00  0.00    -0.057 A 
ENDROOT
BRANCH   1   7
ATOM      7  N   UNL d   1       0.415   0.406  -0.159  0.00  0.00    -0.732 N 
ATOM      8  C   UNL d   1      -0.860   1.078  -0.040  0.00  0.00     0.284 C 
ATOM      9  H3  UNL d   1       1.216   1.034  -0.179  0.00  0.00     0.395 HD
ENDBRANCH   1   7
TORSDOF 1
ENDMDL
