MODEL 1
REMARK minimizedAffinity -3.62697625
REMARK minimizedRMSD -1
REMARK  1 active torsions:
REMARK  status: ('A' for Active; 'I' for Inactive)
REMARK    1  A    between atoms: N_2  and  C1_3 
ROOT
ATOM      1  C1  UNL d   1      -0.167  -0.191   0.235  0.00  0.00     0.143 A 
ATOM      2  C2  UNL d   1       1.052  -0.859   0.077  0.00  0.00    -0.057 A 
ATOM      3  C3  UNL d   1       1.350  -2.010   0.817  0.00  0.00     0.033 A 
ATOM      4  C4  UNL d   1       0.443  -2.498   1.751  0.00  0.00    -0.042 A 
ATOM      5  C5  UNL d   1      -0.765  -1.836   1.942  0.00  0.00     0.033 A 
ATOM      6  C6  UNL d   1      -1.060  -0.691   1.196  0.00  0.00    -0.057 A 
ENDROOT
BRANCH   1   7
ATOM      7  N   UNL d   1      -0.482   1.013  -0.399  0.00  0.00    -0.732 N 
ATOM      8  C   UNL d   1      -1.649   1.116  -1.249  0.00  0.00     0.284 C 
ATOM      9  H3  UNL d   1      -0.333   1.820   0.203  0.00  0.00     0.395 HD
ENDBRANCH   1   7
TORSDOF 1
ENDMDL
