MODEL 1
REMARK minimizedAffinity -3.60569572
REMARK minimizedRMSD -1
REMARK  1 active torsions:
REMARK  status: ('A' for Active; 'I' for Inactive)
REMARK    1  A    between atoms: N_2  and  C1_3 
ROOT
ATOM      1  C1  UNL d   1       0.300   0.016  -0.267  0.00  0.00     0.143 A 
ATOM      2  C2  UNL d   1       1.661  -0.074   0.047  0.00  0.00    -0.057 A 
ATOM      3  C3  UNL d   1       2.198  -1.231   0.624  0.00  0.00     0.033 A 
ATOM      4  C4  UNL d   1       1.375  -2.311   0.926  0.00  0.00    -0.042 A 
ATOM      5  C5  UNL d   1       0.015  -2.234   0.647  0.00  0.00     0.033 A 
ATOM      6  C6  UNL d   1      -0.514  -1.079   0.064  0.00  0.00    -0.057 A 
ENDROOT
BRANCH   1   7
ATOM      7  N   UNL d   1      -0.311   1.175  -0.751  0.00  0.00    -0.732 N 
ATOM      8  C   UNL d   1      -1.229   1.113  -1.869  0.00  0.00     0.284 C 
ATOM      9  H3  UNL d   1      -0.608   1.799  -0.004  0.00  0.00     0.395 HD
ENDBRANCH   1   7
TORSDOF 1
ENDMDL
