MODEL 1
REMARK minimizedAffinity -4.34410286
REMARK minimizedRMSD -1
REMARK  1 active torsions:
REMARK  status: ('A' for Active; 'I' for Inactive)
REMARK    1  A    between atoms: N_2  and  C1_3 
ROOT
ATOM      1  C1  UNL d   1       0.367  -1.913   1.638  0.00  0.00     0.143 A 
ATOM      2  C2  UNL d   1      -0.110  -0.927   0.767  0.00  0.00    -0.057 A 
ATOM      3  C3  UNL d   1       0.665  -0.467  -0.304  0.00  0.00     0.033 A 
ATOM      4  C4  UNL d   1       1.947  -0.966  -0.507  0.00  0.00    -0.042 A 
ATOM      5  C5  UNL d   1       2.452  -1.928   0.360  0.00  0.00     0.033 A 
ATOM      6  C6  UNL d   1       1.671  -2.388   1.424  0.00  0.00    -0.057 A 
ENDROOT
BRANCH   1   7
ATOM      7  N   UNL d   1      -0.316  -2.340   2.779  0.00  0.00    -0.732 N 
ATOM      8  C   UNL d   1      -1.396  -1.551   3.330  0.00  0.00     0.284 C 
ATOM      9  H3  UNL d   1      -0.494  -3.342   2.772  0.00  0.00     0.395 HD
ENDBRANCH   1   7
TORSDOF 1
ENDMDL
