MODEL 1
REMARK minimizedAffinity 12.0640812
REMARK minimizedRMSD -1
REMARK  0 active torsions:
REMARK  status: ('A' for Active; 'I' for Inactive)
ROOT
ATOM      1  C2' OXE d   1       1.723  -3.654   1.756  0.00  0.00     0.078 C 
ATOM      2  C1' OXE d   1       3.853  -3.460   3.573  0.00  0.00     0.078 C 
ATOM      3  C1  OXE d   1       4.164  -3.925   2.173  0.00  0.00    -0.078 A 
ATOM      4  C2  OXE d   1       3.108  -4.062   1.303  0.00  0.00    -0.078 A 
ATOM      5  C3  OXE d   1       3.346  -4.435  -0.017  0.00  0.00     0.003 A 
ATOM      6  C4  OXE d   1       4.629  -4.820  -0.424  0.00  0.00    -0.002 A 
ATOM      7  C5  OXE d   1       5.712  -4.726   0.457  0.00  0.00    -0.002 A 
ATOM      8  C6  OXE d   1       5.504  -4.241   1.743  0.00  0.00     0.003 A 
ENDROOT
TORSDOF 0
ENDMDL
