MODEL 1
REMARK minimizedAffinity 13.351408
REMARK minimizedRMSD -1
REMARK  0 active torsions:
REMARK  status: ('A' for Active; 'I' for Inactive)
ROOT
ATOM      1  C2' OXE d   1      -2.373  -1.327  -1.329  0.00  0.00     0.078 C 
ATOM      2  C1' OXE d   1      -3.885   1.034  -1.200  0.00  0.00     0.078 C 
ATOM      3  C1  OXE d   1      -4.285  -0.002  -2.220  0.00  0.00    -0.078 A 
ATOM      4  C2  OXE d   1      -3.511  -1.134  -2.308  0.00  0.00    -0.078 A 
ATOM      5  C3  OXE d   1      -3.868  -2.146  -3.194  0.00  0.00     0.003 A 
ATOM      6  C4  OXE d   1      -4.916  -1.956  -4.103  0.00  0.00    -0.002 A 
ATOM      7  C5  OXE d   1      -5.693  -0.793  -4.057  0.00  0.00    -0.002 A 
ATOM      8  C6  OXE d   1      -5.418   0.173  -3.095  0.00  0.00     0.003 A 
ENDROOT
TORSDOF 0
ENDMDL
