MODEL 1
REMARK minimizedAffinity 7.51477528
REMARK minimizedRMSD -1
REMARK  0 active torsions:
REMARK  status: ('A' for Active; 'I' for Inactive)
ROOT
ATOM      1  C2' OXE d   1       4.719  -5.902   0.316  0.00  0.00     0.078 C 
ATOM      2  C1' OXE d   1       5.618  -3.292   0.830  0.00  0.00     0.078 C 
ATOM      3  C1  OXE d   1       4.186  -3.624   1.171  0.00  0.00    -0.078 A 
ATOM      4  C2  OXE d   1       3.742  -4.889   0.873  0.00  0.00    -0.078 A 
ATOM      5  C3  OXE d   1       2.446  -5.264   1.217  0.00  0.00     0.003 A 
ATOM      6  C4  OXE d   1       1.546  -4.318   1.723  0.00  0.00    -0.002 A 
ATOM      7  C5  OXE d   1       1.967  -3.013   1.997  0.00  0.00    -0.002 A 
ATOM      8  C6  OXE d   1       3.292  -2.662   1.767  0.00  0.00     0.003 A 
ENDROOT
TORSDOF 0
ENDMDL
