MODEL 1
REMARK minimizedAffinity 5.92076015
REMARK minimizedRMSD -1
REMARK  0 active torsions:
REMARK  status: ('A' for Active; 'I' for Inactive)
ROOT
ATOM      1  C2' OXE d   1       1.417   1.373  -1.483  0.00  0.00     0.078 C 
ATOM      2  C1' OXE d   1       2.684   1.546   1.016  0.00  0.00     0.078 C 
ATOM      3  C1  OXE d   1       1.816   0.342   0.749  0.00  0.00    -0.078 A 
ATOM      4  C2  OXE d   1       1.162   0.288  -0.459  0.00  0.00    -0.078 A 
ATOM      5  C3  OXE d   1       0.392  -0.826  -0.777  0.00  0.00     0.003 A 
ATOM      6  C4  OXE d   1       0.154  -1.820   0.180  0.00  0.00    -0.002 A 
ATOM      7  C5  OXE d   1       0.778  -1.765   1.431  0.00  0.00    -0.002 A 
ATOM      8  C6  OXE d   1       1.644  -0.715   1.715  0.00  0.00     0.003 A 
ENDROOT
TORSDOF 0
ENDMDL
