MODEL 1
REMARK minimizedAffinity 11.8401041
REMARK minimizedRMSD -1
REMARK  0 active torsions:
REMARK  status: ('A' for Active; 'I' for Inactive)
ROOT
ATOM      1  C2' OXE d   1      -2.666  -1.373  -1.056  0.00  0.00     0.078 C 
ATOM      2  C1' OXE d   1      -4.659   0.597  -0.894  0.00  0.00     0.078 C 
ATOM      3  C1  OXE d   1      -4.696  -0.346  -2.070  0.00  0.00    -0.078 A 
ATOM      4  C2  OXE d   1      -3.690  -1.278  -2.166  0.00  0.00    -0.078 A 
ATOM      5  C3  OXE d   1      -3.708  -2.207  -3.202  0.00  0.00     0.003 A 
ATOM      6  C4  OXE d   1      -4.653  -2.105  -4.230  0.00  0.00    -0.002 A 
ATOM      7  C5  OXE d   1      -5.663  -1.139  -4.172  0.00  0.00    -0.002 A 
ATOM      8  C6  OXE d   1      -5.724  -0.281  -3.080  0.00  0.00     0.003 A 
ENDROOT
TORSDOF 0
ENDMDL
