MODEL 1
REMARK minimizedAffinity 9.74595261
REMARK minimizedRMSD -1
REMARK  0 active torsions:
REMARK  status: ('A' for Active; 'I' for Inactive)
ROOT
ATOM      1  C2' OXE d   1       5.991  -3.080   2.248  0.00  0.00     0.078 C 
ATOM      2  C1' OXE d   1       3.186  -3.032   2.157  0.00  0.00     0.078 C 
ATOM      3  C1  OXE d   1       3.910  -3.853   1.119  0.00  0.00    -0.078 A 
ATOM      4  C2  OXE d   1       5.283  -3.833   1.143  0.00  0.00    -0.078 A 
ATOM      5  C3  OXE d   1       6.000  -4.617   0.242  0.00  0.00     0.003 A 
ATOM      6  C4  OXE d   1       5.338  -5.302  -0.784  0.00  0.00    -0.002 A 
ATOM      7  C5  OXE d   1       3.941  -5.303  -0.850  0.00  0.00    -0.002 A 
ATOM      8  C6  OXE d   1       3.212  -4.620   0.117  0.00  0.00     0.003 A 
ENDROOT
TORSDOF 0
ENDMDL
