MODEL 1
REMARK minimizedAffinity 0.341339558
REMARK minimizedRMSD -1
REMARK  0 active torsions:
REMARK  status: ('A' for Active; 'I' for Inactive)
ROOT
ATOM      1  C2' OXE d   1       3.761  -3.327   5.996  0.00  0.00     0.078 C 
ATOM      2  C1' OXE d   1       4.611  -5.984   5.679  0.00  0.00     0.078 C 
ATOM      3  C1  OXE d   1       3.916  -5.324   4.515  0.00  0.00    -0.078 A 
ATOM      4  C2  OXE d   1       3.462  -4.040   4.694  0.00  0.00    -0.078 A 
ATOM      5  C3  OXE d   1       2.863  -3.366   3.634  0.00  0.00     0.003 A 
ATOM      6  C4  OXE d   1       2.581  -4.035   2.437  0.00  0.00    -0.002 A 
ATOM      7  C5  OXE d   1       3.000  -5.357   2.247  0.00  0.00    -0.002 A 
ATOM      8  C6  OXE d   1       3.705  -6.000   3.258  0.00  0.00     0.003 A 
ENDROOT
TORSDOF 0
ENDMDL
