MODEL 1
REMARK minimizedAffinity 1.63113582
REMARK minimizedRMSD -1
REMARK  0 active torsions:
REMARK  status: ('A' for Active; 'I' for Inactive)
ROOT
ATOM      1  C2' OXE d   1       3.678  -4.907   4.635  0.00  0.00     0.078 C 
ATOM      2  C1' OXE d   1       4.884  -5.073   2.106  0.00  0.00     0.078 C 
ATOM      3  C1  OXE d   1       3.595  -4.298   2.221  0.00  0.00    -0.078 A 
ATOM      4  C2  OXE d   1       2.988  -4.262   3.454  0.00  0.00    -0.078 A 
ATOM      5  C3  OXE d   1       1.826  -3.515   3.628  0.00  0.00     0.003 A 
ATOM      6  C4  OXE d   1       1.188  -2.929   2.528  0.00  0.00    -0.002 A 
ATOM      7  C5  OXE d   1       1.769  -2.988   1.256  0.00  0.00    -0.002 A 
ATOM      8  C6  OXE d   1       2.991  -3.631   1.095  0.00  0.00     0.003 A 
ENDROOT
TORSDOF 0
ENDMDL
