MODEL 1
REMARK minimizedAffinity 10.2821121
REMARK minimizedRMSD -1
REMARK  0 active torsions:
REMARK  status: ('A' for Active; 'I' for Inactive)
ROOT
ATOM      1  C2' OXE d   1      -4.002   1.317  -4.630  0.00  0.00     0.078 C 
ATOM      2  C1' OXE d   1      -3.933  -1.133  -5.999  0.00  0.00     0.078 C 
ATOM      3  C1  OXE d   1      -4.026  -1.171  -4.494  0.00  0.00    -0.078 A 
ATOM      4  C2  OXE d   1      -4.012   0.032  -3.830  0.00  0.00    -0.078 A 
ATOM      5  C3  OXE d   1      -4.150   0.056  -2.445  0.00  0.00     0.003 A 
ATOM      6  C4  OXE d   1      -4.149  -1.137  -1.712  0.00  0.00    -0.002 A 
ATOM      7  C5  OXE d   1      -4.124  -2.372  -2.366  0.00  0.00    -0.002 A 
ATOM      8  C6  OXE d   1      -4.105  -2.407  -3.756  0.00  0.00     0.003 A 
ENDROOT
TORSDOF 0
ENDMDL
