MODEL 1
REMARK minimizedAffinity 13.8370399
REMARK minimizedRMSD -1
REMARK  0 active torsions:
REMARK  status: ('A' for Active; 'I' for Inactive)
ROOT
ATOM      1  C2' OXE d   1      -4.253   0.632  -0.970  0.00  0.00     0.078 C 
ATOM      2  C1' OXE d   1      -2.856  -1.779  -0.629  0.00  0.00     0.078 C 
ATOM      3  C1  OXE d   1      -3.802  -1.674  -1.799  0.00  0.00    -0.078 A 
ATOM      4  C2  OXE d   1      -4.516  -0.507  -1.931  0.00  0.00    -0.078 A 
ATOM      5  C3  OXE d   1      -5.362  -0.337  -3.024  0.00  0.00     0.003 A 
ATOM      6  C4  OXE d   1      -5.608  -1.399  -3.903  0.00  0.00    -0.002 A 
ATOM      7  C5  OXE d   1      -4.920  -2.610  -3.763  0.00  0.00    -0.002 A 
ATOM      8  C6  OXE d   1      -3.985  -2.748  -2.743  0.00  0.00     0.003 A 
ENDROOT
TORSDOF 0
ENDMDL
