MODEL 1
REMARK minimizedAffinity 8.92757511
REMARK minimizedRMSD -1
REMARK  0 active torsions:
REMARK  status: ('A' for Active; 'I' for Inactive)
ROOT
ATOM      1  C2' OXE d   1      -4.252   0.776  -1.334  0.00  0.00     0.078 C 
ATOM      2  C1' OXE d   1      -2.494  -1.412  -1.378  0.00  0.00     0.078 C 
ATOM      3  C1  OXE d   1      -3.619  -1.393  -2.382  0.00  0.00    -0.078 A 
ATOM      4  C2  OXE d   1      -4.502  -0.342  -2.323  0.00  0.00    -0.078 A 
ATOM      5  C3  OXE d   1      -5.526  -0.247  -3.261  0.00  0.00     0.003 A 
ATOM      6  C4  OXE d   1      -5.756  -1.291  -4.166  0.00  0.00    -0.002 A 
ATOM      7  C5  OXE d   1      -4.892  -2.390  -4.218  0.00  0.00    -0.002 A 
ATOM      8  C6  OXE d   1      -3.796  -2.436  -3.363  0.00  0.00     0.003 A 
ENDROOT
TORSDOF 0
ENDMDL
