MODEL 1
REMARK minimizedAffinity -0.656896532
REMARK minimizedRMSD -1
REMARK  0 active torsions:
REMARK  status: ('A' for Active; 'I' for Inactive)
ROOT
ATOM      1  C2' OXE d   1       3.930  -4.050   5.939  0.00  0.00     0.078 C 
ATOM      2  C1' OXE d   1       4.989  -6.000   4.220  0.00  0.00     0.078 C 
ATOM      3  C1  OXE d   1       4.003  -5.015   3.643  0.00  0.00    -0.078 A 
ATOM      4  C2  OXE d   1       3.454  -4.094   4.503  0.00  0.00    -0.078 A 
ATOM      5  C3  OXE d   1       2.580  -3.128   4.011  0.00  0.00     0.003 A 
ATOM      6  C4  OXE d   1       2.138  -3.182   2.684  0.00  0.00    -0.002 A 
ATOM      7  C5  OXE d   1       2.654  -4.137   1.802  0.00  0.00    -0.002 A 
ATOM      8  C6  OXE d   1       3.617  -5.032   2.254  0.00  0.00     0.003 A 
ENDROOT
TORSDOF 0
ENDMDL
