MODEL 1
REMARK minimizedAffinity 4.98360872
REMARK minimizedRMSD -1
REMARK  0 active torsions:
REMARK  status: ('A' for Active; 'I' for Inactive)
ROOT
ATOM      1  C1  DEN d   1       1.979   2.066  -1.781  0.00  0.00     0.130 A 
ATOM      2  C2  DEN d   1       1.910   3.397  -1.184  0.00  0.00    -0.031 A 
ATOM      3  C3  DEN d   1       1.216   3.280   0.114  0.00  0.00     0.027 A 
ATOM      4  C4  DEN d   1       0.251   1.177   1.254  0.00  0.00     0.027 A 
ATOM      5  C5  DEN d   1       0.059  -0.181   1.126  0.00  0.00    -0.003 A 
ATOM      6  C6  DEN d   1       0.460  -0.874   0.015  0.00  0.00     0.001 A 
ATOM      7  C7  DEN d   1       1.115  -0.218  -0.994  0.00  0.00     0.017 A 
ATOM      8  C8  DEN d   1       1.305   1.153  -0.876  0.00  0.00    -0.094 A 
ATOM      9  C9  DEN d   1       0.903   1.833   0.261  0.00  0.00    -0.072 A 
ENDROOT
TORSDOF 0
ENDMDL
