MODEL 1
REMARK minimizedAffinity -3.49944091
REMARK minimizedRMSD -1
REMARK  0 active torsions:
REMARK  status: ('A' for Active; 'I' for Inactive)
ROOT
ATOM      1  C1  DEN d   1      -0.781   5.965  -2.204  0.00  0.00     0.130 A 
ATOM      2  C2  DEN d   1      -2.203   5.991  -2.533  0.00  0.00    -0.031 A 
ATOM      3  C3  DEN d   1      -2.331   6.000  -4.004  0.00  0.00     0.027 A 
ATOM      4  C4  DEN d   1      -0.475   5.973  -5.795  0.00  0.00     0.027 A 
ATOM      5  C5  DEN d   1       0.887   5.962  -5.999  0.00  0.00    -0.003 A 
ATOM      6  C6  DEN d   1       1.781   5.986  -4.962  0.00  0.00     0.001 A 
ATOM      7  C7  DEN d   1       1.324   5.976  -3.671  0.00  0.00     0.017 A 
ATOM      8  C8  DEN d   1      -0.048   5.994  -3.457  0.00  0.00    -0.094 A 
ATOM      9  C9  DEN d   1      -0.936   5.958  -4.518  0.00  0.00    -0.072 A 
ENDROOT
TORSDOF 0
ENDMDL
