MODEL 1
REMARK minimizedAffinity -3.96926045
REMARK minimizedRMSD -1
REMARK  0 active torsions:
REMARK  status: ('A' for Active; 'I' for Inactive)
ROOT
ATOM      1  C1  DEN d   1      -3.827   5.981  -4.878  0.00  0.00     0.130 A 
ATOM      2  C2  DEN d   1      -4.406   5.991  -3.537  0.00  0.00    -0.031 A 
ATOM      3  C3  DEN d   1      -3.298   5.989  -2.561  0.00  0.00     0.027 A 
ATOM      4  C4  DEN d   1      -0.755   5.977  -2.993  0.00  0.00     0.027 A 
ATOM      5  C5  DEN d   1       0.218   5.956  -3.967  0.00  0.00    -0.003 A 
ATOM      6  C6  DEN d   1      -0.086   5.908  -5.302  0.00  0.00     0.001 A 
ATOM      7  C7  DEN d   1      -1.397   5.925  -5.700  0.00  0.00     0.017 A 
ATOM      8  C8  DEN d   1      -2.384   5.939  -4.723  0.00  0.00    -0.094 A 
ATOM      9  C9  DEN d   1      -2.056   6.000  -3.380  0.00  0.00    -0.072 A 
ENDROOT
TORSDOF 0
ENDMDL
