MODEL 1
REMARK minimizedAffinity -0.0315861478
REMARK minimizedRMSD -1
REMARK  0 active torsions:
REMARK  status: ('A' for Active; 'I' for Inactive)
ROOT
ATOM      1  C1  DEN d   1      -2.101   5.943  -1.882  0.00  0.00     0.130 A 
ATOM      2  C2  DEN d   1      -3.375   5.971  -2.595  0.00  0.00    -0.031 A 
ATOM      3  C3  DEN d   1      -3.087   5.999  -4.043  0.00  0.00     0.027 A 
ATOM      4  C4  DEN d   1      -0.804   5.996  -5.244  0.00  0.00     0.027 A 
ATOM      5  C5  DEN d   1       0.561   5.988  -5.059  0.00  0.00    -0.003 A 
ATOM      6  C6  DEN d   1       1.130   5.999  -3.813  0.00  0.00     0.001 A 
ATOM      7  C7  DEN d   1       0.330   5.973  -2.702  0.00  0.00     0.017 A 
ATOM      8  C8  DEN d   1      -1.048   5.988  -2.879  0.00  0.00    -0.094 A 
ATOM      9  C9  DEN d   1      -1.603   5.964  -4.147  0.00  0.00    -0.072 A 
ENDROOT
TORSDOF 0
ENDMDL
