MODEL 1
REMARK minimizedAffinity -1.65707445
REMARK minimizedRMSD -1
REMARK  0 active torsions:
REMARK  status: ('A' for Active; 'I' for Inactive)
ROOT
ATOM      1  C1  DEN d   1       0.024   5.349  -5.999  0.00  0.00     0.130 A 
ATOM      2  C2  DEN d   1       1.437   5.680  -5.841  0.00  0.00    -0.031 A 
ATOM      3  C3  DEN d   1       1.676   5.996  -4.418  0.00  0.00     0.027 A 
ATOM      4  C4  DEN d   1       0.004   6.000  -2.454  0.00  0.00     0.027 A 
ATOM      5  C5  DEN d   1      -1.311   5.797  -2.099  0.00  0.00    -0.003 A 
ATOM      6  C6  DEN d   1      -2.272   5.466  -3.017  0.00  0.00     0.001 A 
ATOM      7  C7  DEN d   1      -1.924   5.285  -4.330  0.00  0.00     0.017 A 
ATOM      8  C8  DEN d   1      -0.601   5.495  -4.696  0.00  0.00    -0.094 A 
ATOM      9  C9  DEN d   1       0.358   5.817  -3.751  0.00  0.00    -0.072 A 
ENDROOT
TORSDOF 0
ENDMDL
