MODEL 1
REMARK minimizedAffinity -0.508667588
REMARK minimizedRMSD -1
REMARK  0 active torsions:
REMARK  status: ('A' for Active; 'I' for Inactive)
ROOT
ATOM      1  C1  DEN d   1       1.838   5.950  -5.974  0.00  0.00     0.130 A 
ATOM      2  C2  DEN d   1       2.925   5.975  -4.999  0.00  0.00    -0.031 A 
ATOM      3  C3  DEN d   1       2.328   5.994  -3.649  0.00  0.00     0.027 A 
ATOM      4  C4  DEN d   1      -0.162   5.981  -2.976  0.00  0.00     0.027 A 
ATOM      5  C5  DEN d   1      -1.454   5.974  -3.454  0.00  0.00    -0.003 A 
ATOM      6  C6  DEN d   1      -1.737   5.992  -4.794  0.00  0.00     0.001 A 
ATOM      7  C7  DEN d   1      -0.713   5.973  -5.704  0.00  0.00     0.017 A 
ATOM      8  C8  DEN d   1       0.592   5.988  -5.230  0.00  0.00    -0.094 A 
ATOM      9  C9  DEN d   1       0.857   5.957  -3.872  0.00  0.00    -0.072 A 
ENDROOT
TORSDOF 0
ENDMDL
