MODEL 1
REMARK minimizedAffinity 1.25138915
REMARK minimizedRMSD -1
REMARK  0 active torsions:
REMARK  status: ('A' for Active; 'I' for Inactive)
ROOT
ATOM      1  C1  DEN d   1      -1.212   5.941  -5.719  0.00  0.00     0.130 A 
ATOM      2  C2  DEN d   1       0.213   5.970  -5.399  0.00  0.00    -0.031 A 
ATOM      3  C3  DEN d   1       0.350   6.000  -3.929  0.00  0.00     0.027 A 
ATOM      4  C4  DEN d   1      -1.495   5.997  -2.127  0.00  0.00     0.027 A 
ATOM      5  C5  DEN d   1      -2.856   5.990  -1.914  0.00  0.00    -0.003 A 
ATOM      6  C6  DEN d   1      -3.757   6.000  -2.945  0.00  0.00     0.001 A 
ATOM      7  C7  DEN d   1      -3.308   5.972  -4.239  0.00  0.00     0.017 A 
ATOM      8  C8  DEN d   1      -1.937   5.987  -4.462  0.00  0.00    -0.094 A 
ATOM      9  C9  DEN d   1      -1.042   5.965  -3.406  0.00  0.00    -0.072 A 
ENDROOT
TORSDOF 0
ENDMDL
