MODEL 1
REMARK minimizedAffinity -3.06080794
REMARK minimizedRMSD -1
REMARK  0 active torsions:
REMARK  status: ('A' for Active; 'I' for Inactive)
ROOT
ATOM      1  C1  DEN d   1      -1.463   5.964  -4.531  0.00  0.00     0.130 A 
ATOM      2  C2  DEN d   1      -1.645   5.906  -3.084  0.00  0.00    -0.031 A 
ATOM      3  C3  DEN d   1      -0.309   5.892  -2.456  0.00  0.00     0.027 A 
ATOM      4  C4  DEN d   1       2.013   5.958  -3.578  0.00  0.00     0.027 A 
ATOM      5  C5  DEN d   1       2.675   5.999  -4.785  0.00  0.00    -0.003 A 
ATOM      6  C6  DEN d   1       2.011   5.997  -5.983  0.00  0.00     0.001 A 
ATOM      7  C7  DEN d   1       0.641   5.999  -6.000  0.00  0.00     0.017 A 
ATOM      8  C8  DEN d   1      -0.034   5.950  -4.787  0.00  0.00    -0.094 A 
ATOM      9  C9  DEN d   1       0.655   5.965  -3.586  0.00  0.00    -0.072 A 
ENDROOT
TORSDOF 0
ENDMDL
