MODEL 1
REMARK minimizedAffinity 7.51998997
REMARK minimizedRMSD -1
REMARK  0 active torsions:
REMARK  status: ('A' for Active; 'I' for Inactive)
ROOT
ATOM      1  C1  DEN d   1       1.630   0.153  -1.422  0.00  0.00     0.130 A 
ATOM      2  C2  DEN d   1       2.191   1.120  -2.362  0.00  0.00    -0.031 A 
ATOM      3  C3  DEN d   1       2.094   2.460  -1.751  0.00  0.00     0.027 A 
ATOM      4  C4  DEN d   1       1.140   3.129   0.550  0.00  0.00     0.027 A 
ATOM      5  C5  DEN d   1       0.540   2.658   1.696  0.00  0.00    -0.003 A 
ATOM      6  C6  DEN d   1       0.232   1.334   1.868  0.00  0.00     0.001 A 
ATOM      7  C7  DEN d   1       0.565   0.428   0.896  0.00  0.00     0.017 A 
ATOM      8  C8  DEN d   1       1.164   0.897  -0.266  0.00  0.00    -0.094 A 
ATOM      9  C9  DEN d   1       1.478   2.237  -0.415  0.00  0.00    -0.072 A 
ENDROOT
TORSDOF 0
ENDMDL
