MODEL 1
REMARK minimizedAffinity 6.56357527
REMARK minimizedRMSD -1
REMARK  0 active torsions:
REMARK  status: ('A' for Active; 'I' for Inactive)
ROOT
ATOM      1  C1  DEN d   1       1.267   3.254   0.721  0.00  0.00     0.130 A 
ATOM      2  C2  DEN d   1       1.642   2.996  -0.667  0.00  0.00    -0.031 A 
ATOM      3  C3  DEN d   1       1.283   1.598  -0.983  0.00  0.00     0.027 A 
ATOM      4  C4  DEN d   1       0.186  -0.178   0.531  0.00  0.00     0.027 A 
ATOM      5  C5  DEN d   1      -0.304  -0.429   1.793  0.00  0.00    -0.003 A 
ATOM      6  C6  DEN d   1      -0.274   0.511   2.788  0.00  0.00     0.001 A 
ATOM      7  C7  DEN d   1       0.216   1.763   2.525  0.00  0.00     0.017 A 
ATOM      8  C8  DEN d   1       0.719   2.021   1.256  0.00  0.00    -0.094 A 
ATOM      9  C9  DEN d   1       0.669   1.061   0.260  0.00  0.00    -0.072 A 
ENDROOT
TORSDOF 0
ENDMDL
