MODEL 1
REMARK minimizedAffinity -2.66469717
REMARK minimizedRMSD -1
REMARK  0 active torsions:
REMARK  status: ('A' for Active; 'I' for Inactive)
ROOT
ATOM      1  C1  DEN d   1      -0.383   5.999  -2.438  0.00  0.00     0.130 A 
ATOM      2  C2  DEN d   1       0.134   5.961  -3.803  0.00  0.00    -0.031 A 
ATOM      3  C3  DEN d   1      -1.018   5.944  -4.727  0.00  0.00     0.027 A 
ATOM      4  C4  DEN d   1      -3.538   5.979  -4.179  0.00  0.00     0.027 A 
ATOM      5  C5  DEN d   1      -4.465   6.000  -3.161  0.00  0.00    -0.003 A 
ATOM      6  C6  DEN d   1      -4.100   5.988  -1.841  0.00  0.00     0.001 A 
ATOM      7  C7  DEN d   1      -2.773   6.000  -1.503  0.00  0.00     0.017 A 
ATOM      8  C8  DEN d   1      -1.832   5.971  -2.525  0.00  0.00    -0.094 A 
ATOM      9  C9  DEN d   1      -2.221   5.996  -3.853  0.00  0.00    -0.072 A 
ENDROOT
TORSDOF 0
ENDMDL
