MODEL 1
REMARK minimizedAffinity 1.78539121
REMARK minimizedRMSD -1
REMARK  0 active torsions:
REMARK  status: ('A' for Active; 'I' for Inactive)
ROOT
ATOM      1  C1  DEN d   1       0.754   3.410   1.490  0.00  0.00     0.130 A 
ATOM      2  C2  DEN d   1       1.305   3.484   0.139  0.00  0.00    -0.031 A 
ATOM      3  C3  DEN d   1       1.201   2.144  -0.471  0.00  0.00     0.027 A 
ATOM      4  C4  DEN d   1       0.241  -0.028   0.537  0.00  0.00     0.027 A 
ATOM      5  C5  DEN d   1      -0.333  -0.587   1.657  0.00  0.00    -0.003 A 
ATOM      6  C6  DEN d   1      -0.551   0.132   2.803  0.00  0.00     0.001 A 
ATOM      7  C7  DEN d   1      -0.235   1.464   2.838  0.00  0.00     0.017 A 
ATOM      8  C8  DEN d   1       0.350   2.034   1.715  0.00  0.00    -0.094 A 
ATOM      9  C9  DEN d   1       0.551   1.293   0.563  0.00  0.00    -0.072 A 
ENDROOT
TORSDOF 0
ENDMDL
