MODEL 1
REMARK minimizedAffinity -2.36573315
REMARK minimizedRMSD -1
REMARK  0 active torsions:
REMARK  status: ('A' for Active; 'I' for Inactive)
ROOT
ATOM      1  C1  DEN d   1       0.289   5.432  -3.402  0.00  0.00     0.130 A 
ATOM      2  C2  DEN d   1       0.285   5.255  -4.852  0.00  0.00    -0.031 A 
ATOM      3  C3  DEN d   1      -1.111   5.366  -5.321  0.00  0.00     0.027 A 
ATOM      4  C4  DEN d   1      -3.254   5.796  -3.953  0.00  0.00     0.027 A 
ATOM      5  C5  DEN d   1      -3.755   6.000  -2.686  0.00  0.00    -0.003 A 
ATOM      6  C6  DEN d   1      -2.954   5.995  -1.574  0.00  0.00     0.001 A 
ATOM      7  C7  DEN d   1      -1.602   5.826  -1.713  0.00  0.00     0.017 A 
ATOM      8  C8  DEN d   1      -1.090   5.613  -2.986  0.00  0.00    -0.094 A 
ATOM      9  C9  DEN d   1      -1.915   5.634  -4.099  0.00  0.00    -0.072 A 
ENDROOT
TORSDOF 0
ENDMDL
