MODEL 1
REMARK minimizedAffinity 6.51658869
REMARK minimizedRMSD -1
REMARK  0 active torsions:
REMARK  status: ('A' for Active; 'I' for Inactive)
ROOT
ATOM      1  C1  DEN d   1      -0.171  -0.637   0.716  0.00  0.00     0.130 A 
ATOM      2  C2  DEN d   1      -0.304  -0.324   2.136  0.00  0.00    -0.031 A 
ATOM      3  C3  DEN d   1       0.223   1.038   2.354  0.00  0.00     0.027 A 
ATOM      4  C4  DEN d   1       1.224   2.685   0.640  0.00  0.00     0.027 A 
ATOM      5  C5  DEN d   1       1.556   2.862  -0.685  0.00  0.00    -0.003 A 
ATOM      6  C6  DEN d   1       1.369   1.881  -1.622  0.00  0.00     0.001 A 
ATOM      7  C7  DEN d   1       0.793   0.693  -1.255  0.00  0.00     0.017 A 
ATOM      8  C8  DEN d   1       0.462   0.504   0.080  0.00  0.00    -0.094 A 
ATOM      9  C9  DEN d   1       0.648   1.513   1.010  0.00  0.00    -0.072 A 
ENDROOT
TORSDOF 0
ENDMDL
