MODEL 1
REMARK minimizedAffinity 6.34580564
REMARK minimizedRMSD -1
REMARK  0 active torsions:
REMARK  status: ('A' for Active; 'I' for Inactive)
ROOT
ATOM      1  C1  DEN d   1      -0.090   5.996  -2.791  0.00  0.00     0.130 A 
ATOM      2  C2  DEN d   1       0.253   5.961  -4.210  0.00  0.00    -0.031 A 
ATOM      3  C3  DEN d   1      -1.005   5.946  -4.984  0.00  0.00     0.027 A 
ATOM      4  C4  DEN d   1      -3.437   5.980  -4.126  0.00  0.00     0.027 A 
ATOM      5  C5  DEN d   1      -4.230   5.999  -3.000  0.00  0.00    -0.003 A 
ATOM      6  C6  DEN d   1      -3.704   5.985  -1.735  0.00  0.00     0.001 A 
ATOM      7  C7  DEN d   1      -2.344   5.995  -1.566  0.00  0.00     0.017 A 
ATOM      8  C8  DEN d   1      -1.538   5.969  -2.697  0.00  0.00    -0.094 A 
ATOM      9  C9  DEN d   1      -2.090   5.996  -3.966  0.00  0.00    -0.072 A 
ENDROOT
TORSDOF 0
ENDMDL
