MODEL 1
REMARK minimizedAffinity -2.66313052
REMARK minimizedRMSD -1
REMARK  0 active torsions:
REMARK  status: ('A' for Active; 'I' for Inactive)
ROOT
ATOM      1  C1  BNZ d   1       2.394   3.657  -6.000  0.00  0.00     0.000 A 
ATOM      2  C2  BNZ d   1       3.753   3.489  -5.999  0.00  0.00     0.000 A 
ATOM      3  C3  BNZ d   1       4.591   4.569  -5.974  0.00  0.00     0.000 A 
ATOM      4  C4  BNZ d   1       4.071   5.813  -5.990  0.00  0.00     0.000 A 
ATOM      5  C5  BNZ d   1       2.703   5.998  -6.000  0.00  0.00     0.000 A 
ATOM      6  C6  BNZ d   1       1.862   4.909  -5.986  0.00  0.00     0.000 A 
ENDROOT
TORSDOF 0
ENDMDL
