MODEL 1
REMARK minimizedAffinity 5.41662169
REMARK minimizedRMSD -1
REMARK  0 active torsions:
REMARK  status: ('A' for Active; 'I' for Inactive)
ROOT
ATOM      1  C1  BNZ d   1       1.621  -1.283   0.629  0.00  0.00     0.000 A 
ATOM      2  C2  BNZ d   1       0.863  -1.364   1.766  0.00  0.00     0.000 A 
ATOM      3  C3  BNZ d   1      -0.459  -1.017   1.752  0.00  0.00     0.000 A 
ATOM      4  C4  BNZ d   1      -1.010  -0.552   0.612  0.00  0.00     0.000 A 
ATOM      5  C5  BNZ d   1      -0.257  -0.455  -0.540  0.00  0.00     0.000 A 
ATOM      6  C6  BNZ d   1       1.064  -0.843  -0.532  0.00  0.00     0.000 A 
ENDROOT
TORSDOF 0
ENDMDL
