MODEL 1
REMARK minimizedAffinity 5.292068
REMARK minimizedRMSD -1
REMARK  0 active torsions:
REMARK  status: ('A' for Active; 'I' for Inactive)
ROOT
ATOM      1  C1  BNZ d   1       0.751  -0.722   0.071  0.00  0.00     0.000 A 
ATOM      2  C2  BNZ d   1      -0.348  -0.621   0.882  0.00  0.00     0.000 A 
ATOM      3  C3  BNZ d   1      -0.920   0.594   1.138  0.00  0.00     0.000 A 
ATOM      4  C4  BNZ d   1      -0.370   1.709   0.616  0.00  0.00     0.000 A 
ATOM      5  C5  BNZ d   1       0.744   1.625  -0.196  0.00  0.00     0.000 A 
ATOM      6  C6  BNZ d   1       1.294   0.396  -0.483  0.00  0.00     0.000 A 
ENDROOT
TORSDOF 0
ENDMDL
