MODEL 1
REMARK minimizedAffinity -0.701616526
REMARK minimizedRMSD -1
REMARK  0 active torsions:
REMARK  status: ('A' for Active; 'I' for Inactive)
ROOT
ATOM      1  C1  BNZ d   1      -2.998  -0.627   1.611  0.00  0.00     0.000 A 
ATOM      2  C2  BNZ d   1      -2.023   0.005   0.886  0.00  0.00     0.000 A 
ATOM      3  C3  BNZ d   1      -0.700  -0.221   1.145  0.00  0.00     0.000 A 
ATOM      4  C4  BNZ d   1      -0.354  -1.046   2.154  0.00  0.00     0.000 A 
ATOM      5  C5  BNZ d   1      -1.325  -1.683   2.901  0.00  0.00     0.000 A 
ATOM      6  C6  BNZ d   1      -2.655  -1.483   2.612  0.00  0.00     0.000 A 
ENDROOT
TORSDOF 0
ENDMDL
