MODEL 1
REMARK minimizedAffinity 2.14085269
REMARK minimizedRMSD -1
REMARK  0 active torsions:
REMARK  status: ('A' for Active; 'I' for Inactive)
ROOT
ATOM      1  C1  BNZ d   1      -0.925  -0.452   1.368  0.00  0.00     0.000 A 
ATOM      2  C2  BNZ d   1       0.147  -0.855   2.119  0.00  0.00     0.000 A 
ATOM      3  C3  BNZ d   1       1.350  -1.130   1.531  0.00  0.00     0.000 A 
ATOM      4  C4  BNZ d   1       1.468  -1.041   0.191  0.00  0.00     0.000 A 
ATOM      5  C5  BNZ d   1       0.394  -0.645  -0.581  0.00  0.00     0.000 A 
ATOM      6  C6  BNZ d   1      -0.804  -0.332   0.018  0.00  0.00     0.000 A 
ENDROOT
TORSDOF 0
ENDMDL
