MODEL 1
REMARK minimizedAffinity -1.68024504
REMARK minimizedRMSD -1
REMARK  0 active torsions:
REMARK  status: ('A' for Active; 'I' for Inactive)
ROOT
ATOM      1  C1  BNZ d   1      -3.187   1.933  -3.043  0.00  0.00     0.000 A 
ATOM      2  C2  BNZ d   1      -2.843   3.151  -3.568  0.00  0.00     0.000 A 
ATOM      3  C3  BNZ d   1      -1.532   3.514  -3.692  0.00  0.00     0.000 A 
ATOM      4  C4  BNZ d   1      -0.568   2.678  -3.255  0.00  0.00     0.000 A 
ATOM      5  C5  BNZ d   1      -0.899   1.451  -2.715  0.00  0.00     0.000 A 
ATOM      6  C6  BNZ d   1      -2.218   1.072  -2.628  0.00  0.00     0.000 A 
ENDROOT
TORSDOF 0
ENDMDL
