MODEL 1
REMARK minimizedAffinity 6.67718458
REMARK minimizedRMSD -1
REMARK  3 active torsions:
REMARK  status: ('A' for Active; 'I' for Inactive)
REMARK    1  A    between atoms: C3'_2  and  C2'_3 
REMARK    2  A    between atoms: C2'_3  and  C1'_4 
REMARK    3  A    between atoms: C1'_4  and  C1_5 
ROOT
ATOM      1  C1  N4B d   1      -0.121   1.172  -1.307  0.00  0.00    -0.075 A 
ATOM      2  C2  N4B d   1       0.376   1.781  -0.134  0.00  0.00     0.002 A 
ATOM      3  C3  N4B d   1       1.602   1.414   0.364  0.00  0.00     0.002 A 
ATOM      4  C4  N4B d   1       2.337   0.430  -0.281  0.00  0.00    -0.004 A 
ATOM      5  C5  N4B d   1       1.861  -0.135  -1.428  0.00  0.00     0.002 A 
ATOM      6  C6  N4B d   1       0.632   0.227  -1.942  0.00  0.00     0.002 A 
ENDROOT
BRANCH   1   7
ATOM      7  C1' N4B d   1      -1.494   1.479  -1.841  0.00  0.00     0.057 C 
BRANCH   7   8
ATOM      8  C2' N4B d   1      -1.860   2.916  -1.485  0.00  0.00     0.009 C 
BRANCH   8   9
ATOM      9  C3' N4B d   1      -3.206   3.004  -0.787  0.00  0.00     0.004 C 
ATOM     10  C4' N4B d   1      -3.085   3.019   0.708  0.00  0.00     0.003 C 
ENDBRANCH   8   9
ENDBRANCH   7   8
ENDBRANCH   1   7
TORSDOF 3
ENDMDL
