MODEL 1
REMARK minimizedAffinity 5.40608644
REMARK minimizedRMSD -1
REMARK  3 active torsions:
REMARK  status: ('A' for Active; 'I' for Inactive)
REMARK    1  A    between atoms: C3'_2  and  C2'_3 
REMARK    2  A    between atoms: C2'_3  and  C1'_4 
REMARK    3  A    between atoms: C1'_4  and  C1_5 
ROOT
ATOM      1  C1  N4B d   1      -2.839   1.852   3.558  0.00  0.00    -0.075 A 
ATOM      2  C2  N4B d   1      -2.223   2.850   2.771  0.00  0.00     0.002 A 
ATOM      3  C3  N4B d   1      -2.736   3.165   1.536  0.00  0.00     0.002 A 
ATOM      4  C4  N4B d   1      -3.848   2.485   1.062  0.00  0.00    -0.004 A 
ATOM      5  C5  N4B d   1      -4.452   1.540   1.839  0.00  0.00     0.002 A 
ATOM      6  C6  N4B d   1      -3.949   1.216   3.083  0.00  0.00     0.002 A 
ENDROOT
BRANCH   1   7
ATOM      7  C1' N4B d   1      -2.263   1.413   4.876  0.00  0.00     0.057 C 
BRANCH   7   8
ATOM      8  C2' N4B d   1      -3.178   0.361   5.497  0.00  0.00     0.009 C 
BRANCH   8   9
ATOM      9  C3' N4B d   1      -2.400  -0.843   5.998  0.00  0.00     0.004 C 
ATOM     10  C4' N4B d   1      -3.193  -2.114   5.937  0.00  0.00     0.003 C 
ENDBRANCH   8   9
ENDBRANCH   7   8
ENDBRANCH   1   7
TORSDOF 3
ENDMDL
