MODEL 1
REMARK minimizedAffinity 1.18566811
REMARK minimizedRMSD -1
REMARK  3 active torsions:
REMARK  status: ('A' for Active; 'I' for Inactive)
REMARK    1  A    between atoms: C3'_2  and  C2'_3 
REMARK    2  A    between atoms: C2'_3  and  C1'_4 
REMARK    3  A    between atoms: C1'_4  and  C1_5 
ROOT
ATOM      1  C1  N4B d   1       1.124  -0.615  -1.377  0.00  0.00    -0.075 A 
ATOM      2  C2  N4B d   1       1.252  -0.774   0.021  0.00  0.00     0.002 A 
ATOM      3  C3  N4B d   1       1.192   0.323   0.845  0.00  0.00     0.002 A 
ATOM      4  C4  N4B d   1       1.025   1.586   0.295  0.00  0.00    -0.004 A 
ATOM      5  C5  N4B d   1       0.877   1.728  -1.054  0.00  0.00     0.002 A 
ATOM      6  C6  N4B d   1       0.931   0.634  -1.894  0.00  0.00     0.002 A 
ENDROOT
BRANCH   1   7
ATOM      7  C1' N4B d   1       1.269  -1.774  -2.324  0.00  0.00     0.057 C 
BRANCH   7   8
ATOM      8  C2' N4B d   1       1.618  -1.246  -3.713  0.00  0.00     0.009 C 
BRANCH   8   9
ATOM      9  C3' N4B d   1       2.440  -2.244  -4.510  0.00  0.00     0.004 C 
ATOM     10  C4' N4B d   1       2.636  -1.826  -5.937  0.00  0.00     0.003 C 
ENDBRANCH   8   9
ENDBRANCH   7   8
ENDBRANCH   1   7
TORSDOF 3
ENDMDL
