MODEL 1
REMARK minimizedAffinity 8.56416512
REMARK minimizedRMSD -1
REMARK  3 active torsions:
REMARK  status: ('A' for Active; 'I' for Inactive)
REMARK    1  A    between atoms: C3'_2  and  C2'_3 
REMARK    2  A    between atoms: C2'_3  and  C1'_4 
REMARK    3  A    between atoms: C1'_4  and  C1_5 
ROOT
ATOM      1  C1  N4B d   1       1.352   1.112  -0.005  0.00  0.00    -0.075 A 
ATOM      2  C2  N4B d   1       0.641  -0.108  -0.021  0.00  0.00     0.002 A 
ATOM      3  C3  N4B d   1       0.195  -0.627  -1.212  0.00  0.00     0.002 A 
ATOM      4  C4  N4B d   1       0.432   0.063  -2.392  0.00  0.00    -0.004 A 
ATOM      5  C5  N4B d   1       1.141   1.228  -2.370  0.00  0.00     0.002 A 
ATOM      6  C6  N4B d   1       1.599   1.759  -1.181  0.00  0.00     0.002 A 
ENDROOT
BRANCH   1   7
ATOM      7  C1' N4B d   1       1.784   1.762   1.281  0.00  0.00     0.057 C 
BRANCH   7   8
ATOM      8  C2' N4B d   1       2.807   0.868   1.975  0.00  0.00     0.009 C 
BRANCH   8   9
ATOM      9  C3' N4B d   1       3.962   0.508   1.057  0.00  0.00     0.004 C 
ATOM     10  C4' N4B d   1       4.135  -0.973   0.895  0.00  0.00     0.003 C 
ENDBRANCH   8   9
ENDBRANCH   7   8
ENDBRANCH   1   7
TORSDOF 3
ENDMDL
