MODEL 1
REMARK minimizedAffinity 4.52869129
REMARK minimizedRMSD -1
REMARK  3 active torsions:
REMARK  status: ('A' for Active; 'I' for Inactive)
REMARK    1  A    between atoms: C3'_2  and  C2'_3 
REMARK    2  A    between atoms: C2'_3  and  C1'_4 
REMARK    3  A    between atoms: C1'_4  and  C1_5 
ROOT
ATOM      1  C1  N4B d   1       1.315   2.228  -1.062  0.00  0.00    -0.075 A 
ATOM      2  C2  N4B d   1       1.398   1.052  -1.840  0.00  0.00     0.002 A 
ATOM      3  C3  N4B d   1       1.308  -0.178  -1.237  0.00  0.00     0.002 A 
ATOM      4  C4  N4B d   1       1.153  -0.258   0.139  0.00  0.00    -0.004 A 
ATOM      5  C5  N4B d   1       1.048   0.883   0.881  0.00  0.00     0.002 A 
ATOM      6  C6  N4B d   1       1.133   2.126   0.287  0.00  0.00     0.002 A 
ENDROOT
BRANCH   1   7
ATOM      7  C1' N4B d   1       1.494   3.594  -1.665  0.00  0.00     0.057 C 
BRANCH   7   8
ATOM      8  C2' N4B d   1       1.500   4.637  -0.551  0.00  0.00     0.009 C 
BRANCH   8   9
ATOM      9  C3' N4B d   1       1.951   5.999  -1.050  0.00  0.00     0.004 C 
ATOM     10  C4' N4B d   1       3.371   6.000  -1.532  0.00  0.00     0.003 C 
ENDBRANCH   8   9
ENDBRANCH   7   8
ENDBRANCH   1   7
TORSDOF 3
ENDMDL
