MODEL 1
REMARK minimizedAffinity 10.7829981
REMARK minimizedRMSD -1
REMARK  3 active torsions:
REMARK  status: ('A' for Active; 'I' for Inactive)
REMARK    1  A    between atoms: C3'_2  and  C2'_3 
REMARK    2  A    between atoms: C2'_3  and  C1'_4 
REMARK    3  A    between atoms: C1'_4  and  C1_5 
ROOT
ATOM      1  C1  N4B d   1      -2.377   3.593   2.125  0.00  0.00    -0.075 A 
ATOM      2  C2  N4B d   1      -2.485   2.832   3.310  0.00  0.00     0.002 A 
ATOM      3  C3  N4B d   1      -3.196   1.656   3.308  0.00  0.00     0.002 A 
ATOM      4  C4  N4B d   1      -3.820   1.234   2.144  0.00  0.00    -0.004 A 
ATOM      5  C5  N4B d   1      -3.690   1.962   0.998  0.00  0.00     0.002 A 
ATOM      6  C6  N4B d   1      -2.975   3.143   0.984  0.00  0.00     0.002 A 
ENDROOT
BRANCH   1   7
ATOM      7  C1' N4B d   1      -1.683   4.927   2.100  0.00  0.00     0.057 C 
BRANCH   7   8
ATOM      8  C2' N4B d   1      -1.222   5.279   3.511  0.00  0.00     0.009 C 
BRANCH   8   9
ATOM      9  C3' N4B d   1       0.134   5.964   3.511  0.00  0.00     0.004 C 
ATOM     10  C4' N4B d   1       0.961   5.613   4.712  0.00  0.00     0.003 C 
ENDBRANCH   8   9
ENDBRANCH   7   8
ENDBRANCH   1   7
TORSDOF 3
ENDMDL
