MODEL 1
REMARK minimizedAffinity 2.35427165
REMARK minimizedRMSD -1
REMARK  3 active torsions:
REMARK  status: ('A' for Active; 'I' for Inactive)
REMARK    1  A    between atoms: C3'_2  and  C2'_3 
REMARK    2  A    between atoms: C2'_3  and  C1'_4 
REMARK    3  A    between atoms: C1'_4  and  C1_5 
ROOT
ATOM      1  C1  N4B d   1       1.430   1.159   0.530  0.00  0.00    -0.075 A 
ATOM      2  C2  N4B d   1       2.224   1.448  -0.602  0.00  0.00     0.002 A 
ATOM      3  C3  N4B d   1       1.935   0.863  -1.810  0.00  0.00     0.002 A 
ATOM      4  C4  N4B d   1       0.873  -0.023  -1.907  0.00  0.00    -0.004 A 
ATOM      5  C5  N4B d   1       0.096  -0.277  -0.816  0.00  0.00     0.002 A 
ATOM      6  C6  N4B d   1       0.372   0.306   0.405  0.00  0.00     0.002 A 
ENDROOT
BRANCH   1   7
ATOM      7  C1' N4B d   1       1.759   1.707   1.892  0.00  0.00     0.057 C 
BRANCH   7   8
ATOM      8  C2' N4B d   1       3.266   1.920   1.995  0.00  0.00     0.009 C 
BRANCH   8   9
ATOM      9  C3' N4B d   1       3.609   3.244   2.655  0.00  0.00     0.004 C 
ATOM     10  C4' N4B d   1       2.507   4.255   2.534  0.00  0.00     0.003 C 
ENDBRANCH   8   9
ENDBRANCH   7   8
ENDBRANCH   1   7
TORSDOF 3
ENDMDL
