MODEL 1
REMARK minimizedAffinity 3.94918203
REMARK minimizedRMSD -1
REMARK  3 active torsions:
REMARK  status: ('A' for Active; 'I' for Inactive)
REMARK    1  A    between atoms: C3'_2  and  C2'_3 
REMARK    2  A    between atoms: C2'_3  and  C1'_4 
REMARK    3  A    between atoms: C1'_4  and  C1_5 
ROOT
ATOM      1  C1  N4B d   1       0.743   1.941   0.700  0.00  0.00    -0.075 A 
ATOM      2  C2  N4B d   1       1.735   1.098   1.249  0.00  0.00     0.002 A 
ATOM      3  C3  N4B d   1       2.112  -0.042   0.582  0.00  0.00     0.002 A 
ATOM      4  C4  N4B d   1       1.502  -0.367  -0.620  0.00  0.00    -0.004 A 
ATOM      5  C5  N4B d   1       0.563   0.466  -1.155  0.00  0.00     0.002 A 
ATOM      6  C6  N4B d   1       0.177   1.617  -0.498  0.00  0.00     0.002 A 
ENDROOT
BRANCH   1   7
ATOM      7  C1' N4B d   1       0.237   3.153   1.434  0.00  0.00     0.057 C 
BRANCH   7   8
ATOM      8  C2' N4B d   1      -1.102   2.820   2.087  0.00  0.00     0.009 C 
BRANCH   8   9
ATOM      9  C3' N4B d   1      -2.131   3.914   1.862  0.00  0.00     0.004 C 
ATOM     10  C4' N4B d   1      -3.360   3.420   1.159  0.00  0.00     0.003 C 
ENDBRANCH   8   9
ENDBRANCH   7   8
ENDBRANCH   1   7
TORSDOF 3
ENDMDL
