MODEL 1
REMARK minimizedAffinity -1.93363798
REMARK minimizedRMSD -1
REMARK  1 active torsions:
REMARK  status: ('A' for Active; 'I' for Inactive)
REMARK    1  A    between atoms: N_2  and  C1_3 
ROOT
ATOM      1  C1  UNL d   1      -0.889   0.275  -0.725  0.00  0.00     0.143 A 
ATOM      2  C2  UNL d   1       0.075   1.277  -0.567  0.00  0.00    -0.057 A 
ATOM      3  C3  UNL d   1       1.099   1.156   0.380  0.00  0.00     0.033 A 
ATOM      4  C4  UNL d   1       1.160   0.041   1.209  0.00  0.00    -0.042 A 
ATOM      5  C5  UNL d   1       0.198  -0.956   1.086  0.00  0.00     0.033 A 
ATOM      6  C6  UNL d   1      -0.818  -0.833   0.134  0.00  0.00    -0.057 A 
ENDROOT
BRANCH   1   7
ATOM      7  N   UNL d   1      -1.988   0.381  -1.581  0.00  0.00    -0.732 N 
ATOM      8  C   UNL d   1      -2.087  -0.451  -2.761  0.00  0.00     0.284 C 
ATOM      9  H3  UNL d   1      -2.864   0.492  -1.075  0.00  0.00     0.395 HD
ENDBRANCH   1   7
TORSDOF 1
ENDMDL
