MODEL 1
REMARK minimizedAffinity -3.0952003
REMARK minimizedRMSD -1
REMARK  1 active torsions:
REMARK  status: ('A' for Active; 'I' for Inactive)
REMARK    1  A    between atoms: N_2  and  C1_3 
ROOT
ATOM      1  C1  UNL d   1       0.390  -0.959   1.244  0.00  0.00     0.143 A 
ATOM      2  C2  UNL d   1      -0.815  -0.702   0.580  0.00  0.00    -0.057 A 
ATOM      3  C3  UNL d   1      -0.970   0.428  -0.232  0.00  0.00     0.033 A 
ATOM      4  C4  UNL d   1       0.071   1.340  -0.371  0.00  0.00    -0.042 A 
ATOM      5  C5  UNL d   1       1.269   1.118   0.299  0.00  0.00     0.033 A 
ATOM      6  C6  UNL d   1       1.420  -0.016   1.103  0.00  0.00    -0.057 A 
ENDROOT
BRANCH   1   7
ATOM      7  N   UNL d   1       0.573  -2.012   2.143  0.00  0.00    -0.732 N 
ATOM      8  C   UNL d   1       1.714  -2.031   3.033  0.00  0.00     0.284 C 
ATOM      9  H3  UNL d   1      -0.298  -2.309   2.577  0.00  0.00     0.395 HD
ENDBRANCH   1   7
TORSDOF 1
ENDMDL
