MODEL 1
REMARK minimizedAffinity 10.0717583
REMARK minimizedRMSD -1
REMARK  0 active torsions:
REMARK  status: ('A' for Active; 'I' for Inactive)
ROOT
ATOM      1  O1  BZF d   1       1.233   1.163  -2.147  0.00  0.00    -0.204 OA
ATOM      2  C2  BZF d   1       0.826   0.045  -1.445  0.00  0.00     0.174 A 
ATOM      3  C3  BZF d   1       0.067   0.395  -0.387  0.00  0.00    -0.012 A 
ATOM      4  C3A BZF d   1      -0.082   1.815  -0.483  0.00  0.00    -0.107 A 
ATOM      5  C4  BZF d   1      -0.743   2.743   0.270  0.00  0.00     0.055 A 
ATOM      6  C5  BZF d   1      -0.628   4.058  -0.053  0.00  0.00    -0.016 A 
ATOM      7  C6  BZF d   1       0.141   4.480  -1.117  0.00  0.00     0.022 A 
ATOM      8  C7  BZF d   1       0.811   3.596  -1.896  0.00  0.00     0.029 A 
ATOM      9  C7A BZF d   1       0.671   2.264  -1.593  0.00  0.00     0.058 A 
ENDROOT
TORSDOF 0
ENDMDL
