MODEL 1
REMARK minimizedAffinity 0.656358182
REMARK minimizedRMSD -1
REMARK  0 active torsions:
REMARK  status: ('A' for Active; 'I' for Inactive)
ROOT
ATOM      1  O1  BZF d   1      -3.185   2.933   0.931  0.00  0.00    -0.204 OA
ATOM      2  C2  BZF d   1      -2.857   1.775   1.610  0.00  0.00     0.174 A 
ATOM      3  C3  BZF d   1      -1.596   1.391   1.321  0.00  0.00    -0.012 A 
ATOM      4  C3A BZF d   1      -1.074   2.421   0.475  0.00  0.00    -0.107 A 
ATOM      5  C4  BZF d   1       0.135   2.617  -0.129  0.00  0.00     0.055 A 
ATOM      6  C5  BZF d   1       0.297   3.688  -0.949  0.00  0.00    -0.016 A 
ATOM      7  C6  BZF d   1      -0.727   4.579  -1.192  0.00  0.00     0.022 A 
ATOM      8  C7  BZF d   1      -1.943   4.429  -0.612  0.00  0.00     0.029 A 
ATOM      9  C7A BZF d   1      -2.101   3.366   0.244  0.00  0.00     0.058 A 
ENDROOT
TORSDOF 0
ENDMDL
