MODEL 1
REMARK minimizedAffinity -2.68941045
REMARK minimizedRMSD -1
REMARK  0 active torsions:
REMARK  status: ('A' for Active; 'I' for Inactive)
ROOT
ATOM      1  O1  BZF d   1       0.348   3.444  -0.115  0.00  0.00    -0.204 OA
ATOM      2  C2  BZF d   1      -0.231   4.221  -1.099  0.00  0.00     0.174 A 
ATOM      3  C3  BZF d   1      -1.576   4.122  -1.057  0.00  0.00    -0.012 A 
ATOM      4  C3A BZF d   1      -1.858   3.300   0.080  0.00  0.00    -0.107 A 
ATOM      5  C4  BZF d   1      -3.014   2.853   0.651  0.00  0.00     0.055 A 
ATOM      6  C5  BZF d   1      -2.942   2.006   1.712  0.00  0.00    -0.016 A 
ATOM      7  C6  BZF d   1      -1.733   1.582   2.221  0.00  0.00     0.022 A 
ATOM      8  C7  BZF d   1      -0.559   2.002   1.691  0.00  0.00     0.029 A 
ATOM      9  C7A BZF d   1      -0.628   2.884   0.640  0.00  0.00     0.058 A 
ENDROOT
TORSDOF 0
ENDMDL
