MODEL 1
REMARK minimizedAffinity 7.56656218
REMARK minimizedRMSD -1
REMARK  0 active torsions:
REMARK  status: ('A' for Active; 'I' for Inactive)
ROOT
ATOM      1  O1  BZF d   1       0.164   0.706   0.225  0.00  0.00    -0.204 OA
ATOM      2  C2  BZF d   1      -0.614   1.214   1.248  0.00  0.00     0.174 A 
ATOM      3  C3  BZF d   1      -0.950   2.497   1.003  0.00  0.00    -0.012 A 
ATOM      4  C3A BZF d   1      -0.421   2.782  -0.296  0.00  0.00    -0.107 A 
ATOM      5  C4  BZF d   1      -0.443   3.888  -1.096  0.00  0.00     0.055 A 
ATOM      6  C5  BZF d   1       0.230   3.863  -2.277  0.00  0.00    -0.016 A 
ATOM      7  C6  BZF d   1       0.939   2.752  -2.684  0.00  0.00     0.022 A 
ATOM      8  C7  BZF d   1       0.986   1.629  -1.927  0.00  0.00     0.029 A 
ATOM      9  C7A BZF d   1       0.279   1.640  -0.749  0.00  0.00     0.058 A 
ENDROOT
TORSDOF 0
ENDMDL
