MODEL 1
REMARK minimizedAffinity 4.15763903
REMARK minimizedRMSD -1
REMARK  0 active torsions:
REMARK  status: ('A' for Active; 'I' for Inactive)
ROOT
ATOM      1  O1  BZF d   1      -0.799   1.713   0.465  0.00  0.00    -0.204 OA
ATOM      2  C2  BZF d   1      -0.926   1.989   1.813  0.00  0.00     0.174 A 
ATOM      3  C3  BZF d   1      -0.481   3.232   2.090  0.00  0.00    -0.012 A 
ATOM      4  C3A BZF d   1      -0.134   3.799   0.823  0.00  0.00    -0.107 A 
ATOM      5  C4  BZF d   1       0.354   5.016   0.441  0.00  0.00     0.055 A 
ATOM      6  C5  BZF d   1       0.654   5.226  -0.867  0.00  0.00    -0.016 A 
ATOM      7  C6  BZF d   1       0.484   4.241  -1.818  0.00  0.00     0.022 A 
ATOM      8  C7  BZF d   1      -0.001   3.020  -1.488  0.00  0.00     0.029 A 
ATOM      9  C7A BZF d   1      -0.337   2.815  -0.172  0.00  0.00     0.058 A 
ENDROOT
TORSDOF 0
ENDMDL
