MODEL 1
REMARK minimizedAffinity 1.41578257
REMARK minimizedRMSD -1
REMARK  0 active torsions:
REMARK  status: ('A' for Active; 'I' for Inactive)
ROOT
ATOM      1  O1  BZF d   1       1.048   2.809  -1.560  0.00  0.00    -0.204 OA
ATOM      2  C2  BZF d   1       1.195   1.474  -1.883  0.00  0.00     0.174 A 
ATOM      3  C3  BZF d   1       0.627   0.690  -0.945  0.00  0.00    -0.012 A 
ATOM      4  C3A BZF d   1       0.012   1.593  -0.022  0.00  0.00    -0.107 A 
ATOM      5  C4  BZF d   1      -0.721   1.417   1.117  0.00  0.00     0.055 A 
ATOM      6  C5  BZF d   1      -1.114   2.508   1.826  0.00  0.00    -0.016 A 
ATOM      7  C6  BZF d   1      -0.786   3.788   1.428  0.00  0.00     0.022 A 
ATOM      8  C7  BZF d   1      -0.065   4.013   0.303  0.00  0.00     0.029 A 
ATOM      9  C7A BZF d   1       0.304   2.914  -0.433  0.00  0.00     0.058 A 
ENDROOT
TORSDOF 0
ENDMDL
