MODEL 1
REMARK minimizedAffinity 7.70055914
REMARK minimizedRMSD -1
REMARK  0 active torsions:
REMARK  status: ('A' for Active; 'I' for Inactive)
ROOT
ATOM      1  O1  BZF d   1       0.890   3.676   1.124  0.00  0.00    -0.204 OA
ATOM      2  C2  BZF d   1       0.098   4.367   0.227  0.00  0.00     0.174 A 
ATOM      3  C3  BZF d   1      -1.073   3.727   0.030  0.00  0.00    -0.012 A 
ATOM      4  C3A BZF d   1      -1.047   2.611   0.925  0.00  0.00    -0.107 A 
ATOM      5  C4  BZF d   1      -1.933   1.610   1.204  0.00  0.00     0.055 A 
ATOM      6  C5  BZF d   1      -1.573   0.633   2.077  0.00  0.00    -0.016 A 
ATOM      7  C6  BZF d   1      -0.335   0.623   2.685  0.00  0.00     0.022 A 
ATOM      8  C7  BZF d   1       0.576   1.598   2.444  0.00  0.00     0.029 A 
ATOM      9  C7A BZF d   1       0.202   2.604   1.587  0.00  0.00     0.058 A 
ENDROOT
TORSDOF 0
ENDMDL
