MODEL 1
REMARK minimizedAffinity 2.35696721
REMARK minimizedRMSD -1
REMARK  0 active torsions:
REMARK  status: ('A' for Active; 'I' for Inactive)
ROOT
ATOM      1  O1  BZF d   1      -1.466   1.025   1.205  0.00  0.00    -0.204 OA
ATOM      2  C2  BZF d   1      -1.892   1.613   2.380  0.00  0.00     0.174 A 
ATOM      3  C3  BZF d   1      -1.455   2.886   2.464  0.00  0.00    -0.012 A 
ATOM      4  C3A BZF d   1      -0.787   3.137   1.224  0.00  0.00    -0.107 A 
ATOM      5  C4  BZF d   1      -0.155   4.230   0.702  0.00  0.00     0.055 A 
ATOM      6  C5  BZF d   1       0.458   4.124  -0.506  0.00  0.00    -0.016 A 
ATOM      7  C6  BZF d   1       0.462   2.942  -1.217  0.00  0.00     0.022 A 
ATOM      8  C7  BZF d   1      -0.156   1.833  -0.743  0.00  0.00     0.029 A 
ATOM      9  C7A BZF d   1      -0.804   1.946   0.463  0.00  0.00     0.058 A 
ENDROOT
TORSDOF 0
ENDMDL
