MODEL 1
REMARK minimizedAffinity 0.950237095
REMARK minimizedRMSD -1
REMARK  0 active torsions:
REMARK  status: ('A' for Active; 'I' for Inactive)
ROOT
ATOM      1  O1  BZF d   1       0.955   2.309  -1.793  0.00  0.00    -0.204 OA
ATOM      2  C2  BZF d   1       1.458   1.026  -1.701  0.00  0.00     0.174 A 
ATOM      3  C3  BZF d   1       0.984   0.404  -0.602  0.00  0.00    -0.012 A 
ATOM      4  C3A BZF d   1       0.059   1.327  -0.018  0.00  0.00    -0.107 A 
ATOM      5  C4  BZF d   1      -0.745   1.278   1.085  0.00  0.00     0.055 A 
ATOM      6  C5  BZF d   1      -1.473   2.376   1.421  0.00  0.00    -0.016 A 
ATOM      7  C6  BZF d   1      -1.416   3.538   0.680  0.00  0.00     0.022 A 
ATOM      8  C7  BZF d   1      -0.637   3.633  -0.424  0.00  0.00     0.029 A 
ATOM      9  C7A BZF d   1       0.074   2.514  -0.785  0.00  0.00     0.058 A 
ENDROOT
TORSDOF 0
ENDMDL
