MODEL 1
REMARK minimizedAffinity 9.38630009
REMARK minimizedRMSD -1
REMARK  0 active torsions:
REMARK  status: ('A' for Active; 'I' for Inactive)
ROOT
ATOM      1  O1  BZF d   1      -0.315  -1.979   3.382  0.00  0.00    -0.204 OA
ATOM      2  C2  BZF d   1      -1.561  -2.385   3.822  0.00  0.00     0.174 A 
ATOM      3  C3  BZF d   1      -2.493  -1.451   3.546  0.00  0.00    -0.012 A 
ATOM      4  C3A BZF d   1      -1.803  -0.436   2.811  0.00  0.00    -0.107 A 
ATOM      5  C4  BZF d   1      -2.195   0.744   2.244  0.00  0.00     0.055 A 
ATOM      6  C5  BZF d   1      -1.260   1.539   1.661  0.00  0.00    -0.016 A 
ATOM      7  C6  BZF d   1       0.074   1.189   1.631  0.00  0.00     0.022 A 
ATOM      8  C7  BZF d   1       0.510   0.026   2.175  0.00  0.00     0.029 A 
ATOM      9  C7A BZF d   1      -0.437  -0.795   2.736  0.00  0.00     0.058 A 
ENDROOT
TORSDOF 0
ENDMDL
