MODEL 1
REMARK minimizedAffinity 4.47774935
REMARK minimizedRMSD -1
REMARK  0 active torsions:
REMARK  status: ('A' for Active; 'I' for Inactive)
ROOT
ATOM      1  O1  BZF d   1       1.027   2.099  -2.154  0.00  0.00    -0.204 OA
ATOM      2  C2  BZF d   1       1.320   0.757  -2.006  0.00  0.00     0.174 A 
ATOM      3  C3  BZF d   1       0.804   0.279  -0.855  0.00  0.00    -0.012 A 
ATOM      4  C3A BZF d   1       0.070   1.370  -0.290  0.00  0.00    -0.107 A 
ATOM      5  C4  BZF d   1      -0.678   1.510   0.844  0.00  0.00     0.055 A 
ATOM      6  C5  BZF d   1      -1.202   2.728   1.142  0.00  0.00    -0.016 A 
ATOM      7  C6  BZF d   1      -0.994   3.826   0.334  0.00  0.00     0.022 A 
ATOM      8  C7  BZF d   1      -0.264   3.734  -0.804  0.00  0.00     0.029 A 
ATOM      9  C7A BZF d   1       0.240   2.498  -1.126  0.00  0.00     0.058 A 
ENDROOT
TORSDOF 0
ENDMDL
