MODEL 1
REMARK minimizedAffinity 10.1626387
REMARK minimizedRMSD -1
REMARK  0 active torsions:
REMARK  status: ('A' for Active; 'I' for Inactive)
ROOT
ATOM      1  O1  BZF d   1       1.170   1.612  -2.245  0.00  0.00    -0.204 OA
ATOM      2  C2  BZF d   1       0.558   2.611  -1.512  0.00  0.00     0.174 A 
ATOM      3  C3  BZF d   1      -0.747   2.330  -1.318  0.00  0.00    -0.012 A 
ATOM      4  C3A BZF d   1      -0.942   1.034  -1.890  0.00  0.00    -0.107 A 
ATOM      5  C4  BZF d   1      -2.024   0.208  -1.996  0.00  0.00     0.055 A 
ATOM      6  C5  BZF d   1      -1.899  -0.961  -2.678  0.00  0.00    -0.016 A 
ATOM      7  C6  BZF d   1      -0.710  -1.332  -3.271  0.00  0.00     0.022 A 
ATOM      8  C7  BZF d   1       0.393  -0.548  -3.188  0.00  0.00     0.029 A 
ATOM      9  C7A BZF d   1       0.278   0.618  -2.471  0.00  0.00     0.058 A 
ENDROOT
TORSDOF 0
ENDMDL
