MODEL 1
REMARK minimizedAffinity 3.05580187
REMARK minimizedRMSD -1
REMARK  3 active torsions:
REMARK  status: ('A' for Active; 'I' for Inactive)
REMARK    1  A    between atoms: C3'_2  and  C2'_3 
REMARK    2  A    between atoms: C2'_3  and  C1'_4 
REMARK    3  A    between atoms: C1'_4  and  C1_5 
ROOT
ATOM      1  C1  N4B d   1      -0.725  -1.508  -2.137  0.00  0.00    -0.075 A 
ATOM      2  C2  N4B d   1      -1.421  -2.734  -2.050  0.00  0.00     0.002 A 
ATOM      3  C3  N4B d   1      -0.981  -3.825  -2.757  0.00  0.00     0.002 A 
ATOM      4  C4  N4B d   1       0.136  -3.710  -3.570  0.00  0.00    -0.004 A 
ATOM      5  C5  N4B d   1       0.818  -2.530  -3.629  0.00  0.00     0.002 A 
ATOM      6  C6  N4B d   1       0.390  -1.426  -2.920  0.00  0.00     0.002 A 
ENDROOT
BRANCH   1   7
ATOM      7  C1' N4B d   1      -1.218  -0.264  -1.449  0.00  0.00     0.057 C 
BRANCH   7   8
ATOM      8  C2' N4B d   1      -0.111   0.284  -0.553  0.00  0.00     0.009 C 
BRANCH   8   9
ATOM      9  C3' N4B d   1      -0.646   0.746   0.792  0.00  0.00     0.004 C 
ATOM     10  C4' N4B d   1      -0.224   2.144   1.135  0.00  0.00     0.003 C 
ENDBRANCH   8   9
ENDBRANCH   7   8
ENDBRANCH   1   7
TORSDOF 3
ENDMDL
