MODEL 1
REMARK minimizedAffinity 0.0955017954
REMARK minimizedRMSD -1
REMARK  3 active torsions:
REMARK  status: ('A' for Active; 'I' for Inactive)
REMARK    1  A    between atoms: C3'_2  and  C2'_3 
REMARK    2  A    between atoms: C2'_3  and  C1'_4 
REMARK    3  A    between atoms: C1'_4  and  C1_5 
ROOT
ATOM      1  C1  N4B d   1       1.640   4.628  -5.937  0.00  0.00    -0.075 A 
ATOM      2  C2  N4B d   1       2.150   3.311  -5.970  0.00  0.00     0.002 A 
ATOM      3  C3  N4B d   1       3.507   3.101  -5.991  0.00  0.00     0.002 A 
ATOM      4  C4  N4B d   1       4.369   4.187  -6.000  0.00  0.00    -0.004 A 
ATOM      5  C5  N4B d   1       3.869   5.455  -5.942  0.00  0.00     0.002 A 
ATOM      6  C6  N4B d   1       2.508   5.681  -5.916  0.00  0.00     0.002 A 
ENDROOT
BRANCH   1   7
ATOM      7  C1' N4B d   1       0.164   4.910  -6.000  0.00  0.00     0.057 C 
BRANCH   7   8
ATOM      8  C2' N4B d   1      -0.600   3.589  -5.977  0.00  0.00     0.009 C 
BRANCH   8   9
ATOM      9  C3' N4B d   1      -2.096   3.800  -5.819  0.00  0.00     0.004 C 
ATOM     10  C4' N4B d   1      -2.502   5.232  -6.000  0.00  0.00     0.003 C 
ENDBRANCH   8   9
ENDBRANCH   7   8
ENDBRANCH   1   7
TORSDOF 3
ENDMDL
