MODEL 1
REMARK minimizedAffinity -1.2774514
REMARK minimizedRMSD -1
REMARK  3 active torsions:
REMARK  status: ('A' for Active; 'I' for Inactive)
REMARK    1  A    between atoms: C3'_2  and  C2'_3 
REMARK    2  A    between atoms: C2'_3  and  C1'_4 
REMARK    3  A    between atoms: C1'_4  and  C1_5 
ROOT
ATOM      1  C1  N4B d   1       2.853   3.714  -5.995  0.00  0.00    -0.075 A 
ATOM      2  C2  N4B d   1       2.915   5.125  -6.000  0.00  0.00     0.002 A 
ATOM      3  C3  N4B d   1       4.134   5.758  -5.996  0.00  0.00     0.002 A 
ATOM      4  C4  N4B d   1       5.298   5.005  -5.969  0.00  0.00    -0.004 A 
ATOM      5  C5  N4B d   1       5.230   3.643  -5.991  0.00  0.00     0.002 A 
ATOM      6  C6  N4B d   1       4.012   2.993  -5.998  0.00  0.00     0.002 A 
ENDROOT
BRANCH   1   7
ATOM      7  C1' N4B d   1       1.544   2.977  -5.911  0.00  0.00     0.057 C 
BRANCH   7   8
ATOM      8  C2' N4B d   1       0.398   3.983  -5.977  0.00  0.00     0.009 C 
BRANCH   8   9
ATOM      9  C3' N4B d   1      -0.930   3.357  -5.587  0.00  0.00     0.004 C 
ATOM     10  C4' N4B d   1      -2.107   4.191  -5.996  0.00  0.00     0.003 C 
ENDBRANCH   8   9
ENDBRANCH   7   8
ENDBRANCH   1   7
TORSDOF 3
ENDMDL
