MODEL 1
REMARK minimizedAffinity -0.880273402
REMARK minimizedRMSD -1
REMARK  3 active torsions:
REMARK  status: ('A' for Active; 'I' for Inactive)
REMARK    1  A    between atoms: C3'_2  and  C2'_3 
REMARK    2  A    between atoms: C2'_3  and  C1'_4 
REMARK    3  A    between atoms: C1'_4  and  C1_5 
ROOT
ATOM      1  C1  N4B d   1       1.692   4.817  -5.992  0.00  0.00    -0.075 A 
ATOM      2  C2  N4B d   1       0.972   3.602  -5.999  0.00  0.00     0.002 A 
ATOM      3  C3  N4B d   1      -0.401   3.618  -5.985  0.00  0.00     0.002 A 
ATOM      4  C4  N4B d   1      -1.073   4.830  -5.946  0.00  0.00    -0.004 A 
ATOM      5  C5  N4B d   1      -0.371   6.000  -5.965  0.00  0.00     0.002 A 
ATOM      6  C6  N4B d   1       1.010   5.999  -5.983  0.00  0.00     0.002 A 
ENDROOT
BRANCH   1   7
ATOM      7  C1' N4B d   1       3.194   4.850  -5.919  0.00  0.00     0.057 C 
BRANCH   7   8
ATOM      8  C2' N4B d   1       3.716   3.433  -5.697  0.00  0.00     0.009 C 
BRANCH   8   9
ATOM      9  C3' N4B d   1       4.502   3.313  -4.403  0.00  0.00     0.004 C 
ATOM     10  C4' N4B d   1       3.848   2.401  -3.409  0.00  0.00     0.003 C 
ENDBRANCH   8   9
ENDBRANCH   7   8
ENDBRANCH   1   7
TORSDOF 3
ENDMDL
