MODEL 1
REMARK minimizedAffinity 5.56575537
REMARK minimizedRMSD -1
REMARK  3 active torsions:
REMARK  status: ('A' for Active; 'I' for Inactive)
REMARK    1  A    between atoms: C3'_2  and  C2'_3 
REMARK    2  A    between atoms: C2'_3  and  C1'_4 
REMARK    3  A    between atoms: C1'_4  and  C1_5 
ROOT
ATOM      1  C1  N4B d   1       1.123   4.324  -5.500  0.00  0.00    -0.075 A 
ATOM      2  C2  N4B d   1       0.420   5.451  -5.978  0.00  0.00     0.002 A 
ATOM      3  C3  N4B d   1      -0.869   5.683  -5.564  0.00  0.00     0.002 A 
ATOM      4  C4  N4B d   1      -1.479   4.795  -4.691  0.00  0.00    -0.004 A 
ATOM      5  C5  N4B d   1      -0.784   3.722  -4.214  0.00  0.00     0.002 A 
ATOM      6  C6  N4B d   1       0.513   3.479  -4.618  0.00  0.00     0.002 A 
ENDROOT
BRANCH   1   7
ATOM      7  C1' N4B d   1       2.504   3.982  -5.990  0.00  0.00     0.057 C 
BRANCH   7   8
ATOM      8  C2' N4B d   1       3.534   4.724  -5.143  0.00  0.00     0.009 C 
BRANCH   8   9
ATOM      9  C3' N4B d   1       4.458   5.579  -5.994  0.00  0.00     0.004 C 
ATOM     10  C4' N4B d   1       5.901   5.197  -5.847  0.00  0.00     0.003 C 
ENDBRANCH   8   9
ENDBRANCH   7   8
ENDBRANCH   1   7
TORSDOF 3
ENDMDL
