MODEL 1
REMARK minimizedAffinity 2.61818171
REMARK minimizedRMSD -1
REMARK  3 active torsions:
REMARK  status: ('A' for Active; 'I' for Inactive)
REMARK    1  A    between atoms: C3'_2  and  C2'_3 
REMARK    2  A    between atoms: C2'_3  and  C1'_4 
REMARK    3  A    between atoms: C1'_4  and  C1_5 
ROOT
ATOM      1  C1  N4B d   1      -1.785   3.966  -5.937  0.00  0.00    -0.075 A 
ATOM      2  C2  N4B d   1      -1.917   5.371  -5.979  0.00  0.00     0.002 A 
ATOM      3  C3  N4B d   1      -3.165   5.943  -5.999  0.00  0.00     0.002 A 
ATOM      4  C4  N4B d   1      -4.291   5.133  -5.999  0.00  0.00    -0.004 A 
ATOM      5  C5  N4B d   1      -4.155   3.777  -5.933  0.00  0.00     0.002 A 
ATOM      6  C6  N4B d   1      -2.907   3.189  -5.907  0.00  0.00     0.002 A 
ENDROOT
BRANCH   1   7
ATOM      7  C1' N4B d   1      -0.442   3.292  -6.000  0.00  0.00     0.057 C 
BRANCH   7   8
ATOM      8  C2' N4B d   1       0.377   3.693  -4.777  0.00  0.00     0.009 C 
BRANCH   8   9
ATOM      9  C3' N4B d   1      -0.287   3.260  -3.481  0.00  0.00     0.004 C 
ATOM     10  C4' N4B d   1       0.699   2.812  -2.444  0.00  0.00     0.003 C 
ENDBRANCH   8   9
ENDBRANCH   7   8
ENDBRANCH   1   7
TORSDOF 3
ENDMDL
