MODEL 1
REMARK minimizedAffinity 4.95357418
REMARK minimizedRMSD -1
REMARK  3 active torsions:
REMARK  status: ('A' for Active; 'I' for Inactive)
REMARK    1  A    between atoms: C3'_2  and  C2'_3 
REMARK    2  A    between atoms: C2'_3  and  C1'_4 
REMARK    3  A    between atoms: C1'_4  and  C1_5 
ROOT
ATOM      1  C1  N4B d   1       2.929   3.842  -5.428  0.00  0.00    -0.075 A 
ATOM      2  C2  N4B d   1       3.208   5.152  -5.875  0.00  0.00     0.002 A 
ATOM      3  C3  N4B d   1       4.428   5.723  -5.608  0.00  0.00     0.002 A 
ATOM      4  C4  N4B d   1       5.374   5.014  -4.884  0.00  0.00    -0.004 A 
ATOM      5  C5  N4B d   1       5.106   3.739  -4.478  0.00  0.00     0.002 A 
ATOM      6  C6  N4B d   1       3.886   3.151  -4.743  0.00  0.00     0.002 A 
ENDROOT
BRANCH   1   7
ATOM      7  C1' N4B d   1       1.579   3.207  -5.622  0.00  0.00     0.057 C 
BRANCH   7   8
ATOM      8  C2' N4B d   1       0.554   4.295  -5.928  0.00  0.00     0.009 C 
BRANCH   8   9
ATOM      9  C3' N4B d   1      -0.817   3.957  -5.369  0.00  0.00     0.004 C 
ATOM     10  C4' N4B d   1      -0.981   4.376  -3.939  0.00  0.00     0.003 C 
ENDBRANCH   8   9
ENDBRANCH   7   8
ENDBRANCH   1   7
TORSDOF 3
ENDMDL
