MODEL 1
REMARK minimizedAffinity -0.154222056
REMARK minimizedRMSD -1
REMARK  3 active torsions:
REMARK  status: ('A' for Active; 'I' for Inactive)
REMARK    1  A    between atoms: C3'_2  and  C2'_3 
REMARK    2  A    between atoms: C2'_3  and  C1'_4 
REMARK    3  A    between atoms: C1'_4  and  C1_5 
ROOT
ATOM      1  C1  N4B d   1       1.334   3.933  -5.921  0.00  0.00    -0.075 A 
ATOM      2  C2  N4B d   1       0.975   5.298  -5.869  0.00  0.00     0.002 A 
ATOM      3  C3  N4B d   1      -0.349   5.661  -5.886  0.00  0.00     0.002 A 
ATOM      4  C4  N4B d   1      -1.328   4.682  -5.974  0.00  0.00    -0.004 A 
ATOM      5  C5  N4B d   1      -0.974   3.365  -5.998  0.00  0.00     0.002 A 
ATOM      6  C6  N4B d   1       0.353   2.985  -5.977  0.00  0.00     0.002 A 
ENDROOT
BRANCH   1   7
ATOM      7  C1' N4B d   1       2.770   3.491  -5.992  0.00  0.00     0.057 C 
BRANCH   7   8
ATOM      8  C2' N4B d   1       3.673   4.722  -5.999  0.00  0.00     0.009 C 
BRANCH   8   9
ATOM      9  C3' N4B d   1       5.132   4.357  -5.785  0.00  0.00     0.004 C 
ATOM     10  C4' N4B d   1       5.992   5.551  -5.496  0.00  0.00     0.003 C 
ENDBRANCH   8   9
ENDBRANCH   7   8
ENDBRANCH   1   7
TORSDOF 3
ENDMDL
