MODEL 1
REMARK minimizedAffinity -2.60030174
REMARK minimizedRMSD -1
REMARK  3 active torsions:
REMARK  status: ('A' for Active; 'I' for Inactive)
REMARK    1  A    between atoms: C3'_2  and  C2'_3 
REMARK    2  A    between atoms: C2'_3  and  C1'_4 
REMARK    3  A    between atoms: C1'_4  and  C1_5 
ROOT
ATOM      1  C1  N4B d   1       1.499   3.638  -5.992  0.00  0.00    -0.075 A 
ATOM      2  C2  N4B d   1       0.753   2.439  -5.998  0.00  0.00     0.002 A 
ATOM      3  C3  N4B d   1      -0.619   2.484  -5.999  0.00  0.00     0.002 A 
ATOM      4  C4  N4B d   1      -1.266   3.710  -5.976  0.00  0.00    -0.004 A 
ATOM      5  C5  N4B d   1      -0.538   4.864  -5.996  0.00  0.00     0.002 A 
ATOM      6  C6  N4B d   1       0.842   4.835  -5.999  0.00  0.00     0.002 A 
ENDROOT
BRANCH   1   7
ATOM      7  C1' N4B d   1       3.000   3.640  -5.904  0.00  0.00     0.057 C 
BRANCH   7   8
ATOM      8  C2' N4B d   1       3.507   5.076  -5.999  0.00  0.00     0.009 C 
BRANCH   8   9
ATOM      9  C3' N4B d   1       5.021   5.152  -5.907  0.00  0.00     0.004 C 
ATOM     10  C4' N4B d   1       5.561   4.508  -4.665  0.00  0.00     0.003 C 
ENDBRANCH   8   9
ENDBRANCH   7   8
ENDBRANCH   1   7
TORSDOF 3
ENDMDL
