MODEL 1
REMARK minimizedAffinity 7.15411472
REMARK minimizedRMSD -1
REMARK  0 active torsions:
REMARK  status: ('A' for Active; 'I' for Inactive)
ROOT
ATOM      1  C   UNL d   1      -4.522   6.000  -4.047  0.00  0.00    -0.002 A 
ATOM      2  C1  UNL d   1      -4.026   5.805  -5.328  0.00  0.00     0.010 A 
ATOM      3  C2  UNL d   1      -4.180   4.575  -5.971  0.00  0.00     0.041 A 
ATOM      4  C3  UNL d   1      -4.850   3.534  -5.298  0.00  0.00    -0.075 A 
ATOM      5  S   UNL d   1      -5.157   1.944  -5.888  0.00  0.00     0.015 SA
ATOM      6  C4  UNL d   1      -5.956   1.485  -4.453  0.00  0.00     0.022 A 
ATOM      7  C5  UNL d   1      -5.995   2.509  -3.536  0.00  0.00     0.026 A 
ATOM      8  C6  UNL d   1      -5.359   3.706  -4.008  0.00  0.00    -0.082 A 
ATOM      9  C7  UNL d   1      -5.186   4.965  -3.383  0.00  0.00     0.045 A 
ENDROOT
TORSDOF 0
ENDMDL
