MODEL 1
REMARK minimizedAffinity 2.92118001
REMARK minimizedRMSD -1
REMARK  0 active torsions:
REMARK  status: ('A' for Active; 'I' for Inactive)
ROOT
ATOM      1  C   UNL d   1      -0.807   0.392  -1.070  0.00  0.00    -0.002 A 
ATOM      2  C1  UNL d   1      -1.559   0.788  -2.167  0.00  0.00     0.010 A 
ATOM      3  C2  UNL d   1      -1.663   2.139  -2.505  0.00  0.00     0.041 A 
ATOM      4  C3  UNL d   1      -0.991   3.093  -1.717  0.00  0.00    -0.075 A 
ATOM      5  S   UNL d   1      -0.974   4.802  -1.942  0.00  0.00     0.015 SA
ATOM      6  C4  UNL d   1       0.033   5.046  -0.589  0.00  0.00     0.022 A 
ATOM      7  C5  UNL d   1       0.358   3.863   0.031  0.00  0.00     0.026 A 
ATOM      8  C6  UNL d   1      -0.226   2.718  -0.609  0.00  0.00    -0.082 A 
ATOM      9  C7  UNL d   1      -0.141   1.341  -0.290  0.00  0.00     0.045 A 
ENDROOT
TORSDOF 0
ENDMDL
