MODEL 1
REMARK minimizedAffinity 17.4198704
REMARK minimizedRMSD -1
REMARK  0 active torsions:
REMARK  status: ('A' for Active; 'I' for Inactive)
ROOT
ATOM      1  C   UNL d   1       0.091   4.330  -2.053  0.00  0.00    -0.002 A 
ATOM      2  C1  UNL d   1       0.346   3.205  -1.282  0.00  0.00     0.010 A 
ATOM      3  C2  UNL d   1      -0.388   2.959  -0.120  0.00  0.00     0.041 A 
ATOM      4  C3  UNL d   1      -1.393   3.870   0.258  0.00  0.00    -0.075 A 
ATOM      5  S   UNL d   1      -2.419   3.774   1.640  0.00  0.00     0.015 SA
ATOM      6  C4  UNL d   1      -3.221   5.223   1.239  0.00  0.00     0.022 A 
ATOM      7  C5  UNL d   1      -2.730   5.781   0.082  0.00  0.00     0.026 A 
ATOM      8  C6  UNL d   1      -1.669   5.010  -0.503  0.00  0.00    -0.082 A 
ATOM      9  C7  UNL d   1      -0.908   5.232  -1.675  0.00  0.00     0.045 A 
ENDROOT
TORSDOF 0
ENDMDL
