MODEL 1
REMARK minimizedAffinity 7.21482325
REMARK minimizedRMSD -1
REMARK  0 active torsions:
REMARK  status: ('A' for Active; 'I' for Inactive)
ROOT
ATOM      1  C   UNL d   1      -0.244   6.000  -3.938  0.00  0.00    -0.002 A 
ATOM      2  C1  UNL d   1      -1.517   5.618  -3.537  0.00  0.00     0.010 A 
ATOM      3  C2  UNL d   1      -1.709   4.942  -2.330  0.00  0.00     0.041 A 
ATOM      4  C3  UNL d   1      -0.589   4.656  -1.524  0.00  0.00    -0.075 A 
ATOM      5  S   UNL d   1      -0.584   3.840  -0.006  0.00  0.00     0.015 SA
ATOM      6  C4  UNL d   1       1.108   3.979   0.147  0.00  0.00     0.022 A 
ATOM      7  C5  UNL d   1       1.671   4.630  -0.925  0.00  0.00     0.026 A 
ATOM      8  C6  UNL d   1       0.702   5.031  -1.906  0.00  0.00    -0.082 A 
ATOM      9  C7  UNL d   1       0.864   5.714  -3.136  0.00  0.00     0.045 A 
ENDROOT
TORSDOF 0
ENDMDL
