MODEL 1
REMARK minimizedAffinity 19.7723598
REMARK minimizedRMSD -1
REMARK  0 active torsions:
REMARK  status: ('A' for Active; 'I' for Inactive)
ROOT
ATOM      1  C   UNL d   1       0.159   4.458  -0.991  0.00  0.00    -0.002 A 
ATOM      2  C1  UNL d   1      -0.510   3.246  -0.899  0.00  0.00     0.010 A 
ATOM      3  C2  UNL d   1      -0.457   2.493   0.276  0.00  0.00     0.041 A 
ATOM      4  C3  UNL d   1       0.285   2.985   1.368  0.00  0.00    -0.075 A 
ATOM      5  S   UNL d   1       0.491   2.235   2.907  0.00  0.00     0.015 SA
ATOM      6  C4  UNL d   1       1.471   3.507   3.478  0.00  0.00     0.022 A 
ATOM      7  C5  UNL d   1       1.648   4.487   2.531  0.00  0.00     0.026 A 
ATOM      8  C6  UNL d   1       0.967   4.203   1.299  0.00  0.00    -0.082 A 
ATOM      9  C7  UNL d   1       0.894   4.942   0.094  0.00  0.00     0.045 A 
ENDROOT
TORSDOF 0
ENDMDL
