MODEL 1
REMARK minimizedAffinity 12.4109325
REMARK minimizedRMSD -1
REMARK  0 active torsions:
REMARK  status: ('A' for Active; 'I' for Inactive)
ROOT
ATOM      1  C   UNL d   1       4.476  -2.010  -0.205  0.00  0.00    -0.002 A 
ATOM      2  C1  UNL d   1       5.759  -2.523  -0.322  0.00  0.00     0.010 A 
ATOM      3  C2  UNL d   1       5.978  -3.755  -0.943  0.00  0.00     0.041 A 
ATOM      4  C3  UNL d   1       4.874  -4.467  -1.451  0.00  0.00    -0.075 A 
ATOM      5  S   UNL d   1       4.902  -5.994  -2.251  0.00  0.00     0.015 SA
ATOM      6  C4  UNL d   1       3.210  -6.000  -2.458  0.00  0.00     0.022 A 
ATOM      7  C5  UNL d   1       2.622  -4.872  -1.935  0.00  0.00     0.026 A 
ATOM      8  C6  UNL d   1       3.572  -3.970  -1.346  0.00  0.00    -0.082 A 
ATOM      9  C7  UNL d   1       3.383  -2.719  -0.711  0.00  0.00     0.045 A 
ENDROOT
TORSDOF 0
ENDMDL
