MODEL 1
REMARK minimizedAffinity -1.72059584
REMARK minimizedRMSD -1
REMARK  1 active torsions:
REMARK  status: ('A' for Active; 'I' for Inactive)
REMARK    1  A    between atoms: C1_2  and  C2_3 
ROOT
ATOM      1  C2  UNL d   1       2.083  -1.124   2.915  0.00  0.00    -0.077 A 
ATOM      2  C3  UNL d   1       3.068  -1.196   3.910  0.00  0.00     0.002 A 
ATOM      3  C4  UNL d   1       4.401  -0.912   3.606  0.00  0.00     0.002 A 
ATOM      4  C5  UNL d   1       4.759  -0.550   2.309  0.00  0.00    -0.004 A 
ATOM      5  C6  UNL d   1       3.787  -0.478   1.312  0.00  0.00     0.002 A 
ATOM      6  C7  UNL d   1       2.455  -0.763   1.614  0.00  0.00     0.002 A 
ENDROOT
BRANCH   1   7
ATOM      7  C1  UNL d   1       0.637  -1.383   3.252  0.00  0.00     0.055 C 
ATOM      8  C   UNL d   1       0.411  -1.384   4.757  0.00  0.00     0.019 C 
ENDBRANCH   1   7
TORSDOF 1
ENDMDL
