MODEL 1
REMARK minimizedAffinity -2.98844624
REMARK minimizedRMSD -1
REMARK  1 active torsions:
REMARK  status: ('A' for Active; 'I' for Inactive)
REMARK    1  A    between atoms: C1_2  and  C2_3 
ROOT
ATOM      1  C2  UNL d   1       0.782  -0.698   1.472  0.00  0.00    -0.077 A 
ATOM      2  C3  UNL d   1       1.479  -1.567   0.621  0.00  0.00     0.002 A 
ATOM      3  C4  UNL d   1       2.132  -2.688   1.138  0.00  0.00     0.002 A 
ATOM      4  C5  UNL d   1       2.091  -2.951   2.506  0.00  0.00    -0.004 A 
ATOM      5  C6  UNL d   1       1.402  -2.091   3.360  0.00  0.00     0.002 A 
ATOM      6  C7  UNL d   1       0.749  -0.970   2.845  0.00  0.00     0.002 A 
ENDROOT
BRANCH   1   7
ATOM      7  C1  UNL d   1       0.036   0.484   0.910  0.00  0.00     0.055 C 
ATOM      8  C   UNL d   1      -1.421   0.139   0.633  0.00  0.00     0.019 C 
ENDBRANCH   1   7
TORSDOF 1
ENDMDL
