MODEL 1
REMARK minimizedAffinity 1.79972804
REMARK minimizedRMSD -1
REMARK  1 active torsions:
REMARK  status: ('A' for Active; 'I' for Inactive)
REMARK    1  A    between atoms: C1_2  and  C2_3 
ROOT
ATOM      1  C2  UNL d   1       1.860  -0.542   1.053  0.00  0.00    -0.077 A 
ATOM      2  C3  UNL d   1       1.181  -0.820   2.248  0.00  0.00     0.002 A 
ATOM      3  C4  UNL d   1       1.893  -1.112   3.414  0.00  0.00     0.002 A 
ATOM      4  C5  UNL d   1       3.286  -1.125   3.397  0.00  0.00    -0.004 A 
ATOM      5  C6  UNL d   1       3.970  -0.852   2.213  0.00  0.00     0.002 A 
ATOM      6  C7  UNL d   1       3.261  -0.561   1.047  0.00  0.00     0.002 A 
ENDROOT
BRANCH   1   7
ATOM      7  C1  UNL d   1       1.095  -0.179  -0.193  0.00  0.00     0.055 C 
ATOM      8  C   UNL d   1       1.815   0.900  -0.989  0.00  0.00     0.019 C 
ENDBRANCH   1   7
TORSDOF 1
ENDMDL
