MODEL 1
REMARK minimizedAffinity -3.79871917
REMARK minimizedRMSD -1
REMARK  1 active torsions:
REMARK  status: ('A' for Active; 'I' for Inactive)
REMARK    1  A    between atoms: C1_2  and  C2_3 
ROOT
ATOM      1  C2  UNL d   1      -3.672  -0.993  -0.550  0.00  0.00    -0.077 A 
ATOM      2  C3  UNL d   1      -3.547  -0.310  -1.768  0.00  0.00     0.002 A 
ATOM      3  C4  UNL d   1      -4.565   0.536  -2.211  0.00  0.00     0.002 A 
ATOM      4  C5  UNL d   1      -5.713   0.710  -1.440  0.00  0.00    -0.004 A 
ATOM      5  C6  UNL d   1      -5.848   0.033  -0.229  0.00  0.00     0.002 A 
ATOM      6  C7  UNL d   1      -4.831  -0.814   0.215  0.00  0.00     0.002 A 
ENDROOT
BRANCH   1   7
ATOM      7  C1  UNL d   1      -2.553  -1.867  -0.047  0.00  0.00     0.055 C 
ATOM      8  C   UNL d   1      -2.948  -3.337  -0.065  0.00  0.00     0.019 C 
ENDBRANCH   1   7
TORSDOF 1
ENDMDL
