MODEL 1
REMARK minimizedAffinity 2.53080845
REMARK minimizedRMSD -1
REMARK  1 active torsions:
REMARK  status: ('A' for Active; 'I' for Inactive)
REMARK    1  A    between atoms: C1_2  and  C2_3 
ROOT
ATOM      1  C2  UNL d   1      -2.660   1.541  -2.522  0.00  0.00    -0.077 A 
ATOM      2  C3  UNL d   1      -2.920   2.849  -2.953  0.00  0.00     0.002 A 
ATOM      3  C4  UNL d   1      -1.903   3.622  -3.518  0.00  0.00     0.002 A 
ATOM      4  C5  UNL d   1      -0.622   3.093  -3.662  0.00  0.00    -0.004 A 
ATOM      5  C6  UNL d   1      -0.353   1.794  -3.235  0.00  0.00     0.002 A 
ATOM      6  C7  UNL d   1      -1.368   1.020  -2.669  0.00  0.00     0.002 A 
ENDROOT
BRANCH   1   7
ATOM      7  C1  UNL d   1      -3.767   0.689  -1.958  0.00  0.00     0.055 C 
ATOM      8  C   UNL d   1      -3.303  -0.077  -0.727  0.00  0.00     0.019 C 
ENDBRANCH   1   7
TORSDOF 1
ENDMDL
