MODEL 1
REMARK minimizedAffinity 4.11261368
REMARK minimizedRMSD -1
REMARK  1 active torsions:
REMARK  status: ('A' for Active; 'I' for Inactive)
REMARK    1  A    between atoms: C1_2  and  C2_3 
ROOT
ATOM      1  C2  UNL d   1       2.369  -1.026   1.513  0.00  0.00    -0.077 A 
ATOM      2  C3  UNL d   1       2.360  -1.446   2.851  0.00  0.00     0.002 A 
ATOM      3  C4  UNL d   1       3.528  -1.395   3.615  0.00  0.00     0.002 A 
ATOM      4  C5  UNL d   1       4.711  -0.922   3.052  0.00  0.00    -0.004 A 
ATOM      5  C6  UNL d   1       4.731  -0.504   1.722  0.00  0.00     0.002 A 
ATOM      6  C7  UNL d   1       3.565  -0.555   0.956  0.00  0.00     0.002 A 
ENDROOT
BRANCH   1   7
ATOM      7  C1  UNL d   1       1.100  -1.034   0.702  0.00  0.00     0.055 C 
ATOM      8  C   UNL d   1       1.134   0.025  -0.390  0.00  0.00     0.019 C 
ENDBRANCH   1   7
TORSDOF 1
ENDMDL
