MODEL 1
REMARK minimizedAffinity -2.57284117
REMARK minimizedRMSD -1
REMARK  1 active torsions:
REMARK  status: ('A' for Active; 'I' for Inactive)
REMARK    1  A    between atoms: C1_2  and  C2_3 
ROOT
ATOM      1  C2  UNL d   1       2.284   1.147  -0.331  0.00  0.00    -0.077 A 
ATOM      2  C3  UNL d   1       3.627   1.160  -0.730  0.00  0.00     0.002 A 
ATOM      3  C4  UNL d   1       4.359   2.350  -0.709  0.00  0.00     0.002 A 
ATOM      4  C5  UNL d   1       3.757   3.532  -0.285  0.00  0.00    -0.004 A 
ATOM      5  C6  UNL d   1       2.420   3.530   0.112  0.00  0.00     0.002 A 
ATOM      6  C7  UNL d   1       1.687   2.343   0.090  0.00  0.00     0.002 A 
ENDROOT
BRANCH   1   7
ATOM      7  C1  UNL d   1       1.507  -0.143  -0.307  0.00  0.00     0.055 C 
ATOM      8  C   UNL d   1       0.426  -0.119   0.764  0.00  0.00     0.019 C 
ENDBRANCH   1   7
TORSDOF 1
ENDMDL
