MODEL 1
REMARK minimizedAffinity 6.28358269
REMARK minimizedRMSD -1
REMARK  1 active torsions:
REMARK  status: ('A' for Active; 'I' for Inactive)
REMARK    1  A    between atoms: C1_2  and  C2_3 
ROOT
ATOM      1  C2  UNL d   1      -0.559  -2.364   0.642  0.00  0.00    -0.077 A 
ATOM      2  C3  UNL d   1      -1.370  -1.240   0.852  0.00  0.00     0.002 A 
ATOM      3  C4  UNL d   1      -0.803   0.033   0.937  0.00  0.00     0.002 A 
ATOM      4  C5  UNL d   1       0.575   0.194   0.810  0.00  0.00    -0.004 A 
ATOM      5  C6  UNL d   1       1.390  -0.918   0.603  0.00  0.00     0.002 A 
ATOM      6  C7  UNL d   1       0.825  -2.192   0.518  0.00  0.00     0.002 A 
ENDROOT
BRANCH   1   7
ATOM      7  C1  UNL d   1      -1.174  -3.732   0.500  0.00  0.00     0.055 C 
ATOM      8  C   UNL d   1      -2.449  -3.854   1.321  0.00  0.00     0.019 C 
ENDBRANCH   1   7
TORSDOF 1
ENDMDL
