MODEL 1
REMARK minimizedAffinity 0.788713634
REMARK minimizedRMSD -1
REMARK  1 active torsions:
REMARK  status: ('A' for Active; 'I' for Inactive)
REMARK    1  A    between atoms: C1_2  and  C2_3 
ROOT
ATOM      1  C2  UNL d   1       0.138  -5.532  -5.449  0.00  0.00    -0.077 A 
ATOM      2  C3  UNL d   1       0.183  -4.590  -4.412  0.00  0.00     0.002 A 
ATOM      3  C4  UNL d   1       1.409  -4.123  -3.935  0.00  0.00     0.002 A 
ATOM      4  C5  UNL d   1       2.598  -4.589  -4.491  0.00  0.00    -0.004 A 
ATOM      5  C6  UNL d   1       2.564  -5.527  -5.522  0.00  0.00     0.002 A 
ATOM      6  C7  UNL d   1       1.339  -5.996  -6.000  0.00  0.00     0.002 A 
ENDROOT
BRANCH   1   7
ATOM      7  C1  UNL d   1      -1.185  -6.000  -5.999  0.00  0.00     0.055 C 
ATOM      8  C   UNL d   1      -2.332  -5.626  -5.073  0.00  0.00     0.019 C 
ENDBRANCH   1   7
TORSDOF 1
ENDMDL
