MODEL 1
REMARK minimizedAffinity 1.6125778
REMARK minimizedRMSD -1
REMARK  1 active torsions:
REMARK  status: ('A' for Active; 'I' for Inactive)
REMARK    1  A    between atoms: C1_2  and  C2_3 
ROOT
ATOM      1  C2  UNL d   1       2.063  -0.327   0.360  0.00  0.00    -0.077 A 
ATOM      2  C3  UNL d   1       2.353   0.717  -0.529  0.00  0.00     0.002 A 
ATOM      3  C4  UNL d   1       1.390   1.687  -0.818  0.00  0.00     0.002 A 
ATOM      4  C5  UNL d   1       0.134   1.624  -0.218  0.00  0.00    -0.004 A 
ATOM      5  C6  UNL d   1      -0.164   0.588   0.666  0.00  0.00     0.002 A 
ATOM      6  C7  UNL d   1       0.796  -0.383   0.955  0.00  0.00     0.002 A 
ENDROOT
BRANCH   1   7
ATOM      7  C1  UNL d   1       3.117  -1.345   0.710  0.00  0.00     0.055 C 
ATOM      8  C   UNL d   1       3.853  -0.964   1.986  0.00  0.00     0.019 C 
ENDBRANCH   1   7
TORSDOF 1
ENDMDL
