MODEL 1
REMARK minimizedAffinity 4.77373743
REMARK minimizedRMSD -1
REMARK  3 active torsions:
REMARK  status: ('A' for Active; 'I' for Inactive)
REMARK    1  A    between atoms: C3'_2  and  C2'_3 
REMARK    2  A    between atoms: C2'_3  and  C1'_4 
REMARK    3  A    between atoms: C1'_4  and  C1_5 
ROOT
ATOM      1  C1  N4B d   1       2.458   0.291  -1.231  0.00  0.00    -0.075 A 
ATOM      2  C2  N4B d   1       2.552   1.626  -1.682  0.00  0.00     0.002 A 
ATOM      3  C3  N4B d   1       1.462   2.456  -1.601  0.00  0.00     0.002 A 
ATOM      4  C4  N4B d   1       0.266   1.971  -1.092  0.00  0.00    -0.004 A 
ATOM      5  C5  N4B d   1       0.191   0.687  -0.635  0.00  0.00     0.002 A 
ATOM      6  C6  N4B d   1       1.280  -0.157  -0.707  0.00  0.00     0.002 A 
ENDROOT
BRANCH   1   7
ATOM      7  C1' N4B d   1       3.598  -0.680  -1.379  0.00  0.00     0.057 C 
BRANCH   7   8
ATOM      8  C2' N4B d   1       3.107  -1.921  -2.117  0.00  0.00     0.009 C 
BRANCH   8   9
ATOM      9  C3' N4B d   1       2.593  -1.590  -3.508  0.00  0.00     0.004 C 
ATOM     10  C4' N4B d   1       1.671  -2.640  -4.052  0.00  0.00     0.003 C 
ENDBRANCH   8   9
ENDBRANCH   7   8
ENDBRANCH   1   7
TORSDOF 3
ENDMDL
