MODEL 1
REMARK minimizedAffinity -1.47982419
REMARK minimizedRMSD -1
REMARK  3 active torsions:
REMARK  status: ('A' for Active; 'I' for Inactive)
REMARK    1  A    between atoms: C3'_2  and  C2'_3 
REMARK    2  A    between atoms: C2'_3  and  C1'_4 
REMARK    3  A    between atoms: C1'_4  and  C1_5 
ROOT
ATOM      1  C1  N4B d   1       0.374  -1.414  -1.373  0.00  0.00    -0.075 A 
ATOM      2  C2  N4B d   1       0.342  -0.032  -1.661  0.00  0.00     0.002 A 
ATOM      3  C3  N4B d   1       1.480   0.724  -1.528  0.00  0.00     0.002 A 
ATOM      4  C4  N4B d   1       2.654   0.126  -1.093  0.00  0.00    -0.004 A 
ATOM      5  C5  N4B d   1       2.683  -1.214  -0.841  0.00  0.00     0.002 A 
ATOM      6  C6  N4B d   1       1.547  -1.987  -0.974  0.00  0.00     0.002 A 
ENDROOT
BRANCH   1   7
ATOM      7  C1' N4B d   1      -0.866  -2.265  -1.421  0.00  0.00     0.057 C 
BRANCH   7   8
ATOM      8  C2' N4B d   1      -2.036  -1.478  -0.838  0.00  0.00     0.009 C 
BRANCH   8   9
ATOM      9  C3' N4B d   1      -3.325  -1.728  -1.601  0.00  0.00     0.004 C 
ATOM     10  C4' N4B d   1      -3.895  -3.092  -1.346  0.00  0.00     0.003 C 
ENDBRANCH   8   9
ENDBRANCH   7   8
ENDBRANCH   1   7
TORSDOF 3
ENDMDL
