MODEL 1
REMARK minimizedAffinity 5.39382315
REMARK minimizedRMSD -1
REMARK  3 active torsions:
REMARK  status: ('A' for Active; 'I' for Inactive)
REMARK    1  A    between atoms: C3'_2  and  C2'_3 
REMARK    2  A    between atoms: C2'_3  and  C1'_4 
REMARK    3  A    between atoms: C1'_4  and  C1_5 
ROOT
ATOM      1  C1  N4B d   1       1.231   1.635  -0.205  0.00  0.00    -0.075 A 
ATOM      2  C2  N4B d   1       1.155   1.934   1.173  0.00  0.00     0.002 A 
ATOM      3  C3  N4B d   1      -0.002   1.678   1.868  0.00  0.00     0.002 A 
ATOM      4  C4  N4B d   1      -1.096   1.143   1.205  0.00  0.00    -0.004 A 
ATOM      5  C5  N4B d   1      -1.006   0.834  -0.121  0.00  0.00     0.002 A 
ATOM      6  C6  N4B d   1       0.152   1.083  -0.831  0.00  0.00     0.002 A 
ENDROOT
BRANCH   1   7
ATOM      7  C1' N4B d   1       2.445   1.977  -1.026  0.00  0.00     0.057 C 
BRANCH   7   8
ATOM      8  C2' N4B d   1       2.790   0.794  -1.926  0.00  0.00     0.009 C 
BRANCH   8   9
ATOM      9  C3' N4B d   1       3.081   1.231  -3.351  0.00  0.00     0.004 C 
ATOM     10  C4' N4B d   1       1.841   1.601  -4.110  0.00  0.00     0.003 C 
ENDBRANCH   8   9
ENDBRANCH   7   8
ENDBRANCH   1   7
TORSDOF 3
ENDMDL
