MODEL 1
REMARK minimizedAffinity -0.58240056
REMARK minimizedRMSD -1
REMARK  3 active torsions:
REMARK  status: ('A' for Active; 'I' for Inactive)
REMARK    1  A    between atoms: C3'_2  and  C2'_3 
REMARK    2  A    between atoms: C2'_3  and  C1'_4 
REMARK    3  A    between atoms: C1'_4  and  C1_5 
ROOT
ATOM      1  C1  N4B d   1       2.141  -1.897  -1.455  0.00  0.00    -0.075 A 
ATOM      2  C2  N4B d   1       0.871  -2.011  -0.846  0.00  0.00     0.002 A 
ATOM      3  C3  N4B d   1      -0.021  -2.954  -1.293  0.00  0.00     0.002 A 
ATOM      4  C4  N4B d   1       0.325  -3.778  -2.353  0.00  0.00    -0.004 A 
ATOM      5  C5  N4B d   1       1.562  -3.679  -2.918  0.00  0.00     0.002 A 
ATOM      6  C6  N4B d   1       2.471  -2.738  -2.478  0.00  0.00     0.002 A 
ENDROOT
BRANCH   1   7
ATOM      7  C1' N4B d   1       3.118  -0.824  -1.058  0.00  0.00     0.057 C 
BRANCH   7   8
ATOM      8  C2' N4B d   1       2.456   0.541  -1.223  0.00  0.00     0.009 C 
BRANCH   8   9
ATOM      9  C3' N4B d   1       2.652   1.103  -2.620  0.00  0.00     0.004 C 
ATOM     10  C4' N4B d   1       1.908   2.387  -2.840  0.00  0.00     0.003 C 
ENDBRANCH   8   9
ENDBRANCH   7   8
ENDBRANCH   1   7
TORSDOF 3
ENDMDL
