MODEL 1
REMARK minimizedAffinity 4.59155989
REMARK minimizedRMSD -1
REMARK  3 active torsions:
REMARK  status: ('A' for Active; 'I' for Inactive)
REMARK    1  A    between atoms: C3'_2  and  C2'_3 
REMARK    2  A    between atoms: C2'_3  and  C1'_4 
REMARK    3  A    between atoms: C1'_4  and  C1_5 
ROOT
ATOM      1  C1  N4B d   1       0.473   1.524  -1.513  0.00  0.00    -0.075 A 
ATOM      2  C2  N4B d   1       1.251   0.366  -1.296  0.00  0.00     0.002 A 
ATOM      3  C3  N4B d   1       2.382   0.148  -2.044  0.00  0.00     0.002 A 
ATOM      4  C4  N4B d   1       2.742   1.061  -3.024  0.00  0.00    -0.004 A 
ATOM      5  C5  N4B d   1       1.999   2.189  -3.211  0.00  0.00     0.002 A 
ATOM      6  C6  N4B d   1       0.862   2.423  -2.464  0.00  0.00     0.002 A 
ENDROOT
BRANCH   1   7
ATOM      7  C1' N4B d   1      -0.818   1.763  -0.779  0.00  0.00     0.057 C 
BRANCH   7   8
ATOM      8  C2' N4B d   1      -1.157   0.530   0.053  0.00  0.00     0.009 C 
BRANCH   8   9
ATOM      9  C3' N4B d   1      -2.495  -0.071  -0.339  0.00  0.00     0.004 C 
ATOM     10  C4' N4B d   1      -2.481  -1.570  -0.342  0.00  0.00     0.003 C 
ENDBRANCH   8   9
ENDBRANCH   7   8
ENDBRANCH   1   7
TORSDOF 3
ENDMDL
