MODEL 1
REMARK minimizedAffinity 2.90383744
REMARK minimizedRMSD -1
REMARK  3 active torsions:
REMARK  status: ('A' for Active; 'I' for Inactive)
REMARK    1  A    between atoms: C3'_2  and  C2'_3 
REMARK    2  A    between atoms: C2'_3  and  C1'_4 
REMARK    3  A    between atoms: C1'_4  and  C1_5 
ROOT
ATOM      1  C1  N4B d   1      -0.299   0.978  -0.073  0.00  0.00    -0.075 A 
ATOM      2  C2  N4B d   1       0.489   0.717  -1.216  0.00  0.00     0.002 A 
ATOM      3  C3  N4B d   1       1.841   0.954  -1.186  0.00  0.00     0.002 A 
ATOM      4  C4  N4B d   1       2.422   1.467  -0.036  0.00  0.00    -0.004 A 
ATOM      5  C5  N4B d   1       1.659   1.692   1.072  0.00  0.00     0.002 A 
ATOM      6  C6  N4B d   1       0.299   1.455   1.057  0.00  0.00     0.002 A 
ENDROOT
BRANCH   1   7
ATOM      7  C1' N4B d   1      -1.794   0.815  -0.086  0.00  0.00     0.057 C 
BRANCH   7   8
ATOM      8  C2' N4B d   1      -2.154  -0.561   0.466  0.00  0.00     0.009 C 
BRANCH   8   9
ATOM      9  C3' N4B d   1      -3.033  -1.346  -0.493  0.00  0.00     0.004 C 
ATOM     10  C4' N4B d   1      -2.443  -2.673  -0.867  0.00  0.00     0.003 C 
ENDBRANCH   8   9
ENDBRANCH   7   8
ENDBRANCH   1   7
TORSDOF 3
ENDMDL
