MODEL 1
REMARK minimizedAffinity 4.22898722
REMARK minimizedRMSD -1
REMARK  3 active torsions:
REMARK  status: ('A' for Active; 'I' for Inactive)
REMARK    1  A    between atoms: C3'_2  and  C2'_3 
REMARK    2  A    between atoms: C2'_3  and  C1'_4 
REMARK    3  A    between atoms: C1'_4  and  C1_5 
ROOT
ATOM      1  C1  N4B d   1       0.445  -1.729  -0.973  0.00  0.00    -0.075 A 
ATOM      2  C2  N4B d   1      -0.377  -0.605  -0.743  0.00  0.00     0.002 A 
ATOM      3  C3  N4B d   1      -1.737  -0.761  -0.628  0.00  0.00     0.002 A 
ATOM      4  C4  N4B d   1      -2.296  -2.024  -0.758  0.00  0.00    -0.004 A 
ATOM      5  C5  N4B d   1      -1.491  -3.108  -0.954  0.00  0.00     0.002 A 
ATOM      6  C6  N4B d   1      -0.123  -2.967  -1.068  0.00  0.00     0.002 A 
ENDROOT
BRANCH   1   7
ATOM      7  C1' N4B d   1       1.928  -1.597  -1.192  0.00  0.00     0.057 C 
BRANCH   7   8
ATOM      8  C2' N4B d   1       2.332  -0.136  -1.015  0.00  0.00     0.009 C 
BRANCH   8   9
ATOM      9  C3' N4B d   1       2.575   0.551  -2.348  0.00  0.00     0.004 C 
ATOM     10  C4' N4B d   1       1.892   1.882  -2.448  0.00  0.00     0.003 C 
ENDBRANCH   8   9
ENDBRANCH   7   8
ENDBRANCH   1   7
TORSDOF 3
ENDMDL
