MODEL 1
REMARK minimizedAffinity -4.08918571
REMARK minimizedRMSD -1
REMARK  3 active torsions:
REMARK  status: ('A' for Active; 'I' for Inactive)
REMARK    1  A    between atoms: C3'_2  and  C2'_3 
REMARK    2  A    between atoms: C2'_3  and  C1'_4 
REMARK    3  A    between atoms: C1'_4  and  C1_5 
ROOT
ATOM      1  C1  N4B d   1       0.142   0.477  -0.204  0.00  0.00    -0.075 A 
ATOM      2  C2  N4B d   1       0.202  -0.824  -0.749  0.00  0.00     0.002 A 
ATOM      3  C3  N4B d   1       1.419  -1.392  -1.035  0.00  0.00     0.002 A 
ATOM      4  C4  N4B d   1       2.583  -0.675  -0.803  0.00  0.00    -0.004 A 
ATOM      5  C5  N4B d   1       2.517   0.571  -0.252  0.00  0.00     0.002 A 
ATOM      6  C6  N4B d   1       1.301   1.154   0.044  0.00  0.00     0.002 A 
ENDROOT
BRANCH   1   7
ATOM      7  C1' N4B d   1      -1.168   1.174   0.046  0.00  0.00     0.057 C 
BRANCH   7   8
ATOM      8  C2' N4B d   1      -2.000   0.343   1.018  0.00  0.00     0.009 C 
BRANCH   8   9
ATOM      9  C3' N4B d   1      -2.238   1.073   2.329  0.00  0.00     0.004 C 
ATOM     10  C4' N4B d   1      -2.618   0.149   3.448  0.00  0.00     0.003 C 
ENDBRANCH   8   9
ENDBRANCH   7   8
ENDBRANCH   1   7
TORSDOF 3
ENDMDL
