MODEL 1
REMARK minimizedAffinity 4.9704814
REMARK minimizedRMSD -1
REMARK  3 active torsions:
REMARK  status: ('A' for Active; 'I' for Inactive)
REMARK    1  A    between atoms: C3'_2  and  C2'_3 
REMARK    2  A    between atoms: C2'_3  and  C1'_4 
REMARK    3  A    between atoms: C1'_4  and  C1_5 
ROOT
ATOM      1  C1  N4B d   1       2.299   0.151  -2.210  0.00  0.00    -0.075 A 
ATOM      2  C2  N4B d   1       0.971   0.237  -1.737  0.00  0.00     0.002 A 
ATOM      3  C3  N4B d   1       0.501  -0.688  -0.837  0.00  0.00     0.002 A 
ATOM      4  C4  N4B d   1       1.331  -1.714  -0.412  0.00  0.00    -0.004 A 
ATOM      5  C5  N4B d   1       2.620  -1.776  -0.854  0.00  0.00     0.002 A 
ATOM      6  C6  N4B d   1       3.107  -0.851  -1.756  0.00  0.00     0.002 A 
ENDROOT
BRANCH   1   7
ATOM      7  C1' N4B d   1       2.830   1.088  -3.260  0.00  0.00     0.057 C 
BRANCH   7   8
ATOM      8  C2' N4B d   1       1.820   2.208  -3.489  0.00  0.00     0.009 C 
BRANCH   8   9
ATOM      9  C3' N4B d   1       1.387   2.294  -4.942  0.00  0.00     0.004 C 
ATOM     10  C4' N4B d   1       1.428   0.968  -5.640  0.00  0.00     0.003 C 
ENDBRANCH   8   9
ENDBRANCH   7   8
ENDBRANCH   1   7
TORSDOF 3
ENDMDL
