MODEL 1
REMARK minimizedAffinity 2.0811615
REMARK minimizedRMSD -1
REMARK  0 active torsions:
REMARK  status: ('A' for Active; 'I' for Inactive)
ROOT
ATOM      1  C   UNL d   1       5.950   1.758  -6.000  0.00  0.00     0.023 A 
ATOM      2  C1  UNL d   1       5.398   2.938  -5.501  0.00  0.00     0.003 A 
ATOM      3  C2  UNL d   1       4.852   2.967  -4.216  0.00  0.00     0.048 A 
ATOM      4  C3  UNL d   1       4.860   1.811  -3.436  0.00  0.00     0.023 A 
ATOM      5  C4  UNL d   1       5.412   0.628  -3.930  0.00  0.00     0.048 A 
ATOM      6  C5  UNL d   1       5.957   0.605  -5.216  0.00  0.00     0.003 A 
ATOM      7  I   UNL d   1       4.048   1.850  -1.523  0.00  0.00    -0.146 I 
ENDROOT
TORSDOF 0
ENDMDL
