MODEL 1
REMARK minimizedAffinity 1.76391971
REMARK minimizedRMSD -1
REMARK  0 active torsions:
REMARK  status: ('A' for Active; 'I' for Inactive)
ROOT
ATOM      1  C   UNL d   1       3.908   0.788  -5.829  0.00  0.00     0.023 A 
ATOM      2  C1  UNL d   1       5.260   0.874  -5.495  0.00  0.00     0.003 A 
ATOM      3  C2  UNL d   1       5.862   2.123  -5.329  0.00  0.00     0.048 A 
ATOM      4  C3  UNL d   1       5.106   3.282  -5.499  0.00  0.00     0.023 A 
ATOM      5  C4  UNL d   1       3.753   3.201  -5.833  0.00  0.00     0.048 A 
ATOM      6  C5  UNL d   1       3.156   1.950  -5.999  0.00  0.00     0.003 A 
ATOM      7  I   UNL d   1       5.999   5.143  -5.253  0.00  0.00    -0.146 I 
ENDROOT
TORSDOF 0
ENDMDL
