MODEL 1
REMARK minimizedAffinity 5.13147879
REMARK minimizedRMSD -1
REMARK  0 active torsions:
REMARK  status: ('A' for Active; 'I' for Inactive)
ROOT
ATOM      1  C   UNL d   1       4.113   4.170  -5.755  0.00  0.00     0.023 A 
ATOM      2  C1  UNL d   1       5.369   4.107  -5.151  0.00  0.00     0.003 A 
ATOM      3  C2  UNL d   1       5.911   2.872  -4.791  0.00  0.00     0.048 A 
ATOM      4  C3  UNL d   1       5.191   1.703  -5.038  0.00  0.00     0.023 A 
ATOM      5  C4  UNL d   1       3.935   1.761  -5.642  0.00  0.00     0.048 A 
ATOM      6  C5  UNL d   1       3.397   2.998  -6.000  0.00  0.00     0.003 A 
ATOM      7  I   UNL d   1       5.996  -0.137  -4.502  0.00  0.00    -0.146 I 
ENDROOT
TORSDOF 0
ENDMDL
