MODEL 1
REMARK minimizedAffinity 6.47873211
REMARK minimizedRMSD -1
REMARK  0 active torsions:
REMARK  status: ('A' for Active; 'I' for Inactive)
ROOT
ATOM      1  C   UNL d   1       3.409   4.121  -5.110  0.00  0.00     0.023 A 
ATOM      2  C1  UNL d   1       4.773   4.093  -4.822  0.00  0.00     0.003 A 
ATOM      3  C2  UNL d   1       5.518   2.939  -5.076  0.00  0.00     0.048 A 
ATOM      4  C3  UNL d   1       4.893   1.818  -5.620  0.00  0.00     0.023 A 
ATOM      5  C4  UNL d   1       3.528   1.842  -5.910  0.00  0.00     0.048 A 
ATOM      6  C5  UNL d   1       2.787   2.997  -5.654  0.00  0.00     0.003 A 
ATOM      7  I   UNL d   1       5.999   0.100  -5.999  0.00  0.00    -0.146 I 
ENDROOT
TORSDOF 0
ENDMDL
