MODEL 1
REMARK minimizedAffinity -1.01082861
REMARK minimizedRMSD -1
REMARK  0 active torsions:
REMARK  status: ('A' for Active; 'I' for Inactive)
ROOT
ATOM      1  C   UNL d   1       2.704   3.593   0.485  0.00  0.00     0.023 A 
ATOM      2  C1  UNL d   1       2.520   2.348   1.087  0.00  0.00     0.003 A 
ATOM      3  C2  UNL d   1       3.252   2.007   2.226  0.00  0.00     0.048 A 
ATOM      4  C3  UNL d   1       4.165   2.916   2.759  0.00  0.00     0.023 A 
ATOM      5  C4  UNL d   1       4.352   4.163   2.160  0.00  0.00     0.048 A 
ATOM      6  C5  UNL d   1       3.618   4.500   1.021  0.00  0.00     0.003 A 
ATOM      7  I   UNL d   1       5.255   2.411   4.455  0.00  0.00    -0.146 I 
ENDROOT
TORSDOF 0
ENDMDL
