MODEL 1
REMARK minimizedAffinity 4.1337781
REMARK minimizedRMSD -1
REMARK  0 active torsions:
REMARK  status: ('A' for Active; 'I' for Inactive)
ROOT
ATOM      1  C   UNL d   1       1.128   1.400   0.553  0.00  0.00     0.023 A 
ATOM      2  C1  UNL d   1       1.575   2.586  -0.029  0.00  0.00     0.003 A 
ATOM      3  C2  UNL d   1       2.680   3.253   0.504  0.00  0.00     0.048 A 
ATOM      4  C3  UNL d   1       3.333   2.729   1.618  0.00  0.00     0.023 A 
ATOM      5  C4  UNL d   1       2.890   1.542   2.203  0.00  0.00     0.048 A 
ATOM      6  C5  UNL d   1       1.784   0.878   1.668  0.00  0.00     0.003 A 
ATOM      7  I   UNL d   1       4.978   3.720   2.413  0.00  0.00    -0.146 I 
ENDROOT
TORSDOF 0
ENDMDL
