MODEL 1
REMARK minimizedAffinity -0.761473536
REMARK minimizedRMSD -1
REMARK  0 active torsions:
REMARK  status: ('A' for Active; 'I' for Inactive)
ROOT
ATOM      1  C   UNL d   1      -1.465  -4.416   3.767  0.00  0.00     0.023 A 
ATOM      2  C1  UNL d   1      -1.245  -5.510   2.930  0.00  0.00     0.003 A 
ATOM      3  C2  UNL d   1      -1.224  -5.337   1.544  0.00  0.00     0.048 A 
ATOM      4  C3  UNL d   1      -1.422  -4.068   1.003  0.00  0.00     0.023 A 
ATOM      5  C4  UNL d   1      -1.641  -2.970   1.837  0.00  0.00     0.048 A 
ATOM      6  C5  UNL d   1      -1.663  -3.148   3.221  0.00  0.00     0.003 A 
ATOM      7  I   UNL d   1      -1.390  -3.808  -1.059  0.00  0.00    -0.146 I 
ENDROOT
TORSDOF 0
ENDMDL
