MODEL 1
REMARK minimizedAffinity 4.21818113
REMARK minimizedRMSD -1
REMARK  0 active torsions:
REMARK  status: ('A' for Active; 'I' for Inactive)
ROOT
ATOM      1  C   UNL d   1       4.221   4.066  -5.999  0.00  0.00     0.023 A 
ATOM      2  C1  UNL d   1       3.283   3.074  -5.712  0.00  0.00     0.003 A 
ATOM      3  C2  UNL d   1       3.701   1.844  -5.198  0.00  0.00     0.048 A 
ATOM      4  C3  UNL d   1       5.057   1.614  -4.972  0.00  0.00     0.023 A 
ATOM      5  C4  UNL d   1       5.999   2.603  -5.257  0.00  0.00     0.048 A 
ATOM      6  C5  UNL d   1       5.578   3.831  -5.772  0.00  0.00     0.003 A 
ATOM      7  I   UNL d   1       5.680  -0.215  -4.207  0.00  0.00    -0.146 I 
ENDROOT
TORSDOF 0
ENDMDL
