MODEL 1
REMARK minimizedAffinity 1.06545341
REMARK minimizedRMSD -1
REMARK  0 active torsions:
REMARK  status: ('A' for Active; 'I' for Inactive)
ROOT
ATOM      1  C   UNL d   1       2.956   1.791   1.180  0.00  0.00     0.023 A 
ATOM      2  C1  UNL d   1       1.623   2.100   0.910  0.00  0.00     0.003 A 
ATOM      3  C2  UNL d   1       0.669   1.083   0.841  0.00  0.00     0.048 A 
ATOM      4  C3  UNL d   1       1.054  -0.241   1.044  0.00  0.00     0.023 A 
ATOM      5  C4  UNL d   1       2.387  -0.556   1.316  0.00  0.00     0.048 A 
ATOM      6  C5  UNL d   1       3.337   0.464   1.383  0.00  0.00     0.003 A 
ATOM      7  I   UNL d   1      -0.364  -1.757   0.942  0.00  0.00    -0.146 I 
ENDROOT
TORSDOF 0
ENDMDL
