MODEL 1
REMARK minimizedAffinity 2.94738603
REMARK minimizedRMSD -1
REMARK  0 active torsions:
REMARK  status: ('A' for Active; 'I' for Inactive)
ROOT
ATOM      1  C   UNL d   1       3.229   3.244   0.262  0.00  0.00     0.023 A 
ATOM      2  C1  UNL d   1       4.195   4.127   0.745  0.00  0.00     0.003 A 
ATOM      3  C2  UNL d   1       4.638   4.024   2.065  0.00  0.00     0.048 A 
ATOM      4  C3  UNL d   1       4.113   3.035   2.896  0.00  0.00     0.023 A 
ATOM      5  C4  UNL d   1       3.147   2.149   2.417  0.00  0.00     0.048 A 
ATOM      6  C5  UNL d   1       2.706   2.256   1.096  0.00  0.00     0.003 A 
ATOM      7  I   UNL d   1       4.772   2.880   4.861  0.00  0.00    -0.146 I 
ENDROOT
TORSDOF 0
ENDMDL
