MODEL 1
REMARK minimizedAffinity 5.23136473
REMARK minimizedRMSD -1
REMARK  0 active torsions:
REMARK  status: ('A' for Active; 'I' for Inactive)
ROOT
ATOM      1  C   UNL d   1      -0.305  -2.839  -1.839  0.00  0.00     0.023 A 
ATOM      2  C1  UNL d   1       0.092  -1.836  -0.954  0.00  0.00     0.003 A 
ATOM      3  C2  UNL d   1      -0.440  -1.790   0.336  0.00  0.00     0.048 A 
ATOM      4  C3  UNL d   1      -1.369  -2.751   0.735  0.00  0.00     0.023 A 
ATOM      5  C4  UNL d   1      -1.768  -3.757  -0.146  0.00  0.00     0.048 A 
ATOM      6  C5  UNL d   1      -1.234  -3.798  -1.435  0.00  0.00     0.003 A 
ATOM      7  I   UNL d   1      -2.162  -2.684   2.655  0.00  0.00    -0.146 I 
ENDROOT
TORSDOF 0
ENDMDL
