MODEL 1
REMARK minimizedAffinity 1.15991604
REMARK minimizedRMSD -1
REMARK  0 active torsions:
REMARK  status: ('A' for Active; 'I' for Inactive)
ROOT
ATOM      1  C   UNL d   1       2.112   2.596   0.165  0.00  0.00     0.023 A 
ATOM      2  C1  UNL d   1       1.741   1.832   1.271  0.00  0.00     0.003 A 
ATOM      3  C2  UNL d   1       2.457   1.936   2.466  0.00  0.00     0.048 A 
ATOM      4  C3  UNL d   1       3.543   2.806   2.547  0.00  0.00     0.023 A 
ATOM      5  C4  UNL d   1       3.918   3.573   1.443  0.00  0.00     0.048 A 
ATOM      6  C5  UNL d   1       3.200   3.465   0.250  0.00  0.00     0.003 A 
ATOM      7  I   UNL d   1       4.610   2.963   4.323  0.00  0.00    -0.146 I 
ENDROOT
TORSDOF 0
ENDMDL
