MODEL 1
REMARK minimizedAffinity -0.150242776
REMARK minimizedRMSD -1
REMARK  0 active torsions:
REMARK  status: ('A' for Active; 'I' for Inactive)
ROOT
ATOM      1  C   UNL d   1       0.212   4.190   3.891  0.00  0.00     0.023 A 
ATOM      2  C1  UNL d   1      -1.155   3.911   3.900  0.00  0.00     0.003 A 
ATOM      3  C2  UNL d   1      -1.688   2.993   2.993  0.00  0.00     0.048 A 
ATOM      4  C3  UNL d   1      -0.848   2.356   2.080  0.00  0.00     0.023 A 
ATOM      5  C4  UNL d   1       0.521   2.631   2.068  0.00  0.00     0.048 A 
ATOM      6  C5  UNL d   1       1.049   3.551   2.976  0.00  0.00     0.003 A 
ATOM      7  I   UNL d   1      -1.639   0.989   0.729  0.00  0.00    -0.146 I 
ENDROOT
TORSDOF 0
ENDMDL
