MODEL 1
REMARK minimizedAffinity 3.54022837
REMARK minimizedRMSD -1
REMARK  0 active torsions:
REMARK  status: ('A' for Active; 'I' for Inactive)
ROOT
ATOM      1  C2' OXE d   1      -1.113   2.080   1.294  0.00  0.00     0.078 C 
ATOM      2  C1' OXE d   1      -0.810   1.208  -1.357  0.00  0.00     0.078 C 
ATOM      3  C1  OXE d   1       0.397   1.146  -0.454  0.00  0.00    -0.078 A 
ATOM      4  C2  OXE d   1       0.251   1.619   0.828  0.00  0.00    -0.078 A 
ATOM      5  C3  OXE d   1       1.318   1.534   1.719  0.00  0.00     0.003 A 
ATOM      6  C4  OXE d   1       2.579   1.116   1.278  0.00  0.00    -0.002 A 
ATOM      7  C5  OXE d   1       2.758   0.667  -0.035  0.00  0.00    -0.002 A 
ATOM      8  C6  OXE d   1       1.670   0.636  -0.900  0.00  0.00     0.003 A 
ENDROOT
TORSDOF 0
ENDMDL
