MODEL 1
REMARK minimizedAffinity 7.03423214
REMARK minimizedRMSD -1
REMARK  0 active torsions:
REMARK  status: ('A' for Active; 'I' for Inactive)
ROOT
ATOM      1  C2' OXE d   1       1.602  -3.702   3.678  0.00  0.00     0.078 C 
ATOM      2  C1' OXE d   1       0.005  -6.000   3.456  0.00  0.00     0.078 C 
ATOM      3  C1  OXE d   1      -0.488  -4.884   4.343  0.00  0.00    -0.078 A 
ATOM      4  C2  OXE d   1       0.322  -3.783   4.482  0.00  0.00    -0.078 A 
ATOM      5  C3  OXE d   1      -0.110  -2.702   5.245  0.00  0.00     0.003 A 
ATOM      6  C4  OXE d   1      -1.290  -2.789   5.994  0.00  0.00    -0.002 A 
ATOM      7  C5  OXE d   1      -2.110  -3.918   5.897  0.00  0.00    -0.002 A 
ATOM      8  C6  OXE d   1      -1.745  -4.954   5.045  0.00  0.00     0.003 A 
ENDROOT
TORSDOF 0
ENDMDL
