MODEL 1
REMARK minimizedAffinity 12.7873793
REMARK minimizedRMSD -1
REMARK  0 active torsions:
REMARK  status: ('A' for Active; 'I' for Inactive)
ROOT
ATOM      1  C2' OXE d   1       3.874  -3.503  -3.020  0.00  0.00     0.078 C 
ATOM      2  C1' OXE d   1       4.260  -0.792  -2.399  0.00  0.00     0.078 C 
ATOM      3  C1  OXE d   1       3.149  -1.526  -1.689  0.00  0.00    -0.078 A 
ATOM      4  C2  OXE d   1       2.937  -2.839  -2.034  0.00  0.00    -0.078 A 
ATOM      5  C3  OXE d   1       1.961  -3.577  -1.370  0.00  0.00     0.003 A 
ATOM      6  C4  OXE d   1       1.093  -2.953  -0.466  0.00  0.00    -0.002 A 
ATOM      7  C5  OXE d   1       1.265  -1.606  -0.131  0.00  0.00    -0.002 A 
ATOM      8  C6  OXE d   1       2.313  -0.891  -0.700  0.00  0.00     0.003 A 
ENDROOT
TORSDOF 0
ENDMDL
