MODEL 1
REMARK minimizedAffinity 2.04818511
REMARK minimizedRMSD -1
REMARK  0 active torsions:
REMARK  status: ('A' for Active; 'I' for Inactive)
ROOT
ATOM      1  C2' OXE d   1      -5.261  -0.278  -5.126  0.00  0.00     0.078 C 
ATOM      2  C1' OXE d   1      -3.254   1.497  -5.964  0.00  0.00     0.078 C 
ATOM      3  C1  OXE d   1      -3.023   0.726  -4.689  0.00  0.00    -0.078 A 
ATOM      4  C2  OXE d   1      -4.030  -0.106  -4.262  0.00  0.00    -0.078 A 
ATOM      5  C3  OXE d   1      -3.846  -0.882  -3.121  0.00  0.00     0.003 A 
ATOM      6  C4  OXE d   1      -2.709  -0.709  -2.322  0.00  0.00    -0.002 A 
ATOM      7  C5  OXE d   1      -1.689   0.162  -2.718  0.00  0.00    -0.002 A 
ATOM      8  C6  OXE d   1      -1.811   0.854  -3.918  0.00  0.00     0.003 A 
ENDROOT
TORSDOF 0
ENDMDL
