MODEL 1
REMARK minimizedAffinity 6.28167152
REMARK minimizedRMSD -1
REMARK  0 active torsions:
REMARK  status: ('A' for Active; 'I' for Inactive)
ROOT
ATOM      1  C2' OXE d   1       3.012  -1.378  -0.591  0.00  0.00     0.078 C 
ATOM      2  C1' OXE d   1       2.308  -3.176   1.447  0.00  0.00     0.078 C 
ATOM      3  C1  OXE d   1       1.485  -3.188   0.183  0.00  0.00    -0.078 A 
ATOM      4  C2  OXE d   1       1.807  -2.273  -0.790  0.00  0.00    -0.078 A 
ATOM      5  C3  OXE d   1       1.115  -2.278  -1.998  0.00  0.00     0.003 A 
ATOM      6  C4  OXE d   1      -0.004  -3.101  -2.170  0.00  0.00    -0.002 A 
ATOM      7  C5  OXE d   1      -0.374  -4.013  -1.175  0.00  0.00    -0.002 A 
ATOM      8  C6  OXE d   1       0.384  -4.098  -0.013  0.00  0.00     0.003 A 
ENDROOT
TORSDOF 0
ENDMDL
