MODEL 1
REMARK minimizedAffinity 8.7531395
REMARK minimizedRMSD -1
REMARK  0 active torsions:
REMARK  status: ('A' for Active; 'I' for Inactive)
ROOT
ATOM      1  C2' OXE d   1      -6.000   0.682  -0.916  0.00  0.00     0.078 C 
ATOM      2  C1' OXE d   1      -5.939   2.126  -3.322  0.00  0.00     0.078 C 
ATOM      3  C1  OXE d   1      -4.688   1.389  -2.913  0.00  0.00    -0.078 A 
ATOM      4  C2  OXE d   1      -4.712   0.723  -1.711  0.00  0.00    -0.078 A 
ATOM      5  C3  OXE d   1      -3.604  -0.018  -1.311  0.00  0.00     0.003 A 
ATOM      6  C4  OXE d   1      -2.414   0.033  -2.047  0.00  0.00    -0.002 A 
ATOM      7  C5  OXE d   1      -2.356   0.738  -3.254  0.00  0.00    -0.002 A 
ATOM      8  C6  OXE d   1      -3.494   1.384  -3.721  0.00  0.00     0.003 A 
ENDROOT
TORSDOF 0
ENDMDL
