MODEL 1
REMARK minimizedAffinity 9.88961601
REMARK minimizedRMSD -1
REMARK  0 active torsions:
REMARK  status: ('A' for Active; 'I' for Inactive)
ROOT
ATOM      1  C2' OXE d   1      -0.751   0.754  -1.882  0.00  0.00     0.078 C 
ATOM      2  C1' OXE d   1       1.734  -0.017  -0.830  0.00  0.00     0.078 C 
ATOM      3  C1  OXE d   1       0.909   0.965  -0.037  0.00  0.00    -0.078 A 
ATOM      4  C2  OXE d   1      -0.285   1.373  -0.582  0.00  0.00    -0.078 A 
ATOM      5  C3  OXE d   1      -1.111   2.236   0.133  0.00  0.00     0.003 A 
ATOM      6  C4  OXE d   1      -0.667   2.811   1.330  0.00  0.00    -0.002 A 
ATOM      7  C5  OXE d   1       0.563   2.440   1.883  0.00  0.00    -0.002 A 
ATOM      8  C6  OXE d   1       1.342   1.488   1.235  0.00  0.00     0.003 A 
ENDROOT
TORSDOF 0
ENDMDL
