MODEL 1
REMARK minimizedAffinity 8.37940502
REMARK minimizedRMSD -1
REMARK  0 active torsions:
REMARK  status: ('A' for Active; 'I' for Inactive)
ROOT
ATOM      1  C2' OXE d   1       5.872   2.646  -1.961  0.00  0.00     0.078 C 
ATOM      2  C1' OXE d   1       5.995   2.348   0.827  0.00  0.00     0.078 C 
ATOM      3  C1  OXE d   1       5.041   1.461   0.067  0.00  0.00    -0.078 A 
ATOM      4  C2  OXE d   1       4.954   1.646  -1.292  0.00  0.00    -0.078 A 
ATOM      5  C3  OXE d   1       4.130   0.818  -2.049  0.00  0.00     0.003 A 
ATOM      6  C4  OXE d   1       3.277  -0.098  -1.421  0.00  0.00    -0.002 A 
ATOM      7  C5  OXE d   1       3.321  -0.274  -0.034  0.00  0.00    -0.002 A 
ATOM      8  C6  OXE d   1       4.227   0.466   0.718  0.00  0.00     0.003 A 
ENDROOT
TORSDOF 0
ENDMDL
