MODEL 1
REMARK minimizedAffinity 9.59019089
REMARK minimizedRMSD -1
REMARK  0 active torsions:
REMARK  status: ('A' for Active; 'I' for Inactive)
ROOT
ATOM      1  C2' OXE d   1       1.846   5.561   3.412  0.00  0.00     0.078 C 
ATOM      2  C1' OXE d   1       3.200   3.102   3.447  0.00  0.00     0.078 C 
ATOM      3  C1  OXE d   1       1.876   3.166   2.727  0.00  0.00    -0.078 A 
ATOM      4  C2  OXE d   1       1.199   4.362   2.755  0.00  0.00    -0.078 A 
ATOM      5  C3  OXE d   1      -0.001   4.491   2.060  0.00  0.00     0.003 A 
ATOM      6  C4  OXE d   1      -0.598   3.373   1.464  0.00  0.00    -0.002 A 
ATOM      7  C5  OXE d   1       0.056   2.137   1.458  0.00  0.00    -0.002 A 
ATOM      8  C6  OXE d   1       1.311   2.027   2.047  0.00  0.00     0.003 A 
ENDROOT
TORSDOF 0
ENDMDL
