MODEL 1
REMARK minimizedAffinity 12.3789291
REMARK minimizedRMSD -1
REMARK  0 active torsions:
REMARK  status: ('A' for Active; 'I' for Inactive)
ROOT
ATOM      1  C2' OXE d   1       2.818  -1.978   0.731  0.00  0.00     0.078 C 
ATOM      2  C1' OXE d   1       2.432  -2.188  -2.042  0.00  0.00     0.078 C 
ATOM      3  C1  OXE d   1       3.226  -1.012  -1.529  0.00  0.00    -0.078 A 
ATOM      4  C2  OXE d   1       3.370  -0.893  -0.167  0.00  0.00    -0.078 A 
ATOM      5  C3  OXE d   1       4.139   0.143   0.356  0.00  0.00     0.003 A 
ATOM      6  C4  OXE d   1       4.638   1.148  -0.481  0.00  0.00    -0.002 A 
ATOM      7  C5  OXE d   1       4.469   1.067  -1.867  0.00  0.00    -0.002 A 
ATOM      8  C6  OXE d   1       3.804  -0.027  -2.409  0.00  0.00     0.003 A 
ENDROOT
TORSDOF 0
ENDMDL
