MODEL 1
REMARK minimizedAffinity 1.86964691
REMARK minimizedRMSD -1
REMARK  1 active torsions:
REMARK  status: ('A' for Active; 'I' for Inactive)
REMARK    1  A    between atoms: C3_4  and  O_7 
ROOT
ATOM      1  C   UNL d   1       1.231  -0.097   0.588  0.00  0.00    -0.033 A 
ATOM      2  C1  UNL d   1       1.185   1.205   1.089  0.00  0.00     0.039 A 
ATOM      3  C2  UNL d   1       1.222   2.293   0.215  0.00  0.00    -0.080 A 
ATOM      4  C3  UNL d   1       1.304   2.066  -1.156  0.00  0.00     0.150 A 
ATOM      5  C4  UNL d   1       1.346   0.771  -1.663  0.00  0.00    -0.007 A 
ATOM      6  C5  UNL d   1       1.310  -0.314  -0.788  0.00  0.00     0.039 A 
ENDROOT
BRANCH   4   7
ATOM      7  O   UNL d   1       1.347   3.096  -2.048  0.00  0.00    -0.526 OA
ATOM      8  H5  UNL d   1       1.340   3.932  -1.553  0.00  0.00     0.418 HD
ENDBRANCH   4   7
TORSDOF 1
ENDMDL
