MODEL 1
REMARK minimizedAffinity 3.4953196
REMARK minimizedRMSD -1
REMARK  1 active torsions:
REMARK  status: ('A' for Active; 'I' for Inactive)
REMARK    1  A    between atoms: C3_4  and  O_7 
ROOT
ATOM      1  C   UNL d   1       0.710   3.787  -0.197  0.00  0.00    -0.033 A 
ATOM      2  C1  UNL d   1       0.656   3.535  -1.570  0.00  0.00     0.039 A 
ATOM      3  C2  UNL d   1       0.989   2.272  -2.063  0.00  0.00    -0.080 A 
ATOM      4  C3  UNL d   1       1.371   1.271  -1.176  0.00  0.00     0.150 A 
ATOM      5  C4  UNL d   1       1.423   1.513   0.193  0.00  0.00    -0.007 A 
ATOM      6  C5  UNL d   1       1.092   2.775   0.684  0.00  0.00     0.039 A 
ENDROOT
BRANCH   4   7
ATOM      7  O   UNL d   1       1.709   0.024  -1.611  0.00  0.00    -0.526 OA
ATOM      8  H5  UNL d   1       1.655   0.011  -2.581  0.00  0.00     0.418 HD
ENDBRANCH   4   7
TORSDOF 1
ENDMDL
