MODEL 1
REMARK minimizedAffinity -3.07383657
REMARK minimizedRMSD -1
REMARK  1 active torsions:
REMARK  status: ('A' for Active; 'I' for Inactive)
REMARK    1  A    between atoms: C3_4  and  O_7 
ROOT
ATOM      1  C   UNL d   1       1.229  -0.372  -0.119  0.00  0.00    -0.033 A 
ATOM      2  C1  UNL d   1       1.053   0.804   0.613  0.00  0.00     0.039 A 
ATOM      3  C2  UNL d   1       0.970   2.033  -0.046  0.00  0.00    -0.080 A 
ATOM      4  C3  UNL d   1       1.064   2.071  -1.434  0.00  0.00     0.150 A 
ATOM      5  C4  UNL d   1       1.236   0.903  -2.170  0.00  0.00    -0.007 A 
ATOM      6  C5  UNL d   1       1.320  -0.322  -1.510  0.00  0.00     0.039 A 
ENDROOT
BRANCH   4   7
ATOM      7  O   UNL d   1       0.993   3.247  -2.121  0.00  0.00    -0.526 OA
ATOM      8  H5  UNL d   1       0.903   3.972  -1.480  0.00  0.00     0.418 HD
ENDBRANCH   4   7
TORSDOF 1
ENDMDL
