MODEL 1
REMARK minimizedAffinity -4.87522936
REMARK minimizedRMSD -1
REMARK  1 active torsions:
REMARK  status: ('A' for Active; 'I' for Inactive)
REMARK    1  A    between atoms: C3_4  and  O_7 
ROOT
ATOM      1  C   UNL d   1       0.836   0.339  -0.599  0.00  0.00    -0.033 A 
ATOM      2  C1  UNL d   1       0.582   1.097   0.546  0.00  0.00     0.039 A 
ATOM      3  C2  UNL d   1       0.653   2.490   0.494  0.00  0.00    -0.080 A 
ATOM      4  C3  UNL d   1       0.978   3.113  -0.708  0.00  0.00     0.150 A 
ATOM      5  C4  UNL d   1       1.229   2.365  -1.854  0.00  0.00    -0.007 A 
ATOM      6  C5  UNL d   1       1.158   0.973  -1.799  0.00  0.00     0.039 A 
ENDROOT
BRANCH   4   7
ATOM      7  O   UNL d   1       1.065   4.470  -0.807  0.00  0.00    -0.526 OA
ATOM      8  H5  UNL d   1       0.895   4.854   0.069  0.00  0.00     0.418 HD
ENDBRANCH   4   7
TORSDOF 1
ENDMDL
