MODEL 1
REMARK minimizedAffinity -3.58860254
REMARK minimizedRMSD -1
REMARK  1 active torsions:
REMARK  status: ('A' for Active; 'I' for Inactive)
REMARK    1  A    between atoms: C3_4  and  O_7 
ROOT
ATOM      1  C   UNL d   1       0.772   0.483   0.313  0.00  0.00    -0.033 A 
ATOM      2  C1  UNL d   1       0.877   1.667   1.046  0.00  0.00     0.039 A 
ATOM      3  C2  UNL d   1       1.164   2.869   0.397  0.00  0.00    -0.080 A 
ATOM      4  C3  UNL d   1       1.343   2.875  -0.984  0.00  0.00     0.150 A 
ATOM      5  C4  UNL d   1       1.236   1.700  -1.721  0.00  0.00    -0.007 A 
ATOM      6  C5  UNL d   1       0.950   0.500  -1.071  0.00  0.00     0.039 A 
ENDROOT
BRANCH   4   7
ATOM      7  O   UNL d   1       1.629   4.023  -1.661  0.00  0.00    -0.526 OA
ATOM      8  H5  UNL d   1       1.701   4.749  -1.019  0.00  0.00     0.418 HD
ENDBRANCH   4   7
TORSDOF 1
ENDMDL
