MODEL 1
REMARK minimizedAffinity 3.02068686
REMARK minimizedRMSD -1
REMARK  1 active torsions:
REMARK  status: ('A' for Active; 'I' for Inactive)
REMARK    1  A    between atoms: C3_4  and  O_7 
ROOT
ATOM      1  C   UNL d   1       1.026  -0.020  -1.975  0.00  0.00    -0.033 A 
ATOM      2  C1  UNL d   1       1.546   0.426  -0.759  0.00  0.00     0.039 A 
ATOM      3  C2  UNL d   1       1.477   1.779  -0.422  0.00  0.00    -0.080 A 
ATOM      4  C3  UNL d   1       0.886   2.675  -1.309  0.00  0.00     0.150 A 
ATOM      5  C4  UNL d   1       0.363   2.237  -2.521  0.00  0.00    -0.007 A 
ATOM      6  C5  UNL d   1       0.433   0.885  -2.856  0.00  0.00     0.039 A 
ENDROOT
BRANCH   4   7
ATOM      7  O   UNL d   1       0.801   4.005  -1.026  0.00  0.00    -0.526 OA
ATOM      8  H5  UNL d   1       1.229   4.166  -0.169  0.00  0.00     0.418 HD
ENDBRANCH   4   7
TORSDOF 1
ENDMDL
