MODEL 1
REMARK minimizedAffinity -3.78407598
REMARK minimizedRMSD -1
REMARK  1 active torsions:
REMARK  status: ('A' for Active; 'I' for Inactive)
REMARK    1  A    between atoms: C3_4  and  O_7 
ROOT
ATOM      1  C   UNL d   1       0.795   2.900  -0.038  0.00  0.00    -0.033 A 
ATOM      2  C1  UNL d   1       0.872   2.098   1.102  0.00  0.00     0.039 A 
ATOM      3  C2  UNL d   1       1.053   0.719   0.976  0.00  0.00    -0.080 A 
ATOM      4  C3  UNL d   1       1.158   0.156  -0.293  0.00  0.00     0.150 A 
ATOM      5  C4  UNL d   1       1.086   0.950  -1.432  0.00  0.00    -0.007 A 
ATOM      6  C5  UNL d   1       0.903   2.327  -1.305  0.00  0.00     0.039 A 
ENDROOT
BRANCH   4   7
ATOM      7  O   UNL d   1       1.331  -1.185  -0.465  0.00  0.00    -0.526 OA
ATOM      8  H5  UNL d   1       1.333  -1.610   0.408  0.00  0.00     0.418 HD
ENDBRANCH   4   7
TORSDOF 1
ENDMDL
