MODEL 1
REMARK minimizedAffinity -3.66337037
REMARK minimizedRMSD -1
REMARK  1 active torsions:
REMARK  status: ('A' for Active; 'I' for Inactive)
REMARK    1  A    between atoms: C3_4  and  O_7 
ROOT
ATOM      1  C   UNL d   1      -2.156   2.313   5.342  0.00  0.00    -0.033 A 
ATOM      2  C1  UNL d   1      -3.520   2.603   5.274  0.00  0.00     0.039 A 
ATOM      3  C2  UNL d   1      -4.256   2.245   4.143  0.00  0.00    -0.080 A 
ATOM      4  C3  UNL d   1      -3.617   1.598   3.088  0.00  0.00     0.150 A 
ATOM      5  C4  UNL d   1      -2.259   1.303   3.151  0.00  0.00    -0.007 A 
ATOM      6  C5  UNL d   1      -1.526   1.662   4.281  0.00  0.00     0.039 A 
ENDROOT
BRANCH   4   7
ATOM      7  O   UNL d   1      -4.293   1.234   1.962  0.00  0.00    -0.526 OA
ATOM      8  H5  UNL d   1      -5.215   1.528   2.048  0.00  0.00     0.418 HD
ENDBRANCH   4   7
TORSDOF 1
ENDMDL
