MODEL 1
REMARK minimizedAffinity -2.77487612
REMARK minimizedRMSD -1
REMARK  1 active torsions:
REMARK  status: ('A' for Active; 'I' for Inactive)
REMARK    1  A    between atoms: C3_4  and  O_7 
ROOT
ATOM      1  C   UNL d   1       3.005  -2.407   0.075  0.00  0.00    -0.033 A 
ATOM      2  C1  UNL d   1       3.654  -1.171   0.098  0.00  0.00     0.039 A 
ATOM      3  C2  UNL d   1       2.933   0.002  -0.133  0.00  0.00    -0.080 A 
ATOM      4  C3  UNL d   1       1.565  -0.074  -0.383  0.00  0.00     0.150 A 
ATOM      5  C4  UNL d   1       0.912  -1.302  -0.404  0.00  0.00    -0.007 A 
ATOM      6  C5  UNL d   1       1.633  -2.473  -0.175  0.00  0.00     0.039 A 
ENDROOT
BRANCH   4   7
ATOM      7  O   UNL d   1       0.821   1.043  -0.619  0.00  0.00    -0.526 OA
ATOM      8  H5  UNL d   1       1.411   1.815  -0.602  0.00  0.00     0.418 HD
ENDBRANCH   4   7
TORSDOF 1
ENDMDL
