MODEL 1
REMARK minimizedAffinity -4.52199602
REMARK minimizedRMSD -1
REMARK  1 active torsions:
REMARK  status: ('A' for Active; 'I' for Inactive)
REMARK    1  A    between atoms: C3_4  and  O_7 
ROOT
ATOM      1  C   UNL d   1       1.163   0.501  -2.590  0.00  0.00    -0.033 A 
ATOM      2  C1  UNL d   1       1.130   1.897  -2.622  0.00  0.00     0.039 A 
ATOM      3  C2  UNL d   1       0.992   2.621  -1.436  0.00  0.00    -0.080 A 
ATOM      4  C3  UNL d   1       0.890   1.939  -0.227  0.00  0.00     0.150 A 
ATOM      5  C4  UNL d   1       0.926   0.549  -0.187  0.00  0.00    -0.007 A 
ATOM      6  C5  UNL d   1       1.062  -0.172  -1.372  0.00  0.00     0.039 A 
ENDROOT
BRANCH   4   7
ATOM      7  O   UNL d   1       0.749   2.603   0.956  0.00  0.00    -0.526 OA
ATOM      8  H5  UNL d   1       0.712   3.556   0.771  0.00  0.00     0.418 HD
ENDBRANCH   4   7
TORSDOF 1
ENDMDL
