MODEL 1
REMARK minimizedAffinity -2.28186989
REMARK minimizedRMSD -1
REMARK  1 active torsions:
REMARK  status: ('A' for Active; 'I' for Inactive)
REMARK    1  A    between atoms: C3_4  and  O_7 
ROOT
ATOM      1  C   UNL d   1       1.173   2.939  -0.331  0.00  0.00    -0.033 A 
ATOM      2  C1  UNL d   1       0.875   2.218   0.826  0.00  0.00     0.039 A 
ATOM      3  C2  UNL d   1       0.836   0.823   0.791  0.00  0.00    -0.080 A 
ATOM      4  C3  UNL d   1       1.099   0.162  -0.406  0.00  0.00     0.150 A 
ATOM      5  C4  UNL d   1       1.400   0.874  -1.562  0.00  0.00    -0.007 A 
ATOM      6  C5  UNL d   1       1.438   2.267  -1.525  0.00  0.00     0.039 A 
ENDROOT
BRANCH   4   7
ATOM      7  O   UNL d   1       1.068  -1.198  -0.490  0.00  0.00    -0.526 OA
ATOM      8  H5  UNL d   1       0.818  -1.555   0.378  0.00  0.00     0.418 HD
ENDBRANCH   4   7
TORSDOF 1
ENDMDL
