MODEL 1
REMARK minimizedAffinity -4.5058012
REMARK minimizedRMSD -1
REMARK  1 active torsions:
REMARK  status: ('A' for Active; 'I' for Inactive)
REMARK    1  A    between atoms: C3_4  and  O_7 
ROOT
ATOM      1  C   UNL d   1       0.744   0.031   0.208  0.00  0.00    -0.033 A 
ATOM      2  C1  UNL d   1       0.809   1.215   0.944  0.00  0.00     0.039 A 
ATOM      3  C2  UNL d   1       1.063   2.427   0.300  0.00  0.00    -0.080 A 
ATOM      4  C3  UNL d   1       1.248   2.442  -1.080  0.00  0.00     0.150 A 
ATOM      5  C4  UNL d   1       1.181   1.266  -1.821  0.00  0.00    -0.007 A 
ATOM      6  C5  UNL d   1       0.928   0.057  -1.175  0.00  0.00     0.039 A 
ENDROOT
BRANCH   4   7
ATOM      7  O   UNL d   1       1.503   3.600  -1.753  0.00  0.00    -0.526 OA
ATOM      8  H5  UNL d   1       1.549   4.326  -1.109  0.00  0.00     0.418 HD
ENDBRANCH   4   7
TORSDOF 1
ENDMDL
