MODEL 1
REMARK minimizedAffinity -5.02186155
REMARK minimizedRMSD -1
REMARK  1 active torsions:
REMARK  status: ('A' for Active; 'I' for Inactive)
REMARK    1  A    between atoms: C3_4  and  O_7 
ROOT
ATOM      1  C   UNL d   1       1.024  -0.219  -0.095  0.00  0.00    -0.033 A 
ATOM      2  C1  UNL d   1       0.624   0.775   0.801  0.00  0.00     0.039 A 
ATOM      3  C2  UNL d   1       0.459   2.090   0.359  0.00  0.00    -0.080 A 
ATOM      4  C3  UNL d   1       0.695   2.396  -0.979  0.00  0.00     0.150 A 
ATOM      5  C4  UNL d   1       1.090   1.409  -1.877  0.00  0.00    -0.007 A 
ATOM      6  C5  UNL d   1       1.255   0.098  -1.433  0.00  0.00     0.039 A 
ENDROOT
BRANCH   4   7
ATOM      7  O   UNL d   1       0.552   3.665  -1.455  0.00  0.00    -0.526 OA
ATOM      8  H5  UNL d   1       0.303   4.245  -0.716  0.00  0.00     0.418 HD
ENDBRANCH   4   7
TORSDOF 1
ENDMDL
