MODEL 1
REMARK minimizedAffinity 2.39099503
REMARK minimizedRMSD -1
REMARK  1 active torsions:
REMARK  status: ('A' for Active; 'I' for Inactive)
REMARK    1  A    between atoms: C3_4  and  O_7 
ROOT
ATOM      1  C   UNL d   1       0.901  -0.275   0.448  0.00  0.00    -0.033 A 
ATOM      2  C1  UNL d   1       1.303   0.951   0.980  0.00  0.00     0.039 A 
ATOM      3  C2  UNL d   1       1.442   2.064   0.148  0.00  0.00    -0.080 A 
ATOM      4  C3  UNL d   1       1.175   1.937  -1.213  0.00  0.00     0.150 A 
ATOM      5  C4  UNL d   1       0.769   0.719  -1.749  0.00  0.00    -0.007 A 
ATOM      6  C5  UNL d   1       0.632  -0.391  -0.916  0.00  0.00     0.039 A 
ENDROOT
BRANCH   4   7
ATOM      7  O   UNL d   1       1.301   2.993  -2.065  0.00  0.00    -0.526 OA
ATOM      8  H5  UNL d   1       1.616   3.761  -1.559  0.00  0.00     0.418 HD
ENDBRANCH   4   7
TORSDOF 1
ENDMDL
