MODEL 1
REMARK minimizedAffinity -1.02520835
REMARK minimizedRMSD -1
REMARK  1 active torsions:
REMARK  status: ('A' for Active; 'I' for Inactive)
REMARK    1  A    between atoms: C3_4  and  O_7 
ROOT
ATOM      1  C   UNL d   1       1.196  -2.259  -0.324  0.00  0.00    -0.033 A 
ATOM      2  C1  UNL d   1       1.818  -1.343   0.526  0.00  0.00     0.039 A 
ATOM      3  C2  UNL d   1       1.796   0.020   0.223  0.00  0.00    -0.080 A 
ATOM      4  C3  UNL d   1       1.149   0.453  -0.932  0.00  0.00     0.150 A 
ATOM      5  C4  UNL d   1       0.524  -0.455  -1.781  0.00  0.00    -0.007 A 
ATOM      6  C5  UNL d   1       0.548  -1.815  -1.477  0.00  0.00     0.039 A 
ENDROOT
BRANCH   4   7
ATOM      7  O   UNL d   1       1.105   1.772  -1.272  0.00  0.00    -0.526 OA
ATOM      8  H5  UNL d   1       1.602   2.278  -0.608  0.00  0.00     0.418 HD
ENDBRANCH   4   7
TORSDOF 1
ENDMDL
