MODEL 1
REMARK minimizedAffinity -1.48686349
REMARK minimizedRMSD -1
REMARK  1 active torsions:
REMARK  status: ('A' for Active; 'I' for Inactive)
REMARK    1  A    between atoms: C3_4  and  O_7 
ROOT
ATOM      1  C   UNL d   1       0.720   0.119   0.374  0.00  0.00    -0.033 A 
ATOM      2  C1  UNL d   1       0.305   1.448   0.477  0.00  0.00     0.039 A 
ATOM      3  C2  UNL d   1       0.557   2.343  -0.565  0.00  0.00    -0.080 A 
ATOM      4  C3  UNL d   1       1.223   1.897  -1.703  0.00  0.00     0.150 A 
ATOM      5  C4  UNL d   1       1.636   0.573  -1.814  0.00  0.00    -0.007 A 
ATOM      6  C5  UNL d   1       1.385  -0.319  -0.772  0.00  0.00     0.039 A 
ENDROOT
BRANCH   4   7
ATOM      7  O   UNL d   1       1.495   2.734  -2.743  0.00  0.00    -0.526 OA
ATOM      8  H5  UNL d   1       1.177   3.623  -2.514  0.00  0.00     0.418 HD
ENDBRANCH   4   7
TORSDOF 1
ENDMDL
