MODEL 1
REMARK minimizedAffinity -6.39120293
REMARK minimizedRMSD -1
REMARK  2 active torsions:
REMARK  status: ('A' for Active; 'I' for Inactive)
REMARK    1  A    between atoms: C1_2  and  C2_3 
REMARK    2  A    between atoms: C2_3  and  C3_4 
ROOT
ATOM      1  C3  UNL d   1       1.369  -0.259   0.445  0.00  0.00    -0.075 A 
ATOM      2  C4  UNL d   1       2.126  -1.315  -0.083  0.00  0.00     0.002 A 
ATOM      3  C5  UNL d   1       2.651  -2.299   0.755  0.00  0.00     0.002 A 
ATOM      4  C6  UNL d   1       2.437  -2.234   2.130  0.00  0.00    -0.004 A 
ATOM      5  C7  UNL d   1       1.701  -1.180   2.668  0.00  0.00     0.002 A 
ATOM      6  C8  UNL d   1       1.170  -0.197   1.831  0.00  0.00     0.002 A 
ENDROOT
BRANCH   1   7
ATOM      7  C2  UNL d   1       0.773   0.792  -0.460  0.00  0.00     0.056 C 
BRANCH   7   8
ATOM      8  C1  UNL d   1      -0.730   0.623  -0.706  0.00  0.00     0.007 C 
ATOM      9  C   UNL d   1      -1.478   0.072   0.501  0.00  0.00     0.009 C 
ENDBRANCH   7   8
ENDBRANCH   1   7
TORSDOF 2
ENDMDL
