MODEL 1
REMARK minimizedAffinity -5.70567417
REMARK minimizedRMSD -1
REMARK  2 active torsions:
REMARK  status: ('A' for Active; 'I' for Inactive)
REMARK    1  A    between atoms: C1_2  and  C2_3 
REMARK    2  A    between atoms: C2_3  and  C3_4 
ROOT
ATOM      1  C3  UNL d   1       0.452  -0.469   0.010  0.00  0.00    -0.075 A 
ATOM      2  C4  UNL d   1       1.604  -1.269  -0.023  0.00  0.00     0.002 A 
ATOM      3  C5  UNL d   1       2.128  -1.805   1.153  0.00  0.00     0.002 A 
ATOM      4  C6  UNL d   1       1.516  -1.541   2.376  0.00  0.00    -0.004 A 
ATOM      5  C7  UNL d   1       0.381  -0.735   2.423  0.00  0.00     0.002 A 
ATOM      6  C8  UNL d   1      -0.149  -0.200   1.247  0.00  0.00     0.002 A 
ENDROOT
BRANCH   1   7
ATOM      7  C2  UNL d   1      -0.138   0.090  -1.263  0.00  0.00     0.056 C 
BRANCH   7   8
ATOM      8  C1  UNL d   1      -0.002   1.610  -1.398  0.00  0.00     0.007 C 
ATOM      9  C   UNL d   1      -0.637   2.159  -2.669  0.00  0.00     0.009 C 
ENDBRANCH   7   8
ENDBRANCH   1   7
TORSDOF 2
ENDMDL
