MODEL 1
REMARK minimizedAffinity -5.8522048
REMARK minimizedRMSD -1
REMARK  2 active torsions:
REMARK  status: ('A' for Active; 'I' for Inactive)
REMARK    1  A    between atoms: C1_2  and  C2_3 
REMARK    2  A    between atoms: C2_3  and  C3_4 
ROOT
ATOM      1  C3  UNL d   1       0.573  -0.607   0.275  0.00  0.00    -0.075 A 
ATOM      2  C4  UNL d   1       1.812  -1.261   0.326  0.00  0.00     0.002 A 
ATOM      3  C5  UNL d   1       2.322  -1.719   1.542  0.00  0.00     0.002 A 
ATOM      4  C6  UNL d   1       1.606  -1.520   2.720  0.00  0.00    -0.004 A 
ATOM      5  C7  UNL d   1       0.381  -0.856   2.683  0.00  0.00     0.002 A 
ATOM      6  C8  UNL d   1      -0.133  -0.401   1.468  0.00  0.00     0.002 A 
ENDROOT
BRANCH   1   7
ATOM      7  C2  UNL d   1       0.003  -0.135  -1.041  0.00  0.00     0.056 C 
BRANCH   7   8
ATOM      8  C1  UNL d   1      -0.912   1.088  -0.922  0.00  0.00     0.007 C 
ATOM      9  C   UNL d   1      -0.809   2.034  -2.111  0.00  0.00     0.009 C 
ENDBRANCH   7   8
ENDBRANCH   1   7
TORSDOF 2
ENDMDL
