MODEL 1
REMARK minimizedAffinity -5.39116096
REMARK minimizedRMSD -1
REMARK  2 active torsions:
REMARK  status: ('A' for Active; 'I' for Inactive)
REMARK    1  A    between atoms: C1_2  and  C2_3 
REMARK    2  A    between atoms: C2_3  and  C3_4 
ROOT
ATOM      1  C3  UNL d   1       0.740  -0.307   0.881  0.00  0.00    -0.075 A 
ATOM      2  C4  UNL d   1       1.610  -1.044   0.064  0.00  0.00     0.002 A 
ATOM      3  C5  UNL d   1       2.541  -1.917   0.628  0.00  0.00     0.002 A 
ATOM      4  C6  UNL d   1       2.621  -2.058   2.011  0.00  0.00    -0.004 A 
ATOM      5  C7  UNL d   1       1.773  -1.318   2.833  0.00  0.00     0.002 A 
ATOM      6  C8  UNL d   1       0.837  -0.447   2.272  0.00  0.00     0.002 A 
ENDROOT
BRANCH   1   7
ATOM      7  C2  UNL d   1      -0.289   0.617   0.276  0.00  0.00     0.056 C 
BRANCH   7   8
ATOM      8  C1  UNL d   1      -0.345   0.574  -1.254  0.00  0.00     0.007 C 
ATOM      9  C   UNL d   1      -0.600   1.936  -1.885  0.00  0.00     0.009 C 
ENDBRANCH   7   8
ENDBRANCH   1   7
TORSDOF 2
ENDMDL
