MODEL 1
REMARK minimizedAffinity -4.51355362
REMARK minimizedRMSD -1
REMARK  2 active torsions:
REMARK  status: ('A' for Active; 'I' for Inactive)
REMARK    1  A    between atoms: C1_2  and  C2_3 
REMARK    2  A    between atoms: C2_3  and  C3_4 
ROOT
ATOM      1  C3  UNL d   1       0.251  -1.063   0.636  0.00  0.00    -0.075 A 
ATOM      2  C4  UNL d   1       1.320  -1.688  -0.022  0.00  0.00     0.002 A 
ATOM      3  C5  UNL d   1       2.160  -2.564   0.665  0.00  0.00     0.002 A 
ATOM      4  C6  UNL d   1       1.949  -2.819   2.018  0.00  0.00    -0.004 A 
ATOM      5  C7  UNL d   1       0.900  -2.191   2.686  0.00  0.00     0.002 A 
ATOM      6  C8  UNL d   1       0.055  -1.317   2.000  0.00  0.00     0.002 A 
ENDROOT
BRANCH   1   7
ATOM      7  C2  UNL d   1      -0.680  -0.137  -0.110  0.00  0.00     0.056 C 
BRANCH   7   8
ATOM      8  C1  UNL d   1      -0.278   0.110  -1.568  0.00  0.00     0.007 C 
ATOM      9  C   UNL d   1      -0.655   1.499  -2.067  0.00  0.00     0.009 C 
ENDBRANCH   7   8
ENDBRANCH   1   7
TORSDOF 2
ENDMDL
