MODEL 1
REMARK minimizedAffinity -5.5433445
REMARK minimizedRMSD -1
REMARK  2 active torsions:
REMARK  status: ('A' for Active; 'I' for Inactive)
REMARK    1  A    between atoms: C1_2  and  C2_3 
REMARK    2  A    between atoms: C2_3  and  C3_4 
ROOT
ATOM      1  C3  UNL d   1       0.063  -0.298  -0.076  0.00  0.00    -0.075 A 
ATOM      2  C4  UNL d   1      -0.993  -0.238   0.845  0.00  0.00     0.002 A 
ATOM      3  C5  UNL d   1      -0.773  -0.519   2.194  0.00  0.00     0.002 A 
ATOM      4  C6  UNL d   1       0.500  -0.872   2.636  0.00  0.00    -0.004 A 
ATOM      5  C7  UNL d   1       1.553  -0.951   1.727  0.00  0.00     0.002 A 
ATOM      6  C8  UNL d   1       1.336  -0.666   0.378  0.00  0.00     0.002 A 
ENDROOT
BRANCH   1   7
ATOM      7  C2  UNL d   1      -0.162   0.033  -1.532  0.00  0.00     0.056 C 
BRANCH   7   8
ATOM      8  C1  UNL d   1      -0.918   1.346  -1.763  0.00  0.00     0.007 C 
ATOM      9  C   UNL d   1      -0.054   2.434  -2.388  0.00  0.00     0.009 C 
ENDBRANCH   7   8
ENDBRANCH   1   7
TORSDOF 2
ENDMDL
