MODEL 1
REMARK minimizedAffinity -4.44189596
REMARK minimizedRMSD -1
REMARK  2 active torsions:
REMARK  status: ('A' for Active; 'I' for Inactive)
REMARK    1  A    between atoms: C1_2  and  C2_3 
REMARK    2  A    between atoms: C2_3  and  C3_4 
ROOT
ATOM      1  C3  UNL d   1      -0.028   0.323  -1.141  0.00  0.00    -0.075 A 
ATOM      2  C4  UNL d   1      -0.326   0.640   0.192  0.00  0.00     0.002 A 
ATOM      3  C5  UNL d   1       0.542   0.270   1.219  0.00  0.00     0.002 A 
ATOM      4  C6  UNL d   1       1.712  -0.429   0.929  0.00  0.00    -0.004 A 
ATOM      5  C7  UNL d   1       2.009  -0.765  -0.390  0.00  0.00     0.002 A 
ATOM      6  C8  UNL d   1       1.145  -0.391  -1.420  0.00  0.00     0.002 A 
ENDROOT
BRANCH   1   7
ATOM      7  C2  UNL d   1      -0.949   0.747  -2.260  0.00  0.00     0.056 C 
BRANCH   7   8
ATOM      8  C1  UNL d   1      -1.037   2.264  -2.455  0.00  0.00     0.007 C 
ATOM      9  C   UNL d   1       0.241   2.872  -3.017  0.00  0.00     0.009 C 
ENDBRANCH   7   8
ENDBRANCH   1   7
TORSDOF 2
ENDMDL
