MODEL 1
REMARK minimizedAffinity -2.11569357
REMARK minimizedRMSD -1
REMARK  2 active torsions:
REMARK  status: ('A' for Active; 'I' for Inactive)
REMARK    1  A    between atoms: C1_2  and  C2_3 
REMARK    2  A    between atoms: C2_3  and  C3_4 
ROOT
ATOM      1  C3  UNL d   1       0.323   0.311  -0.576  0.00  0.00    -0.075 A 
ATOM      2  C4  UNL d   1       0.420   0.443   0.817  0.00  0.00     0.002 A 
ATOM      3  C5  UNL d   1       1.367  -0.289   1.533  0.00  0.00     0.002 A 
ATOM      4  C6  UNL d   1       2.220  -1.168   0.870  0.00  0.00    -0.004 A 
ATOM      5  C7  UNL d   1       2.121  -1.320  -0.511  0.00  0.00     0.002 A 
ATOM      6  C8  UNL d   1       1.177  -0.586  -1.231  0.00  0.00     0.002 A 
ENDROOT
BRANCH   1   7
ATOM      7  C2  UNL d   1      -0.681   1.122  -1.361  0.00  0.00     0.056 C 
BRANCH   7   8
ATOM      8  C1  UNL d   1      -0.108   2.410  -1.962  0.00  0.00     0.007 C 
ATOM      9  C   UNL d   1      -1.168   3.469  -2.234  0.00  0.00     0.009 C 
ENDBRANCH   7   8
ENDBRANCH   1   7
TORSDOF 2
ENDMDL
