MODEL 1
REMARK minimizedAffinity -3.40057087
REMARK minimizedRMSD -1
REMARK  2 active torsions:
REMARK  status: ('A' for Active; 'I' for Inactive)
REMARK    1  A    between atoms: C1_2  and  C2_3 
REMARK    2  A    between atoms: C2_3  and  C3_4 
ROOT
ATOM      1  C3  UNL d   1      -0.467  -0.048   0.521  0.00  0.00    -0.075 A 
ATOM      2  C4  UNL d   1      -1.094  -0.944   1.399  0.00  0.00     0.002 A 
ATOM      3  C5  UNL d   1      -0.375  -1.542   2.434  0.00  0.00     0.002 A 
ATOM      4  C6  UNL d   1       0.979  -1.260   2.599  0.00  0.00    -0.004 A 
ATOM      5  C7  UNL d   1       1.616  -0.384   1.723  0.00  0.00     0.002 A 
ATOM      6  C8  UNL d   1       0.898   0.219   0.689  0.00  0.00     0.002 A 
ENDROOT
BRANCH   1   7
ATOM      7  C2  UNL d   1      -1.247   0.625  -0.583  0.00  0.00     0.056 C 
BRANCH   7   8
ATOM      8  C1  UNL d   1      -0.454   0.813  -1.881  0.00  0.00     0.007 C 
ATOM      9  C   UNL d   1      -0.747   2.135  -2.578  0.00  0.00     0.009 C 
ENDBRANCH   7   8
ENDBRANCH   1   7
TORSDOF 2
ENDMDL
