MODEL 1
REMARK minimizedAffinity -2.57675791
REMARK minimizedRMSD -1
REMARK  2 active torsions:
REMARK  status: ('A' for Active; 'I' for Inactive)
REMARK    1  A    between atoms: C1_2  and  C2_3 
REMARK    2  A    between atoms: C2_3  and  C3_4 
ROOT
ATOM      1  C3  UNL d   1      -0.218   0.421  -1.458  0.00  0.00    -0.075 A 
ATOM      2  C4  UNL d   1      -0.237   0.733  -0.091  0.00  0.00     0.002 A 
ATOM      3  C5  UNL d   1       0.703   0.176   0.776  0.00  0.00     0.002 A 
ATOM      4  C6  UNL d   1       1.665  -0.708   0.291  0.00  0.00    -0.004 A 
ATOM      5  C7  UNL d   1       1.683  -1.038  -1.062  0.00  0.00     0.002 A 
ATOM      6  C8  UNL d   1       0.747  -0.478  -1.933  0.00  0.00     0.002 A 
ENDROOT
BRANCH   1   7
ATOM      7  C2  UNL d   1      -1.213   1.044  -2.407  0.00  0.00     0.056 C 
BRANCH   7   8
ATOM      8  C1  UNL d   1      -0.708   2.316  -3.095  0.00  0.00     0.007 C 
ATOM      9  C   UNL d   1      -1.308   3.591  -2.516  0.00  0.00     0.009 C 
ENDBRANCH   7   8
ENDBRANCH   1   7
TORSDOF 2
ENDMDL
