MODEL 1
REMARK minimizedAffinity -2.48647881
REMARK minimizedRMSD -1
REMARK  2 active torsions:
REMARK  status: ('A' for Active; 'I' for Inactive)
REMARK    1  A    between atoms: C1_2  and  C2_3 
REMARK    2  A    between atoms: C2_3  and  C3_4 
ROOT
ATOM      1  C3  UNL d   1       0.211  -0.921   1.514  0.00  0.00    -0.075 A 
ATOM      2  C4  UNL d   1      -1.065  -0.572   1.048  0.00  0.00     0.002 A 
ATOM      3  C5  UNL d   1      -1.225   0.006  -0.212  0.00  0.00     0.002 A 
ATOM      4  C6  UNL d   1      -0.114   0.251  -1.016  0.00  0.00    -0.004 A 
ATOM      5  C7  UNL d   1       1.160  -0.076  -0.556  0.00  0.00     0.002 A 
ATOM      6  C8  UNL d   1       1.322  -0.658   0.703  0.00  0.00     0.002 A 
ENDROOT
BRANCH   1   7
ATOM      7  C2  UNL d   1       0.388  -1.573   2.864  0.00  0.00     0.056 C 
BRANCH   7   8
ATOM      8  C1  UNL d   1      -0.085  -3.030   2.920  0.00  0.00     0.007 C 
ATOM      9  C   UNL d   1      -1.491  -3.183   3.487  0.00  0.00     0.009 C 
ENDBRANCH   7   8
ENDBRANCH   1   7
TORSDOF 2
ENDMDL
