MODEL 1
REMARK minimizedAffinity -5.00960922
REMARK minimizedRMSD -1
REMARK  2 active torsions:
REMARK  status: ('A' for Active; 'I' for Inactive)
REMARK    1  A    between atoms: C1_2  and  C2_3 
REMARK    2  A    between atoms: C2_3  and  C3_4 
ROOT
ATOM      1  C3  UNL d   1      -0.447   1.432  -1.391  0.00  0.00    -0.075 A 
ATOM      2  C4  UNL d   1      -0.719   1.392  -0.016  0.00  0.00     0.002 A 
ATOM      3  C5  UNL d   1       0.014   0.556   0.828  0.00  0.00     0.002 A 
ATOM      4  C6  UNL d   1       1.019  -0.256   0.307  0.00  0.00    -0.004 A 
ATOM      5  C7  UNL d   1       1.287  -0.236  -1.060  0.00  0.00     0.002 A 
ATOM      6  C8  UNL d   1       0.558   0.602  -1.905  0.00  0.00     0.002 A 
ENDROOT
BRANCH   1   7
ATOM      7  C2  UNL d   1      -1.216   2.356  -2.304  0.00  0.00     0.056 C 
BRANCH   7   8
ATOM      8  C1  UNL d   1      -2.582   2.780  -1.755  0.00  0.00     0.007 C 
ATOM      9  C   UNL d   1      -3.730   1.922  -2.273  0.00  0.00     0.009 C 
ENDBRANCH   7   8
ENDBRANCH   1   7
TORSDOF 2
ENDMDL
