MODEL 1
REMARK minimizedAffinity 0.618339598
REMARK minimizedRMSD -1
REMARK  2 active torsions:
REMARK  status: ('A' for Active; 'I' for Inactive)
REMARK    1  A    between atoms: C1_2  and  C2_3 
REMARK    2  A    between atoms: C2_3  and  C3_4 
ROOT
ATOM      1  C3  UNL d   1       0.875  -1.171   1.674  0.00  0.00    -0.075 A 
ATOM      2  C4  UNL d   1       2.263  -1.335   1.560  0.00  0.00     0.002 A 
ATOM      3  C5  UNL d   1       2.867  -1.410   0.304  0.00  0.00     0.002 A 
ATOM      4  C6  UNL d   1       2.092  -1.332  -0.851  0.00  0.00    -0.004 A 
ATOM      5  C7  UNL d   1       0.710  -1.185  -0.749  0.00  0.00     0.002 A 
ATOM      6  C8  UNL d   1       0.104  -1.106   0.505  0.00  0.00     0.002 A 
ENDROOT
BRANCH   1   7
ATOM      7  C2  UNL d   1       0.219  -1.059   3.029  0.00  0.00     0.056 C 
BRANCH   7   8
ATOM      8  C1  UNL d   1       0.039   0.381   3.519  0.00  0.00     0.007 C 
ATOM      9  C   UNL d   1       1.358   1.096   3.779  0.00  0.00     0.009 C 
ENDBRANCH   7   8
ENDBRANCH   1   7
TORSDOF 2
ENDMDL
