MODEL 1
REMARK minimizedAffinity -2.95091915
REMARK minimizedRMSD -1
REMARK  2 active torsions:
REMARK  status: ('A' for Active; 'I' for Inactive)
REMARK    1  A    between atoms: C1_2  and  C2_3 
REMARK    2  A    between atoms: C2_3  and  C3_4 
ROOT
ATOM      1  C3  UNL d   1      -0.286  -0.153  -0.243  0.00  0.00    -0.075 A 
ATOM      2  C4  UNL d   1      -1.511  -0.065   0.433  0.00  0.00     0.002 A 
ATOM      3  C5  UNL d   1      -1.650  -0.590   1.718  0.00  0.00     0.002 A 
ATOM      4  C6  UNL d   1      -0.572  -1.218   2.338  0.00  0.00    -0.004 A 
ATOM      5  C7  UNL d   1       0.645  -1.326   1.669  0.00  0.00     0.002 A 
ATOM      6  C8  UNL d   1       0.788  -0.797   0.385  0.00  0.00     0.002 A 
ENDROOT
BRANCH   1   7
ATOM      7  C2  UNL d   1      -0.120   0.440  -1.622  0.00  0.00     0.056 C 
BRANCH   7   8
ATOM      8  C1  UNL d   1      -1.203   1.457  -1.998  0.00  0.00     0.007 C 
ATOM      9  C   UNL d   1      -0.638   2.773  -2.515  0.00  0.00     0.009 C 
ENDBRANCH   7   8
ENDBRANCH   1   7
TORSDOF 2
ENDMDL
