MODEL 1
REMARK minimizedAffinity -4.21132755
REMARK minimizedRMSD -1
REMARK  0 active torsions:
REMARK  status: ('A' for Active; 'I' for Inactive)
ROOT
ATOM      1  N1  IND d   1       2.250  -1.983   1.191  0.00  0.00    -0.196 N 
ATOM      2  C2  IND d   1       1.762  -2.087   2.464  0.00  0.00     0.054 A 
ATOM      3  C3  IND d   1       0.547  -1.501   2.552  0.00  0.00    -0.031 A 
ATOM      4  C4  IND d   1      -0.875  -0.402   0.708  0.00  0.00     0.051 A 
ATOM      5  C5  IND d   1      -0.837  -0.037  -0.608  0.00  0.00    -0.031 A 
ATOM      6  C6  IND d   1       0.253  -0.309  -1.409  0.00  0.00     0.015 A 
ATOM      7  C7  IND d   1       1.346  -0.971  -0.923  0.00  0.00    -0.016 A 
ATOM      8  C8  IND d   1       1.313  -1.337   0.414  0.00  0.00    -0.047 A 
ATOM      9  C9  IND d   1       0.227  -1.026   1.243  0.00  0.00    -0.096 A 
ATOM     10  HN1 IND d   1       3.013  -2.273   0.921  0.00  0.00     0.298 HD
ENDROOT
TORSDOF 0
ENDMDL
