MODEL 1
REMARK minimizedAffinity -5.20317602
REMARK minimizedRMSD -1
REMARK  0 active torsions:
REMARK  status: ('A' for Active; 'I' for Inactive)
ROOT
ATOM      1  N1  IND d   1       0.744  -0.833  -1.581  0.00  0.00    -0.196 N 
ATOM      2  C2  IND d   1       2.011  -1.292  -1.355  0.00  0.00     0.054 A 
ATOM      3  C3  IND d   1       2.263  -1.343  -0.028  0.00  0.00    -0.031 A 
ATOM      4  C4  IND d   1       0.707  -0.817   1.954  0.00  0.00     0.051 A 
ATOM      5  C5  IND d   1      -0.534  -0.327   2.249  0.00  0.00    -0.031 A 
ATOM      6  C6  IND d   1      -1.433   0.024   1.261  0.00  0.00     0.015 A 
ATOM      7  C7  IND d   1      -1.125  -0.114  -0.063  0.00  0.00    -0.016 A 
ATOM      8  C8  IND d   1       0.137  -0.604  -0.365  0.00  0.00    -0.047 A 
ATOM      9  C9  IND d   1       1.068  -0.922   0.632  0.00  0.00    -0.096 A 
ATOM     10  HN1 IND d   1       0.385  -0.708  -2.352  0.00  0.00     0.298 HD
ENDROOT
TORSDOF 0
ENDMDL
