MODEL 1
REMARK minimizedAffinity -2.40342069
REMARK minimizedRMSD -1
REMARK  0 active torsions:
REMARK  status: ('A' for Active; 'I' for Inactive)
ROOT
ATOM      1  N1  IND d   1       1.113   1.481  -1.210  0.00  0.00    -0.196 N 
ATOM      2  C2  IND d   1       0.428   0.461  -0.611  0.00  0.00     0.054 A 
ATOM      3  C3  IND d   1      -0.903   0.620  -0.786  0.00  0.00    -0.031 A 
ATOM      4  C4  IND d   1      -2.173   2.427  -2.110  0.00  0.00     0.051 A 
ATOM      5  C5  IND d   1      -1.981   3.590  -2.801  0.00  0.00    -0.031 A 
ATOM      6  C6  IND d   1      -0.723   4.119  -3.003  0.00  0.00     0.015 A 
ATOM      7  C7  IND d   1       0.397   3.496  -2.530  0.00  0.00    -0.016 A 
ATOM      8  C8  IND d   1       0.205   2.318  -1.822  0.00  0.00    -0.047 A 
ATOM      9  C9  IND d   1      -1.072   1.798  -1.576  0.00  0.00    -0.096 A 
ATOM     10  HN1 IND d   1       1.967   1.583  -1.206  0.00  0.00     0.298 HD
ENDROOT
TORSDOF 0
ENDMDL
