MODEL 1
REMARK minimizedAffinity -2.11062121
REMARK minimizedRMSD -1
REMARK  0 active torsions:
REMARK  status: ('A' for Active; 'I' for Inactive)
ROOT
ATOM      1  N1  IND d   1       2.089  -1.580   0.030  0.00  0.00    -0.196 N 
ATOM      2  C2  IND d   1       2.940  -1.990   1.018  0.00  0.00     0.054 A 
ATOM      3  C3  IND d   1       2.498  -1.568   2.224  0.00  0.00    -0.031 A 
ATOM      4  C4  IND d   1       0.352  -0.278   2.820  0.00  0.00     0.051 A 
ATOM      5  C5  IND d   1      -0.722   0.348   2.251  0.00  0.00    -0.031 A 
ATOM      6  C6  IND d   1      -0.919   0.361   0.885  0.00  0.00     0.015 A 
ATOM      7  C7  IND d   1      -0.052  -0.264   0.034  0.00  0.00    -0.016 A 
ATOM      8  C8  IND d   1       1.043  -0.894   0.608  0.00  0.00    -0.047 A 
ATOM      9  C9  IND d   1       1.271  -0.875   1.990  0.00  0.00    -0.096 A 
ATOM     10  HN1 IND d   1       2.190  -1.727  -0.812  0.00  0.00     0.298 HD
ENDROOT
TORSDOF 0
ENDMDL
