MODEL 1
REMARK minimizedAffinity -4.62235498
REMARK minimizedRMSD -1
REMARK  0 active torsions:
REMARK  status: ('A' for Active; 'I' for Inactive)
ROOT
ATOM      1  N1  IND d   1       0.136  -0.534  -1.004  0.00  0.00    -0.196 N 
ATOM      2  C2  IND d   1      -1.121  -0.079  -0.713  0.00  0.00     0.054 A 
ATOM      3  C3  IND d   1      -1.422  -0.325   0.582  0.00  0.00    -0.031 A 
ATOM      4  C4  IND d   1       0.034  -1.369   2.430  0.00  0.00     0.051 A 
ATOM      5  C5  IND d   1       1.242  -1.972   2.638  0.00  0.00    -0.031 A 
ATOM      6  C6  IND d   1       2.164  -2.127   1.622  0.00  0.00     0.015 A 
ATOM      7  C7  IND d   1       1.914  -1.673   0.358  0.00  0.00    -0.016 A 
ATOM      8  C8  IND d   1       0.685  -1.066   0.142  0.00  0.00    -0.047 A 
ATOM      9  C9  IND d   1      -0.271  -0.944   1.159  0.00  0.00    -0.096 A 
ATOM     10  HN1 IND d   1       0.518  -0.494  -1.772  0.00  0.00     0.298 HD
ENDROOT
TORSDOF 0
ENDMDL
