MODEL 1
REMARK minimizedAffinity -6.21010303
REMARK minimizedRMSD -1
REMARK  0 active torsions:
REMARK  status: ('A' for Active; 'I' for Inactive)
ROOT
ATOM      1  N1  IND d   1       1.080  -0.505  -0.780  0.00  0.00    -0.196 N 
ATOM      2  C2  IND d   1      -0.104   0.154  -0.601  0.00  0.00     0.054 A 
ATOM      3  C3  IND d   1      -0.449   0.156   0.706  0.00  0.00    -0.031 A 
ATOM      4  C4  IND d   1       0.833  -0.773   2.737  0.00  0.00     0.051 A 
ATOM      5  C5  IND d   1       1.946  -1.493   3.071  0.00  0.00    -0.031 A 
ATOM      6  C6  IND d   1       2.846  -1.927   2.119  0.00  0.00     0.015 A 
ATOM      7  C7  IND d   1       2.673  -1.646   0.794  0.00  0.00    -0.016 A 
ATOM      8  C8  IND d   1       1.540  -0.921   0.450  0.00  0.00    -0.047 A 
ATOM      9  C9  IND d   1       0.601  -0.514   1.406  0.00  0.00    -0.096 A 
ATOM     10  HN1 IND d   1       1.472  -0.637  -1.534  0.00  0.00     0.298 HD
ENDROOT
TORSDOF 0
ENDMDL
