MODEL 1
REMARK minimizedAffinity -2.4192543
REMARK minimizedRMSD -1
REMARK  0 active torsions:
REMARK  status: ('A' for Active; 'I' for Inactive)
ROOT
ATOM      1  N1  IND d   1       0.973  -1.566  -1.612  0.00  0.00    -0.196 N 
ATOM      2  C2  IND d   1       0.029  -0.724  -2.129  0.00  0.00     0.054 A 
ATOM      3  C3  IND d   1      -0.675  -0.138  -1.134  0.00  0.00    -0.031 A 
ATOM      4  C4  IND d   1      -0.381  -0.339   1.415  0.00  0.00     0.051 A 
ATOM      5  C5  IND d   1       0.327  -1.017   2.368  0.00  0.00    -0.031 A 
ATOM      6  C6  IND d   1       1.308  -1.930   2.036  0.00  0.00     0.015 A 
ATOM      7  C7  IND d   1       1.627  -2.190   0.733  0.00  0.00    -0.016 A 
ATOM      8  C8  IND d   1       0.905  -1.509  -0.237  0.00  0.00    -0.047 A 
ATOM      9  C9  IND d   1      -0.120  -0.613   0.093  0.00  0.00    -0.096 A 
ATOM     10  HN1 IND d   1       1.517  -2.050  -2.068  0.00  0.00     0.298 HD
ENDROOT
TORSDOF 0
ENDMDL
