MODEL 1
REMARK minimizedAffinity -1.57356811
REMARK minimizedRMSD -1
REMARK  0 active torsions:
REMARK  status: ('A' for Active; 'I' for Inactive)
ROOT
ATOM      1  N1  IND d   1       1.042  -0.193  -0.349  0.00  0.00    -0.196 N 
ATOM      2  C2  IND d   1       2.051  -0.888  -0.954  0.00  0.00     0.054 A 
ATOM      3  C3  IND d   1       2.675  -1.686  -0.059  0.00  0.00    -0.031 A 
ATOM      4  C4  IND d   1       2.140  -2.085   2.428  0.00  0.00     0.051 A 
ATOM      5  C5  IND d   1       1.330  -1.649   3.439  0.00  0.00    -0.031 A 
ATOM      6  C6  IND d   1       0.361  -0.688   3.234  0.00  0.00     0.015 A 
ATOM      7  C7  IND d   1       0.158  -0.133   2.002  0.00  0.00    -0.016 A 
ATOM      8  C8  IND d   1       0.983  -0.568   0.975  0.00  0.00    -0.047 A 
ATOM      9  C9  IND d   1       1.996  -1.512   1.186  0.00  0.00    -0.096 A 
ATOM     10  HN1 IND d   1       0.530   0.383  -0.731  0.00  0.00     0.298 HD
ENDROOT
TORSDOF 0
ENDMDL
