MODEL 1
REMARK minimizedAffinity 11.4086561
REMARK minimizedRMSD -1
REMARK  0 active torsions:
REMARK  status: ('A' for Active; 'I' for Inactive)
ROOT
ATOM      1  C   UNL d   1      -0.524  -1.346  -5.846  0.00  0.00     0.020 A 
ATOM      2  C1  UNL d   1       0.133  -0.369  -5.098  0.00  0.00     0.020 A 
ATOM      3  C2  UNL d   1       1.364  -0.655  -4.503  0.00  0.00     0.034 A 
ATOM      4  C3  UNL d   1       1.941  -1.921  -4.655  0.00  0.00     0.017 A 
ATOM      5  C4  UNL d   1       1.281  -2.901  -5.406  0.00  0.00     0.017 A 
ATOM      6  C5  UNL d   1       0.049  -2.609  -5.999  0.00  0.00     0.034 A 
ATOM      7 Cl   UNL d   1       1.931  -4.486  -5.637  0.00  0.00    -0.070 Cl
ATOM      8 Cl1  UNL d   1       3.465  -2.205  -3.892  0.00  0.00    -0.070 Cl
ENDROOT
TORSDOF 0
ENDMDL
