MODEL 1
REMARK minimizedAffinity 14.8201132
REMARK minimizedRMSD -1
REMARK  0 active torsions:
REMARK  status: ('A' for Active; 'I' for Inactive)
ROOT
ATOM      1  C   UNL d   1       1.371  -0.721  -4.096  0.00  0.00     0.020 A 
ATOM      2  C1  UNL d   1       0.001  -0.463  -4.128  0.00  0.00     0.020 A 
ATOM      3  C2  UNL d   1      -0.869  -1.381  -4.720  0.00  0.00     0.034 A 
ATOM      4  C3  UNL d   1      -0.370  -2.561  -5.284  0.00  0.00     0.017 A 
ATOM      5  C4  UNL d   1       1.006  -2.819  -5.252  0.00  0.00     0.017 A 
ATOM      6  C5  UNL d   1       1.872  -1.896  -4.657  0.00  0.00     0.034 A 
ATOM      7 Cl   UNL d   1       1.696  -4.252  -5.926  0.00  0.00    -0.070 Cl
ATOM      8 Cl1  UNL d   1      -1.502  -3.652  -6.000  0.00  0.00    -0.070 Cl
ENDROOT
TORSDOF 0
ENDMDL
