MODEL 1
REMARK minimizedAffinity 6.37960482
REMARK minimizedRMSD -1
REMARK  0 active torsions:
REMARK  status: ('A' for Active; 'I' for Inactive)
ROOT
ATOM      1  C   UNL d   1      -2.021  -5.651  -4.821  0.00  0.00     0.020 A 
ATOM      2  C1  UNL d   1      -1.645  -5.006  -5.999  0.00  0.00     0.020 A 
ATOM      3  C2  UNL d   1      -1.192  -3.685  -5.957  0.00  0.00     0.034 A 
ATOM      4  C3  UNL d   1      -1.114  -3.006  -4.735  0.00  0.00     0.017 A 
ATOM      5  C4  UNL d   1      -1.492  -3.656  -3.554  0.00  0.00     0.017 A 
ATOM      6  C5  UNL d   1      -1.945  -4.978  -3.602  0.00  0.00     0.034 A 
ATOM      7 Cl   UNL d   1      -1.423  -2.883  -2.009  0.00  0.00    -0.070 Cl
ATOM      8 Cl1  UNL d   1      -0.545  -1.375  -4.757  0.00  0.00    -0.070 Cl
ENDROOT
TORSDOF 0
ENDMDL
