MODEL 1
REMARK minimizedAffinity 12.2423639
REMARK minimizedRMSD -1
REMARK  0 active torsions:
REMARK  status: ('A' for Active; 'I' for Inactive)
ROOT
ATOM      1  C   UNL d   1       4.523  -3.310   4.534  0.00  0.00     0.020 A 
ATOM      2  C1  UNL d   1       4.808  -1.950   4.410  0.00  0.00     0.020 A 
ATOM      3  C2  UNL d   1       3.768  -1.029   4.269  0.00  0.00     0.034 A 
ATOM      4  C3  UNL d   1       2.439  -1.466   4.251  0.00  0.00     0.017 A 
ATOM      5  C4  UNL d   1       2.154  -2.831   4.374  0.00  0.00     0.017 A 
ATOM      6  C5  UNL d   1       3.199  -3.749   4.516  0.00  0.00     0.034 A 
ATOM      7 Cl   UNL d   1       0.538  -3.445   4.361  0.00  0.00    -0.070 Cl
ATOM      8 Cl1  UNL d   1       1.203  -0.271   4.073  0.00  0.00    -0.070 Cl
ENDROOT
TORSDOF 0
ENDMDL
