MODEL 1
REMARK minimizedAffinity 5.58167553
REMARK minimizedRMSD -1
REMARK  0 active torsions:
REMARK  status: ('A' for Active; 'I' for Inactive)
ROOT
ATOM      1  C   UNL d   1       1.149  -1.227   2.537  0.00  0.00     0.020 A 
ATOM      2  C1  UNL d   1       1.723  -1.445   3.789  0.00  0.00     0.020 A 
ATOM      3  C2  UNL d   1       1.525  -0.522   4.818  0.00  0.00     0.034 A 
ATOM      4  C3  UNL d   1       0.751   0.623   4.597  0.00  0.00     0.017 A 
ATOM      5  C4  UNL d   1       0.175   0.841   3.340  0.00  0.00     0.017 A 
ATOM      6  C5  UNL d   1       0.377  -0.086   2.313  0.00  0.00     0.034 A 
ATOM      7 Cl   UNL d   1      -0.792   2.231   2.992  0.00  0.00    -0.070 Cl
ATOM      8 Cl1  UNL d   1       0.548   1.721   5.915  0.00  0.00    -0.070 Cl
ENDROOT
TORSDOF 0
ENDMDL
