MODEL 1
REMARK minimizedAffinity 9.68399811
REMARK minimizedRMSD -1
REMARK  0 active torsions:
REMARK  status: ('A' for Active; 'I' for Inactive)
ROOT
ATOM      1  C   UNL d   1       1.810  -2.101   3.938  0.00  0.00     0.020 A 
ATOM      2  C1  UNL d   1       2.421  -3.178   4.579  0.00  0.00     0.020 A 
ATOM      3  C2  UNL d   1       3.679  -3.020   5.165  0.00  0.00     0.034 A 
ATOM      4  C3  UNL d   1       4.330  -1.782   5.111  0.00  0.00     0.017 A 
ATOM      5  C4  UNL d   1       3.716  -0.702   4.468  0.00  0.00     0.017 A 
ATOM      6  C5  UNL d   1       2.457  -0.865   3.883  0.00  0.00     0.034 A 
ATOM      7 Cl   UNL d   1       4.458   0.856   4.360  0.00  0.00    -0.070 Cl
ATOM      8 Cl1  UNL d   1       5.883  -1.659   5.858  0.00  0.00    -0.070 Cl
ENDROOT
TORSDOF 0
ENDMDL
