MODEL 1
REMARK minimizedAffinity 20.2088566
REMARK minimizedRMSD -1
REMARK  0 active torsions:
REMARK  status: ('A' for Active; 'I' for Inactive)
ROOT
ATOM      1  C   UNL d   1       0.407  -0.564  -4.294  0.00  0.00     0.020 A 
ATOM      2  C1  UNL d   1       0.553  -0.553  -2.908  0.00  0.00     0.020 A 
ATOM      3  C2  UNL d   1      -0.155  -1.465  -2.124  0.00  0.00     0.034 A 
ATOM      4  C3  UNL d   1      -1.013  -2.393  -2.725  0.00  0.00     0.017 A 
ATOM      5  C4  UNL d   1      -1.159  -2.403  -4.117  0.00  0.00     0.017 A 
ATOM      6  C5  UNL d   1      -0.447  -1.487  -4.898  0.00  0.00     0.034 A 
ATOM      7 Cl   UNL d   1      -2.199  -3.518  -4.932  0.00  0.00    -0.070 Cl
ATOM      8 Cl1  UNL d   1      -1.858  -3.492  -1.695  0.00  0.00    -0.070 Cl
ENDROOT
TORSDOF 0
ENDMDL
