MODEL 1
REMARK minimizedAffinity 5.57405949
REMARK minimizedRMSD -1
REMARK  0 active torsions:
REMARK  status: ('A' for Active; 'I' for Inactive)
ROOT
ATOM      1  C   UNL d   1      -1.128  -2.139  -2.281  0.00  0.00     0.020 A 
ATOM      2  C1  UNL d   1      -0.019  -1.875  -1.479  0.00  0.00     0.020 A 
ATOM      3  C2  UNL d   1       1.081  -1.199  -2.010  0.00  0.00     0.034 A 
ATOM      4  C3  UNL d   1       1.075  -0.785  -3.347  0.00  0.00     0.017 A 
ATOM      5  C4  UNL d   1      -0.039  -1.050  -4.152  0.00  0.00     0.017 A 
ATOM      6  C5  UNL d   1      -1.138  -1.728  -3.615  0.00  0.00     0.034 A 
ATOM      7 Cl   UNL d   1      -0.121  -0.571  -5.810  0.00  0.00    -0.070 Cl
ATOM      8 Cl1  UNL d   1       2.470   0.047  -3.938  0.00  0.00    -0.070 Cl
ENDROOT
TORSDOF 0
ENDMDL
