MODEL 1
REMARK minimizedAffinity 10.7922268
REMARK minimizedRMSD -1
REMARK  0 active torsions:
REMARK  status: ('A' for Active; 'I' for Inactive)
ROOT
ATOM      1  C   UNL d   1       1.364  -0.477   2.773  0.00  0.00     0.020 A 
ATOM      2  C1  UNL d   1       1.089   0.847   3.114  0.00  0.00     0.020 A 
ATOM      3  C2  UNL d   1      -0.155   1.403   2.810  0.00  0.00     0.034 A 
ATOM      4  C3  UNL d   1      -1.130   0.634   2.163  0.00  0.00     0.017 A 
ATOM      5  C4  UNL d   1      -0.854  -0.695   1.822  0.00  0.00     0.017 A 
ATOM      6  C5  UNL d   1       0.394  -1.246   2.129  0.00  0.00     0.034 A 
ATOM      7 Cl   UNL d   1      -2.006  -1.705   1.023  0.00  0.00    -0.070 Cl
ATOM      8 Cl1  UNL d   1      -2.647   1.386   1.819  0.00  0.00    -0.070 Cl
ENDROOT
TORSDOF 0
ENDMDL
