MODEL 1
REMARK minimizedAffinity 7.49154329
REMARK minimizedRMSD -1
REMARK  0 active torsions:
REMARK  status: ('A' for Active; 'I' for Inactive)
ROOT
ATOM      1  C   UNL d   1      -0.173  -5.990  -5.249  0.00  0.00     0.020 A 
ATOM      2  C1  UNL d   1      -0.032  -4.813  -5.983  0.00  0.00     0.020 A 
ATOM      3  C2  UNL d   1      -0.669  -3.644  -5.558  0.00  0.00     0.034 A 
ATOM      4  C3  UNL d   1      -1.449  -3.651  -4.396  0.00  0.00     0.017 A 
ATOM      5  C4  UNL d   1      -1.590  -4.833  -3.660  0.00  0.00     0.017 A 
ATOM      6  C5  UNL d   1      -0.950  -5.999  -4.090  0.00  0.00     0.034 A 
ATOM      7 Cl   UNL d   1      -2.536  -4.918  -2.216  0.00  0.00    -0.070 Cl
ATOM      8 Cl1  UNL d   1      -2.208  -2.170  -3.930  0.00  0.00    -0.070 Cl
ENDROOT
TORSDOF 0
ENDMDL
