MODEL 1
REMARK minimizedAffinity 18.0419807
REMARK minimizedRMSD -1
REMARK  0 active torsions:
REMARK  status: ('A' for Active; 'I' for Inactive)
ROOT
ATOM      1  C   UNL d   1       0.017  -0.361  -5.403  0.00  0.00     0.020 A 
ATOM      2  C1  UNL d   1       0.314  -0.095  -4.067  0.00  0.00     0.020 A 
ATOM      3  C2  UNL d   1      -0.096  -0.983  -3.071  0.00  0.00     0.034 A 
ATOM      4  C3  UNL d   1      -0.806  -2.141  -3.409  0.00  0.00     0.017 A 
ATOM      5  C4  UNL d   1      -1.104  -2.407  -4.750  0.00  0.00     0.017 A 
ATOM      6  C5  UNL d   1      -0.690  -1.514  -5.744  0.00  0.00     0.034 A 
ATOM      7 Cl   UNL d   1      -1.976  -3.815  -5.244  0.00  0.00    -0.070 Cl
ATOM      8 Cl1  UNL d   1      -1.282  -3.194  -2.125  0.00  0.00    -0.070 Cl
ENDROOT
TORSDOF 0
ENDMDL
