MODEL 1
REMARK minimizedAffinity 3.82923222
REMARK minimizedRMSD -1
REMARK  0 active torsions:
REMARK  status: ('A' for Active; 'I' for Inactive)
ROOT
ATOM      1  C   UNL d   1      -1.752  -4.354  -6.000  0.00  0.00     0.020 A 
ATOM      2  C1  UNL d   1      -2.023  -5.120  -4.867  0.00  0.00     0.020 A 
ATOM      3  C2  UNL d   1      -1.725  -4.619  -3.598  0.00  0.00     0.034 A 
ATOM      4  C3  UNL d   1      -1.156  -3.348  -3.459  0.00  0.00     0.017 A 
ATOM      5  C4  UNL d   1      -0.885  -2.580  -4.597  0.00  0.00     0.017 A 
ATOM      6  C5  UNL d   1      -1.185  -3.086  -5.865  0.00  0.00     0.034 A 
ATOM      7 Cl   UNL d   1      -0.183  -1.003  -4.505  0.00  0.00    -0.070 Cl
ATOM      8 Cl1  UNL d   1      -0.814  -2.791  -1.859  0.00  0.00    -0.070 Cl
ENDROOT
TORSDOF 0
ENDMDL
