MODEL 1
REMARK minimizedAffinity -5.95943785
REMARK minimizedRMSD -1
REMARK  2 active torsions:
REMARK  status: ('A' for Active; 'I' for Inactive)
REMARK    1  A    between atoms: C2'_3  and  C1'_4 
REMARK    2  A    between atoms: C1'_4  and  C1_5 
ROOT
ATOM      1  C1  I4B d   1      -0.346  -0.001   0.905  0.00  0.00    -0.075 A 
ATOM      2  C2  I4B d   1      -0.003  -0.050   2.233  0.00  0.00     0.003 A 
ATOM      3  C3  I4B d   1      -0.995   0.103   3.232  0.00  0.00     0.002 A 
ATOM      4  C4  I4B d   1      -2.300   0.353   2.860  0.00  0.00    -0.004 A 
ATOM      5  C5  I4B d   1      -2.650   0.379   1.513  0.00  0.00     0.002 A 
ATOM      6  C6  I4B d   1      -1.670   0.189   0.529  0.00  0.00     0.003 A 
ENDROOT
BRANCH   1   7
ATOM      7  C1' I4B d   1       0.732  -0.134  -0.124  0.00  0.00     0.060 C 
BRANCH   7   8
ATOM      8  C2' I4B d   1       0.104   0.074  -1.487  0.00  0.00    -0.013 C 
ATOM      9  C4' I4B d   1       0.011   1.538  -1.827  0.00  0.00     0.013 C 
ATOM     10  C3' I4B d   1       0.933  -0.664  -2.496  0.00  0.00     0.013 C 
ENDBRANCH   7   8
ENDBRANCH   1   7
TORSDOF 2
ENDMDL
