MODEL 1
REMARK minimizedAffinity -0.343301386
REMARK minimizedRMSD -1
REMARK  2 active torsions:
REMARK  status: ('A' for Active; 'I' for Inactive)
REMARK    1  A    between atoms: C2'_3  and  C1'_4 
REMARK    2  A    between atoms: C1'_4  and  C1_5 
ROOT
ATOM      1  C1  I4B d   1      -0.186  -0.523   0.031  0.00  0.00    -0.075 A 
ATOM      2  C2  I4B d   1      -1.384  -1.084   0.398  0.00  0.00     0.003 A 
ATOM      3  C3  I4B d   1      -1.724  -1.206   1.767  0.00  0.00     0.002 A 
ATOM      4  C4  I4B d   1      -0.822  -0.802   2.730  0.00  0.00    -0.004 A 
ATOM      5  C5  I4B d   1       0.382  -0.213   2.356  0.00  0.00     0.002 A 
ATOM      6  C6  I4B d   1       0.697  -0.060   0.998  0.00  0.00     0.003 A 
ENDROOT
BRANCH   1   7
ATOM      7  C1' I4B d   1       0.155  -0.440  -1.423  0.00  0.00     0.060 C 
BRANCH   7   8
ATOM      8  C2' I4B d   1       0.534  -1.829  -1.894  0.00  0.00    -0.013 C 
ATOM      9  C4' I4B d   1      -0.558  -2.437  -2.733  0.00  0.00     0.013 C 
ATOM     10  C3' I4B d   1       1.815  -1.723  -2.666  0.00  0.00     0.013 C 
ENDBRANCH   7   8
ENDBRANCH   1   7
TORSDOF 2
ENDMDL
