MODEL 1
REMARK minimizedAffinity -5.12994146
REMARK minimizedRMSD -1
REMARK  2 active torsions:
REMARK  status: ('A' for Active; 'I' for Inactive)
REMARK    1  A    between atoms: C2'_3  and  C1'_4 
REMARK    2  A    between atoms: C1'_4  and  C1_5 
ROOT
ATOM      1  C1  I4B d   1       3.778   1.927  -4.129  0.00  0.00    -0.075 A 
ATOM      2  C2  I4B d   1       5.070   2.077  -3.689  0.00  0.00     0.003 A 
ATOM      3  C3  I4B d   1       5.974   2.902  -4.401  0.00  0.00     0.002 A 
ATOM      4  C4  I4B d   1       5.562   3.514  -5.567  0.00  0.00    -0.004 A 
ATOM      5  C5  I4B d   1       4.245   3.380  -5.999  0.00  0.00     0.002 A 
ATOM      6  C6  I4B d   1       3.344   2.591  -5.269  0.00  0.00     0.003 A 
ENDROOT
BRANCH   1   7
ATOM      7  C1' I4B d   1       2.859   1.022  -3.371  0.00  0.00     0.060 C 
BRANCH   7   8
ATOM      8  C2' I4B d   1       2.705  -0.258  -4.166  0.00  0.00    -0.013 C 
ATOM      9  C4' I4B d   1       4.026  -0.965  -4.323  0.00  0.00     0.013 C 
ATOM     10  C3' I4B d   1       1.708  -1.126  -3.458  0.00  0.00     0.013 C 
ENDBRANCH   7   8
ENDBRANCH   1   7
TORSDOF 2
ENDMDL
