MODEL 1
REMARK minimizedAffinity 2.71924949
REMARK minimizedRMSD -1
REMARK  2 active torsions:
REMARK  status: ('A' for Active; 'I' for Inactive)
REMARK    1  A    between atoms: C2'_3  and  C1'_4 
REMARK    2  A    between atoms: C1'_4  and  C1_5 
ROOT
ATOM      1  C1  I4B d   1      -0.351  -0.785  -2.113  0.00  0.00    -0.075 A 
ATOM      2  C2  I4B d   1       0.580  -0.154  -1.325  0.00  0.00     0.003 A 
ATOM      3  C3  I4B d   1       0.257   0.215   0.003  0.00  0.00     0.002 A 
ATOM      4  C4  I4B d   1      -1.015  -0.019   0.483  0.00  0.00    -0.004 A 
ATOM      5  C5  I4B d   1      -1.950  -0.680  -0.308  0.00  0.00     0.002 A 
ATOM      6  C6  I4B d   1      -1.612  -1.077  -1.610  0.00  0.00     0.003 A 
ENDROOT
BRANCH   1   7
ATOM      7  C1' I4B d   1       0.013  -1.132  -3.521  0.00  0.00     0.060 C 
BRANCH   7   8
ATOM      8  C2' I4B d   1       1.072  -2.215  -3.477  0.00  0.00    -0.013 C 
ATOM      9  C4' I4B d   1       0.721  -3.358  -4.393  0.00  0.00     0.013 C 
ATOM     10  C3' I4B d   1       2.383  -1.596  -3.862  0.00  0.00     0.013 C 
ENDBRANCH   7   8
ENDBRANCH   1   7
TORSDOF 2
ENDMDL
