MODEL 1
REMARK minimizedAffinity -3.46612859
REMARK minimizedRMSD -1
REMARK  2 active torsions:
REMARK  status: ('A' for Active; 'I' for Inactive)
REMARK    1  A    between atoms: C2'_3  and  C1'_4 
REMARK    2  A    between atoms: C1'_4  and  C1_5 
ROOT
ATOM      1  C1  I4B d   1      -0.525   0.043   0.753  0.00  0.00    -0.075 A 
ATOM      2  C2  I4B d   1       0.183   0.841   1.617  0.00  0.00     0.003 A 
ATOM      3  C3  I4B d   1       0.119   0.613   3.013  0.00  0.00     0.002 A 
ATOM      4  C4  I4B d   1      -0.698  -0.385   3.502  0.00  0.00    -0.004 A 
ATOM      5  C5  I4B d   1      -1.397  -1.209   2.623  0.00  0.00     0.002 A 
ATOM      6  C6  I4B d   1      -1.301  -1.001   1.240  0.00  0.00     0.003 A 
ENDROOT
BRANCH   1   7
ATOM      7  C1' I4B d   1      -0.461   0.333  -0.713  0.00  0.00     0.060 C 
BRANCH   7   8
ATOM      8  C2' I4B d   1       0.932  -0.014  -1.197  0.00  0.00    -0.013 C 
ATOM      9  C4' I4B d   1       0.901  -1.163  -2.169  0.00  0.00     0.013 C 
ATOM     10  C3' I4B d   1       1.522   1.213  -1.827  0.00  0.00     0.013 C 
ENDBRANCH   7   8
ENDBRANCH   1   7
TORSDOF 2
ENDMDL
