MODEL 1
REMARK minimizedAffinity -4.30269909
REMARK minimizedRMSD -1
REMARK  2 active torsions:
REMARK  status: ('A' for Active; 'I' for Inactive)
REMARK    1  A    between atoms: C2'_3  and  C1'_4 
REMARK    2  A    between atoms: C1'_4  and  C1_5 
ROOT
ATOM      1  C1  I4B d   1       0.024   0.087  -0.104  0.00  0.00    -0.075 A 
ATOM      2  C2  I4B d   1       0.934   0.648   0.757  0.00  0.00     0.003 A 
ATOM      3  C3  I4B d   1       1.020   0.195   2.096  0.00  0.00     0.002 A 
ATOM      4  C4  I4B d   1       0.150  -0.778   2.542  0.00  0.00    -0.004 A 
ATOM      5  C5  I4B d   1      -0.757  -1.361   1.661  0.00  0.00     0.002 A 
ATOM      6  C6  I4B d   1      -0.812  -0.935   0.326  0.00  0.00     0.003 A 
ENDROOT
BRANCH   1   7
ATOM      7  C1' I4B d   1      -0.063   0.612  -1.502  0.00  0.00     0.060 C 
BRANCH   7   8
ATOM      8  C2' I4B d   1       0.750  -0.302  -2.396  0.00  0.00    -0.013 C 
ATOM      9  C4' I4B d   1      -0.136  -1.073  -3.338  0.00  0.00     0.013 C 
ATOM     10  C3' I4B d   1       1.736   0.542  -3.148  0.00  0.00     0.013 C 
ENDBRANCH   7   8
ENDBRANCH   1   7
TORSDOF 2
ENDMDL
