MODEL 1
REMARK minimizedAffinity -4.42441082
REMARK minimizedRMSD -1
REMARK  2 active torsions:
REMARK  status: ('A' for Active; 'I' for Inactive)
REMARK    1  A    between atoms: C2'_3  and  C1'_4 
REMARK    2  A    between atoms: C1'_4  and  C1_5 
ROOT
ATOM      1  C1  I4B d   1      -0.147   0.180   0.043  0.00  0.00    -0.075 A 
ATOM      2  C2  I4B d   1       0.719   0.846   0.875  0.00  0.00     0.003 A 
ATOM      3  C3  I4B d   1       0.691   0.608   2.270  0.00  0.00     0.002 A 
ATOM      4  C4  I4B d   1      -0.246  -0.260   2.793  0.00  0.00    -0.004 A 
ATOM      5  C5  I4B d   1      -1.108  -0.951   1.946  0.00  0.00     0.002 A 
ATOM      6  C6  I4B d   1      -1.050  -0.739   0.561  0.00  0.00     0.003 A 
ENDROOT
BRANCH   1   7
ATOM      7  C1' I4B d   1      -0.112   0.480  -1.422  0.00  0.00     0.060 C 
BRANCH   7   8
ATOM      8  C2' I4B d   1       1.192  -0.056  -1.978  0.00  0.00    -0.013 C 
ATOM      9  C4' I4B d   1       0.952  -1.205  -2.921  0.00  0.00     0.013 C 
ATOM     10  C3' I4B d   1       1.900   1.072  -2.667  0.00  0.00     0.013 C 
ENDBRANCH   7   8
ENDBRANCH   1   7
TORSDOF 2
ENDMDL
