MODEL 1
REMARK minimizedAffinity -4.3596096
REMARK minimizedRMSD -1
REMARK  2 active torsions:
REMARK  status: ('A' for Active; 'I' for Inactive)
REMARK    1  A    between atoms: C2'_3  and  C1'_4 
REMARK    2  A    between atoms: C1'_4  and  C1_5 
ROOT
ATOM      1  C1  I4B d   1      -0.123   0.145  -0.290  0.00  0.00    -0.075 A 
ATOM      2  C2  I4B d   1      -1.222  -0.094   0.496  0.00  0.00     0.003 A 
ATOM      3  C3  I4B d   1      -1.076  -0.256   1.895  0.00  0.00     0.002 A 
ATOM      4  C4  I4B d   1       0.185  -0.223   2.455  0.00  0.00    -0.004 A 
ATOM      5  C5  I4B d   1       1.296   0.042   1.659  0.00  0.00     0.002 A 
ATOM      6  C6  I4B d   1       1.140   0.239   0.280  0.00  0.00     0.003 A 
ENDROOT
BRANCH   1   7
ATOM      7  C1' I4B d   1      -0.310   0.279  -1.768  0.00  0.00     0.060 C 
BRANCH   7   8
ATOM      8  C2' I4B d   1       0.725  -0.593  -2.451  0.00  0.00    -0.013 C 
ATOM      9  C4' I4B d   1       0.073  -1.619  -3.340  0.00  0.00     0.013 C 
ATOM     10  C3' I4B d   1       1.639   0.300  -3.234  0.00  0.00     0.013 C 
ENDBRANCH   7   8
ENDBRANCH   1   7
TORSDOF 2
ENDMDL
