MODEL 1
REMARK minimizedAffinity -4.77199459
REMARK minimizedRMSD -1
REMARK  2 active torsions:
REMARK  status: ('A' for Active; 'I' for Inactive)
REMARK    1  A    between atoms: C2'_3  and  C1'_4 
REMARK    2  A    between atoms: C1'_4  and  C1_5 
ROOT
ATOM      1  C1  I4B d   1       0.348   0.354  -1.094  0.00  0.00    -0.075 A 
ATOM      2  C2  I4B d   1      -1.013   0.220  -0.981  0.00  0.00     0.003 A 
ATOM      3  C3  I4B d   1      -1.621   0.179   0.297  0.00  0.00     0.002 A 
ATOM      4  C4  I4B d   1      -0.831   0.224   1.428  0.00  0.00    -0.004 A 
ATOM      5  C5  I4B d   1       0.547   0.383   1.311  0.00  0.00     0.002 A 
ATOM      6  C6  I4B d   1       1.139   0.461   0.042  0.00  0.00     0.003 A 
ENDROOT
BRANCH   1   7
ATOM      7  C1' I4B d   1       0.961   0.361  -2.459  0.00  0.00     0.060 C 
BRANCH   7   8
ATOM      8  C2' I4B d   1       1.436  -1.045  -2.764  0.00  0.00    -0.013 C 
ATOM      9  C4' I4B d   1       0.531  -1.722  -3.760  0.00  0.00     0.013 C 
ATOM     10  C3' I4B d   1       2.841  -0.956  -3.282  0.00  0.00     0.013 C 
ENDBRANCH   7   8
ENDBRANCH   1   7
TORSDOF 2
ENDMDL
