MODEL 1
REMARK minimizedAffinity -4.54192924
REMARK minimizedRMSD -1
REMARK  2 active torsions:
REMARK  status: ('A' for Active; 'I' for Inactive)
REMARK    1  A    between atoms: C2'_3  and  C1'_4 
REMARK    2  A    between atoms: C1'_4  and  C1_5 
ROOT
ATOM      1  C1  I4B d   1      -0.100  -0.235  -1.170  0.00  0.00    -0.075 A 
ATOM      2  C2  I4B d   1      -1.452  -0.002  -1.168  0.00  0.00     0.003 A 
ATOM      3  C3  I4B d   1      -2.179  -0.033   0.047  0.00  0.00     0.002 A 
ATOM      4  C4  I4B d   1      -1.526  -0.347   1.222  0.00  0.00    -0.004 A 
ATOM      5  C5  I4B d   1      -0.151  -0.560   1.221  0.00  0.00     0.002 A 
ATOM      6  C6  I4B d   1       0.570  -0.491   0.020  0.00  0.00     0.003 A 
ENDROOT
BRANCH   1   7
ATOM      7  C1' I4B d   1       0.631  -0.228  -2.475  0.00  0.00     0.060 C 
BRANCH   7   8
ATOM      8  C2' I4B d   1       0.696  -1.654  -2.981  0.00  0.00    -0.013 C 
ATOM      9  C4' I4B d   1      -0.250  -1.868  -4.133  0.00  0.00     0.013 C 
ATOM     10  C3' I4B d   1       2.113  -1.938  -3.384  0.00  0.00     0.013 C 
ENDBRANCH   7   8
ENDBRANCH   1   7
TORSDOF 2
ENDMDL
