MODEL 1
REMARK minimizedAffinity -5.25418377
REMARK minimizedRMSD -1
REMARK  2 active torsions:
REMARK  status: ('A' for Active; 'I' for Inactive)
REMARK    1  A    between atoms: C2'_3  and  C1'_4 
REMARK    2  A    between atoms: C1'_4  and  C1_5 
ROOT
ATOM      1  C1  I4B d   1      -0.097  -0.074  -0.086  0.00  0.00    -0.075 A 
ATOM      2  C2  I4B d   1       0.955   0.546   0.541  0.00  0.00     0.003 A 
ATOM      3  C3  I4B d   1       1.106   0.448   1.946  0.00  0.00     0.002 A 
ATOM      4  C4  I4B d   1       0.159  -0.233   2.685  0.00  0.00    -0.004 A 
ATOM      5  C5  I4B d   1      -0.894  -0.879   2.045  0.00  0.00     0.002 A 
ATOM      6  C6  I4B d   1      -1.017  -0.810   0.649  0.00  0.00     0.003 A 
ENDROOT
BRANCH   1   7
ATOM      7  C1' I4B d   1      -0.243   0.078  -1.567  0.00  0.00     0.060 C 
BRANCH   7   8
ATOM      8  C2' I4B d   1       0.841  -0.747  -2.230  0.00  0.00    -0.013 C 
ATOM      9  C4' I4B d   1       0.250  -1.829  -3.096  0.00  0.00     0.013 C 
ATOM     10  C3' I4B d   1       1.701   0.181  -3.035  0.00  0.00     0.013 C 
ENDBRANCH   7   8
ENDBRANCH   1   7
TORSDOF 2
ENDMDL
