MODEL 1
REMARK minimizedAffinity -5.82286072
REMARK minimizedRMSD -1
REMARK  2 active torsions:
REMARK  status: ('A' for Active; 'I' for Inactive)
REMARK    1  A    between atoms: C1_2  and  C2_3 
REMARK    2  A    between atoms: C2_3  and  C3_4 
ROOT
ATOM      1  C3  UNL d   1       0.610  -0.301  -0.133  0.00  0.00    -0.075 A 
ATOM      2  C4  UNL d   1       1.723  -1.151  -0.212  0.00  0.00     0.002 A 
ATOM      3  C5  UNL d   1       2.223  -1.771   0.933  0.00  0.00     0.002 A 
ATOM      4  C6  UNL d   1       1.625  -1.543   2.171  0.00  0.00    -0.004 A 
ATOM      5  C7  UNL d   1       0.529  -0.688   2.263  0.00  0.00     0.002 A 
ATOM      6  C8  UNL d   1       0.023  -0.069   1.118  0.00  0.00     0.002 A 
ENDROOT
BRANCH   1   7
ATOM      7  C2  UNL d   1       0.045   0.350  -1.373  0.00  0.00     0.056 C 
BRANCH   7   8
ATOM      8  C1  UNL d   1      -0.091   1.873  -1.271  0.00  0.00     0.007 C 
ATOM      9  C   UNL d   1      -0.102   2.566  -2.627  0.00  0.00     0.009 C 
ENDBRANCH   7   8
ENDBRANCH   1   7
TORSDOF 2
ENDMDL
