MODEL 1
REMARK minimizedAffinity -2.81866288
REMARK minimizedRMSD -1
REMARK  2 active torsions:
REMARK  status: ('A' for Active; 'I' for Inactive)
REMARK    1  A    between atoms: C1_2  and  C2_3 
REMARK    2  A    between atoms: C2_3  and  C3_4 
ROOT
ATOM      1  C3  UNL d   1      -0.106   0.345  -1.213  0.00  0.00    -0.075 A 
ATOM      2  C4  UNL d   1      -0.546   0.232   0.114  0.00  0.00     0.002 A 
ATOM      3  C5  UNL d   1       0.166  -0.539   1.033  0.00  0.00     0.002 A 
ATOM      4  C6  UNL d   1       1.320  -1.212   0.637  0.00  0.00    -0.004 A 
ATOM      5  C7  UNL d   1       1.757  -1.119  -0.683  0.00  0.00     0.002 A 
ATOM      6  C8  UNL d   1       1.048  -0.346  -1.604  0.00  0.00     0.002 A 
ENDROOT
BRANCH   1   7
ATOM      7  C2  UNL d   1      -0.857   1.201  -2.205  0.00  0.00     0.056 C 
BRANCH   7   8
ATOM      8  C1  UNL d   1      -0.092   2.451  -2.655  0.00  0.00     0.007 C 
ATOM      9  C   UNL d   1      -0.947   3.711  -2.654  0.00  0.00     0.009 C 
ENDBRANCH   7   8
ENDBRANCH   1   7
TORSDOF 2
ENDMDL
