MODEL 1
REMARK minimizedAffinity -2.27460194
REMARK minimizedRMSD -1
REMARK  2 active torsions:
REMARK  status: ('A' for Active; 'I' for Inactive)
REMARK    1  A    between atoms: C1_2  and  C2_3 
REMARK    2  A    between atoms: C2_3  and  C3_4 
ROOT
ATOM      1  C3  UNL d   1      -0.209  -0.496   0.629  0.00  0.00    -0.075 A 
ATOM      2  C4  UNL d   1       0.335  -1.119   1.761  0.00  0.00     0.002 A 
ATOM      3  C5  UNL d   1      -0.495  -1.721   2.707  0.00  0.00     0.002 A 
ATOM      4  C6  UNL d   1      -1.878  -1.697   2.540  0.00  0.00    -0.004 A 
ATOM      5  C7  UNL d   1      -2.431  -1.066   1.428  0.00  0.00     0.002 A 
ATOM      6  C8  UNL d   1      -1.602  -0.468   0.477  0.00  0.00     0.002 A 
ENDROOT
BRANCH   1   7
ATOM      7  C2  UNL d   1       0.685   0.131  -0.414  0.00  0.00     0.056 C 
BRANCH   7   8
ATOM      8  C1  UNL d   1       1.481  -0.883  -1.244  0.00  0.00     0.007 C 
ATOM      9  C   UNL d   1       2.797  -1.289  -0.594  0.00  0.00     0.009 C 
ENDBRANCH   7   8
ENDBRANCH   1   7
TORSDOF 2
ENDMDL
