MODEL 1
REMARK minimizedAffinity -3.25354552
REMARK minimizedRMSD -1
REMARK  2 active torsions:
REMARK  status: ('A' for Active; 'I' for Inactive)
REMARK    1  A    between atoms: C1_2  and  C2_3 
REMARK    2  A    between atoms: C2_3  and  C3_4 
ROOT
ATOM      1  C3  UNL d   1       0.940  -0.085   0.913  0.00  0.00    -0.075 A 
ATOM      2  C4  UNL d   1       1.693  -0.456  -0.210  0.00  0.00     0.002 A 
ATOM      3  C5  UNL d   1       1.115  -0.462  -1.480  0.00  0.00     0.002 A 
ATOM      4  C6  UNL d   1      -0.222  -0.108  -1.641  0.00  0.00    -0.004 A 
ATOM      5  C7  UNL d   1      -0.984   0.246  -0.530  0.00  0.00     0.002 A 
ATOM      6  C8  UNL d   1      -0.408   0.257   0.741  0.00  0.00     0.002 A 
ENDROOT
BRANCH   1   7
ATOM      7  C2  UNL d   1       1.568  -0.049   2.286  0.00  0.00     0.056 C 
BRANCH   7   8
ATOM      8  C1  UNL d   1       1.390  -1.343   3.088  0.00  0.00     0.007 C 
ATOM      9  C   UNL d   1      -0.031  -1.889   3.039  0.00  0.00     0.009 C 
ENDBRANCH   7   8
ENDBRANCH   1   7
TORSDOF 2
ENDMDL
