MODEL 1
REMARK minimizedAffinity -3.40709496
REMARK minimizedRMSD -1
REMARK  2 active torsions:
REMARK  status: ('A' for Active; 'I' for Inactive)
REMARK    1  A    between atoms: C1_2  and  C2_3 
REMARK    2  A    between atoms: C2_3  and  C3_4 
ROOT
ATOM      1  C3  UNL d   1      -0.379  -0.554   0.441  0.00  0.00    -0.075 A 
ATOM      2  C4  UNL d   1       1.022  -0.579   0.505  0.00  0.00     0.002 A 
ATOM      3  C5  UNL d   1       1.670  -1.066   1.640  0.00  0.00     0.002 A 
ATOM      4  C6  UNL d   1       0.928  -1.524   2.727  0.00  0.00    -0.004 A 
ATOM      5  C7  UNL d   1      -0.463  -1.488   2.681  0.00  0.00     0.002 A 
ATOM      6  C8  UNL d   1      -1.115  -1.006   1.545  0.00  0.00     0.002 A 
ENDROOT
BRANCH   1   7
ATOM      7  C2  UNL d   1      -1.087  -0.056  -0.796  0.00  0.00     0.056 C 
BRANCH   7   8
ATOM      8  C1  UNL d   1      -0.466   1.207  -1.404  0.00  0.00     0.007 C 
ATOM      9  C   UNL d   1      -1.459   2.037  -2.206  0.00  0.00     0.009 C 
ENDBRANCH   7   8
ENDBRANCH   1   7
TORSDOF 2
ENDMDL
