MODEL 1
REMARK minimizedAffinity -2.97466326
REMARK minimizedRMSD -1
REMARK  2 active torsions:
REMARK  status: ('A' for Active; 'I' for Inactive)
REMARK    1  A    between atoms: C1_2  and  C2_3 
REMARK    2  A    between atoms: C2_3  and  C3_4 
ROOT
ATOM      1  C3  UNL d   1      -0.245   0.509  -1.588  0.00  0.00    -0.075 A 
ATOM      2  C4  UNL d   1       0.852   0.857  -2.390  0.00  0.00     0.002 A 
ATOM      3  C5  UNL d   1       0.681   1.681  -3.503  0.00  0.00     0.002 A 
ATOM      4  C6  UNL d   1      -0.585   2.157  -3.834  0.00  0.00    -0.004 A 
ATOM      5  C7  UNL d   1      -1.684   1.804  -3.054  0.00  0.00     0.002 A 
ATOM      6  C8  UNL d   1      -1.516   0.983  -1.937  0.00  0.00     0.002 A 
ENDROOT
BRANCH   1   7
ATOM      7  C2  UNL d   1      -0.063  -0.358  -0.365  0.00  0.00     0.056 C 
BRANCH   7   8
ATOM      8  C1  UNL d   1       1.385  -0.799  -0.123  0.00  0.00     0.007 C 
ATOM      9  C   UNL d   1       2.024  -0.127   1.084  0.00  0.00     0.009 C 
ENDBRANCH   7   8
ENDBRANCH   1   7
TORSDOF 2
ENDMDL
