MODEL 1
REMARK minimizedAffinity -5.77233601
REMARK minimizedRMSD -1
REMARK  2 active torsions:
REMARK  status: ('A' for Active; 'I' for Inactive)
REMARK    1  A    between atoms: C1_2  and  C2_3 
REMARK    2  A    between atoms: C2_3  and  C3_4 
ROOT
ATOM      1  C3  UNL d   1       0.330  -0.042   0.536  0.00  0.00    -0.075 A 
ATOM      2  C4  UNL d   1      -0.624  -0.587   1.407  0.00  0.00     0.002 A 
ATOM      3  C5  UNL d   1      -0.269  -0.953   2.706  0.00  0.00     0.002 A 
ATOM      4  C6  UNL d   1       1.042  -0.788   3.146  0.00  0.00    -0.004 A 
ATOM      5  C7  UNL d   1       2.002  -0.263   2.283  0.00  0.00     0.002 A 
ATOM      6  C8  UNL d   1       1.649   0.108   0.985  0.00  0.00     0.002 A 
ENDROOT
BRANCH   1   7
ATOM      7  C2  UNL d   1      -0.054   0.384  -0.861  0.00  0.00     0.056 C 
BRANCH   7   8
ATOM      8  C1  UNL d   1       0.431   1.787  -1.242  0.00  0.00     0.007 C 
ATOM      9  C   UNL d   1      -0.640   2.627  -1.924  0.00  0.00     0.009 C 
ENDBRANCH   7   8
ENDBRANCH   1   7
TORSDOF 2
ENDMDL
