MODEL 1
REMARK minimizedAffinity -4.92374134
REMARK minimizedRMSD -1
REMARK  2 active torsions:
REMARK  status: ('A' for Active; 'I' for Inactive)
REMARK    1  A    between atoms: C1_2  and  C2_3 
REMARK    2  A    between atoms: C2_3  and  C3_4 
ROOT
ATOM      1  C3  UNL d   1      -0.341  -0.406   0.976  0.00  0.00    -0.075 A 
ATOM      2  C4  UNL d   1       1.033  -0.397   0.695  0.00  0.00     0.002 A 
ATOM      3  C5  UNL d   1       1.925  -1.102   1.502  0.00  0.00     0.002 A 
ATOM      4  C6  UNL d   1       1.458  -1.815   2.605  0.00  0.00    -0.004 A 
ATOM      5  C7  UNL d   1       0.097  -1.816   2.903  0.00  0.00     0.002 A 
ATOM      6  C8  UNL d   1      -0.798  -1.115   2.094  0.00  0.00     0.002 A 
ENDROOT
BRANCH   1   7
ATOM      7  C2  UNL d   1      -1.316   0.331   0.088  0.00  0.00     0.056 C 
BRANCH   7   8
ATOM      8  C1  UNL d   1      -0.887   0.406  -1.381  0.00  0.00     0.007 C 
ATOM      9  C   UNL d   1      -0.644   1.830  -1.863  0.00  0.00     0.009 C 
ENDBRANCH   7   8
ENDBRANCH   1   7
TORSDOF 2
ENDMDL
