MODEL 1
REMARK minimizedAffinity 11.960515
REMARK minimizedRMSD -1
REMARK  0 active torsions:
REMARK  status: ('A' for Active; 'I' for Inactive)
ROOT
ATOM      1  C   UNL d   1       1.093   4.476  -0.671  0.00  0.00     0.124 A 
ATOM      2  C1  UNL d   1       0.061   3.653  -0.242  0.00  0.00     0.062 A 
ATOM      3  C2  UNL d   1       0.342   2.485   0.462  0.00  0.00     0.162 A 
ATOM      4  C3  UNL d   1       1.662   2.133   0.742  0.00  0.00    -0.034 A 
ATOM      5  C4  UNL d   1       2.695   2.965   0.307  0.00  0.00     0.162 A 
ATOM      6  C5  UNL d   1       2.409   4.131  -0.396  0.00  0.00     0.062 A 
ATOM      7  F   UNL d   1       3.408   4.924  -0.809  0.00  0.00    -0.097 F 
ATOM      8  F1  UNL d   1       3.976   2.657   0.560  0.00  0.00    -0.096 F 
ATOM      9  I   UNL d   1       2.086   0.388   1.794  0.00  0.00    -0.060 I 
ATOM     10  F2  UNL d   1      -0.676   1.710   0.864  0.00  0.00    -0.096 F 
ATOM     11  F3  UNL d   1      -1.212   3.983  -0.507  0.00  0.00    -0.097 F 
ATOM     12  F4  UNL d   1       0.820   5.598  -1.348  0.00  0.00    -0.092 F 
ENDROOT
TORSDOF 0
ENDMDL
