MODEL 1
REMARK minimizedAffinity 20.0923939
REMARK minimizedRMSD -1
REMARK  0 active torsions:
REMARK  status: ('A' for Active; 'I' for Inactive)
ROOT
ATOM      1  C   UNL d   1      -2.811  -2.295  -3.459  0.00  0.00     0.124 A 
ATOM      2  C1  UNL d   1      -2.459  -0.962  -3.296  0.00  0.00     0.062 A 
ATOM      3  C2  UNL d   1      -1.781  -0.553  -2.152  0.00  0.00     0.162 A 
ATOM      4  C3  UNL d   1      -1.448  -1.478  -1.162  0.00  0.00    -0.034 A 
ATOM      5  C4  UNL d   1      -1.806  -2.816  -1.333  0.00  0.00     0.162 A 
ATOM      6  C5  UNL d   1      -2.484  -3.220  -2.478  0.00  0.00     0.062 A 
ATOM      7  F   UNL d   1      -2.823  -4.508  -2.634  0.00  0.00    -0.097 F 
ATOM      8  F1  UNL d   1      -1.501  -3.731  -0.401  0.00  0.00    -0.096 F 
ATOM      9  I   UNL d   1      -0.433  -0.869   0.550  0.00  0.00    -0.060 I 
ATOM     10  F2  UNL d   1      -1.453   0.741  -2.020  0.00  0.00    -0.096 F 
ATOM     11  F3  UNL d   1      -2.775  -0.066  -4.242  0.00  0.00    -0.097 F 
ATOM     12  F4  UNL d   1      -3.465  -2.686  -4.560  0.00  0.00    -0.092 F 
ENDROOT
TORSDOF 0
ENDMDL
