MODEL 1
REMARK minimizedAffinity 17.357729
REMARK minimizedRMSD -1
REMARK  0 active torsions:
REMARK  status: ('A' for Active; 'I' for Inactive)
ROOT
ATOM      1  C   UNL d   1       2.443  -1.648   2.805  0.00  0.00     0.124 A 
ATOM      2  C1  UNL d   1       2.162  -2.348   3.970  0.00  0.00     0.062 A 
ATOM      3  C2  UNL d   1       3.176  -2.624   4.882  0.00  0.00     0.162 A 
ATOM      4  C3  UNL d   1       4.481  -2.198   4.635  0.00  0.00    -0.034 A 
ATOM      5  C4  UNL d   1       4.756  -1.495   3.460  0.00  0.00     0.162 A 
ATOM      6  C5  UNL d   1       3.739  -1.222   2.551  0.00  0.00     0.062 A 
ATOM      7  F   UNL d   1       4.012  -0.545   1.426  0.00  0.00    -0.097 F 
ATOM      8  F1  UNL d   1       6.000  -1.071   3.191  0.00  0.00    -0.096 F 
ATOM      9  I   UNL d   1       6.000  -2.609   5.997  0.00  0.00    -0.060 I 
ATOM     10  F2  UNL d   1       2.876  -3.303   6.000  0.00  0.00    -0.096 F 
ATOM     11  F3  UNL d   1       0.911  -2.762   4.216  0.00  0.00    -0.097 F 
ATOM     12  F4  UNL d   1       1.466  -1.385   1.928  0.00  0.00    -0.092 F 
ENDROOT
TORSDOF 0
ENDMDL
