MODEL 1
REMARK minimizedAffinity 6.12206936
REMARK minimizedRMSD -1
REMARK  0 active torsions:
REMARK  status: ('A' for Active; 'I' for Inactive)
ROOT
ATOM      1  C   UNL d   1       2.319  -1.548   3.083  0.00  0.00     0.124 A 
ATOM      2  C1  UNL d   1       3.593  -1.041   2.867  0.00  0.00     0.062 A 
ATOM      3  C2  UNL d   1       4.645  -1.415   3.698  0.00  0.00     0.162 A 
ATOM      4  C3  UNL d   1       4.427  -2.302   4.753  0.00  0.00    -0.034 A 
ATOM      5  C4  UNL d   1       3.143  -2.807   4.965  0.00  0.00     0.162 A 
ATOM      6  C5  UNL d   1       2.095  -2.430   4.131  0.00  0.00     0.062 A 
ATOM      7  F   UNL d   1       0.865  -2.921   4.341  0.00  0.00    -0.097 F 
ATOM      8  F1  UNL d   1       2.899  -3.661   5.969  0.00  0.00    -0.096 F 
ATOM      9  I   UNL d   1       5.998  -2.863   5.999  0.00  0.00    -0.060 I 
ATOM     10  F2  UNL d   1       5.865  -0.910   3.467  0.00  0.00    -0.096 F 
ATOM     11  F3  UNL d   1       3.811  -0.189   1.856  0.00  0.00    -0.097 F 
ATOM     12  F4  UNL d   1       1.308  -1.187   2.282  0.00  0.00    -0.092 F 
ENDROOT
TORSDOF 0
ENDMDL
