MODEL 1
REMARK minimizedAffinity 17.6934147
REMARK minimizedRMSD -1
REMARK  0 active torsions:
REMARK  status: ('A' for Active; 'I' for Inactive)
ROOT
ATOM      1  C   UNL d   1       2.679   2.019   2.703  0.00  0.00     0.124 A 
ATOM      2  C1  UNL d   1       2.439   1.934   4.068  0.00  0.00     0.062 A 
ATOM      3  C2  UNL d   1       2.286   0.691   4.676  0.00  0.00     0.162 A 
ATOM      4  C3  UNL d   1       2.373  -0.478   3.919  0.00  0.00    -0.034 A 
ATOM      5  C4  UNL d   1       2.613  -0.384   2.547  0.00  0.00     0.162 A 
ATOM      6  C5  UNL d   1       2.766   0.860   1.945  0.00  0.00     0.062 A 
ATOM      7  F   UNL d   1       2.997   0.940   0.626  0.00  0.00    -0.097 F 
ATOM      8  F1  UNL d   1       2.703  -1.488   1.790  0.00  0.00    -0.096 F 
ATOM      9  I   UNL d   1       2.144  -2.338   4.824  0.00  0.00    -0.060 I 
ATOM     10  F2  UNL d   1       2.056   0.639   5.996  0.00  0.00    -0.096 F 
ATOM     11  F3  UNL d   1       2.354   3.052   4.803  0.00  0.00    -0.097 F 
ATOM     12  F4  UNL d   1       2.825   3.216   2.121  0.00  0.00    -0.092 F 
ENDROOT
TORSDOF 0
ENDMDL
