MODEL 1
REMARK minimizedAffinity 15.6721039
REMARK minimizedRMSD -1
REMARK  0 active torsions:
REMARK  status: ('A' for Active; 'I' for Inactive)
ROOT
ATOM      1  C   UNL d   1       3.059   1.154   2.517  0.00  0.00     0.124 A 
ATOM      2  C1  UNL d   1       2.641   1.140   3.840  0.00  0.00     0.062 A 
ATOM      3  C2  UNL d   1       2.179  -0.040   4.416  0.00  0.00     0.162 A 
ATOM      4  C3  UNL d   1       2.134  -1.217   3.670  0.00  0.00    -0.034 A 
ATOM      5  C4  UNL d   1       2.555  -1.195   2.339  0.00  0.00     0.162 A 
ATOM      6  C5  UNL d   1       3.015  -0.013   1.767  0.00  0.00     0.062 A 
ATOM      7  F   UNL d   1       3.419  -0.002   0.489  0.00  0.00    -0.097 F 
ATOM      8  F1  UNL d   1       2.524  -2.309   1.592  0.00  0.00    -0.096 F 
ATOM      9  I   UNL d   1       1.444  -2.983   4.528  0.00  0.00    -0.060 I 
ATOM     10  F2  UNL d   1       1.782  -0.023   5.697  0.00  0.00    -0.096 F 
ATOM     11  F3  UNL d   1       2.681   2.267   4.566  0.00  0.00    -0.097 F 
ATOM     12  F4  UNL d   1       3.502   2.291   1.964  0.00  0.00    -0.092 F 
ENDROOT
TORSDOF 0
ENDMDL
