MODEL 1
REMARK minimizedAffinity 27.407444
REMARK minimizedRMSD -1
REMARK  0 active torsions:
REMARK  status: ('A' for Active; 'I' for Inactive)
ROOT
ATOM      1  C   UNL d   1       2.937   1.528   0.786  0.00  0.00     0.124 A 
ATOM      2  C1  UNL d   1       1.934   2.019   1.611  0.00  0.00     0.062 A 
ATOM      3  C2  UNL d   1       1.279   3.203   1.287  0.00  0.00     0.162 A 
ATOM      4  C3  UNL d   1       1.623   3.905   0.132  0.00  0.00    -0.034 A 
ATOM      5  C4  UNL d   1       2.633   3.405  -0.692  0.00  0.00     0.162 A 
ATOM      6  C5  UNL d   1       3.285   2.221  -0.364  0.00  0.00     0.062 A 
ATOM      7  F   UNL d   1       4.254   1.748  -1.162  0.00  0.00    -0.097 F 
ATOM      8  F1  UNL d   1       2.990   4.055  -1.810  0.00  0.00    -0.096 F 
ATOM      9  I   UNL d   1       0.646   5.677  -0.356  0.00  0.00    -0.060 I 
ATOM     10  F2  UNL d   1       0.314   3.654   2.103  0.00  0.00    -0.096 F 
ATOM     11  F3  UNL d   1       1.596   1.351   2.724  0.00  0.00    -0.097 F 
ATOM     12  F4  UNL d   1       3.566   0.388   1.101  0.00  0.00    -0.092 F 
ENDROOT
TORSDOF 0
ENDMDL
