MODEL 1
REMARK minimizedAffinity 10.725893
REMARK minimizedRMSD -1
REMARK  0 active torsions:
REMARK  status: ('A' for Active; 'I' for Inactive)
ROOT
ATOM      1  C   UNL d   1       2.381  -1.235   2.654  0.00  0.00     0.124 A 
ATOM      2  C1  UNL d   1       2.095  -1.916   3.829  0.00  0.00     0.062 A 
ATOM      3  C2  UNL d   1       3.127  -2.438   4.604  0.00  0.00     0.162 A 
ATOM      4  C3  UNL d   1       4.455  -2.281   4.207  0.00  0.00    -0.034 A 
ATOM      5  C4  UNL d   1       4.734  -1.595   3.024  0.00  0.00     0.162 A 
ATOM      6  C5  UNL d   1       3.700  -1.075   2.253  0.00  0.00     0.062 A 
ATOM      7  F   UNL d   1       3.979  -0.417   1.118  0.00  0.00    -0.097 F 
ATOM      8  F1  UNL d   1       6.000  -1.425   2.613  0.00  0.00    -0.096 F 
ATOM      9  I   UNL d   1       5.999  -3.060   5.364  0.00  0.00    -0.060 I 
ATOM     10  F2  UNL d   1       2.821  -3.092   5.735  0.00  0.00    -0.096 F 
ATOM     11  F3  UNL d   1       0.822  -2.072   4.218  0.00  0.00    -0.097 F 
ATOM     12  F4  UNL d   1       1.387  -0.734   1.910  0.00  0.00    -0.092 F 
ENDROOT
TORSDOF 0
ENDMDL
