MODEL 1
REMARK minimizedAffinity 5.88313532
REMARK minimizedRMSD -1
REMARK  0 active torsions:
REMARK  status: ('A' for Active; 'I' for Inactive)
ROOT
ATOM      1  C   UNL d   1       2.443  -0.986   2.568  0.00  0.00     0.124 A 
ATOM      2  C1  UNL d   1       1.979  -1.357   3.823  0.00  0.00     0.062 A 
ATOM      3  C2  UNL d   1       2.870  -1.801   4.795  0.00  0.00     0.162 A 
ATOM      4  C3  UNL d   1       4.234  -1.877   4.518  0.00  0.00    -0.034 A 
ATOM      5  C4  UNL d   1       4.694  -1.503   3.254  0.00  0.00     0.162 A 
ATOM      6  C5  UNL d   1       3.799  -1.060   2.285  0.00  0.00     0.062 A 
ATOM      7  F   UNL d   1       4.250  -0.702   1.073  0.00  0.00    -0.097 F 
ATOM      8  F1  UNL d   1       6.000  -1.564   2.953  0.00  0.00    -0.096 F 
ATOM      9  I   UNL d   1       5.570  -2.541   5.970  0.00  0.00    -0.060 I 
ATOM     10  F2  UNL d   1       2.393  -2.153   5.999  0.00  0.00    -0.096 F 
ATOM     11  F3  UNL d   1       0.669  -1.287   4.099  0.00  0.00    -0.097 F 
ATOM     12  F4  UNL d   1       1.584  -0.559   1.634  0.00  0.00    -0.092 F 
ENDROOT
TORSDOF 0
ENDMDL
