MODEL 1
REMARK minimizedAffinity 19.7973404
REMARK minimizedRMSD -1
REMARK  0 active torsions:
REMARK  status: ('A' for Active; 'I' for Inactive)
ROOT
ATOM      1  C   UNL d   1       3.261   1.901   1.767  0.00  0.00     0.124 A 
ATOM      2  C1  UNL d   1       2.682   2.447   2.904  0.00  0.00     0.062 A 
ATOM      3  C2  UNL d   1       1.523   3.211   2.802  0.00  0.00     0.162 A 
ATOM      4  C3  UNL d   1       0.934   3.433   1.557  0.00  0.00    -0.034 A 
ATOM      5  C4  UNL d   1       1.522   2.882   0.418  0.00  0.00     0.162 A 
ATOM      6  C5  UNL d   1       2.681   2.119   0.525  0.00  0.00     0.062 A 
ATOM      7  F   UNL d   1       3.238   1.592  -0.575  0.00  0.00    -0.097 F 
ATOM      8  F1  UNL d   1       0.982   3.075  -0.794  0.00  0.00    -0.096 F 
ATOM      9  I   UNL d   1      -0.799   4.574   1.401  0.00  0.00    -0.060 I 
ATOM     10  F2  UNL d   1       0.985   3.726   3.918  0.00  0.00    -0.096 F 
ATOM     11  F3  UNL d   1       3.241   2.239   4.105  0.00  0.00    -0.097 F 
ATOM     12  F4  UNL d   1       4.377   1.168   1.868  0.00  0.00    -0.092 F 
ENDROOT
TORSDOF 0
ENDMDL
