MODEL 1
REMARK minimizedAffinity 15.963625
REMARK minimizedRMSD -1
REMARK  0 active torsions:
REMARK  status: ('A' for Active; 'I' for Inactive)
ROOT
ATOM      1  C   UNL d   1       2.014  -1.507   3.165  0.00  0.00     0.124 A 
ATOM      2  C1  UNL d   1       1.894  -2.393   4.227  0.00  0.00     0.062 A 
ATOM      3  C2  UNL d   1       3.012  -2.739   4.980  0.00  0.00     0.162 A 
ATOM      4  C3  UNL d   1       4.261  -2.199   4.674  0.00  0.00    -0.034 A 
ATOM      5  C4  UNL d   1       4.375  -1.310   3.605  0.00  0.00     0.162 A 
ATOM      6  C5  UNL d   1       3.254  -0.966   2.855  0.00  0.00     0.062 A 
ATOM      7  F   UNL d   1       3.373  -0.110   1.830  0.00  0.00    -0.097 F 
ATOM      8  F1  UNL d   1       5.561  -0.772   3.284  0.00  0.00    -0.096 F 
ATOM      9  I   UNL d   1       5.935  -2.715   5.798  0.00  0.00    -0.060 I 
ATOM     10  F2  UNL d   1       2.865  -3.598   6.000  0.00  0.00    -0.096 F 
ATOM     11  F3  UNL d   1       0.697  -2.917   4.528  0.00  0.00    -0.097 F 
ATOM     12  F4  UNL d   1       0.937  -1.175   2.442  0.00  0.00    -0.092 F 
ENDROOT
TORSDOF 0
ENDMDL
