MODEL 1
REMARK minimizedAffinity -1.59954596
REMARK minimizedRMSD -1
REMARK  1 active torsions:
REMARK  status: ('A' for Active; 'I' for Inactive)
REMARK    1  A    between atoms: C3_4  and  O_7 
ROOT
ATOM      1  C   UNL d   1      -0.145  -0.031  -1.441  0.00  0.00    -0.033 A 
ATOM      2  C1  UNL d   1      -0.838   1.125  -1.806  0.00  0.00     0.039 A 
ATOM      3  C2  UNL d   1      -1.422   1.930  -0.826  0.00  0.00    -0.080 A 
ATOM      4  C3  UNL d   1      -1.306   1.568   0.514  0.00  0.00     0.150 A 
ATOM      5  C4  UNL d   1      -0.615   0.420   0.885  0.00  0.00    -0.007 A 
ATOM      6  C5  UNL d   1      -0.033  -0.383  -0.095  0.00  0.00     0.039 A 
ENDROOT
BRANCH   4   7
ATOM      7  O   UNL d   1      -1.864   2.319   1.506  0.00  0.00    -0.526 OA
ATOM      8  H5  UNL d   1      -2.334   3.066   1.099  0.00  0.00     0.418 HD
ENDBRANCH   4   7
TORSDOF 1
ENDMDL
