MODEL 1
REMARK minimizedAffinity -5.52425909
REMARK minimizedRMSD -1
REMARK  1 active torsions:
REMARK  status: ('A' for Active; 'I' for Inactive)
REMARK    1  A    between atoms: C3_4  and  O_7 
ROOT
ATOM      1  C   UNL d   1       0.269  -0.038  -0.517  0.00  0.00    -0.033 A 
ATOM      2  C1  UNL d   1       0.532  -0.201   0.845  0.00  0.00     0.039 A 
ATOM      3  C2  UNL d   1       0.083   0.751   1.763  0.00  0.00    -0.080 A 
ATOM      4  C3  UNL d   1      -0.628   1.857   1.307  0.00  0.00     0.150 A 
ATOM      5  C4  UNL d   1      -0.897   2.023  -0.047  0.00  0.00    -0.007 A 
ATOM      6  C5  UNL d   1      -0.447   1.073  -0.963  0.00  0.00     0.039 A 
ENDROOT
BRANCH   4   7
ATOM      7  O   UNL d   1      -1.082   2.815   2.165  0.00  0.00    -0.526 OA
ATOM      8  H5  UNL d   1      -0.797   2.582   3.064  0.00  0.00     0.418 HD
ENDBRANCH   4   7
TORSDOF 1
ENDMDL
