MODEL 1
REMARK minimizedAffinity -3.69550729
REMARK minimizedRMSD -1
REMARK  1 active torsions:
REMARK  status: ('A' for Active; 'I' for Inactive)
REMARK    1  A    between atoms: C3_4  and  O_7 
ROOT
ATOM      1  C   UNL d   1       0.491  -0.291  -0.328  0.00  0.00    -0.033 A 
ATOM      2  C1  UNL d   1      -0.123   0.847  -0.855  0.00  0.00     0.039 A 
ATOM      3  C2  UNL d   1      -0.686   1.798  -0.001  0.00  0.00    -0.080 A 
ATOM      4  C3  UNL d   1      -0.627   1.599   1.376  0.00  0.00     0.150 A 
ATOM      5  C4  UNL d   1      -0.014   0.469   1.908  0.00  0.00    -0.007 A 
ATOM      6  C5  UNL d   1       0.546  -0.479   1.053  0.00  0.00     0.039 A 
ENDROOT
BRANCH   4   7
ATOM      7  O   UNL d   1      -1.167   2.496   2.249  0.00  0.00    -0.526 OA
ATOM      8  H5  UNL d   1      -1.581   3.212   1.738  0.00  0.00     0.418 HD
ENDBRANCH   4   7
TORSDOF 1
ENDMDL
