MODEL 1
REMARK minimizedAffinity -4.52348804
REMARK minimizedRMSD -1
REMARK  1 active torsions:
REMARK  status: ('A' for Active; 'I' for Inactive)
REMARK    1  A    between atoms: C3_4  and  O_7 
ROOT
ATOM      1  C   UNL d   1       0.346  -0.351   0.352  0.00  0.00    -0.033 A 
ATOM      2  C1  UNL d   1       0.448  -0.027   1.706  0.00  0.00     0.039 A 
ATOM      3  C2  UNL d   1      -0.269   1.053   2.224  0.00  0.00    -0.080 A 
ATOM      4  C3  UNL d   1      -1.086   1.799   1.378  0.00  0.00     0.150 A 
ATOM      5  C4  UNL d   1      -1.196   1.479   0.029  0.00  0.00    -0.007 A 
ATOM      6  C5  UNL d   1      -0.478   0.401  -0.486  0.00  0.00     0.039 A 
ENDROOT
BRANCH   4   7
ATOM      7  O   UNL d   1      -1.802   2.864   1.837  0.00  0.00    -0.526 OA
ATOM      8  H5  UNL d   1      -1.605   2.984   2.781  0.00  0.00     0.418 HD
ENDBRANCH   4   7
TORSDOF 1
ENDMDL
