MODEL 1
REMARK minimizedAffinity -5.54646683
REMARK minimizedRMSD -1
REMARK  1 active torsions:
REMARK  status: ('A' for Active; 'I' for Inactive)
REMARK    1  A    between atoms: C3_4  and  O_7 
ROOT
ATOM      1  C   UNL d   1       0.797  -0.246   0.035  0.00  0.00    -0.033 A 
ATOM      2  C1  UNL d   1      -0.013   0.539  -0.788  0.00  0.00     0.039 A 
ATOM      3  C2  UNL d   1      -0.811   1.542  -0.235  0.00  0.00    -0.080 A 
ATOM      4  C3  UNL d   1      -0.790   1.750   1.142  0.00  0.00     0.150 A 
ATOM      5  C4  UNL d   1       0.017   0.974   1.968  0.00  0.00    -0.007 A 
ATOM      6  C5  UNL d   1       0.813  -0.028   1.413  0.00  0.00     0.039 A 
ENDROOT
BRANCH   4   7
ATOM      7  O   UNL d   1      -1.555   2.713   1.729  0.00  0.00    -0.526 OA
ATOM      8  H5  UNL d   1      -2.082   3.150   1.039  0.00  0.00     0.418 HD
ENDBRANCH   4   7
TORSDOF 1
ENDMDL
