MODEL 1
REMARK minimizedAffinity -0.645698905
REMARK minimizedRMSD -1
REMARK  1 active torsions:
REMARK  status: ('A' for Active; 'I' for Inactive)
REMARK    1  A    between atoms: C1_2  and  C2_3 
ROOT
ATOM      1  C2  UNL d   1       1.324   3.596   0.980  0.00  0.00    -0.077 A 
ATOM      2  C3  UNL d   1       0.294   4.546   1.036  0.00  0.00     0.002 A 
ATOM      3  C4  UNL d   1       0.349   5.592   1.960  0.00  0.00     0.002 A 
ATOM      4  C5  UNL d   1       1.432   5.699   2.830  0.00  0.00    -0.004 A 
ATOM      5  C6  UNL d   1       2.459   4.758   2.783  0.00  0.00     0.002 A 
ATOM      6  C7  UNL d   1       2.406   3.712   1.861  0.00  0.00     0.002 A 
ENDROOT
BRANCH   1   7
ATOM      7  C1  UNL d   1       1.291   2.496  -0.049  0.00  0.00     0.055 C 
ATOM      8  C   UNL d   1       2.562   1.660  -0.006  0.00  0.00     0.019 C 
ENDBRANCH   1   7
TORSDOF 1
ENDMDL
