MODEL 1
REMARK minimizedAffinity 5.95526886
REMARK minimizedRMSD -1
REMARK  1 active torsions:
REMARK  status: ('A' for Active; 'I' for Inactive)
REMARK    1  A    between atoms: C1_2  and  C2_3 
ROOT
ATOM      1  C2  UNL d   1      -5.164   4.819   1.852  0.00  0.00    -0.077 A 
ATOM      2  C3  UNL d   1      -5.649   3.673   2.498  0.00  0.00     0.002 A 
ATOM      3  C4  UNL d   1      -5.911   3.692   3.869  0.00  0.00     0.002 A 
ATOM      4  C5  UNL d   1      -5.696   4.855   4.605  0.00  0.00    -0.004 A 
ATOM      5  C6  UNL d   1      -5.212   6.000   3.972  0.00  0.00     0.002 A 
ATOM      6  C7  UNL d   1      -4.948   5.982   2.602  0.00  0.00     0.002 A 
ENDROOT
BRANCH   1   7
ATOM      7  C1  UNL d   1      -4.927   4.815   0.364  0.00  0.00     0.055 C 
ATOM      8  C   UNL d   1      -3.745   5.696  -0.011  0.00  0.00     0.019 C 
ENDBRANCH   1   7
TORSDOF 1
ENDMDL
