MODEL 1
REMARK minimizedAffinity 5.17070961
REMARK minimizedRMSD -1
REMARK  1 active torsions:
REMARK  status: ('A' for Active; 'I' for Inactive)
REMARK    1  A    between atoms: C1_2  and  C2_3 
ROOT
ATOM      1  C2  UNL d   1       3.811   0.570  -0.615  0.00  0.00    -0.077 A 
ATOM      2  C3  UNL d   1       3.832   0.544  -2.017  0.00  0.00     0.002 A 
ATOM      3  C4  UNL d   1       4.827   1.225  -2.721  0.00  0.00     0.002 A 
ATOM      4  C5  UNL d   1       5.811   1.932  -2.032  0.00  0.00    -0.004 A 
ATOM      5  C6  UNL d   1       5.798   1.965  -0.638  0.00  0.00     0.002 A 
ATOM      6  C7  UNL d   1       4.803   1.287   0.067  0.00  0.00     0.002 A 
ENDROOT
BRANCH   1   7
ATOM      7  C1  UNL d   1       2.768  -0.204   0.147  0.00  0.00     0.055 C 
ATOM      8  C   UNL d   1       3.313  -0.707   1.476  0.00  0.00     0.019 C 
ENDBRANCH   1   7
TORSDOF 1
ENDMDL
