MODEL 1
REMARK minimizedAffinity 8.59315491
REMARK minimizedRMSD -1
REMARK  1 active torsions:
REMARK  status: ('A' for Active; 'I' for Inactive)
REMARK    1  A    between atoms: C1_2  and  C2_3 
ROOT
ATOM      1  C2  UNL d   1      -5.035   4.800   2.224  0.00  0.00    -0.077 A 
ATOM      2  C3  UNL d   1      -4.751   5.999   1.557  0.00  0.00     0.002 A 
ATOM      3  C4  UNL d   1      -4.112   5.982   0.315  0.00  0.00     0.002 A 
ATOM      4  C5  UNL d   1      -3.756   4.769  -0.271  0.00  0.00    -0.004 A 
ATOM      5  C6  UNL d   1      -4.033   3.571   0.386  0.00  0.00     0.002 A 
ATOM      6  C7  UNL d   1      -4.670   3.586   1.628  0.00  0.00     0.002 A 
ENDROOT
BRANCH   1   7
ATOM      7  C1  UNL d   1      -5.768   4.814   3.540  0.00  0.00     0.055 C 
ATOM      8  C   UNL d   1      -5.342   5.996   4.398  0.00  0.00     0.019 C 
ENDBRANCH   1   7
TORSDOF 1
ENDMDL
