MODEL 1
REMARK minimizedAffinity 3.38735223
REMARK minimizedRMSD -1
REMARK  1 active torsions:
REMARK  status: ('A' for Active; 'I' for Inactive)
REMARK    1  A    between atoms: C1_2  and  C2_3 
ROOT
ATOM      1  C2  UNL d   1       1.818   4.787   3.826  0.00  0.00    -0.077 A 
ATOM      2  C3  UNL d   1       1.473   5.445   2.636  0.00  0.00     0.002 A 
ATOM      3  C4  UNL d   1       2.467   5.952   1.797  0.00  0.00     0.002 A 
ATOM      4  C5  UNL d   1       3.810   5.804   2.135  0.00  0.00    -0.004 A 
ATOM      5  C6  UNL d   1       4.163   5.154   3.317  0.00  0.00     0.002 A 
ATOM      6  C7  UNL d   1       3.171   4.647   4.158  0.00  0.00     0.002 A 
ENDROOT
BRANCH   1   7
ATOM      7  C1  UNL d   1       0.749   4.196   4.708  0.00  0.00     0.055 C 
ATOM      8  C   UNL d   1       0.490   2.737   4.361  0.00  0.00     0.019 C 
ENDBRANCH   1   7
TORSDOF 1
ENDMDL
