MODEL 1
REMARK minimizedAffinity 11.6017895
REMARK minimizedRMSD -1
REMARK  1 active torsions:
REMARK  status: ('A' for Active; 'I' for Inactive)
REMARK    1  A    between atoms: C1_2  and  C2_3 
ROOT
ATOM      1  C2  UNL d   1       3.187   0.061   5.039  0.00  0.00    -0.077 A 
ATOM      2  C3  UNL d   1       4.158  -0.255   5.999  0.00  0.00     0.002 A 
ATOM      3  C4  UNL d   1       5.284  -1.001   5.647  0.00  0.00     0.002 A 
ATOM      4  C5  UNL d   1       5.452  -1.433   4.333  0.00  0.00    -0.004 A 
ATOM      5  C6  UNL d   1       4.491  -1.126   3.371  0.00  0.00     0.002 A 
ATOM      6  C7  UNL d   1       3.364  -0.382   3.722  0.00  0.00     0.002 A 
ENDROOT
BRANCH   1   7
ATOM      7  C1  UNL d   1       1.997   0.908   5.406  0.00  0.00     0.055 C 
ATOM      8  C   UNL d   1       1.854   2.099   4.470  0.00  0.00     0.019 C 
ENDBRANCH   1   7
TORSDOF 1
ENDMDL
