MODEL 1
REMARK minimizedAffinity 8.10689163
REMARK minimizedRMSD -1
REMARK  1 active torsions:
REMARK  status: ('A' for Active; 'I' for Inactive)
REMARK    1  A    between atoms: C1_2  and  C2_3 
ROOT
ATOM      1  C2  UNL d   1       3.742   1.194  -0.864  0.00  0.00    -0.077 A 
ATOM      2  C3  UNL d   1       4.004   1.268  -2.239  0.00  0.00     0.002 A 
ATOM      3  C4  UNL d   1       5.120   1.963  -2.710  0.00  0.00     0.002 A 
ATOM      4  C5  UNL d   1       5.984   2.586  -1.811  0.00  0.00    -0.004 A 
ATOM      5  C6  UNL d   1       5.731   2.519  -0.442  0.00  0.00     0.002 A 
ATOM      6  C7  UNL d   1       4.616   1.826   0.030  0.00  0.00     0.002 A 
ENDROOT
BRANCH   1   7
ATOM      7  C1  UNL d   1       2.567   0.402  -0.352  0.00  0.00     0.055 C 
ATOM      8  C   UNL d   1       2.830  -0.137   1.046  0.00  0.00     0.019 C 
ENDBRANCH   1   7
TORSDOF 1
ENDMDL
