MODEL 1
REMARK minimizedAffinity -1.95711243
REMARK minimizedRMSD -1
REMARK  0 active torsions:
REMARK  status: ('A' for Active; 'I' for Inactive)
ROOT
ATOM      1  O1  BZF d   1      -0.811  -1.028   2.760  0.00  0.00    -0.204 OA
ATOM      2  C2  BZF d   1      -1.965  -1.657   2.331  0.00  0.00     0.174 A 
ATOM      3  C3  BZF d   1      -2.153  -1.460   1.010  0.00  0.00    -0.012 A 
ATOM      4  C3A BZF d   1      -1.001  -0.737   0.569  0.00  0.00    -0.107 A 
ATOM      5  C4  BZF d   1      -0.599  -0.261  -0.647  0.00  0.00     0.055 A 
ATOM      6  C5  BZF d   1       0.545   0.468  -0.726  0.00  0.00    -0.016 A 
ATOM      7  C6  BZF d   1       1.308   0.745   0.390  0.00  0.00     0.022 A 
ATOM      8  C7  BZF d   1       0.952   0.291   1.616  0.00  0.00     0.029 A 
ATOM      9  C7A BZF d   1      -0.185  -0.474   1.694  0.00  0.00     0.058 A 
ENDROOT
TORSDOF 0
ENDMDL
