MODEL 1
REMARK minimizedAffinity -4.60125494
REMARK minimizedRMSD -1
REMARK  0 active torsions:
REMARK  status: ('A' for Active; 'I' for Inactive)
ROOT
ATOM      1  O1  BZF d   1      -1.730   0.120  -0.458  0.00  0.00    -0.204 OA
ATOM      2  C2  BZF d   1      -1.099   0.566  -1.603  0.00  0.00     0.174 A 
ATOM      3  C3  BZF d   1       0.192   0.866  -1.352  0.00  0.00    -0.012 A 
ATOM      4  C3A BZF d   1       0.403   0.502   0.015  0.00  0.00    -0.107 A 
ATOM      5  C4  BZF d   1       1.490   0.548   0.842  0.00  0.00     0.055 A 
ATOM      6  C5  BZF d   1       1.345   0.187   2.144  0.00  0.00    -0.016 A 
ATOM      7  C6  BZF d   1       0.129  -0.218   2.654  0.00  0.00     0.022 A 
ATOM      8  C7  BZF d   1      -0.976  -0.284   1.872  0.00  0.00     0.029 A 
ATOM      9  C7A BZF d   1      -0.826   0.048   0.547  0.00  0.00     0.058 A 
ENDROOT
TORSDOF 0
ENDMDL
