MODEL 1
REMARK minimizedAffinity -3.80812716
REMARK minimizedRMSD -1
REMARK  0 active torsions:
REMARK  status: ('A' for Active; 'I' for Inactive)
ROOT
ATOM      1  O1  BZF d   1       0.388  -0.037   3.071  0.00  0.00    -0.204 OA
ATOM      2  C2  BZF d   1      -0.817  -0.538   3.526  0.00  0.00     0.174 A 
ATOM      3  C3  BZF d   1      -1.644  -0.804   2.495  0.00  0.00    -0.012 A 
ATOM      4  C3A BZF d   1      -0.877  -0.535   1.318  0.00  0.00    -0.107 A 
ATOM      5  C4  BZF d   1      -1.145  -0.626  -0.018  0.00  0.00     0.055 A 
ATOM      6  C5  BZF d   1      -0.204  -0.217  -0.910  0.00  0.00    -0.016 A 
ATOM      7  C6  BZF d   1       1.011   0.292  -0.501  0.00  0.00     0.022 A 
ATOM      8  C7  BZF d   1       1.324   0.397   0.814  0.00  0.00     0.029 A 
ATOM      9  C7A BZF d   1       0.388  -0.046   1.716  0.00  0.00     0.058 A 
ENDROOT
TORSDOF 0
ENDMDL
