MODEL 1
REMARK minimizedAffinity -2.01248693
REMARK minimizedRMSD -1
REMARK  0 active torsions:
REMARK  status: ('A' for Active; 'I' for Inactive)
ROOT
ATOM      1  O1  BZF d   1      -1.382  -0.185  -0.504  0.00  0.00    -0.204 OA
ATOM      2  C2  BZF d   1      -0.591  -0.022  -1.624  0.00  0.00     0.174 A 
ATOM      3  C3  BZF d   1       0.680   0.263  -1.274  0.00  0.00    -0.012 A 
ATOM      4  C3A BZF d   1       0.704   0.187   0.154  0.00  0.00    -0.107 A 
ATOM      5  C4  BZF d   1       1.687   0.354   1.087  0.00  0.00     0.055 A 
ATOM      6  C5  BZF d   1       1.364   0.284   2.406  0.00  0.00    -0.016 A 
ATOM      7  C6  BZF d   1       0.071   0.054   2.826  0.00  0.00     0.022 A 
ATOM      8  C7  BZF d   1      -0.937  -0.123   1.937  0.00  0.00     0.029 A 
ATOM      9  C7A BZF d   1      -0.609  -0.085   0.604  0.00  0.00     0.058 A 
ENDROOT
TORSDOF 0
ENDMDL
