MODEL 1
REMARK minimizedAffinity -2.85554957
REMARK minimizedRMSD -1
REMARK  0 active torsions:
REMARK  status: ('A' for Active; 'I' for Inactive)
ROOT
ATOM      1  O1  BZF d   1       2.116  -2.677  -1.431  0.00  0.00    -0.204 OA
ATOM      2  C2  BZF d   1       1.645  -2.642  -2.729  0.00  0.00     0.174 A 
ATOM      3  C3  BZF d   1       0.570  -1.834  -2.827  0.00  0.00    -0.012 A 
ATOM      4  C3A BZF d   1       0.411  -1.261  -1.526  0.00  0.00    -0.107 A 
ATOM      5  C4  BZF d   1      -0.474  -0.366  -0.996  0.00  0.00     0.055 A 
ATOM      6  C5  BZF d   1      -0.402  -0.070   0.328  0.00  0.00    -0.016 A 
ATOM      7  C6  BZF d   1       0.539  -0.654   1.152  0.00  0.00     0.022 A 
ATOM      8  C7  BZF d   1       1.441  -1.543   0.671  0.00  0.00     0.029 A 
ATOM      9  C7A BZF d   1       1.391  -1.819  -0.673  0.00  0.00     0.058 A 
ENDROOT
TORSDOF 0
ENDMDL
