MODEL 1
REMARK minimizedAffinity -2.78649044
REMARK minimizedRMSD -1
REMARK  0 active torsions:
REMARK  status: ('A' for Active; 'I' for Inactive)
ROOT
ATOM      1  O1  BZF d   1       0.430  -0.205   3.124  0.00  0.00    -0.204 OA
ATOM      2  C2  BZF d   1      -0.925  -0.428   3.271  0.00  0.00     0.174 A 
ATOM      3  C3  BZF d   1      -1.540  -0.446   2.071  0.00  0.00    -0.012 A 
ATOM      4  C3A BZF d   1      -0.491  -0.312   1.108  0.00  0.00    -0.107 A 
ATOM      5  C4  BZF d   1      -0.468  -0.277  -0.257  0.00  0.00     0.055 A 
ATOM      6  C5  BZF d   1       0.713  -0.061  -0.893  0.00  0.00    -0.016 A 
ATOM      7  C6  BZF d   1       1.888   0.130  -0.196  0.00  0.00     0.022 A 
ATOM      8  C7  BZF d   1       1.917   0.099   1.159  0.00  0.00     0.029 A 
ATOM      9  C7A BZF d   1       0.730  -0.152   1.803  0.00  0.00     0.058 A 
ENDROOT
TORSDOF 0
ENDMDL
