MODEL 1
REMARK minimizedAffinity -4.08692598
REMARK minimizedRMSD -1
REMARK  0 active torsions:
REMARK  status: ('A' for Active; 'I' for Inactive)
ROOT
ATOM      1  O1  BZF d   1       0.405  -0.030   3.344  0.00  0.00    -0.204 OA
ATOM      2  C2  BZF d   1      -0.636  -0.882   3.660  0.00  0.00     0.174 A 
ATOM      3  C3  BZF d   1      -1.269  -1.297   2.544  0.00  0.00    -0.012 A 
ATOM      4  C3A BZF d   1      -0.524  -0.739   1.458  0.00  0.00    -0.107 A 
ATOM      5  C4  BZF d   1      -0.650  -0.807   0.100  0.00  0.00     0.055 A 
ATOM      6  C5  BZF d   1       0.199  -0.087  -0.679  0.00  0.00    -0.016 A 
ATOM      7  C6  BZF d   1       1.181   0.714  -0.134  0.00  0.00     0.022 A 
ATOM      8  C7  BZF d   1       1.348   0.810   1.207  0.00  0.00     0.029 A 
ATOM      9  C7A BZF d   1       0.513   0.058   1.996  0.00  0.00     0.058 A 
ENDROOT
TORSDOF 0
ENDMDL
