MODEL 1
REMARK minimizedAffinity -4.77092361
REMARK minimizedRMSD -1
REMARK  0 active torsions:
REMARK  status: ('A' for Active; 'I' for Inactive)
ROOT
ATOM      1  O1  BZF d   1       0.854   1.014  -0.213  0.00  0.00    -0.204 OA
ATOM      2  C2  BZF d   1       0.200   0.745  -1.400  0.00  0.00     0.174 A 
ATOM      3  C3  BZF d   1      -0.843  -0.084  -1.194  0.00  0.00    -0.012 A 
ATOM      4  C3A BZF d   1      -0.897  -0.277   0.222  0.00  0.00    -0.107 A 
ATOM      5  C4  BZF d   1      -1.727  -0.986   1.043  0.00  0.00     0.055 A 
ATOM      6  C5  BZF d   1      -1.464  -1.025   2.375  0.00  0.00    -0.016 A 
ATOM      7  C6  BZF d   1      -0.378  -0.371   2.920  0.00  0.00     0.022 A 
ATOM      8  C7  BZF d   1       0.470   0.350   2.147  0.00  0.00     0.029 A 
ATOM      9  C7A BZF d   1       0.188   0.418   0.805  0.00  0.00     0.058 A 
ENDROOT
TORSDOF 0
ENDMDL
