MODEL 1
REMARK minimizedAffinity -4.53699589
REMARK minimizedRMSD -1
REMARK  0 active torsions:
REMARK  status: ('A' for Active; 'I' for Inactive)
ROOT
ATOM      1  O1  BZF d   1      -0.725   0.249  -1.231  0.00  0.00    -0.204 OA
ATOM      2  C2  BZF d   1       0.538   0.745  -1.489  0.00  0.00     0.174 A 
ATOM      3  C3  BZF d   1       1.315   0.671  -0.388  0.00  0.00    -0.012 A 
ATOM      4  C3A BZF d   1       0.513   0.008   0.594  0.00  0.00    -0.107 A 
ATOM      5  C4  BZF d   1       0.736  -0.370   1.887  0.00  0.00     0.055 A 
ATOM      6  C5  BZF d   1      -0.279  -0.932   2.595  0.00  0.00    -0.016 A 
ATOM      7  C6  BZF d   1      -1.529  -1.125   2.043  0.00  0.00     0.022 A 
ATOM      8  C7  BZF d   1      -1.796  -0.771   0.763  0.00  0.00     0.029 A 
ATOM      9  C7A BZF d   1      -0.763  -0.232   0.035  0.00  0.00     0.058 A 
ENDROOT
TORSDOF 0
ENDMDL
