MODEL 1
REMARK minimizedAffinity -4.2440176
REMARK minimizedRMSD -1
REMARK  0 active torsions:
REMARK  status: ('A' for Active; 'I' for Inactive)
ROOT
ATOM      1  O1  BZF d   1      -1.513   0.431  -0.778  0.00  0.00    -0.204 OA
ATOM      2  C2  BZF d   1      -0.328   0.573  -1.475  0.00  0.00     0.174 A 
ATOM      3  C3  BZF d   1       0.730   0.329  -0.676  0.00  0.00    -0.012 A 
ATOM      4  C3A BZF d   1       0.169  -0.076   0.577  0.00  0.00    -0.107 A 
ATOM      5  C4  BZF d   1       0.714  -0.466   1.767  0.00  0.00     0.055 A 
ATOM      6  C5  BZF d   1      -0.110  -0.725   2.817  0.00  0.00    -0.016 A 
ATOM      7  C6  BZF d   1      -1.479  -0.600   2.713  0.00  0.00     0.022 A 
ATOM      8  C7  BZF d   1      -2.066  -0.221   1.552  0.00  0.00     0.029 A 
ATOM      9  C7A BZF d   1      -1.239   0.010   0.480  0.00  0.00     0.058 A 
ENDROOT
TORSDOF 0
ENDMDL
