MODEL 1
REMARK minimizedAffinity -1.29449427
REMARK minimizedRMSD -1
REMARK  0 active torsions:
REMARK  status: ('A' for Active; 'I' for Inactive)
ROOT
ATOM      1  O1  BZF d   1      -0.845   1.425  -0.725  0.00  0.00    -0.204 OA
ATOM      2  C2  BZF d   1      -2.200   1.155  -0.724  0.00  0.00     0.174 A 
ATOM      3  C3  BZF d   1      -2.540   0.421   0.356  0.00  0.00    -0.012 A 
ATOM      4  C3A BZF d   1      -1.338   0.299   1.122  0.00  0.00    -0.107 A 
ATOM      5  C4  BZF d   1      -1.039  -0.305   2.310  0.00  0.00     0.055 A 
ATOM      6  C5  BZF d   1       0.248  -0.303   2.747  0.00  0.00    -0.016 A 
ATOM      7  C6  BZF d   1       1.260   0.288   2.019  0.00  0.00     0.022 A 
ATOM      8  C7  BZF d   1       1.012   0.904   0.838  0.00  0.00     0.029 A 
ATOM      9  C7A BZF d   1      -0.293   0.932   0.410  0.00  0.00     0.058 A 
ENDROOT
TORSDOF 0
ENDMDL
