MODEL 1
REMARK minimizedAffinity -4.74551296
REMARK minimizedRMSD -1
REMARK  0 active torsions:
REMARK  status: ('A' for Active; 'I' for Inactive)
ROOT
ATOM      1  O1  BZF d   1      -1.811   0.108  -1.274  0.00  0.00    -0.204 OA
ATOM      2  C2  BZF d   1      -0.794   0.519  -2.114  0.00  0.00     0.174 A 
ATOM      3  C3  BZF d   1       0.370   0.626  -1.440  0.00  0.00    -0.012 A 
ATOM      4  C3A BZF d   1       0.080   0.170  -0.115  0.00  0.00    -0.107 A 
ATOM      5  C4  BZF d   1       0.835   0.024   1.014  0.00  0.00     0.055 A 
ATOM      6  C5  BZF d   1       0.233  -0.378   2.164  0.00  0.00    -0.016 A 
ATOM      7  C6  BZF d   1      -1.121  -0.637   2.222  0.00  0.00     0.022 A 
ATOM      8  C7  BZF d   1      -1.910  -0.511   1.128  0.00  0.00     0.029 A 
ATOM      9  C7A BZF d   1      -1.298  -0.137  -0.044  0.00  0.00     0.058 A 
ENDROOT
TORSDOF 0
ENDMDL
