MODEL 1
REMARK minimizedAffinity -4.89162922
REMARK minimizedRMSD -1
REMARK  0 active torsions:
REMARK  status: ('A' for Active; 'I' for Inactive)
ROOT
ATOM      1  O1  BZF d   1      -0.666  -1.308   1.696  0.00  0.00    -0.204 OA
ATOM      2  C2  BZF d   1      -0.253  -0.681   2.856  0.00  0.00     0.174 A 
ATOM      3  C3  BZF d   1       0.501   0.400   2.574  0.00  0.00    -0.012 A 
ATOM      4  C3A BZF d   1       0.487   0.507   1.147  0.00  0.00    -0.107 A 
ATOM      5  C4  BZF d   1       1.043   1.389   0.266  0.00  0.00     0.055 A 
ATOM      6  C5  BZF d   1       0.901   1.170  -1.068  0.00  0.00    -0.016 A 
ATOM      7  C6  BZF d   1       0.214   0.077  -1.554  0.00  0.00     0.022 A 
ATOM      8  C7  BZF d   1      -0.359  -0.823  -0.719  0.00  0.00     0.029 A 
ATOM      9  C7A BZF d   1      -0.245  -0.586   0.629  0.00  0.00     0.058 A 
ENDROOT
TORSDOF 0
ENDMDL
