MODEL 1
REMARK minimizedAffinity -3.7036314
REMARK minimizedRMSD -1
REMARK  0 active torsions:
REMARK  status: ('A' for Active; 'I' for Inactive)
ROOT
ATOM      1  O1  BZF d   1       1.082   1.225  -0.072  0.00  0.00    -0.204 OA
ATOM      2  C2  BZF d   1       0.410   1.057  -1.267  0.00  0.00     0.174 A 
ATOM      3  C3  BZF d   1      -0.610   0.186  -1.124  0.00  0.00    -0.012 A 
ATOM      4  C3A BZF d   1      -0.630  -0.144   0.268  0.00  0.00    -0.107 A 
ATOM      5  C4  BZF d   1      -1.426  -0.951   1.030  0.00  0.00     0.055 A 
ATOM      6  C5  BZF d   1      -1.134  -1.113   2.347  0.00  0.00    -0.016 A 
ATOM      7  C6  BZF d   1      -0.053  -0.489   2.933  0.00  0.00     0.022 A 
ATOM      8  C7  BZF d   1       0.762   0.325   2.219  0.00  0.00     0.029 A 
ATOM      9  C7A BZF d   1       0.451   0.517   0.895  0.00  0.00     0.058 A 
ENDROOT
TORSDOF 0
ENDMDL
