MODEL 1
REMARK minimizedAffinity -4.38733482
REMARK minimizedRMSD -1
REMARK  0 active torsions:
REMARK  status: ('A' for Active; 'I' for Inactive)
ROOT
ATOM      1  O1  BZF d   1       0.194   0.387   3.054  0.00  0.00    -0.204 OA
ATOM      2  C2  BZF d   1      -0.663  -0.611   3.477  0.00  0.00     0.174 A 
ATOM      3  C3  BZF d   1      -1.050  -1.380   2.439  0.00  0.00    -0.012 A 
ATOM      4  C3A BZF d   1      -0.321  -0.886   1.312  0.00  0.00    -0.107 A 
ATOM      5  C4  BZF d   1      -0.264  -1.251  -0.003  0.00  0.00     0.055 A 
ATOM      6  C5  BZF d   1       0.493  -0.517  -0.860  0.00  0.00    -0.016 A 
ATOM      7  C6  BZF d   1       1.201   0.589  -0.439  0.00  0.00     0.022 A 
ATOM      8  C7  BZF d   1       1.180   0.987   0.857  0.00  0.00     0.029 A 
ATOM      9  C7A BZF d   1       0.442   0.228   1.732  0.00  0.00     0.058 A 
ENDROOT
TORSDOF 0
ENDMDL
