MODEL 1
REMARK minimizedAffinity -3.37315607
REMARK minimizedRMSD -1
REMARK  0 active torsions:
REMARK  status: ('A' for Active; 'I' for Inactive)
ROOT
ATOM      1  O1  BZF d   1      -0.536  -1.355  -0.738  0.00  0.00    -0.204 OA
ATOM      2  C2  BZF d   1       0.139  -0.483  -1.571  0.00  0.00     0.174 A 
ATOM      3  C3  BZF d   1       0.659   0.544  -0.868  0.00  0.00    -0.012 A 
ATOM      4  C3A BZF d   1       0.363   0.251   0.501  0.00  0.00    -0.107 A 
ATOM      5  C4  BZF d   1       0.634   0.890   1.677  0.00  0.00     0.055 A 
ATOM      6  C5  BZF d   1       0.141   0.378   2.836  0.00  0.00    -0.016 A 
ATOM      7  C6  BZF d   1      -0.629  -0.767   2.854  0.00  0.00     0.022 A 
ATOM      8  C7  BZF d   1      -0.919  -1.438   1.713  0.00  0.00     0.029 A 
ATOM      9  C7A BZF d   1      -0.395  -0.941   0.544  0.00  0.00     0.058 A 
ENDROOT
TORSDOF 0
ENDMDL
