MODEL 1
REMARK minimizedAffinity 0.510451019
REMARK minimizedRMSD -1
REMARK  0 active torsions:
REMARK  status: ('A' for Active; 'I' for Inactive)
ROOT
ATOM      1  O1  BZF d   1       1.087   1.102  -0.316  0.00  0.00    -0.204 OA
ATOM      2  C2  BZF d   1       0.638   0.108  -1.163  0.00  0.00     0.174 A 
ATOM      3  C3  BZF d   1      -0.100  -0.798  -0.489  0.00  0.00    -0.012 A 
ATOM      4  C3A BZF d   1      -0.189  -0.292   0.846  0.00  0.00    -0.107 A 
ATOM      5  C4  BZF d   1      -0.805  -0.739   1.980  0.00  0.00     0.055 A 
ATOM      6  C5  BZF d   1      -0.637  -0.048   3.139  0.00  0.00    -0.016 A 
ATOM      7  C6  BZF d   1       0.143   1.088   3.200  0.00  0.00     0.022 A 
ATOM      8  C7  BZF d   1       0.769   1.573   2.100  0.00  0.00     0.029 A 
ATOM      9  C7A BZF d   1       0.575   0.896   0.921  0.00  0.00     0.058 A 
ENDROOT
TORSDOF 0
ENDMDL
