MODEL 1
REMARK minimizedAffinity -4.70101404
REMARK minimizedRMSD -1
REMARK  0 active torsions:
REMARK  status: ('A' for Active; 'I' for Inactive)
ROOT
ATOM      1  C   UNL d   1      -0.476  -1.870   3.138  0.00  0.00     0.078 C 
ATOM      2  C1  UNL d   1       0.161  -1.313   1.900  0.00  0.00    -0.077 A 
ATOM      3  C2  UNL d   1      -0.482  -0.331   1.138  0.00  0.00    -0.001 A 
ATOM      4  C3  UNL d   1       0.119   0.172  -0.017  0.00  0.00     0.003 A 
ATOM      5  C4  UNL d   1       1.366  -0.302  -0.421  0.00  0.00    -0.005 A 
ATOM      6  C5  UNL d   1       2.013  -1.281   0.331  0.00  0.00     0.003 A 
ATOM      7  C6  UNL d   1       1.413  -1.785   1.486  0.00  0.00    -0.001 A 
ENDROOT
TORSDOF 0
ENDMDL
