MODEL 1
REMARK minimizedAffinity -2.25393772
REMARK minimizedRMSD -1
REMARK  0 active torsions:
REMARK  status: ('A' for Active; 'I' for Inactive)
ROOT
ATOM      1  C   UNL d   1      -0.612   1.003  -0.763  0.00  0.00     0.078 C 
ATOM      2  C1  UNL d   1       0.240   0.030  -0.004  0.00  0.00    -0.077 A 
ATOM      3  C2  UNL d   1       1.495  -0.360  -0.488  0.00  0.00    -0.001 A 
ATOM      4  C3  UNL d   1       2.273  -1.274   0.224  0.00  0.00     0.003 A 
ATOM      5  C4  UNL d   1       1.805  -1.807   1.423  0.00  0.00    -0.005 A 
ATOM      6  C5  UNL d   1       0.556  -1.427   1.911  0.00  0.00     0.003 A 
ATOM      7  C6  UNL d   1      -0.223  -0.513   1.201  0.00  0.00    -0.001 A 
ENDROOT
TORSDOF 0
ENDMDL
