MODEL 1
REMARK minimizedAffinity -3.66617966
REMARK minimizedRMSD -1
REMARK  0 active torsions:
REMARK  status: ('A' for Active; 'I' for Inactive)
ROOT
ATOM      1  C   UNL d   1      -1.827   1.599   0.521  0.00  0.00     0.078 C 
ATOM      2  C1  UNL d   1      -2.084   1.710  -0.952  0.00  0.00    -0.077 A 
ATOM      3  C2  UNL d   1      -3.252   1.189  -1.521  0.00  0.00    -0.001 A 
ATOM      4  C3  UNL d   1      -3.474   1.291  -2.896  0.00  0.00     0.003 A 
ATOM      5  C4  UNL d   1      -2.531   1.913  -3.712  0.00  0.00    -0.005 A 
ATOM      6  C5  UNL d   1      -1.365   2.433  -3.154  0.00  0.00     0.003 A 
ATOM      7  C6  UNL d   1      -1.142   2.332  -1.780  0.00  0.00    -0.001 A 
ENDROOT
TORSDOF 0
ENDMDL
