MODEL 1
REMARK minimizedAffinity -2.6959722
REMARK minimizedRMSD -1
REMARK  0 active torsions:
REMARK  status: ('A' for Active; 'I' for Inactive)
ROOT
ATOM      1  C   UNL d   1      -1.549   0.067   1.226  0.00  0.00     0.078 C 
ATOM      2  C1  UNL d   1      -0.230   0.212   0.528  0.00  0.00    -0.077 A 
ATOM      3  C2  UNL d   1       0.800  -0.714   0.735  0.00  0.00    -0.001 A 
ATOM      4  C3  UNL d   1       2.027  -0.562   0.086  0.00  0.00     0.003 A 
ATOM      5  C4  UNL d   1       2.235   0.516  -0.772  0.00  0.00    -0.005 A 
ATOM      6  C5  UNL d   1       1.217   1.443  -0.982  0.00  0.00     0.003 A 
ATOM      7  C6  UNL d   1      -0.010   1.293  -0.335  0.00  0.00    -0.001 A 
ENDROOT
TORSDOF 0
ENDMDL
