MODEL 1
REMARK minimizedAffinity -4.66624022
REMARK minimizedRMSD -1
REMARK  0 active torsions:
REMARK  status: ('A' for Active; 'I' for Inactive)
ROOT
ATOM      1  C   UNL d   1       1.872  -1.494   0.407  0.00  0.00     0.078 C 
ATOM      2  C1  UNL d   1       0.624  -0.696   0.177  0.00  0.00    -0.077 A 
ATOM      3  C2  UNL d   1      -0.334  -0.547   1.187  0.00  0.00    -0.001 A 
ATOM      4  C3  UNL d   1      -1.496   0.192   0.956  0.00  0.00     0.003 A 
ATOM      5  C4  UNL d   1      -1.711   0.786  -0.286  0.00  0.00    -0.005 A 
ATOM      6  C5  UNL d   1      -0.765   0.641  -1.298  0.00  0.00     0.003 A 
ATOM      7  C6  UNL d   1       0.397  -0.097  -1.069  0.00  0.00    -0.001 A 
ENDROOT
TORSDOF 0
ENDMDL
