MODEL 1
REMARK minimizedAffinity -4.77537107
REMARK minimizedRMSD -1
REMARK  0 active torsions:
REMARK  status: ('A' for Active; 'I' for Inactive)
ROOT
ATOM      1  C   UNL d   1       2.259  -1.319  -0.340  0.00  0.00     0.078 C 
ATOM      2  C1  UNL d   1       1.060  -0.833   0.419  0.00  0.00    -0.077 A 
ATOM      3  C2  UNL d   1       0.779  -1.309   1.706  0.00  0.00    -0.001 A 
ATOM      4  C3  UNL d   1      -0.346  -0.855   2.396  0.00  0.00     0.003 A 
ATOM      5  C4  UNL d   1      -1.200   0.075   1.807  0.00  0.00    -0.005 A 
ATOM      6  C5  UNL d   1      -0.931   0.552   0.526  0.00  0.00     0.003 A 
ATOM      7  C6  UNL d   1       0.194   0.099  -0.166  0.00  0.00    -0.001 A 
ENDROOT
TORSDOF 0
ENDMDL
