MODEL 1
REMARK minimizedAffinity -5.08392477
REMARK minimizedRMSD -1
REMARK  0 active torsions:
REMARK  status: ('A' for Active; 'I' for Inactive)
ROOT
ATOM      1  C   UNL d   1      -1.566  -0.183   1.838  0.00  0.00     0.078 C 
ATOM      2  C1  UNL d   1      -0.229  -0.513   1.244  0.00  0.00    -0.077 A 
ATOM      3  C2  UNL d   1       0.599  -1.481   1.825  0.00  0.00    -0.001 A 
ATOM      4  C3  UNL d   1       1.845  -1.772   1.267  0.00  0.00     0.003 A 
ATOM      5  C4  UNL d   1       2.274  -1.098   0.125  0.00  0.00    -0.005 A 
ATOM      6  C5  UNL d   1       1.458  -0.132  -0.459  0.00  0.00     0.003 A 
ATOM      7  C6  UNL d   1       0.212   0.160   0.098  0.00  0.00    -0.001 A 
ENDROOT
TORSDOF 0
ENDMDL
