MODEL 1
REMARK minimizedAffinity -2.06760979
REMARK minimizedRMSD -1
REMARK  0 active torsions:
REMARK  status: ('A' for Active; 'I' for Inactive)
ROOT
ATOM      1  C   UNL d   1      -1.674   1.081  -2.660  0.00  0.00     0.078 C 
ATOM      2  C1  UNL d   1      -0.914   0.676  -1.432  0.00  0.00    -0.077 A 
ATOM      3  C2  UNL d   1      -1.516   0.705  -0.168  0.00  0.00    -0.001 A 
ATOM      4  C3  UNL d   1      -0.793   0.334   0.966  0.00  0.00     0.003 A 
ATOM      5  C4  UNL d   1       0.536  -0.068   0.849  0.00  0.00    -0.005 A 
ATOM      6  C5  UNL d   1       1.144  -0.099  -0.404  0.00  0.00     0.003 A 
ATOM      7  C6  UNL d   1       0.423   0.272  -1.540  0.00  0.00    -0.001 A 
ENDROOT
TORSDOF 0
ENDMDL
