MODEL 1
REMARK minimizedAffinity -5.25468874
REMARK minimizedRMSD -1
REMARK  0 active torsions:
REMARK  status: ('A' for Active; 'I' for Inactive)
ROOT
ATOM      1  C   UNL d   1       1.381  -2.441   0.155  0.00  0.00     0.078 C 
ATOM      2  C1  UNL d   1       0.446  -1.283  -0.030  0.00  0.00    -0.077 A 
ATOM      3  C2  UNL d   1       0.864  -0.115  -0.680  0.00  0.00    -0.001 A 
ATOM      4  C3  UNL d   1      -0.014   0.958  -0.837  0.00  0.00     0.003 A 
ATOM      5  C4  UNL d   1      -1.315   0.876  -0.345  0.00  0.00    -0.005 A 
ATOM      6  C5  UNL d   1      -1.740  -0.281   0.305  0.00  0.00     0.003 A 
ATOM      7  C6  UNL d   1      -0.863  -1.356   0.462  0.00  0.00    -0.001 A 
ENDROOT
TORSDOF 0
ENDMDL
