MODEL 1
REMARK minimizedAffinity -4.24693584
REMARK minimizedRMSD -1
REMARK  0 active torsions:
REMARK  status: ('A' for Active; 'I' for Inactive)
ROOT
ATOM      1  C   UNL d   1      -1.594   0.126   1.476  0.00  0.00     0.078 C 
ATOM      2  C1  UNL d   1      -0.270  -0.579   1.499  0.00  0.00    -0.077 A 
ATOM      3  C2  UNL d   1       0.065  -1.450   2.543  0.00  0.00    -0.001 A 
ATOM      4  C3  UNL d   1       1.304  -2.091   2.558  0.00  0.00     0.003 A 
ATOM      5  C4  UNL d   1       2.220  -1.868   1.531  0.00  0.00    -0.005 A 
ATOM      6  C5  UNL d   1       1.896  -1.001   0.489  0.00  0.00     0.003 A 
ATOM      7  C6  UNL d   1       0.657  -0.359   0.473  0.00  0.00    -0.001 A 
ENDROOT
TORSDOF 0
ENDMDL
