MODEL 1
REMARK minimizedAffinity 2.37727737
REMARK minimizedRMSD -1
REMARK  0 active torsions:
REMARK  status: ('A' for Active; 'I' for Inactive)
ROOT
ATOM      1  C   UNL d   1       3.749   2.185  -1.500  0.00  0.00     0.078 C 
ATOM      2  C1  UNL d   1       2.848   1.290  -0.703  0.00  0.00    -0.077 A 
ATOM      3  C2  UNL d   1       1.531   1.666  -0.411  0.00  0.00    -0.001 A 
ATOM      4  C3  UNL d   1       0.707   0.827   0.340  0.00  0.00     0.003 A 
ATOM      5  C4  UNL d   1       1.190  -0.393   0.807  0.00  0.00    -0.005 A 
ATOM      6  C5  UNL d   1       2.499  -0.776   0.524  0.00  0.00     0.003 A 
ATOM      7  C6  UNL d   1       3.325   0.062  -0.227  0.00  0.00    -0.001 A 
ENDROOT
TORSDOF 0
ENDMDL
