MODEL 1
REMARK minimizedAffinity 1.0129559
REMARK minimizedRMSD -1
REMARK  0 active torsions:
REMARK  status: ('A' for Active; 'I' for Inactive)
ROOT
ATOM      1  C   UNL d   1       3.569  -5.161  -5.999  0.00  0.00     0.078 C 
ATOM      2  C1  UNL d   1       2.284  -5.461  -5.286  0.00  0.00    -0.077 A 
ATOM      3  C2  UNL d   1       1.105  -5.708  -5.999  0.00  0.00    -0.001 A 
ATOM      4  C3  UNL d   1      -0.086  -5.976  -5.322  0.00  0.00     0.003 A 
ATOM      5  C4  UNL d   1      -0.109  -5.999  -3.929  0.00  0.00    -0.005 A 
ATOM      6  C5  UNL d   1       1.059  -5.752  -3.211  0.00  0.00     0.003 A 
ATOM      7  C6  UNL d   1       2.251  -5.483  -3.886  0.00  0.00    -0.001 A 
ENDROOT
TORSDOF 0
ENDMDL
