MODEL 1
REMARK minimizedAffinity 0.729327559
REMARK minimizedRMSD -1
REMARK  0 active torsions:
REMARK  status: ('A' for Active; 'I' for Inactive)
ROOT
ATOM      1  C   UNL d   1       0.774  -0.093  -0.441  0.00  0.00     0.078 C 
ATOM      2  C1  UNL d   1      -0.412  -0.726   0.224  0.00  0.00    -0.077 A 
ATOM      3  C2  UNL d   1      -0.677  -2.093   0.075  0.00  0.00    -0.001 A 
ATOM      4  C3  UNL d   1      -1.789  -2.667   0.692  0.00  0.00     0.003 A 
ATOM      5  C4  UNL d   1      -2.647  -1.882   1.460  0.00  0.00    -0.005 A 
ATOM      6  C5  UNL d   1      -2.393  -0.521   1.611  0.00  0.00     0.003 A 
ATOM      7  C6  UNL d   1      -1.280   0.055   0.995  0.00  0.00    -0.001 A 
ENDROOT
TORSDOF 0
ENDMDL
