MODEL 1
REMARK minimizedAffinity 1.24858284
REMARK minimizedRMSD -1
REMARK  0 active torsions:
REMARK  status: ('A' for Active; 'I' for Inactive)
ROOT
ATOM      1  C   UNL d   1       1.692  -1.885   3.736  0.00  0.00     0.078 C 
ATOM      2  C1  UNL d   1       1.738  -1.298   2.357  0.00  0.00    -0.077 A 
ATOM      3  C2  UNL d   1       2.884  -1.419   1.561  0.00  0.00    -0.001 A 
ATOM      4  C3  UNL d   1       2.917  -0.860   0.282  0.00  0.00     0.003 A 
ATOM      5  C4  UNL d   1       1.808  -0.175  -0.210  0.00  0.00    -0.005 A 
ATOM      6  C5  UNL d   1       0.664  -0.048   0.576  0.00  0.00     0.003 A 
ATOM      7  C6  UNL d   1       0.629  -0.607   1.854  0.00  0.00    -0.001 A 
ENDROOT
TORSDOF 0
ENDMDL
