MODEL 1
REMARK minimizedAffinity -2.97598076
REMARK minimizedRMSD -1
REMARK  0 active torsions:
REMARK  status: ('A' for Active; 'I' for Inactive)
ROOT
ATOM      1  C   UNL d   1       2.333   0.772  -1.112  0.00  0.00     0.078 C 
ATOM      2  C1  UNL d   1       1.860  -0.096   0.016  0.00  0.00    -0.077 A 
ATOM      3  C2  UNL d   1       2.630  -1.175   0.467  0.00  0.00    -0.001 A 
ATOM      4  C3  UNL d   1       2.172  -1.981   1.511  0.00  0.00     0.003 A 
ATOM      5  C4  UNL d   1       0.943  -1.717   2.112  0.00  0.00    -0.005 A 
ATOM      6  C5  UNL d   1       0.169  -0.647   1.668  0.00  0.00     0.003 A 
ATOM      7  C6  UNL d   1       0.624   0.160   0.624  0.00  0.00    -0.001 A 
ENDROOT
TORSDOF 0
ENDMDL
