MODEL 1
REMARK minimizedAffinity -5.79911661
REMARK minimizedRMSD -1
REMARK  0 active torsions:
REMARK  status: ('A' for Active; 'I' for Inactive)
ROOT
ATOM      1  C   UNL d   1      -1.471   0.404   1.588  0.00  0.00     0.078 C 
ATOM      2  C1  UNL d   1      -0.502  -0.737   1.499  0.00  0.00    -0.077 A 
ATOM      3  C2  UNL d   1      -0.357  -1.645   2.555  0.00  0.00    -0.001 A 
ATOM      4  C3  UNL d   1       0.556  -2.696   2.463  0.00  0.00     0.003 A 
ATOM      5  C4  UNL d   1       1.334  -2.848   1.316  0.00  0.00    -0.005 A 
ATOM      6  C5  UNL d   1       1.199  -1.949   0.261  0.00  0.00     0.003 A 
ATOM      7  C6  UNL d   1       0.286  -0.897   0.352  0.00  0.00    -0.001 A 
ENDROOT
TORSDOF 0
ENDMDL
