MODEL 1
REMARK minimizedAffinity -1.56278658
REMARK minimizedRMSD -1
REMARK  0 active torsions:
REMARK  status: ('A' for Active; 'I' for Inactive)
ROOT
ATOM      1  C   UNL d   1       2.185  -1.647   1.458  0.00  0.00     0.078 C 
ATOM      2  C1  UNL d   1       1.307  -0.544   0.945  0.00  0.00    -0.077 A 
ATOM      3  C2  UNL d   1       1.786   0.383   0.010  0.00  0.00    -0.001 A 
ATOM      4  C3  UNL d   1       0.961   1.410  -0.451  0.00  0.00     0.003 A 
ATOM      5  C4  UNL d   1      -0.347   1.521   0.017  0.00  0.00    -0.005 A 
ATOM      6  C5  UNL d   1      -0.831   0.605   0.948  0.00  0.00     0.003 A 
ATOM      7  C6  UNL d   1      -0.008  -0.423   1.411  0.00  0.00    -0.001 A 
ENDROOT
TORSDOF 0
ENDMDL
