MODEL 1
REMARK minimizedAffinity -2.47381377
REMARK minimizedRMSD -1
REMARK  0 active torsions:
REMARK  status: ('A' for Active; 'I' for Inactive)
ROOT
ATOM      1  C   UNL d   1      -1.814   1.576  -3.049  0.00  0.00     0.078 C 
ATOM      2  C1  UNL d   1      -1.543   1.078  -1.661  0.00  0.00    -0.077 A 
ATOM      3  C2  UNL d   1      -0.387   1.460  -0.970  0.00  0.00    -0.001 A 
ATOM      4  C3  UNL d   1      -0.143   0.981   0.318  0.00  0.00     0.003 A 
ATOM      5  C4  UNL d   1      -1.050   0.115   0.926  0.00  0.00    -0.005 A 
ATOM      6  C5  UNL d   1      -2.203  -0.272   0.245  0.00  0.00     0.003 A 
ATOM      7  C6  UNL d   1      -2.448   0.206  -1.043  0.00  0.00    -0.001 A 
ENDROOT
TORSDOF 0
ENDMDL
