MODEL 1
REMARK minimizedAffinity -3.82692146
REMARK minimizedRMSD -1
REMARK  1 active torsions:
REMARK  status: ('A' for Active; 'I' for Inactive)
REMARK    1  A    between atoms: C1_2  and  C2_3 
ROOT
ATOM      1  C2  UNL d   1       0.407  -0.248   0.027  0.00  0.00    -0.077 A 
ATOM      2  C3  UNL d   1      -0.046   0.897  -0.643  0.00  0.00     0.002 A 
ATOM      3  C4  UNL d   1      -0.773   1.874   0.040  0.00  0.00     0.002 A 
ATOM      4  C5  UNL d   1      -1.049   1.717   1.397  0.00  0.00    -0.004 A 
ATOM      5  C6  UNL d   1      -0.605   0.581   2.071  0.00  0.00     0.002 A 
ATOM      6  C7  UNL d   1       0.121  -0.397   1.390  0.00  0.00     0.002 A 
ENDROOT
BRANCH   1   7
ATOM      7  C1  UNL d   1       1.234  -1.279  -0.697  0.00  0.00     0.055 C 
ATOM      8  C   UNL d   1       0.399  -2.045  -1.712  0.00  0.00     0.019 C 
ENDBRANCH   1   7
TORSDOF 1
ENDMDL
