MODEL 1
REMARK minimizedAffinity -3.87224936
REMARK minimizedRMSD -1
REMARK  1 active torsions:
REMARK  status: ('A' for Active; 'I' for Inactive)
REMARK    1  A    between atoms: C1_2  and  C2_3 
ROOT
ATOM      1  C2  UNL d   1       0.458   0.641  -0.250  0.00  0.00    -0.077 A 
ATOM      2  C3  UNL d   1       0.241   2.023  -0.338  0.00  0.00     0.002 A 
ATOM      3  C4  UNL d   1      -0.422   2.700   0.688  0.00  0.00     0.002 A 
ATOM      4  C5  UNL d   1      -0.868   2.005   1.809  0.00  0.00    -0.004 A 
ATOM      5  C6  UNL d   1      -0.658   0.630   1.905  0.00  0.00     0.002 A 
ATOM      6  C7  UNL d   1       0.003  -0.049   0.880  0.00  0.00     0.002 A 
ENDROOT
BRANCH   1   7
ATOM      7  C1  UNL d   1       1.216  -0.083  -1.333  0.00  0.00     0.055 C 
ATOM      8  C   UNL d   1       0.860  -1.562  -1.363  0.00  0.00     0.019 C 
ENDBRANCH   1   7
TORSDOF 1
ENDMDL
