MODEL 1
REMARK minimizedAffinity -4.00388145
REMARK minimizedRMSD -1
REMARK  1 active torsions:
REMARK  status: ('A' for Active; 'I' for Inactive)
REMARK    1  A    between atoms: C1_2  and  C2_3 
ROOT
ATOM      1  C2  UNL d   1       0.033   0.479  -0.194  0.00  0.00    -0.077 A 
ATOM      2  C3  UNL d   1      -0.793   1.535   0.217  0.00  0.00     0.002 A 
ATOM      3  C4  UNL d   1      -1.314   1.561   1.513  0.00  0.00     0.002 A 
ATOM      4  C5  UNL d   1      -1.011   0.537   2.408  0.00  0.00    -0.004 A 
ATOM      5  C6  UNL d   1      -0.192  -0.519   2.007  0.00  0.00     0.002 A 
ATOM      6  C7  UNL d   1       0.328  -0.547   0.713  0.00  0.00     0.002 A 
ENDROOT
BRANCH   1   7
ATOM      7  C1  UNL d   1       0.635   0.475  -1.575  0.00  0.00     0.055 C 
ATOM      8  C   UNL d   1       0.975   1.885  -2.035  0.00  0.00     0.019 C 
ENDBRANCH   1   7
TORSDOF 1
ENDMDL
