MODEL 1
REMARK minimizedAffinity -0.166259959
REMARK minimizedRMSD -1
REMARK  1 active torsions:
REMARK  status: ('A' for Active; 'I' for Inactive)
REMARK    1  A    between atoms: C1_2  and  C2_3 
ROOT
ATOM      1  C2  UNL d   1       0.323  -1.374  -1.786  0.00  0.00    -0.077 A 
ATOM      2  C3  UNL d   1       0.640  -1.816  -0.494  0.00  0.00     0.002 A 
ATOM      3  C4  UNL d   1       0.557  -0.943   0.592  0.00  0.00     0.002 A 
ATOM      4  C5  UNL d   1       0.152   0.376   0.398  0.00  0.00    -0.004 A 
ATOM      5  C6  UNL d   1      -0.164   0.826  -0.884  0.00  0.00     0.002 A 
ATOM      6  C7  UNL d   1      -0.080  -0.045  -1.970  0.00  0.00     0.002 A 
ENDROOT
BRANCH   1   7
ATOM      7  C1  UNL d   1       0.365  -2.328  -2.951  0.00  0.00     0.055 C 
ATOM      8  C   UNL d   1       0.685  -3.744  -2.496  0.00  0.00     0.019 C 
ENDBRANCH   1   7
TORSDOF 1
ENDMDL
