MODEL 1
REMARK minimizedAffinity -1.8459866
REMARK minimizedRMSD -1
REMARK  1 active torsions:
REMARK  status: ('A' for Active; 'I' for Inactive)
REMARK    1  A    between atoms: C1_2  and  C2_3 
ROOT
ATOM      1  C2  UNL d   1       0.129   0.226  -0.189  0.00  0.00    -0.077 A 
ATOM      2  C3  UNL d   1      -0.349   1.543  -0.221  0.00  0.00     0.002 A 
ATOM      3  C4  UNL d   1      -1.046   2.068   0.869  0.00  0.00     0.002 A 
ATOM      4  C5  UNL d   1      -1.268   1.284   1.999  0.00  0.00    -0.004 A 
ATOM      5  C6  UNL d   1      -0.799  -0.028   2.039  0.00  0.00     0.002 A 
ATOM      6  C7  UNL d   1      -0.103  -0.555   0.950  0.00  0.00     0.002 A 
ENDROOT
BRANCH   1   7
ATOM      7  C1  UNL d   1       0.924  -0.326  -1.344  0.00  0.00     0.055 C 
ATOM      8  C   UNL d   1       1.020  -1.843  -1.275  0.00  0.00     0.019 C 
ENDBRANCH   1   7
TORSDOF 1
ENDMDL
