MODEL 1
REMARK minimizedAffinity -2.9994812
REMARK minimizedRMSD -1
REMARK  1 active torsions:
REMARK  status: ('A' for Active; 'I' for Inactive)
REMARK    1  A    between atoms: C1_2  and  C2_3 
ROOT
ATOM      1  C2  UNL d   1       0.449  -0.507  -0.126  0.00  0.00    -0.077 A 
ATOM      2  C3  UNL d   1       0.135  -1.175   1.066  0.00  0.00     0.002 A 
ATOM      3  C4  UNL d   1      -0.698  -0.575   2.013  0.00  0.00     0.002 A 
ATOM      4  C5  UNL d   1      -1.228   0.691   1.775  0.00  0.00    -0.004 A 
ATOM      5  C6  UNL d   1      -0.920   1.364   0.593  0.00  0.00     0.002 A 
ATOM      6  C7  UNL d   1      -0.087   0.767  -0.354  0.00  0.00     0.002 A 
ENDROOT
BRANCH   1   7
ATOM      7  C1  UNL d   1       1.307  -1.172  -1.170  0.00  0.00     0.055 C 
ATOM      8  C   UNL d   1       0.576  -2.331  -1.833  0.00  0.00     0.019 C 
ENDBRANCH   1   7
TORSDOF 1
ENDMDL
