MODEL 1
REMARK minimizedAffinity 1.79479492
REMARK minimizedRMSD -1
REMARK  1 active torsions:
REMARK  status: ('A' for Active; 'I' for Inactive)
REMARK    1  A    between atoms: C1_2  and  C2_3 
ROOT
ATOM      1  C2  UNL d   1       0.296  -0.014   0.013  0.00  0.00    -0.077 A 
ATOM      2  C3  UNL d   1       1.372   0.203  -0.860  0.00  0.00     0.002 A 
ATOM      3  C4  UNL d   1       1.423   1.358  -1.643  0.00  0.00     0.002 A 
ATOM      4  C5  UNL d   1       0.405   2.305  -1.560  0.00  0.00    -0.004 A 
ATOM      5  C6  UNL d   1      -0.670   2.097  -0.696  0.00  0.00     0.002 A 
ATOM      6  C7  UNL d   1      -0.724   0.943   0.087  0.00  0.00     0.002 A 
ENDROOT
BRANCH   1   7
ATOM      7  C1  UNL d   1       0.264  -1.235   0.895  0.00  0.00     0.055 C 
ATOM      8  C   UNL d   1       1.042  -1.008   2.183  0.00  0.00     0.019 C 
ENDBRANCH   1   7
TORSDOF 1
ENDMDL
