MODEL 1
REMARK minimizedAffinity -3.2390461
REMARK minimizedRMSD -1
REMARK  1 active torsions:
REMARK  status: ('A' for Active; 'I' for Inactive)
REMARK    1  A    between atoms: C1_2  and  C2_3 
ROOT
ATOM      1  C2  UNL d   1      -0.038  -0.385  -0.480  0.00  0.00    -0.077 A 
ATOM      2  C3  UNL d   1      -0.566   0.913  -0.490  0.00  0.00     0.002 A 
ATOM      3  C4  UNL d   1      -1.147   1.449   0.661  0.00  0.00     0.002 A 
ATOM      4  C5  UNL d   1      -1.200   0.695   1.832  0.00  0.00    -0.004 A 
ATOM      5  C6  UNL d   1      -0.679  -0.598   1.851  0.00  0.00     0.002 A 
ATOM      6  C7  UNL d   1      -0.100  -1.136   0.701  0.00  0.00     0.002 A 
ENDROOT
BRANCH   1   7
ATOM      7  C1  UNL d   1       0.633  -0.946  -1.707  0.00  0.00     0.055 C 
ATOM      8  C   UNL d   1       0.608  -2.468  -1.704  0.00  0.00     0.019 C 
ENDBRANCH   1   7
TORSDOF 1
ENDMDL
