MODEL 1
REMARK minimizedAffinity -3.11903453
REMARK minimizedRMSD -1
REMARK  1 active torsions:
REMARK  status: ('A' for Active; 'I' for Inactive)
REMARK    1  A    between atoms: C1_2  and  C2_3 
ROOT
ATOM      1  C2  UNL d   1       1.051  -0.930  -0.683  0.00  0.00    -0.077 A 
ATOM      2  C3  UNL d   1       0.215  -0.787   0.432  0.00  0.00     0.002 A 
ATOM      3  C4  UNL d   1      -0.254   0.474   0.806  0.00  0.00     0.002 A 
ATOM      4  C5  UNL d   1       0.105   1.600   0.068  0.00  0.00    -0.004 A 
ATOM      5  C6  UNL d   1       0.939   1.468  -1.042  0.00  0.00     0.002 A 
ATOM      6  C7  UNL d   1       1.409   0.208  -1.417  0.00  0.00     0.002 A 
ENDROOT
BRANCH   1   7
ATOM      7  C1  UNL d   1       1.518  -2.296  -1.117  0.00  0.00     0.055 C 
ATOM      8  C   UNL d   1       0.779  -2.763  -2.363  0.00  0.00     0.019 C 
ENDBRANCH   1   7
TORSDOF 1
ENDMDL
