MODEL 1
REMARK minimizedAffinity -3.54838848
REMARK minimizedRMSD -1
REMARK  1 active torsions:
REMARK  status: ('A' for Active; 'I' for Inactive)
REMARK    1  A    between atoms: C1_2  and  C2_3 
ROOT
ATOM      1  C2  UNL d   1       0.167  -0.948  -0.125  0.00  0.00    -0.077 A 
ATOM      2  C3  UNL d   1      -0.097  -1.293   1.208  0.00  0.00     0.002 A 
ATOM      3  C4  UNL d   1      -0.676  -0.365   2.076  0.00  0.00     0.002 A 
ATOM      4  C5  UNL d   1      -1.000   0.911   1.620  0.00  0.00    -0.004 A 
ATOM      5  C6  UNL d   1      -0.739   1.264   0.297  0.00  0.00     0.002 A 
ATOM      6  C7  UNL d   1      -0.159   0.339  -0.572  0.00  0.00     0.002 A 
ENDROOT
BRANCH   1   7
ATOM      7  C1  UNL d   1       0.747  -1.963  -1.075  0.00  0.00     0.055 C 
ATOM      8  C   UNL d   1      -0.065  -2.044  -2.360  0.00  0.00     0.019 C 
ENDBRANCH   1   7
TORSDOF 1
ENDMDL
