MODEL 1
REMARK minimizedAffinity -2.73585939
REMARK minimizedRMSD -1
REMARK  1 active torsions:
REMARK  status: ('A' for Active; 'I' for Inactive)
REMARK    1  A    between atoms: C1_2  and  C2_3 
ROOT
ATOM      1  C2  UNL d   1       0.602  -1.282  -1.015  0.00  0.00    -0.077 A 
ATOM      2  C3  UNL d   1      -0.021  -1.161  -2.265  0.00  0.00     0.002 A 
ATOM      3  C4  UNL d   1      -0.128  -2.268  -3.110  0.00  0.00     0.002 A 
ATOM      4  C5  UNL d   1       0.381  -3.502  -2.713  0.00  0.00    -0.004 A 
ATOM      5  C6  UNL d   1       1.005  -3.631  -1.473  0.00  0.00     0.002 A 
ATOM      6  C7  UNL d   1       1.114  -2.527  -0.627  0.00  0.00     0.002 A 
ENDROOT
BRANCH   1   7
ATOM      7  C1  UNL d   1       0.675  -0.102  -0.082  0.00  0.00     0.055 C 
ATOM      8  C   UNL d   1      -0.027  -0.395   1.237  0.00  0.00     0.019 C 
ENDBRANCH   1   7
TORSDOF 1
ENDMDL
