MODEL 1
REMARK minimizedAffinity -5.85225201
REMARK minimizedRMSD -1
REMARK  1 active torsions:
REMARK  status: ('A' for Active; 'I' for Inactive)
REMARK    1  A    between atoms: C1_2  and  C2_3 
ROOT
ATOM      1  C2  UNL d   1      -0.539   1.356   0.520  0.00  0.00    -0.077 A 
ATOM      2  C3  UNL d   1      -0.331   2.474  -0.301  0.00  0.00     0.002 A 
ATOM      3  C4  UNL d   1      -0.996   3.674  -0.042  0.00  0.00     0.002 A 
ATOM      4  C5  UNL d   1      -1.868   3.769   1.040  0.00  0.00    -0.004 A 
ATOM      5  C6  UNL d   1      -2.083   2.663   1.861  0.00  0.00     0.002 A 
ATOM      6  C7  UNL d   1      -1.421   1.462   1.603  0.00  0.00     0.002 A 
ENDROOT
BRANCH   1   7
ATOM      7  C1  UNL d   1       0.214   0.076   0.271  0.00  0.00     0.055 C 
ATOM      8  C   UNL d   1      -0.239  -1.026   1.217  0.00  0.00     0.019 C 
ENDBRANCH   1   7
TORSDOF 1
ENDMDL
