MODEL 1
REMARK minimizedAffinity -1.53868687
REMARK minimizedRMSD -1
REMARK  1 active torsions:
REMARK  status: ('A' for Active; 'I' for Inactive)
REMARK    1  A    between atoms: C1_2  and  C2_3 
ROOT
ATOM      1  C2  UNL d   1       0.351  -1.102  -0.327  0.00  0.00    -0.077 A 
ATOM      2  C3  UNL d   1       0.334   0.199  -0.849  0.00  0.00     0.002 A 
ATOM      3  C4  UNL d   1      -0.204   1.252  -0.106  0.00  0.00     0.002 A 
ATOM      4  C5  UNL d   1      -0.725   1.015   1.165  0.00  0.00    -0.004 A 
ATOM      5  C6  UNL d   1      -0.714  -0.276   1.692  0.00  0.00     0.002 A 
ATOM      6  C7  UNL d   1      -0.178  -1.329   0.950  0.00  0.00     0.002 A 
ENDROOT
BRANCH   1   7
ATOM      7  C1  UNL d   1       0.975  -2.229  -1.106  0.00  0.00     0.055 C 
ATOM      8  C   UNL d   1      -0.074  -3.018  -1.876  0.00  0.00     0.019 C 
ENDBRANCH   1   7
TORSDOF 1
ENDMDL
