MODEL 1
REMARK minimizedAffinity -4.24482679
REMARK minimizedRMSD -1
REMARK  1 active torsions:
REMARK  status: ('A' for Active; 'I' for Inactive)
REMARK    1  A    between atoms: C1_2  and  C2_3 
ROOT
ATOM      1  C2  UNL d   1       0.100  -0.195   0.285  0.00  0.00    -0.077 A 
ATOM      2  C3  UNL d   1       0.067   0.992  -0.459  0.00  0.00     0.002 A 
ATOM      3  C4  UNL d   1      -0.622   2.108   0.021  0.00  0.00     0.002 A 
ATOM      4  C5  UNL d   1      -1.278   2.049   1.248  0.00  0.00    -0.004 A 
ATOM      5  C6  UNL d   1      -1.253   0.872   1.995  0.00  0.00     0.002 A 
ATOM      6  C7  UNL d   1      -0.566  -0.244   1.517  0.00  0.00     0.002 A 
ENDROOT
BRANCH   1   7
ATOM      7  C1  UNL d   1       0.884  -1.383  -0.207  0.00  0.00     0.055 C 
ATOM      8  C   UNL d   1       0.360  -1.873  -1.550  0.00  0.00     0.019 C 
ENDBRANCH   1   7
TORSDOF 1
ENDMDL
