MODEL 1
REMARK minimizedAffinity -3.47631478
REMARK minimizedRMSD -1
REMARK  0 active torsions:
REMARK  status: ('A' for Active; 'I' for Inactive)
ROOT
ATOM      1  C   UNL d   1       3.080   0.343   0.748  0.00  0.00    -0.002 A 
ATOM      2  C1  UNL d   1       2.576  -0.950   0.758  0.00  0.00     0.010 A 
ATOM      3  C2  UNL d   1       1.202  -1.177   0.660  0.00  0.00     0.041 A 
ATOM      4  C3  UNL d   1       0.334  -0.073   0.548  0.00  0.00    -0.075 A 
ATOM      5  S   UNL d   1      -1.384  -0.111   0.414  0.00  0.00     0.015 SA
ATOM      6  C4  UNL d   1      -1.490   1.589   0.340  0.00  0.00     0.022 A 
ATOM      7  C5  UNL d   1      -0.254   2.186   0.415  0.00  0.00     0.026 A 
ATOM      8  C6  UNL d   1       0.818   1.238   0.535  0.00  0.00    -0.082 A 
ATOM      9  C7  UNL d   1       2.216   1.436   0.638  0.00  0.00     0.045 A 
ENDROOT
TORSDOF 0
ENDMDL
