MODEL 1
REMARK minimizedAffinity -3.66970825
REMARK minimizedRMSD -1
REMARK  0 active torsions:
REMARK  status: ('A' for Active; 'I' for Inactive)
ROOT
ATOM      1  C   UNL d   1       2.804  -1.375   0.544  0.00  0.00    -0.002 A 
ATOM      2  C1  UNL d   1       3.199  -0.100   0.923  0.00  0.00     0.010 A 
ATOM      3  C2  UNL d   1       2.286   0.957   0.920  0.00  0.00     0.041 A 
ATOM      4  C3  UNL d   1       0.957   0.708   0.527  0.00  0.00    -0.075 A 
ATOM      5  S   UNL d   1      -0.335   1.847   0.447  0.00  0.00     0.015 SA
ATOM      6  C4  UNL d   1      -1.441   0.668  -0.092  0.00  0.00     0.022 A 
ATOM      7  C5  UNL d   1      -0.856  -0.570  -0.214  0.00  0.00     0.026 A 
ATOM      8  C6  UNL d   1       0.535  -0.568   0.142  0.00  0.00    -0.082 A 
ATOM      9  C7  UNL d   1       1.485  -1.618   0.155  0.00  0.00     0.045 A 
ENDROOT
TORSDOF 0
ENDMDL
