MODEL 1
REMARK minimizedAffinity -2.16971254
REMARK minimizedRMSD -1
REMARK  0 active torsions:
REMARK  status: ('A' for Active; 'I' for Inactive)
ROOT
ATOM      1  C   UNL d   1      -0.970  -1.191  -0.137  0.00  0.00    -0.002 A 
ATOM      2  C1  UNL d   1      -1.193   0.155   0.119  0.00  0.00     0.010 A 
ATOM      3  C2  UNL d   1      -0.134   0.998   0.459  0.00  0.00     0.041 A 
ATOM      4  C3  UNL d   1       1.166   0.463   0.536  0.00  0.00    -0.075 A 
ATOM      5  S   UNL d   1       2.616   1.306   0.934  0.00  0.00     0.015 SA
ATOM      6  C4  UNL d   1       3.567  -0.099   0.772  0.00  0.00     0.022 A 
ATOM      7  C5  UNL d   1       2.813  -1.195   0.424  0.00  0.00     0.026 A 
ATOM      8  C6  UNL d   1       1.417  -0.889   0.282  0.00  0.00    -0.082 A 
ATOM      9  C7  UNL d   1       0.322  -1.719  -0.060  0.00  0.00     0.045 A 
ENDROOT
TORSDOF 0
ENDMDL
