MODEL 1
REMARK minimizedAffinity -0.279030621
REMARK minimizedRMSD -1
REMARK  0 active torsions:
REMARK  status: ('A' for Active; 'I' for Inactive)
ROOT
ATOM      1  C   UNL d   1       1.157   1.967  -0.020  0.00  0.00    -0.002 A 
ATOM      2  C1  UNL d   1       2.298   1.178   0.001  0.00  0.00     0.010 A 
ATOM      3  C2  UNL d   1       2.243  -0.138   0.465  0.00  0.00     0.041 A 
ATOM      4  C3  UNL d   1       1.010  -0.653   0.910  0.00  0.00    -0.075 A 
ATOM      5  S   UNL d   1       0.704  -2.236   1.520  0.00  0.00     0.015 SA
ATOM      6  C4  UNL d   1      -0.949  -1.902   1.766  0.00  0.00     0.022 A 
ATOM      7  C5  UNL d   1      -1.277  -0.619   1.398  0.00  0.00     0.026 A 
ATOM      8  C6  UNL d   1      -0.153   0.122   0.898  0.00  0.00    -0.082 A 
ATOM      9  C7  UNL d   1      -0.065   1.453   0.422  0.00  0.00     0.045 A 
ENDROOT
TORSDOF 0
ENDMDL
