MODEL 1
REMARK minimizedAffinity 0.557554543
REMARK minimizedRMSD -1
REMARK  1 active torsions:
REMARK  status: ('A' for Active; 'I' for Inactive)
REMARK    1  A    between atoms: C1_2  and  C2_3 
ROOT
ATOM      1  C2  UNL d   1      -2.028   0.427   0.105  0.00  0.00    -0.076 A 
ATOM      2  C3  UNL d   1      -3.189  -0.116  -0.473  0.00  0.00     0.004 A 
ATOM      3  C4  UNL d   1      -4.414  -0.056   0.188  0.00  0.00    -0.003 A 
ATOM      4  C5  UNL d   1      -4.499   0.550   1.437  0.00  0.00     0.000 A 
ATOM      5  C6  UNL d   1      -3.362   1.110   2.017  0.00  0.00     0.000 A 
ATOM      6  C7  UNL d   1      -2.121   1.072   1.357  0.00  0.00    -0.073 A 
ATOM      7  C8  UNL d   1      -0.925   1.686   2.031  0.00  0.00     0.078 C 
ENDROOT
BRANCH   1   8
ATOM      8  C1  UNL d   1      -0.721   0.308  -0.647  0.00  0.00     0.053 C 
ATOM      9  C   UNL d   1      -0.346  -1.137  -0.938  0.00  0.00     0.018 C 
ENDBRANCH   1   8
TORSDOF 1
ENDMDL
