MODEL 1
REMARK minimizedAffinity 9.90466309
REMARK minimizedRMSD -1
REMARK  1 active torsions:
REMARK  status: ('A' for Active; 'I' for Inactive)
REMARK    1  A    between atoms: C1_2  and  C2_3 
ROOT
ATOM      1  C2  UNL d   1       1.930  -0.727  -0.328  0.00  0.00    -0.076 A 
ATOM      2  C3  UNL d   1       1.157   0.312  -0.874  0.00  0.00     0.004 A 
ATOM      3  C4  UNL d   1       0.993   1.518  -0.195  0.00  0.00    -0.003 A 
ATOM      4  C5  UNL d   1       1.601   1.705   1.042  0.00  0.00     0.000 A 
ATOM      5  C6  UNL d   1       2.386   0.692   1.591  0.00  0.00     0.000 A 
ATOM      6  C7  UNL d   1       2.574  -0.524   0.912  0.00  0.00    -0.073 A 
ATOM      7  C8  UNL d   1       3.426  -1.585   1.553  0.00  0.00     0.078 C 
ENDROOT
BRANCH   1   8
ATOM      8  C1  UNL d   1       2.049  -2.023  -1.098  0.00  0.00     0.053 C 
ATOM      9  C   UNL d   1       1.117  -3.102  -0.570  0.00  0.00     0.018 C 
ENDBRANCH   1   8
TORSDOF 1
ENDMDL
