MODEL 1
REMARK minimizedAffinity 6.86498737
REMARK minimizedRMSD -1
REMARK  1 active torsions:
REMARK  status: ('A' for Active; 'I' for Inactive)
REMARK    1  A    between atoms: C1_2  and  C2_3 
ROOT
ATOM      1  C2  UNL d   1       2.399  -0.969  -0.150  0.00  0.00    -0.076 A 
ATOM      2  C3  UNL d   1       1.470  -0.086  -0.729  0.00  0.00     0.004 A 
ATOM      3  C4  UNL d   1       1.228   1.168  -0.170  0.00  0.00    -0.003 A 
ATOM      4  C5  UNL d   1       1.911   1.559   0.976  0.00  0.00     0.000 A 
ATOM      5  C6  UNL d   1       2.848   0.704   1.553  0.00  0.00     0.000 A 
ATOM      6  C7  UNL d   1       3.116  -0.557   0.993  0.00  0.00    -0.073 A 
ATOM      7  C8  UNL d   1       4.133  -1.442   1.661  0.00  0.00     0.078 C 
ENDROOT
BRANCH   1   8
ATOM      8  C1  UNL d   1       2.600  -2.326  -0.785  0.00  0.00     0.053 C 
ATOM      9  C   UNL d   1       1.621  -3.365  -0.261  0.00  0.00     0.018 C 
ENDBRANCH   1   8
TORSDOF 1
ENDMDL
