MODEL 1
REMARK minimizedAffinity 2.16350198
REMARK minimizedRMSD -1
REMARK  1 active torsions:
REMARK  status: ('A' for Active; 'I' for Inactive)
REMARK    1  A    between atoms: C1_2  and  C2_3 
ROOT
ATOM      1  C2  UNL d   1       2.724   0.248  -0.551  0.00  0.00    -0.076 A 
ATOM      2  C3  UNL d   1       3.366  -0.978  -0.796  0.00  0.00     0.004 A 
ATOM      3  C4  UNL d   1       2.674  -2.184  -0.694  0.00  0.00    -0.003 A 
ATOM      4  C5  UNL d   1       1.328  -2.183  -0.345  0.00  0.00     0.000 A 
ATOM      5  C6  UNL d   1       0.670  -0.975  -0.116  0.00  0.00     0.000 A 
ATOM      6  C7  UNL d   1       1.349   0.250  -0.230  0.00  0.00    -0.073 A 
ATOM      7  C8  UNL d   1       0.592   1.523   0.034  0.00  0.00     0.078 C 
ENDROOT
BRANCH   1   8
ATOM      8  C1  UNL d   1       3.532   1.522  -0.650  0.00  0.00     0.053 C 
ATOM      9  C   UNL d   1       4.779   1.355  -1.504  0.00  0.00     0.018 C 
ENDBRANCH   1   8
TORSDOF 1
ENDMDL
