MODEL 1
REMARK minimizedAffinity 0.364594728
REMARK minimizedRMSD -1
REMARK  1 active torsions:
REMARK  status: ('A' for Active; 'I' for Inactive)
REMARK    1  A    between atoms: C1_2  and  C2_3 
ROOT
ATOM      1  C2  UNL d   1       0.952   0.746  -0.147  0.00  0.00    -0.076 A 
ATOM      2  C3  UNL d   1       2.268   1.032  -0.549  0.00  0.00     0.004 A 
ATOM      3  C4  UNL d   1       3.103   0.029  -1.039  0.00  0.00    -0.003 A 
ATOM      4  C5  UNL d   1       2.634  -1.277  -1.135  0.00  0.00     0.000 A 
ATOM      5  C6  UNL d   1       1.326  -1.575  -0.757  0.00  0.00     0.000 A 
ATOM      6  C7  UNL d   1       0.466  -0.572  -0.277  0.00  0.00    -0.073 A 
ATOM      7  C8  UNL d   1      -0.934  -0.951   0.122  0.00  0.00     0.078 C 
ENDROOT
BRANCH   1   8
ATOM      8  C1  UNL d   1       0.102   1.870   0.401  0.00  0.00     0.053 C 
ATOM      9  C   UNL d   1       0.414   2.180   1.857  0.00  0.00     0.018 C 
ENDBRANCH   1   8
TORSDOF 1
ENDMDL
