MODEL 1
REMARK minimizedAffinity 12.4014101
REMARK minimizedRMSD -1
REMARK  1 active torsions:
REMARK  status: ('A' for Active; 'I' for Inactive)
REMARK    1  A    between atoms: C1_2  and  C2_3 
ROOT
ATOM      1  C2  UNL d   1      -0.235  -1.893  -1.629  0.00  0.00    -0.076 A 
ATOM      2  C3  UNL d   1      -1.128  -0.809  -1.561  0.00  0.00     0.004 A 
ATOM      3  C4  UNL d   1      -0.796   0.351  -0.864  0.00  0.00    -0.003 A 
ATOM      4  C5  UNL d   1       0.435   0.447  -0.224  0.00  0.00     0.000 A 
ATOM      5  C6  UNL d   1       1.340  -0.611  -0.296  0.00  0.00     0.000 A 
ATOM      6  C7  UNL d   1       1.027  -1.782  -1.009  0.00  0.00    -0.073 A 
ATOM      7  C8  UNL d   1       2.038  -2.895  -1.048  0.00  0.00     0.078 C 
ENDROOT
BRANCH   1   8
ATOM      8  C1  UNL d   1      -0.662  -3.136  -2.377  0.00  0.00     0.053 C 
ATOM      9  C   UNL d   1      -0.970  -2.859  -3.840  0.00  0.00     0.018 C 
ENDBRANCH   1   8
TORSDOF 1
ENDMDL
