MODEL 1
REMARK minimizedAffinity -3.77662539
REMARK minimizedRMSD -1
REMARK  0 active torsions:
REMARK  status: ('A' for Active; 'I' for Inactive)
ROOT
ATOM      1  C   UNL d   1      -1.115   1.174   2.990  0.00  0.00    -0.002 A 
ATOM      2  C1  UNL d   1       0.151   0.772   3.393  0.00  0.00     0.010 A 
ATOM      3  C2  UNL d   1       1.016   0.143   2.495  0.00  0.00     0.041 A 
ATOM      4  C3  UNL d   1       0.585  -0.075   1.172  0.00  0.00    -0.075 A 
ATOM      5  S   UNL d   1       1.473  -0.826  -0.100  0.00  0.00     0.015 SA
ATOM      6  C4  UNL d   1       0.194  -0.630  -1.210  0.00  0.00     0.022 A 
ATOM      7  C5  UNL d   1      -0.892  -0.009  -0.640  0.00  0.00     0.026 A 
ATOM      8  C6  UNL d   1      -0.685   0.321   0.742  0.00  0.00    -0.082 A 
ATOM      9  C7  UNL d   1      -1.539   0.955   1.676  0.00  0.00     0.045 A 
ENDROOT
TORSDOF 0
ENDMDL
