MODEL 1
REMARK minimizedAffinity 0.0354316309
REMARK minimizedRMSD -1
REMARK  0 active torsions:
REMARK  status: ('A' for Active; 'I' for Inactive)
ROOT
ATOM      1  C   UNL d   1      -1.105   1.166   2.606  0.00  0.00    -0.002 A 
ATOM      2  C1  UNL d   1       0.270   1.139   2.794  0.00  0.00     0.010 A 
ATOM      3  C2  UNL d   1       1.114   0.651   1.795  0.00  0.00     0.041 A 
ATOM      4  C3  UNL d   1       0.549   0.187   0.592  0.00  0.00    -0.075 A 
ATOM      5  S   UNL d   1       1.387  -0.454  -0.772  0.00  0.00     0.015 SA
ATOM      6  C4  UNL d   1      -0.060  -0.707  -1.637  0.00  0.00     0.022 A 
ATOM      7  C5  UNL d   1      -1.165  -0.318  -0.917  0.00  0.00     0.026 A 
ATOM      8  C6  UNL d   1      -0.833   0.204   0.378  0.00  0.00    -0.082 A 
ATOM      9  C7  UNL d   1      -1.662   0.704   1.411  0.00  0.00     0.045 A 
ENDROOT
TORSDOF 0
ENDMDL
