MODEL 1
REMARK minimizedAffinity -2.25821471
REMARK minimizedRMSD -1
REMARK  0 active torsions:
REMARK  status: ('A' for Active; 'I' for Inactive)
ROOT
ATOM      1  C   UNL d   1      -0.989   0.725   3.453  0.00  0.00    -0.002 A 
ATOM      2  C1  UNL d   1       0.376   0.471   3.425  0.00  0.00     0.010 A 
ATOM      3  C2  UNL d   1       1.017   0.170   2.222  0.00  0.00     0.041 A 
ATOM      4  C3  UNL d   1       0.258   0.129   1.036  0.00  0.00    -0.075 A 
ATOM      5  S   UNL d   1       0.830  -0.217  -0.553  0.00  0.00     0.015 SA
ATOM      6  C4  UNL d   1      -0.722  -0.036  -1.232  0.00  0.00     0.022 A 
ATOM      7  C5  UNL d   1      -1.666   0.281  -0.284  0.00  0.00     0.026 A 
ATOM      8  C6  UNL d   1      -1.116   0.382   1.039  0.00  0.00    -0.082 A 
ATOM      9  C7  UNL d   1      -1.738   0.683   2.274  0.00  0.00     0.045 A 
ENDROOT
TORSDOF 0
ENDMDL
