MODEL 1
REMARK minimizedAffinity -3.64753914
REMARK minimizedRMSD -1
REMARK  0 active torsions:
REMARK  status: ('A' for Active; 'I' for Inactive)
ROOT
ATOM      1  C   UNL d   1      -0.174   0.868   3.401  0.00  0.00    -0.002 A 
ATOM      2  C1  UNL d   1       1.075   0.333   3.119  0.00  0.00     0.010 A 
ATOM      3  C2  UNL d   1       1.348  -0.207   1.861  0.00  0.00     0.041 A 
ATOM      4  C3  UNL d   1       0.336  -0.199   0.881  0.00  0.00    -0.075 A 
ATOM      5  S   UNL d   1       0.443  -0.805  -0.729  0.00  0.00     0.015 SA
ATOM      6  C4  UNL d   1      -1.166  -0.367  -1.081  0.00  0.00     0.022 A 
ATOM      7  C5  UNL d   1      -1.785   0.228  -0.007  0.00  0.00     0.026 A 
ATOM      8  C6  UNL d   1      -0.929   0.335   1.142  0.00  0.00    -0.082 A 
ATOM      9  C7  UNL d   1      -1.176   0.875   2.427  0.00  0.00     0.045 A 
ENDROOT
TORSDOF 0
ENDMDL
