MODEL 1
REMARK minimizedAffinity -3.38105083
REMARK minimizedRMSD -1
REMARK  0 active torsions:
REMARK  status: ('A' for Active; 'I' for Inactive)
ROOT
ATOM      1  C   UNL d   1      -0.215   1.066   3.488  0.00  0.00    -0.002 A 
ATOM      2  C1  UNL d   1       1.119   0.764   3.252  0.00  0.00     0.010 A 
ATOM      3  C2  UNL d   1       1.515   0.200   2.038  0.00  0.00     0.041 A 
ATOM      4  C3  UNL d   1       0.540  -0.056   1.054  0.00  0.00    -0.075 A 
ATOM      5  S   UNL d   1       0.794  -0.740  -0.508  0.00  0.00     0.015 SA
ATOM      6  C4  UNL d   1      -0.862  -0.647  -0.900  0.00  0.00     0.022 A 
ATOM      7  C5  UNL d   1      -1.605  -0.109   0.125  0.00  0.00     0.026 A 
ATOM      8  C6  UNL d   1      -0.809   0.241   1.268  0.00  0.00    -0.082 A 
ATOM      9  C7  UNL d   1      -1.180   0.811   2.509  0.00  0.00     0.045 A 
ENDROOT
TORSDOF 0
ENDMDL
