MODEL 1
REMARK minimizedAffinity -6.07323742
REMARK minimizedRMSD -1
REMARK  0 active torsions:
REMARK  status: ('A' for Active; 'I' for Inactive)
ROOT
ATOM      1  C   UNL d   1       0.579   0.608   3.982  0.00  0.00    -0.002 A 
ATOM      2  C1  UNL d   1       1.570  -0.043   3.260  0.00  0.00     0.010 A 
ATOM      3  C2  UNL d   1       1.397  -0.311   1.901  0.00  0.00     0.041 A 
ATOM      4  C3  UNL d   1       0.202   0.092   1.273  0.00  0.00    -0.075 A 
ATOM      5  S   UNL d   1      -0.228  -0.129  -0.382  0.00  0.00     0.015 SA
ATOM      6  C4  UNL d   1      -1.736   0.636  -0.170  0.00  0.00     0.022 A 
ATOM      7  C5  UNL d   1      -1.923   1.056   1.126  0.00  0.00     0.026 A 
ATOM      8  C6  UNL d   1      -0.809   0.750   1.978  0.00  0.00    -0.082 A 
ATOM      9  C7  UNL d   1      -0.605   1.006   3.356  0.00  0.00     0.045 A 
ENDROOT
TORSDOF 0
ENDMDL
