MODEL 1
REMARK minimizedAffinity -5.53045034
REMARK minimizedRMSD -1
REMARK  0 active torsions:
REMARK  status: ('A' for Active; 'I' for Inactive)
ROOT
ATOM      1  C   UNL d   1       0.809   0.498   4.086  0.00  0.00    -0.002 A 
ATOM      2  C1  UNL d   1       1.752  -0.182   3.329  0.00  0.00     0.010 A 
ATOM      3  C2  UNL d   1       1.548  -0.396   1.964  0.00  0.00     0.041 A 
ATOM      4  C3  UNL d   1       0.368   0.091   1.367  0.00  0.00    -0.075 A 
ATOM      5  S   UNL d   1      -0.095  -0.053  -0.287  0.00  0.00     0.015 SA
ATOM      6  C4  UNL d   1      -1.556   0.786  -0.028  0.00  0.00     0.022 A 
ATOM      7  C5  UNL d   1      -1.703   1.173   1.283  0.00  0.00     0.026 A 
ATOM      8  C6  UNL d   1      -0.596   0.779   2.109  0.00  0.00    -0.082 A 
ATOM      9  C7  UNL d   1      -0.360   0.979   3.490  0.00  0.00     0.045 A 
ENDROOT
TORSDOF 0
ENDMDL
