MODEL 1
REMARK minimizedAffinity -1.85379291
REMARK minimizedRMSD -1
REMARK  0 active torsions:
REMARK  status: ('A' for Active; 'I' for Inactive)
ROOT
ATOM      1  C   UNL d   1       3.996   5.999   6.000  0.00  0.00     0.077 C 
ATOM      2  C1  UNL d   1       2.968   5.379   5.101  0.00  0.00    -0.074 A 
ATOM      3  C2  UNL d   1       1.658   5.867   5.062  0.00  0.00    -0.005 A 
ATOM      4  C3  UNL d   1       0.716   5.285   4.214  0.00  0.00     0.006 A 
ATOM      5  C4  UNL d   1       1.073   4.212   3.397  0.00  0.00    -0.005 A 
ATOM      6  C5  UNL d   1       2.379   3.711   3.422  0.00  0.00    -0.074 A 
ATOM      7  C6  UNL d   1       2.782   2.564   2.544  0.00  0.00     0.077 C 
ATOM      8  C7  UNL d   1       3.322   4.305   4.272  0.00  0.00    -0.001 A 
ENDROOT
TORSDOF 0
ENDMDL
