MODEL 1
REMARK minimizedAffinity -1.20181096
REMARK minimizedRMSD -1
REMARK  0 active torsions:
REMARK  status: ('A' for Active; 'I' for Inactive)
ROOT
ATOM      1  C   UNL d   1       4.440   1.804  -5.999  0.00  0.00     0.077 C 
ATOM      2  C1  UNL d   1       4.047   3.252  -5.991  0.00  0.00    -0.074 A 
ATOM      3  C2  UNL d   1       5.017   4.260  -5.997  0.00  0.00    -0.005 A 
ATOM      4  C3  UNL d   1       4.636   5.601  -6.000  0.00  0.00     0.006 A 
ATOM      5  C4  UNL d   1       3.285   5.948  -5.996  0.00  0.00    -0.005 A 
ATOM      6  C5  UNL d   1       2.301   4.954  -5.991  0.00  0.00    -0.074 A 
ATOM      7  C6  UNL d   1       0.844   5.310  -5.997  0.00  0.00     0.077 C 
ATOM      8  C7  UNL d   1       2.692   3.608  -5.996  0.00  0.00    -0.001 A 
ENDROOT
TORSDOF 0
ENDMDL
