MODEL 1
REMARK minimizedAffinity -1.80969787
REMARK minimizedRMSD -1
REMARK  0 active torsions:
REMARK  status: ('A' for Active; 'I' for Inactive)
ROOT
ATOM      1  C   UNL d   1       3.733   3.178   2.000  0.00  0.00     0.077 C 
ATOM      2  C1  UNL d   1       3.309   4.167   3.046  0.00  0.00    -0.074 A 
ATOM      3  C2  UNL d   1       1.994   4.640   3.097  0.00  0.00    -0.005 A 
ATOM      4  C3  UNL d   1       1.612   5.552   4.081  0.00  0.00     0.006 A 
ATOM      5  C4  UNL d   1       2.540   5.999   5.023  0.00  0.00    -0.005 A 
ATOM      6  C5  UNL d   1       3.859   5.536   4.988  0.00  0.00    -0.074 A 
ATOM      7  C6  UNL d   1       4.866   5.998   5.999  0.00  0.00     0.077 C 
ATOM      8  C7  UNL d   1       4.233   4.614   4.000  0.00  0.00    -0.001 A 
ENDROOT
TORSDOF 0
ENDMDL
