MODEL 1
REMARK minimizedAffinity 1.99931002
REMARK minimizedRMSD -1
REMARK  0 active torsions:
REMARK  status: ('A' for Active; 'I' for Inactive)
ROOT
ATOM      1  C   UNL d   1       2.990   2.858   2.657  0.00  0.00     0.077 C 
ATOM      2  C1  UNL d   1       2.611   3.949   3.614  0.00  0.00    -0.074 A 
ATOM      3  C2  UNL d   1       3.551   4.487   4.499  0.00  0.00    -0.005 A 
ATOM      4  C3  UNL d   1       3.186   5.508   5.377  0.00  0.00     0.006 A 
ATOM      5  C4  UNL d   1       1.880   6.000   5.378  0.00  0.00    -0.005 A 
ATOM      6  C5  UNL d   1       0.927   5.475   4.499  0.00  0.00    -0.074 A 
ATOM      7  C6  UNL d   1      -0.478   5.999   4.480  0.00  0.00     0.077 C 
ATOM      8  C7  UNL d   1       1.303   4.454   3.616  0.00  0.00    -0.001 A 
ENDROOT
TORSDOF 0
ENDMDL
