MODEL 1
REMARK minimizedAffinity 0.150200784
REMARK minimizedRMSD -1
REMARK  0 active torsions:
REMARK  status: ('A' for Active; 'I' for Inactive)
ROOT
ATOM      1  C   UNL d   1       4.112   6.000   5.996  0.00  0.00     0.077 C 
ATOM      2  C1  UNL d   1       3.050   5.442   5.096  0.00  0.00    -0.074 A 
ATOM      3  C2  UNL d   1       1.768   5.999   5.067  0.00  0.00    -0.005 A 
ATOM      4  C3  UNL d   1       0.793   5.475   4.217  0.00  0.00     0.006 A 
ATOM      5  C4  UNL d   1       1.091   4.392   3.389  0.00  0.00    -0.005 A 
ATOM      6  C5  UNL d   1       2.368   3.823   3.404  0.00  0.00    -0.074 A 
ATOM      7  C6  UNL d   1       2.708   2.665   2.514  0.00  0.00     0.077 C 
ATOM      8  C7  UNL d   1       3.344   4.359   4.256  0.00  0.00    -0.001 A 
ENDROOT
TORSDOF 0
ENDMDL
