MODEL 1
REMARK minimizedAffinity 6.9946928
REMARK minimizedRMSD -1
REMARK  0 active torsions:
REMARK  status: ('A' for Active; 'I' for Inactive)
ROOT
ATOM      1  O1  BZF d   1       0.967  -3.952   1.302  0.00  0.00    -0.204 OA
ATOM      2  C2  BZF d   1       2.152  -3.470   0.782  0.00  0.00     0.174 A 
ATOM      3  C3  BZF d   1       2.333  -2.177   1.121  0.00  0.00    -0.012 A 
ATOM      4  C3A BZF d   1       1.235  -1.857   1.980  0.00  0.00    -0.107 A 
ATOM      5  C4  BZF d   1       0.867  -0.726   2.653  0.00  0.00     0.055 A 
ATOM      6  C5  BZF d   1      -0.301  -0.720   3.346  0.00  0.00    -0.016 A 
ATOM      7  C6  BZF d   1      -1.128  -1.824   3.385  0.00  0.00     0.022 A 
ATOM      8  C7  BZF d   1      -0.804  -2.970   2.738  0.00  0.00     0.029 A 
ATOM      9  C7A BZF d   1       0.393  -2.990   2.063  0.00  0.00     0.058 A 
ENDROOT
TORSDOF 0
ENDMDL
