MODEL 1
REMARK minimizedAffinity 13.4434643
REMARK minimizedRMSD -1
REMARK  0 active torsions:
REMARK  status: ('A' for Active; 'I' for Inactive)
ROOT
ATOM      1  O1  BZF d   1       1.292  -4.298  -1.344  0.00  0.00    -0.204 OA
ATOM      2  C2  BZF d   1       2.465  -4.905  -0.938  0.00  0.00     0.174 A 
ATOM      3  C3  BZF d   1       3.191  -4.073  -0.163  0.00  0.00    -0.012 A 
ATOM      4  C3A BZF d   1       2.381  -2.905  -0.004  0.00  0.00    -0.107 A 
ATOM      5  C4  BZF d   1       2.550  -1.731   0.673  0.00  0.00     0.055 A 
ATOM      6  C5  BZF d   1       1.600  -0.764   0.566  0.00  0.00    -0.016 A 
ATOM      7  C6  BZF d   1       0.474  -0.935  -0.213  0.00  0.00     0.022 A 
ATOM      8  C7  BZF d   1       0.261  -2.085  -0.899  0.00  0.00     0.029 A 
ATOM      9  C7A BZF d   1       1.202  -3.076  -0.766  0.00  0.00     0.058 A 
ENDROOT
TORSDOF 0
ENDMDL
