MODEL 1
REMARK minimizedAffinity 5.65864849
REMARK minimizedRMSD -1
REMARK  0 active torsions:
REMARK  status: ('A' for Active; 'I' for Inactive)
ROOT
ATOM      1  O1  BZF d   1       1.952  -4.734   0.527  0.00  0.00    -0.204 OA
ATOM      2  C2  BZF d   1       1.677  -3.427   0.880  0.00  0.00     0.174 A 
ATOM      3  C3  BZF d   1       2.817  -2.732   1.068  0.00  0.00    -0.012 A 
ATOM      4  C3A BZF d   1       3.870  -3.638   0.726  0.00  0.00    -0.107 A 
ATOM      5  C4  BZF d   1       5.231  -3.526   0.695  0.00  0.00     0.055 A 
ATOM      6  C5  BZF d   1       5.977  -4.620   0.387  0.00  0.00    -0.016 A 
ATOM      7  C6  BZF d   1       5.395  -5.840   0.109  0.00  0.00     0.022 A 
ATOM      8  C7  BZF d   1       4.049  -5.998   0.122  0.00  0.00     0.029 A 
ATOM      9  C7A BZF d   1       3.292  -4.886   0.401  0.00  0.00     0.058 A 
ENDROOT
TORSDOF 0
ENDMDL
