MODEL 1
REMARK minimizedAffinity 16.2154789
REMARK minimizedRMSD -1
REMARK  0 active torsions:
REMARK  status: ('A' for Active; 'I' for Inactive)
ROOT
ATOM      1  O1  BZF d   1       0.894  -0.074  -4.104  0.00  0.00    -0.204 OA
ATOM      2  C2  BZF d   1       1.515   0.982  -4.743  0.00  0.00     0.174 A 
ATOM      3  C3  BZF d   1       0.846   2.133  -4.525  0.00  0.00    -0.012 A 
ATOM      4  C3A BZF d   1      -0.210   1.789  -3.623  0.00  0.00    -0.107 A 
ATOM      5  C4  BZF d   1      -1.204   2.508  -3.023  0.00  0.00     0.055 A 
ATOM      6  C5  BZF d   1      -2.117   1.859  -2.254  0.00  0.00    -0.016 A 
ATOM      7  C6  BZF d   1      -2.069   0.494  -2.067  0.00  0.00     0.022 A 
ATOM      8  C7  BZF d   1      -1.099  -0.262  -2.637  0.00  0.00     0.029 A 
ATOM      9  C7A BZF d   1      -0.155   0.396  -3.388  0.00  0.00     0.058 A 
ENDROOT
TORSDOF 0
ENDMDL
