MODEL 1
REMARK minimizedAffinity 11.7249784
REMARK minimizedRMSD -1
REMARK  0 active torsions:
REMARK  status: ('A' for Active; 'I' for Inactive)
ROOT
ATOM      1  O1  BZF d   1      -3.094   1.141   3.925  0.00  0.00    -0.204 OA
ATOM      2  C2  BZF d   1      -4.250   1.509   3.264  0.00  0.00     0.174 A 
ATOM      3  C3  BZF d   1      -4.447   0.733   2.178  0.00  0.00    -0.012 A 
ATOM      4  C3A BZF d   1      -3.395  -0.236   2.212  0.00  0.00    -0.107 A 
ATOM      5  C4  BZF d   1      -3.062  -1.289   1.408  0.00  0.00     0.055 A 
ATOM      6  C5  BZF d   1      -1.931  -1.993   1.677  0.00  0.00    -0.016 A 
ATOM      7  C6  BZF d   1      -1.109  -1.669   2.736  0.00  0.00     0.022 A 
ATOM      8  C7  BZF d   1      -1.400  -0.636   3.564  0.00  0.00     0.029 A 
ATOM      9  C7A BZF d   1      -2.559   0.057   3.315  0.00  0.00     0.058 A 
ENDROOT
TORSDOF 0
ENDMDL
