MODEL 1
REMARK minimizedAffinity 15.0663633
REMARK minimizedRMSD -1
REMARK  0 active torsions:
REMARK  status: ('A' for Active; 'I' for Inactive)
ROOT
ATOM      1  O1  BZF d   1       5.793   0.565   0.311  0.00  0.00    -0.204 OA
ATOM      2  C2  BZF d   1       5.689  -0.749   0.727  0.00  0.00     0.174 A 
ATOM      3  C3  BZF d   1       5.633  -1.582  -0.332  0.00  0.00    -0.012 A 
ATOM      4  C3A BZF d   1       5.799  -0.744  -1.480  0.00  0.00    -0.107 A 
ATOM      5  C4  BZF d   1       5.848  -0.990  -2.822  0.00  0.00     0.055 A 
ATOM      6  C5  BZF d   1       5.947   0.057  -3.682  0.00  0.00    -0.016 A 
ATOM      7  C6  BZF d   1       5.993   1.362  -3.236  0.00  0.00     0.022 A 
ATOM      8  C7  BZF d   1       5.953   1.655  -1.913  0.00  0.00     0.029 A 
ATOM      9  C7A BZF d   1       5.886   0.597  -1.040  0.00  0.00     0.058 A 
ENDROOT
TORSDOF 0
ENDMDL
