MODEL 1
REMARK minimizedAffinity 12.0162849
REMARK minimizedRMSD -1
REMARK  0 active torsions:
REMARK  status: ('A' for Active; 'I' for Inactive)
ROOT
ATOM      1  O1  BZF d   1       1.501  -3.204  -0.350  0.00  0.00    -0.204 OA
ATOM      2  C2  BZF d   1       2.872  -3.370  -0.361  0.00  0.00     0.174 A 
ATOM      3  C3  BZF d   1       3.453  -2.625   0.601  0.00  0.00    -0.012 A 
ATOM      4  C3A BZF d   1       2.369  -2.023   1.316  0.00  0.00    -0.107 A 
ATOM      5  C4  BZF d   1       2.305  -1.185   2.392  0.00  0.00     0.055 A 
ATOM      6  C5  BZF d   1       1.094  -0.721   2.797  0.00  0.00    -0.016 A 
ATOM      7  C6  BZF d   1      -0.072  -1.070   2.147  0.00  0.00     0.022 A 
ATOM      8  C7  BZF d   1      -0.059  -1.903   1.077  0.00  0.00     0.029 A 
ATOM      9  C7A BZF d   1       1.161  -2.399   0.686  0.00  0.00     0.058 A 
ENDROOT
TORSDOF 0
ENDMDL
