MODEL 1
REMARK minimizedAffinity 12.3351154
REMARK minimizedRMSD -1
REMARK  0 active torsions:
REMARK  status: ('A' for Active; 'I' for Inactive)
ROOT
ATOM      1  O1  BZF d   1       1.194  -4.266   0.162  0.00  0.00    -0.204 OA
ATOM      2  C2  BZF d   1       2.439  -3.833  -0.251  0.00  0.00     0.174 A 
ATOM      3  C3  BZF d   1       2.635  -2.543   0.092  0.00  0.00    -0.012 A 
ATOM      4  C3A BZF d   1       1.475  -2.173   0.842  0.00  0.00    -0.107 A 
ATOM      5  C4  BZF d   1       1.089  -1.021   1.467  0.00  0.00     0.055 A 
ATOM      6  C5  BZF d   1      -0.138  -0.965   2.049  0.00  0.00    -0.016 A 
ATOM      7  C6  BZF d   1      -1.004  -2.038   2.022  0.00  0.00     0.022 A 
ATOM      8  C7  BZF d   1      -0.664  -3.203   1.419  0.00  0.00     0.029 A 
ATOM      9  C7A BZF d   1       0.588  -3.274   0.858  0.00  0.00     0.058 A 
ENDROOT
TORSDOF 0
ENDMDL
