MODEL 1
REMARK minimizedAffinity -5.0774436
REMARK minimizedRMSD -1
REMARK  2 active torsions:
REMARK  status: ('A' for Active; 'I' for Inactive)
REMARK    1  A    between atoms: C2'_3  and  C1'_4 
REMARK    2  A    between atoms: C1'_4  and  C1_5 
ROOT
ATOM      1  C1  I4B d   1      -0.906  -0.795   0.298  0.00  0.00    -0.075 A 
ATOM      2  C2  I4B d   1      -2.103  -0.752  -0.373  0.00  0.00     0.003 A 
ATOM      3  C3  I4B d   1      -3.149  -1.639  -0.021  0.00  0.00     0.002 A 
ATOM      4  C4  I4B d   1      -2.939  -2.580   0.966  0.00  0.00    -0.004 A 
ATOM      5  C5  I4B d   1      -1.733  -2.606   1.661  0.00  0.00     0.002 A 
ATOM      6  C6  I4B d   1      -0.714  -1.700   1.333  0.00  0.00     0.003 A 
ENDROOT
BRANCH   1   7
ATOM      7  C1' I4B d   1       0.189   0.134  -0.122  0.00  0.00     0.060 C 
BRANCH   7   8
ATOM      8  C2' I4B d   1       1.298   0.044   0.907  0.00  0.00    -0.013 C 
ATOM      9  C4' I4B d   1       2.010  -1.280   0.826  0.00  0.00     0.013 C 
ATOM     10  C3' I4B d   1       2.243   1.183   0.669  0.00  0.00     0.013 C 
ENDBRANCH   7   8
ENDBRANCH   1   7
TORSDOF 2
ENDMDL
