MODEL 1
REMARK minimizedAffinity -6.36268711
REMARK minimizedRMSD -1
REMARK  2 active torsions:
REMARK  status: ('A' for Active; 'I' for Inactive)
REMARK    1  A    between atoms: C2'_3  and  C1'_4 
REMARK    2  A    between atoms: C1'_4  and  C1_5 
ROOT
ATOM      1  C1  I4B d   1      -1.289  -0.638  -0.027  0.00  0.00    -0.075 A 
ATOM      2  C2  I4B d   1      -2.128  -0.248  -1.041  0.00  0.00     0.003 A 
ATOM      3  C3  I4B d   1      -1.607   0.395  -2.189  0.00  0.00     0.002 A 
ATOM      4  C4  I4B d   1      -0.257   0.673  -2.259  0.00  0.00    -0.004 A 
ATOM      5  C5  I4B d   1       0.595   0.257  -1.240  0.00  0.00     0.002 A 
ATOM      6  C6  I4B d   1       0.078  -0.414  -0.123  0.00  0.00     0.003 A 
ENDROOT
BRANCH   1   7
ATOM      7  C1' I4B d   1      -1.878  -1.286   1.186  0.00  0.00     0.060 C 
BRANCH   7   8
ATOM      8  C2' I4B d   1      -2.315  -2.685   0.803  0.00  0.00    -0.013 C 
ATOM      9  C4' I4B d   1      -1.497  -3.727   1.519  0.00  0.00     0.013 C 
ATOM     10  C3' I4B d   1      -3.772  -2.821   1.130  0.00  0.00     0.013 C 
ENDBRANCH   7   8
ENDBRANCH   1   7
TORSDOF 2
ENDMDL
