MODEL 1
REMARK minimizedAffinity -4.03714085
REMARK minimizedRMSD -1
REMARK  2 active torsions:
REMARK  status: ('A' for Active; 'I' for Inactive)
REMARK    1  A    between atoms: C2'_3  and  C1'_4 
REMARK    2  A    between atoms: C1'_4  and  C1_5 
ROOT
ATOM      1  C1  I4B d   1      -0.267   0.283   0.149  0.00  0.00    -0.075 A 
ATOM      2  C2  I4B d   1      -1.171   0.116   1.168  0.00  0.00     0.003 A 
ATOM      3  C3  I4B d   1      -2.536  -0.129   0.878  0.00  0.00     0.002 A 
ATOM      4  C4  I4B d   1      -2.958  -0.148  -0.436  0.00  0.00    -0.004 A 
ATOM      5  C5  I4B d   1      -2.036  -0.002  -1.468  0.00  0.00     0.002 A 
ATOM      6  C6  I4B d   1      -0.680   0.203  -1.175  0.00  0.00     0.003 A 
ENDROOT
BRANCH   1   7
ATOM      7  C1' I4B d   1       1.160   0.572   0.492  0.00  0.00     0.060 C 
BRANCH   7   8
ATOM      8  C2' I4B d   1       1.213   1.932   1.158  0.00  0.00    -0.013 C 
ATOM      9  C4' I4B d   1       1.485   1.807   2.634  0.00  0.00     0.013 C 
ATOM     10  C3' I4B d   1       2.278   2.739   0.478  0.00  0.00     0.013 C 
ENDBRANCH   7   8
ENDBRANCH   1   7
TORSDOF 2
ENDMDL
