MODEL 1
REMARK minimizedAffinity -5.9901638
REMARK minimizedRMSD -1
REMARK  2 active torsions:
REMARK  status: ('A' for Active; 'I' for Inactive)
REMARK    1  A    between atoms: C2'_3  and  C1'_4 
REMARK    2  A    between atoms: C1'_4  and  C1_5 
ROOT
ATOM      1  C1  I4B d   1       0.045  -0.172   0.161  0.00  0.00    -0.075 A 
ATOM      2  C2  I4B d   1      -0.774  -0.549   1.197  0.00  0.00     0.003 A 
ATOM      3  C3  I4B d   1      -2.165  -0.706   0.985  0.00  0.00     0.002 A 
ATOM      4  C4  I4B d   1      -2.699  -0.429  -0.257  0.00  0.00    -0.004 A 
ATOM      5  C5  I4B d   1      -1.864  -0.070  -1.312  0.00  0.00     0.002 A 
ATOM      6  C6  I4B d   1      -0.482   0.048  -1.105  0.00  0.00     0.003 A 
ENDROOT
BRANCH   1   7
ATOM      7  C1' I4B d   1       1.504   0.017   0.428  0.00  0.00     0.060 C 
BRANCH   7   8
ATOM      8  C2' I4B d   1       1.887   1.409  -0.031  0.00  0.00    -0.013 C 
ATOM      9  C4' I4B d   1       1.591   2.434   1.031  0.00  0.00     0.013 C 
ATOM     10  C3' I4B d   1       3.345   1.397  -0.381  0.00  0.00     0.013 C 
ENDBRANCH   7   8
ENDBRANCH   1   7
TORSDOF 2
ENDMDL
