MODEL 1
REMARK minimizedAffinity -2.75946593
REMARK minimizedRMSD -1
REMARK  2 active torsions:
REMARK  status: ('A' for Active; 'I' for Inactive)
REMARK    1  A    between atoms: C2'_3  and  C1'_4 
REMARK    2  A    between atoms: C1'_4  and  C1_5 
ROOT
ATOM      1  C1  I4B d   1      -0.150   0.335   0.230  0.00  0.00    -0.075 A 
ATOM      2  C2  I4B d   1      -0.477  -0.100  -1.030  0.00  0.00     0.003 A 
ATOM      3  C3  I4B d   1      -1.759  -0.644  -1.285  0.00  0.00     0.002 A 
ATOM      4  C4  I4B d   1      -2.659  -0.780  -0.248  0.00  0.00    -0.004 A 
ATOM      5  C5  I4B d   1      -2.334  -0.317   1.024  0.00  0.00     0.002 A 
ATOM      6  C6  I4B d   1      -1.076   0.255   1.262  0.00  0.00     0.003 A 
ENDROOT
BRANCH   1   7
ATOM      7  C1' I4B d   1       1.224   0.874   0.473  0.00  0.00     0.060 C 
BRANCH   7   8
ATOM      8  C2' I4B d   1       1.087   2.186   1.219  0.00  0.00    -0.013 C 
ATOM      9  C4' I4B d   1       1.821   2.145   2.533  0.00  0.00     0.013 C 
ATOM     10  C3' I4B d   1       1.614   3.278   0.337  0.00  0.00     0.013 C 
ENDBRANCH   7   8
ENDBRANCH   1   7
TORSDOF 2
ENDMDL
