MODEL 1
REMARK minimizedAffinity -5.21724415
REMARK minimizedRMSD -1
REMARK  2 active torsions:
REMARK  status: ('A' for Active; 'I' for Inactive)
REMARK    1  A    between atoms: C2'_3  and  C1'_4 
REMARK    2  A    between atoms: C1'_4  and  C1_5 
ROOT
ATOM      1  C1  I4B d   1      -0.177  -0.129   0.004  0.00  0.00    -0.075 A 
ATOM      2  C2  I4B d   1      -1.010  -0.681   0.944  0.00  0.00     0.003 A 
ATOM      3  C3  I4B d   1      -2.396  -0.810   0.681  0.00  0.00     0.002 A 
ATOM      4  C4  I4B d   1      -2.909  -0.330  -0.507  0.00  0.00    -0.004 A 
ATOM      5  C5  I4B d   1      -2.059   0.209  -1.468  0.00  0.00     0.002 A 
ATOM      6  C6  I4B d   1      -0.682   0.299  -1.217  0.00  0.00     0.003 A 
ENDROOT
BRANCH   1   7
ATOM      7  C1' I4B d   1       1.276   0.021   0.328  0.00  0.00     0.060 C 
BRANCH   7   8
ATOM      8  C2' I4B d   1       1.585   1.502   0.410  0.00  0.00    -0.013 C 
ATOM      9  C4' I4B d   1       1.522   1.994   1.832  0.00  0.00     0.013 C 
ATOM     10  C3' I4B d   1       2.946   1.724  -0.181  0.00  0.00     0.013 C 
ENDBRANCH   7   8
ENDBRANCH   1   7
TORSDOF 2
ENDMDL
