MODEL 1
REMARK minimizedAffinity -4.80536222
REMARK minimizedRMSD -1
REMARK  2 active torsions:
REMARK  status: ('A' for Active; 'I' for Inactive)
REMARK    1  A    between atoms: C2'_3  and  C1'_4 
REMARK    2  A    between atoms: C1'_4  and  C1_5 
ROOT
ATOM      1  C1  I4B d   1       3.468   3.763  -1.427  0.00  0.00    -0.075 A 
ATOM      2  C2  I4B d   1       3.367   4.435  -0.234  0.00  0.00     0.003 A 
ATOM      3  C3  I4B d   1       2.805   3.796   0.898  0.00  0.00     0.002 A 
ATOM      4  C4  I4B d   1       2.315   2.511   0.780  0.00  0.00    -0.004 A 
ATOM      5  C5  I4B d   1       2.439   1.824  -0.423  0.00  0.00     0.002 A 
ATOM      6  C6  I4B d   1       3.030   2.449  -1.531  0.00  0.00     0.003 A 
ENDROOT
BRANCH   1   7
ATOM      7  C1' I4B d   1       4.035   4.479  -2.611  0.00  0.00     0.060 C 
BRANCH   7   8
ATOM      8  C2' I4B d   1       4.655   3.444  -3.529  0.00  0.00    -0.013 C 
ATOM      9  C4' I4B d   1       4.772   3.965  -4.937  0.00  0.00     0.013 C 
ATOM     10  C3' I4B d   1       5.998   3.077  -2.973  0.00  0.00     0.013 C 
ENDBRANCH   7   8
ENDBRANCH   1   7
TORSDOF 2
ENDMDL
