MODEL 1
REMARK minimizedAffinity -3.41474915
REMARK minimizedRMSD -1
REMARK  2 active torsions:
REMARK  status: ('A' for Active; 'I' for Inactive)
REMARK    1  A    between atoms: C2'_3  and  C1'_4 
REMARK    2  A    between atoms: C1'_4  and  C1_5 
ROOT
ATOM      1  C1  I4B d   1       1.930   1.545  -0.465  0.00  0.00    -0.075 A 
ATOM      2  C2  I4B d   1       2.693   2.215  -1.388  0.00  0.00     0.003 A 
ATOM      3  C3  I4B d   1       3.292   3.454  -1.054  0.00  0.00     0.002 A 
ATOM      4  C4  I4B d   1       3.060   4.008   0.189  0.00  0.00    -0.004 A 
ATOM      5  C5  I4B d   1       2.304   3.316   1.132  0.00  0.00     0.002 A 
ATOM      6  C6  I4B d   1       1.745   2.072   0.807  0.00  0.00     0.003 A 
ENDROOT
BRANCH   1   7
ATOM      7  C1' I4B d   1       1.286   0.255  -0.862  0.00  0.00     0.060 C 
BRANCH   7   8
ATOM      8  C2' I4B d   1      -0.103   0.220  -0.256  0.00  0.00    -0.013 C 
ATOM      9  C4' I4B d   1      -1.164   0.313  -1.321  0.00  0.00     0.013 C 
ATOM     10  C3' I4B d   1      -0.234  -1.050   0.529  0.00  0.00     0.013 C 
ENDBRANCH   7   8
ENDBRANCH   1   7
TORSDOF 2
ENDMDL
