MODEL 1
REMARK minimizedAffinity -5.19353056
REMARK minimizedRMSD -1
REMARK  2 active torsions:
REMARK  status: ('A' for Active; 'I' for Inactive)
REMARK    1  A    between atoms: C2'_3  and  C1'_4 
REMARK    2  A    between atoms: C1'_4  and  C1_5 
ROOT
ATOM      1  C1  I4B d   1       1.381   0.376  -0.006  0.00  0.00    -0.075 A 
ATOM      2  C2  I4B d   1       1.318  -0.673   0.876  0.00  0.00     0.003 A 
ATOM      3  C3  I4B d   1       0.187  -1.525   0.892  0.00  0.00     0.002 A 
ATOM      4  C4  I4B d   1      -0.873  -1.262   0.049  0.00  0.00    -0.004 A 
ATOM      5  C5  I4B d   1      -0.798  -0.212  -0.861  0.00  0.00     0.002 A 
ATOM      6  C6  I4B d   1       0.341   0.605  -0.898  0.00  0.00     0.003 A 
ENDROOT
BRANCH   1   7
ATOM      7  C1' I4B d   1       2.576   1.275   0.027  0.00  0.00     0.060 C 
BRANCH   7   8
ATOM      8  C2' I4B d   1       2.128   2.629   0.538  0.00  0.00    -0.013 C 
ATOM      9  C4' I4B d   1       2.724   2.927   1.888  0.00  0.00     0.013 C 
ATOM     10  C3' I4B d   1       2.531   3.662  -0.472  0.00  0.00     0.013 C 
ENDBRANCH   7   8
ENDBRANCH   1   7
TORSDOF 2
ENDMDL
