MODEL 1
REMARK minimizedAffinity -4.7276454
REMARK minimizedRMSD -1
REMARK  3 active torsions:
REMARK  status: ('A' for Active; 'I' for Inactive)
REMARK    1  A    between atoms: C3'_2  and  C2'_3 
REMARK    2  A    between atoms: C2'_3  and  C1'_4 
REMARK    3  A    between atoms: C1'_4  and  C1_5 
ROOT
ATOM      1  C1  N4B d   1      -0.103  -0.097  -0.286  0.00  0.00    -0.075 A 
ATOM      2  C2  N4B d   1      -0.030  -1.487  -0.521  0.00  0.00     0.002 A 
ATOM      3  C3  N4B d   1       1.161  -2.059  -0.895  0.00  0.00     0.002 A 
ATOM      4  C4  N4B d   1       2.283  -1.261  -1.060  0.00  0.00    -0.004 A 
ATOM      5  C5  N4B d   1       2.211   0.077  -0.807  0.00  0.00     0.002 A 
ATOM      6  C6  N4B d   1       1.021   0.665  -0.426  0.00  0.00     0.002 A 
ENDROOT
BRANCH   1   7
ATOM      7  C1' N4B d   1      -1.402   0.587   0.042  0.00  0.00     0.057 C 
BRANCH   7   8
ATOM      8  C2' N4B d   1      -1.881   0.120   1.413  0.00  0.00     0.009 C 
BRANCH   8   9
ATOM      9  C3' N4B d   1      -1.741   1.208   2.464  0.00  0.00     0.004 C 
ATOM     10  C4' N4B d   1      -1.418   0.663   3.824  0.00  0.00     0.003 C 
ENDBRANCH   8   9
ENDBRANCH   7   8
ENDBRANCH   1   7
TORSDOF 3
ENDMDL
