MODEL 1
REMARK minimizedAffinity -3.20942569
REMARK minimizedRMSD -1
REMARK  3 active torsions:
REMARK  status: ('A' for Active; 'I' for Inactive)
REMARK    1  A    between atoms: C3'_2  and  C2'_3 
REMARK    2  A    between atoms: C2'_3  and  C1'_4 
REMARK    3  A    between atoms: C1'_4  and  C1_5 
ROOT
ATOM      1  C1  N4B d   1      -0.212  -0.074  -0.178  0.00  0.00    -0.075 A 
ATOM      2  C2  N4B d   1      -0.562  -1.391   0.194  0.00  0.00     0.002 A 
ATOM      3  C3  N4B d   1       0.246  -2.443  -0.161  0.00  0.00     0.002 A 
ATOM      4  C4  N4B d   1       1.395  -2.206  -0.901  0.00  0.00    -0.004 A 
ATOM      5  C5  N4B d   1       1.739  -0.929  -1.234  0.00  0.00     0.002 A 
ATOM      6  C6  N4B d   1       0.938   0.139  -0.881  0.00  0.00     0.002 A 
ENDROOT
BRANCH   1   7
ATOM      7  C1' N4B d   1      -1.108   1.098   0.113  0.00  0.00     0.057 C 
BRANCH   7   8
ATOM      8  C2' N4B d   1      -2.070   0.727   1.237  0.00  0.00     0.009 C 
BRANCH   8   9
ATOM      9  C3' N4B d   1      -1.907   1.630   2.447  0.00  0.00     0.004 C 
ATOM     10  C4' N4B d   1      -1.943   0.877   3.744  0.00  0.00     0.003 C 
ENDBRANCH   8   9
ENDBRANCH   7   8
ENDBRANCH   1   7
TORSDOF 3
ENDMDL
