MODEL 1
REMARK minimizedAffinity -3.21679473
REMARK minimizedRMSD -1
REMARK  3 active torsions:
REMARK  status: ('A' for Active; 'I' for Inactive)
REMARK    1  A    between atoms: C3'_2  and  C2'_3 
REMARK    2  A    between atoms: C2'_3  and  C1'_4 
REMARK    3  A    between atoms: C1'_4  and  C1_5 
ROOT
ATOM      1  C1  N4B d   1       0.142  -0.591  -0.587  0.00  0.00    -0.075 A 
ATOM      2  C2  N4B d   1       0.935  -0.115  -1.654  0.00  0.00     0.002 A 
ATOM      3  C3  N4B d   1       2.002  -0.856  -2.100  0.00  0.00     0.002 A 
ATOM      4  C4  N4B d   1       2.306  -2.061  -1.483  0.00  0.00    -0.004 A 
ATOM      5  C5  N4B d   1       1.519  -2.525  -0.470  0.00  0.00     0.002 A 
ATOM      6  C6  N4B d   1       0.441  -1.793  -0.015  0.00  0.00     0.002 A 
ENDROOT
BRANCH   1   7
ATOM      7  C1' N4B d   1      -0.983   0.224  -0.009  0.00  0.00     0.057 C 
BRANCH   7   8
ATOM      8  C2' N4B d   1      -1.544  -0.493   1.215  0.00  0.00     0.009 C 
BRANCH   8   9
ATOM      9  C3' N4B d   1      -2.588   0.342   1.935  0.00  0.00     0.004 C 
ATOM     10  C4' N4B d   1      -2.627   0.079   3.411  0.00  0.00     0.003 C 
ENDBRANCH   8   9
ENDBRANCH   7   8
ENDBRANCH   1   7
TORSDOF 3
ENDMDL
