MODEL 1
REMARK minimizedAffinity -5.02592039
REMARK minimizedRMSD -1
REMARK  3 active torsions:
REMARK  status: ('A' for Active; 'I' for Inactive)
REMARK    1  A    between atoms: C3'_2  and  C2'_3 
REMARK    2  A    between atoms: C2'_3  and  C1'_4 
REMARK    3  A    between atoms: C1'_4  and  C1_5 
ROOT
ATOM      1  C1  N4B d   1       0.159   0.166  -0.268  0.00  0.00    -0.075 A 
ATOM      2  C2  N4B d   1       0.318   1.115  -1.302  0.00  0.00     0.002 A 
ATOM      3  C3  N4B d   1       1.301   0.943  -2.246  0.00  0.00     0.002 A 
ATOM      4  C4  N4B d   1       2.144  -0.156  -2.166  0.00  0.00    -0.004 A 
ATOM      5  C5  N4B d   1       1.966  -1.081  -1.180  0.00  0.00     0.002 A 
ATOM      6  C6  N4B d   1       0.980  -0.923  -0.226  0.00  0.00     0.002 A 
ENDROOT
BRANCH   1   7
ATOM      7  C1' N4B d   1      -0.845   0.356   0.836  0.00  0.00     0.057 C 
BRANCH   7   8
ATOM      8  C2' N4B d   1      -0.157   1.004   2.033  0.00  0.00     0.009 C 
BRANCH   8   9
ATOM      9  C3' N4B d   1      -1.130   1.800   2.886  0.00  0.00     0.004 C 
ATOM     10  C4' N4B d   1      -1.964   0.930   3.779  0.00  0.00     0.003 C 
ENDBRANCH   8   9
ENDBRANCH   7   8
ENDBRANCH   1   7
TORSDOF 3
ENDMDL
