MODEL 1
REMARK minimizedAffinity -5.78942823
REMARK minimizedRMSD -1
REMARK  3 active torsions:
REMARK  status: ('A' for Active; 'I' for Inactive)
REMARK    1  A    between atoms: C3'_2  and  C2'_3 
REMARK    2  A    between atoms: C2'_3  and  C1'_4 
REMARK    3  A    between atoms: C1'_4  and  C1_5 
ROOT
ATOM      1  C1  N4B d   1       0.189   0.140  -0.604  0.00  0.00    -0.075 A 
ATOM      2  C2  N4B d   1       1.155   0.906  -1.294  0.00  0.00     0.002 A 
ATOM      3  C3  N4B d   1       2.313   0.313  -1.735  0.00  0.00     0.002 A 
ATOM      4  C4  N4B d   1       2.534  -1.032  -1.483  0.00  0.00    -0.004 A 
ATOM      5  C5  N4B d   1       1.584  -1.770  -0.839  0.00  0.00     0.002 A 
ATOM      6  C6  N4B d   1       0.414  -1.189  -0.393  0.00  0.00     0.002 A 
ENDROOT
BRANCH   1   7
ATOM      7  C1' N4B d   1      -1.053   0.763  -0.028  0.00  0.00     0.057 C 
BRANCH   7   8
ATOM      8  C2' N4B d   1      -1.328   0.153   1.344  0.00  0.00     0.009 C 
BRANCH   8   9
ATOM      9  C3' N4B d   1      -2.091   1.108   2.247  0.00  0.00     0.004 C 
ATOM     10  C4' N4B d   1      -1.258   1.625   3.382  0.00  0.00     0.003 C 
ENDBRANCH   8   9
ENDBRANCH   7   8
ENDBRANCH   1   7
TORSDOF 3
ENDMDL
