MODEL 1
REMARK minimizedAffinity -4.69826126
REMARK minimizedRMSD -1
REMARK  3 active torsions:
REMARK  status: ('A' for Active; 'I' for Inactive)
REMARK    1  A    between atoms: C3'_2  and  C2'_3 
REMARK    2  A    between atoms: C2'_3  and  C1'_4 
REMARK    3  A    between atoms: C1'_4  and  C1_5 
ROOT
ATOM      1  C1  N4B d   1       0.026   0.004  -0.527  0.00  0.00    -0.075 A 
ATOM      2  C2  N4B d   1       0.615   0.587  -1.670  0.00  0.00     0.002 A 
ATOM      3  C3  N4B d   1       1.700  -0.010  -2.264  0.00  0.00     0.002 A 
ATOM      4  C4  N4B d   1       2.223  -1.175  -1.722  0.00  0.00    -0.004 A 
ATOM      5  C5  N4B d   1       1.633  -1.745  -0.632  0.00  0.00     0.002 A 
ATOM      6  C6  N4B d   1       0.540  -1.158  -0.028  0.00  0.00     0.002 A 
ENDROOT
BRANCH   1   7
ATOM      7  C1' N4B d   1      -1.108   0.666   0.207  0.00  0.00     0.057 C 
BRANCH   7   8
ATOM      8  C2' N4B d   1      -2.022  -0.408   0.789  0.00  0.00     0.009 C 
BRANCH   8   9
ATOM      9  C3' N4B d   1      -2.598   0.003   2.133  0.00  0.00     0.004 C 
ATOM     10  C4' N4B d   1      -1.959   1.243   2.684  0.00  0.00     0.003 C 
ENDBRANCH   8   9
ENDBRANCH   7   8
ENDBRANCH   1   7
TORSDOF 3
ENDMDL
