MODEL 1
REMARK minimizedAffinity -0.528749287
REMARK minimizedRMSD -1
REMARK  3 active torsions:
REMARK  status: ('A' for Active; 'I' for Inactive)
REMARK    1  A    between atoms: C3'_2  and  C2'_3 
REMARK    2  A    between atoms: C2'_3  and  C1'_4 
REMARK    3  A    between atoms: C1'_4  and  C1_5 
ROOT
ATOM      1  C1  N4B d   1      -1.536   0.281   2.339  0.00  0.00    -0.075 A 
ATOM      2  C2  N4B d   1      -1.679   1.564   2.911  0.00  0.00     0.002 A 
ATOM      3  C3  N4B d   1      -2.792   1.861   3.660  0.00  0.00     0.002 A 
ATOM      4  C4  N4B d   1      -3.779   0.902   3.833  0.00  0.00    -0.004 A 
ATOM      5  C5  N4B d   1      -3.620  -0.343   3.297  0.00  0.00     0.002 A 
ATOM      6  C6  N4B d   1      -2.506  -0.657   2.546  0.00  0.00     0.002 A 
ENDROOT
BRANCH   1   7
ATOM      7  C1' N4B d   1      -0.379  -0.063   1.441  0.00  0.00     0.057 C 
BRANCH   7   8
ATOM      8  C2' N4B d   1      -0.853  -0.067  -0.009  0.00  0.00     0.009 C 
BRANCH   8   9
ATOM      9  C3' N4B d   1      -0.743  -1.444  -0.640  0.00  0.00     0.004 C 
ATOM     10  C4' N4B d   1       0.178  -2.356   0.115  0.00  0.00     0.003 C 
ENDBRANCH   8   9
ENDBRANCH   7   8
ENDBRANCH   1   7
TORSDOF 3
ENDMDL
