MODEL 1
REMARK minimizedAffinity -4.11684752
REMARK minimizedRMSD -1
REMARK  3 active torsions:
REMARK  status: ('A' for Active; 'I' for Inactive)
REMARK    1  A    between atoms: C3'_2  and  C2'_3 
REMARK    2  A    between atoms: C2'_3  and  C1'_4 
REMARK    3  A    between atoms: C1'_4  and  C1_5 
ROOT
ATOM      1  C1  N4B d   1       0.384  -0.308  -0.693  0.00  0.00    -0.075 A 
ATOM      2  C2  N4B d   1       1.377   0.653  -0.399  0.00  0.00     0.002 A 
ATOM      3  C3  N4B d   1       2.666   0.462  -0.831  0.00  0.00     0.002 A 
ATOM      4  C4  N4B d   1       2.990  -0.686  -1.539  0.00  0.00    -0.004 A 
ATOM      5  C5  N4B d   1       2.020  -1.596  -1.841  0.00  0.00     0.002 A 
ATOM      6  C6  N4B d   1       0.719  -1.416  -1.417  0.00  0.00     0.002 A 
ENDROOT
BRANCH   1   7
ATOM      7  C1' N4B d   1      -1.021  -0.185  -0.169  0.00  0.00     0.057 C 
BRANCH   7   8
ATOM      8  C2' N4B d   1      -1.009   0.661   1.101  0.00  0.00     0.009 C 
BRANCH   8   9
ATOM      9  C3' N4B d   1      -2.057   0.202   2.099  0.00  0.00     0.004 C 
ATOM     10  C4' N4B d   1      -2.007   0.967   3.388  0.00  0.00     0.003 C 
ENDBRANCH   8   9
ENDBRANCH   7   8
ENDBRANCH   1   7
TORSDOF 3
ENDMDL
