MODEL 1
REMARK minimizedAffinity -5.49068165
REMARK minimizedRMSD -1
REMARK  3 active torsions:
REMARK  status: ('A' for Active; 'I' for Inactive)
REMARK    1  A    between atoms: C3'_2  and  C2'_3 
REMARK    2  A    between atoms: C2'_3  and  C1'_4 
REMARK    3  A    between atoms: C1'_4  and  C1_5 
ROOT
ATOM      1  C1  N4B d   1      -0.152  -0.238   0.062  0.00  0.00    -0.075 A 
ATOM      2  C2  N4B d   1      -0.220  -1.616   0.362  0.00  0.00     0.002 A 
ATOM      3  C3  N4B d   1       0.827  -2.443   0.035  0.00  0.00     0.002 A 
ATOM      4  C4  N4B d   1       1.939  -1.919  -0.607  0.00  0.00    -0.004 A 
ATOM      5  C5  N4B d   1       2.008  -0.582  -0.870  0.00  0.00     0.002 A 
ATOM      6  C6  N4B d   1       0.965   0.261  -0.543  0.00  0.00     0.002 A 
ENDROOT
BRANCH   1   7
ATOM      7  C1' N4B d   1      -1.307   0.689   0.323  0.00  0.00     0.057 C 
BRANCH   7   8
ATOM      8  C2' N4B d   1      -1.225   1.200   1.759  0.00  0.00     0.009 C 
BRANCH   8   9
ATOM      9  C3' N4B d   1      -2.308   0.598   2.638  0.00  0.00     0.004 C 
ATOM     10  C4' N4B d   1      -1.761  -0.024   3.888  0.00  0.00     0.003 C 
ENDBRANCH   8   9
ENDBRANCH   7   8
ENDBRANCH   1   7
TORSDOF 3
ENDMDL
