MODEL 1
REMARK minimizedAffinity -2.30086517
REMARK minimizedRMSD -1
REMARK  3 active torsions:
REMARK  status: ('A' for Active; 'I' for Inactive)
REMARK    1  A    between atoms: C3'_2  and  C2'_3 
REMARK    2  A    between atoms: C2'_3  and  C1'_4 
REMARK    3  A    between atoms: C1'_4  and  C1_5 
ROOT
ATOM      1  C1  N4B d   1       0.011  -0.336  -0.071  0.00  0.00    -0.075 A 
ATOM      2  C2  N4B d   1       1.125  -0.172  -0.924  0.00  0.00     0.002 A 
ATOM      3  C3  N4B d   1       1.874  -1.262  -1.293  0.00  0.00     0.002 A 
ATOM      4  C4  N4B d   1       1.542  -2.518  -0.808  0.00  0.00    -0.004 A 
ATOM      5  C5  N4B d   1       0.449  -2.672  -0.006  0.00  0.00     0.002 A 
ATOM      6  C6  N4B d   1      -0.315  -1.586   0.370  0.00  0.00     0.002 A 
ENDROOT
BRANCH   1   7
ATOM      7  C1' N4B d   1      -0.787   0.837   0.428  0.00  0.00     0.057 C 
BRANCH   7   8
ATOM      8  C2' N4B d   1      -1.698   0.377   1.562  0.00  0.00     0.009 C 
BRANCH   8   9
ATOM      9  C3' N4B d   1      -1.550   1.245   2.799  0.00  0.00     0.004 C 
ATOM     10  C4' N4B d   1      -1.589   0.453   4.072  0.00  0.00     0.003 C 
ENDBRANCH   8   9
ENDBRANCH   7   8
ENDBRANCH   1   7
TORSDOF 3
ENDMDL
