MODEL 1
REMARK minimizedAffinity 3.5483799
REMARK minimizedRMSD -1
REMARK  3 active torsions:
REMARK  status: ('A' for Active; 'I' for Inactive)
REMARK    1  A    between atoms: C3'_2  and  C2'_3 
REMARK    2  A    between atoms: C2'_3  and  C1'_4 
REMARK    3  A    between atoms: C1'_4  and  C1_5 
ROOT
ATOM      1  C1  N4B d   1      -4.037  -0.735   3.286  0.00  0.00    -0.075 A 
ATOM      2  C2  N4B d   1      -5.014  -1.061   2.320  0.00  0.00     0.002 A 
ATOM      3  C3  N4B d   1      -5.991  -1.980   2.616  0.00  0.00     0.002 A 
ATOM      4  C4  N4B d   1      -6.000  -2.597   3.858  0.00  0.00    -0.004 A 
ATOM      5  C5  N4B d   1      -5.067  -2.258   4.794  0.00  0.00     0.002 A 
ATOM      6  C6  N4B d   1      -4.082  -1.333   4.512  0.00  0.00     0.002 A 
ENDROOT
BRANCH   1   7
ATOM      7  C1' N4B d   1      -2.899   0.200   2.980  0.00  0.00     0.057 C 
BRANCH   7   8
ATOM      8  C2' N4B d   1      -2.662   1.111   4.180  0.00  0.00     0.009 C 
BRANCH   8   9
ATOM      9  C3' N4B d   1      -2.279   2.519   3.758  0.00  0.00     0.004 C 
ATOM     10  C4' N4B d   1      -3.466   3.360   3.394  0.00  0.00     0.003 C 
ENDBRANCH   8   9
ENDBRANCH   7   8
ENDBRANCH   1   7
TORSDOF 3
ENDMDL
