MODEL 1
REMARK minimizedAffinity -4.79806376
REMARK minimizedRMSD -1
REMARK  3 active torsions:
REMARK  status: ('A' for Active; 'I' for Inactive)
REMARK    1  A    between atoms: C3'_2  and  C2'_3 
REMARK    2  A    between atoms: C2'_3  and  C1'_4 
REMARK    3  A    between atoms: C1'_4  and  C1_5 
ROOT
ATOM      1  C1  N4B d   1      -0.046   0.061  -0.327  0.00  0.00    -0.075 A 
ATOM      2  C2  N4B d   1       0.118  -1.320  -0.573  0.00  0.00     0.002 A 
ATOM      3  C3  N4B d   1       1.235  -1.772  -1.233  0.00  0.00     0.002 A 
ATOM      4  C4  N4B d   1       2.187  -0.864  -1.671  0.00  0.00    -0.004 A 
ATOM      5  C5  N4B d   1       2.033   0.466  -1.408  0.00  0.00     0.002 A 
ATOM      6  C6  N4B d   1       0.918   0.933  -0.742  0.00  0.00     0.002 A 
ENDROOT
BRANCH   1   7
ATOM      7  C1' N4B d   1      -1.291   0.610   0.315  0.00  0.00     0.057 C 
BRANCH   7   8
ATOM      8  C2' N4B d   1      -1.853  -0.425   1.284  0.00  0.00     0.009 C 
BRANCH   8   9
ATOM      9  C3' N4B d   1      -3.015   0.126   2.092  0.00  0.00     0.004 C 
ATOM     10  C4' N4B d   1      -2.571   1.011   3.218  0.00  0.00     0.003 C 
ENDBRANCH   8   9
ENDBRANCH   7   8
ENDBRANCH   1   7
TORSDOF 3
ENDMDL
