MODEL 1
REMARK minimizedAffinity -2.69350004
REMARK minimizedRMSD -1
REMARK  3 active torsions:
REMARK  status: ('A' for Active; 'I' for Inactive)
REMARK    1  A    between atoms: C3'_2  and  C2'_3 
REMARK    2  A    between atoms: C2'_3  and  C1'_4 
REMARK    3  A    between atoms: C1'_4  and  C1_5 
ROOT
ATOM      1  C1  N4B d   1       0.193  -0.602   0.166  0.00  0.00    -0.075 A 
ATOM      2  C2  N4B d   1       0.405  -1.832  -0.496  0.00  0.00     0.002 A 
ATOM      3  C3  N4B d   1       1.483  -1.983  -1.335  0.00  0.00     0.002 A 
ATOM      4  C4  N4B d   1       2.347  -0.918  -1.540  0.00  0.00    -0.004 A 
ATOM      5  C5  N4B d   1       2.149   0.258  -0.877  0.00  0.00     0.002 A 
ATOM      6  C6  N4B d   1       1.073   0.423  -0.028  0.00  0.00     0.002 A 
ENDROOT
BRANCH   1   7
ATOM      7  C1' N4B d   1      -1.018  -0.362   1.025  0.00  0.00     0.057 C 
BRANCH   7   8
ATOM      8  C2' N4B d   1      -0.679   0.678   2.089  0.00  0.00     0.009 C 
BRANCH   8   9
ATOM      9  C3' N4B d   1      -1.823   0.884   3.067  0.00  0.00     0.004 C 
ATOM     10  C4' N4B d   1      -1.366   0.926   4.495  0.00  0.00     0.003 C 
ENDBRANCH   8   9
ENDBRANCH   7   8
ENDBRANCH   1   7
TORSDOF 3
ENDMDL
