MODEL 1
REMARK minimizedAffinity -4.63881826
REMARK minimizedRMSD -1
REMARK  1 active torsions:
REMARK  status: ('A' for Active; 'I' for Inactive)
REMARK    1  A    between atoms: N_2  and  C1_3 
ROOT
ATOM      1  C1  UNL d   1       0.023  -0.122   0.095  0.00  0.00     0.143 A 
ATOM      2  C2  UNL d   1      -0.676  -0.243   1.301  0.00  0.00    -0.057 A 
ATOM      3  C3  UNL d   1      -0.004  -0.440   2.513  0.00  0.00     0.033 A 
ATOM      4  C4  UNL d   1       1.383  -0.549   2.537  0.00  0.00    -0.042 A 
ATOM      5  C5  UNL d   1       2.096  -0.458   1.347  0.00  0.00     0.033 A 
ATOM      6  C6  UNL d   1       1.420  -0.254   0.140  0.00  0.00    -0.057 A 
ENDROOT
BRANCH   1   7
ATOM      7  N   UNL d   1      -0.594  -0.024  -1.155  0.00  0.00    -0.732 N 
ATOM      8  C   UNL d   1      -0.483   1.188  -1.938  0.00  0.00     0.284 C 
ATOM      9  H3  UNL d   1      -0.508  -0.880  -1.699  0.00  0.00     0.395 HD
ENDBRANCH   1   7
TORSDOF 1
ENDMDL
