MODEL 1
REMARK minimizedAffinity -4.49021101
REMARK minimizedRMSD -1
REMARK  1 active torsions:
REMARK  status: ('A' for Active; 'I' for Inactive)
REMARK    1  A    between atoms: N_2  and  C1_3 
ROOT
ATOM      1  C1  UNL d   1       0.485  -0.296   0.070  0.00  0.00     0.143 A 
ATOM      2  C2  UNL d   1      -0.174  -0.258   1.304  0.00  0.00    -0.057 A 
ATOM      3  C3  UNL d   1       0.361  -0.890   2.433  0.00  0.00     0.033 A 
ATOM      4  C4  UNL d   1       1.554  -1.599   2.341  0.00  0.00    -0.042 A 
ATOM      5  C5  UNL d   1       2.214  -1.672   1.119  0.00  0.00     0.033 A 
ATOM      6  C6  UNL d   1       1.678  -1.033  -0.003  0.00  0.00    -0.057 A 
ENDROOT
BRANCH   1   7
ATOM      7  N   UNL d   1      -0.044   0.229  -1.111  0.00  0.00    -0.732 N 
ATOM      8  C   UNL d   1       0.247   1.589  -1.509  0.00  0.00     0.284 C 
ATOM      9  H3  UNL d   1      -0.024  -0.441  -1.877  0.00  0.00     0.395 HD
ENDBRANCH   1   7
TORSDOF 1
ENDMDL
