MODEL 1
REMARK minimizedAffinity -5.19783163
REMARK minimizedRMSD -1
REMARK  1 active torsions:
REMARK  status: ('A' for Active; 'I' for Inactive)
REMARK    1  A    between atoms: N_2  and  C1_3 
ROOT
ATOM      1  C1  UNL d   1       0.556  -0.008   0.898  0.00  0.00     0.143 A 
ATOM      2  C2  UNL d   1       0.537   0.083   2.294  0.00  0.00    -0.057 A 
ATOM      3  C3  UNL d   1       1.441  -0.641   3.081  0.00  0.00     0.033 A 
ATOM      4  C4  UNL d   1       2.365  -1.492   2.485  0.00  0.00    -0.042 A 
ATOM      5  C5  UNL d   1       2.386  -1.617   1.100  0.00  0.00     0.033 A 
ATOM      6  C6  UNL d   1       1.485  -0.887   0.319  0.00  0.00    -0.057 A 
ENDROOT
BRANCH   1   7
ATOM      7  N   UNL d   1      -0.381   0.610   0.066  0.00  0.00    -0.732 N 
ATOM      8  C   UNL d   1      -0.409   0.323  -1.352  0.00  0.00     0.284 C 
ATOM      9  H3  UNL d   1      -1.301   0.672   0.496  0.00  0.00     0.395 HD
ENDBRANCH   1   7
TORSDOF 1
ENDMDL
