MODEL 1
REMARK minimizedAffinity -5.27192879
REMARK minimizedRMSD -1
REMARK  1 active torsions:
REMARK  status: ('A' for Active; 'I' for Inactive)
REMARK    1  A    between atoms: N_2  and  C1_3 
ROOT
ATOM      1  C1  UNL d   1       0.691  -0.562   0.220  0.00  0.00     0.143 A 
ATOM      2  C2  UNL d   1       0.049  -0.219   1.415  0.00  0.00    -0.057 A 
ATOM      3  C3  UNL d   1       0.589  -0.574   2.657  0.00  0.00     0.033 A 
ATOM      4  C4  UNL d   1       1.769  -1.306   2.725  0.00  0.00    -0.042 A 
ATOM      5  C5  UNL d   1       2.411  -1.680   1.550  0.00  0.00     0.033 A 
ATOM      6  C6  UNL d   1       1.871  -1.317   0.313  0.00  0.00    -0.057 A 
ENDROOT
BRANCH   1   7
ATOM      7  N   UNL d   1       0.153  -0.324  -1.047  0.00  0.00    -0.732 N 
ATOM      8  C   UNL d   1      -0.751   0.784  -1.268  0.00  0.00     0.284 C 
ATOM      9  H3  UNL d   1       0.836  -0.457  -1.790  0.00  0.00     0.395 HD
ENDBRANCH   1   7
TORSDOF 1
ENDMDL
