MODEL 1
REMARK minimizedAffinity -4.35226774
REMARK minimizedRMSD -1
REMARK  1 active torsions:
REMARK  status: ('A' for Active; 'I' for Inactive)
REMARK    1  A    between atoms: N_2  and  C1_3 
ROOT
ATOM      1  C1  UNL d   1       0.402   0.087   0.563  0.00  0.00     0.143 A 
ATOM      2  C2  UNL d   1       1.627  -0.586   0.488  0.00  0.00    -0.057 A 
ATOM      3  C3  UNL d   1       2.036  -1.463   1.500  0.00  0.00     0.033 A 
ATOM      4  C4  UNL d   1       1.238  -1.661   2.622  0.00  0.00    -0.042 A 
ATOM      5  C5  UNL d   1       0.029  -0.984   2.729  0.00  0.00     0.033 A 
ATOM      6  C6  UNL d   1      -0.378  -0.115   1.712  0.00  0.00    -0.057 A 
ENDROOT
BRANCH   1   7
ATOM      7  N   UNL d   1      -0.015   1.046  -0.363  0.00  0.00    -0.732 N 
ATOM      8  C   UNL d   1      -0.771   0.659  -1.535  0.00  0.00     0.284 C 
ATOM      9  H3  UNL d   1      -0.348   1.898   0.084  0.00  0.00     0.395 HD
ENDBRANCH   1   7
TORSDOF 1
ENDMDL
