MODEL 1
REMARK minimizedAffinity -4.48503637
REMARK minimizedRMSD -1
REMARK  1 active torsions:
REMARK  status: ('A' for Active; 'I' for Inactive)
REMARK    1  A    between atoms: N_2  and  C1_3 
ROOT
ATOM      1  C1  UNL d   1       0.106  -0.258   0.852  0.00  0.00     0.143 A 
ATOM      2  C2  UNL d   1       1.180  -1.064   0.456  0.00  0.00    -0.057 A 
ATOM      3  C3  UNL d   1       2.159  -1.469   1.371  0.00  0.00     0.033 A 
ATOM      4  C4  UNL d   1       2.098  -1.051   2.696  0.00  0.00    -0.042 A 
ATOM      5  C5  UNL d   1       1.053  -0.229   3.106  0.00  0.00     0.033 A 
ATOM      6  C6  UNL d   1       0.075   0.166   2.189  0.00  0.00    -0.057 A 
ENDROOT
BRANCH   1   7
ATOM      7  N   UNL d   1      -0.845   0.259  -0.031  0.00  0.00    -0.732 N 
ATOM      8  C   UNL d   1      -0.462   1.205  -1.056  0.00  0.00     0.284 C 
ATOM      9  H3  UNL d   1      -1.509  -0.446  -0.343  0.00  0.00     0.395 HD
ENDBRANCH   1   7
TORSDOF 1
ENDMDL
