MODEL 1
REMARK minimizedAffinity -1.41000533
REMARK minimizedRMSD -1
REMARK  0 active torsions:
REMARK  status: ('A' for Active; 'I' for Inactive)
ROOT
ATOM      1  C   UNL d   1       1.435  -1.444   2.829  0.00  0.00     0.078 C 
ATOM      2  C1  UNL d   1       0.962  -1.115   1.445  0.00  0.00    -0.077 A 
ATOM      3  C2  UNL d   1      -0.374  -0.771   1.202  0.00  0.00    -0.001 A 
ATOM      4  C3  UNL d   1      -0.803  -0.477  -0.094  0.00  0.00     0.003 A 
ATOM      5  C4  UNL d   1       0.097  -0.526  -1.156  0.00  0.00    -0.005 A 
ATOM      6  C5  UNL d   1       1.427  -0.870  -0.925  0.00  0.00     0.003 A 
ATOM      7  C6  UNL d   1       1.858  -1.164   0.370  0.00  0.00    -0.001 A 
ENDROOT
TORSDOF 0
ENDMDL
