MODEL 1
REMARK minimizedAffinity 3.18095136
REMARK minimizedRMSD -1
REMARK  0 active torsions:
REMARK  status: ('A' for Active; 'I' for Inactive)
ROOT
ATOM      1  C   UNL d   1       2.543  -4.109   2.008  0.00  0.00     0.078 C 
ATOM      2  C1  UNL d   1       3.013  -4.395   3.403  0.00  0.00    -0.077 A 
ATOM      3  C2  UNL d   1       3.361  -3.356   4.275  0.00  0.00    -0.001 A 
ATOM      4  C3  UNL d   1       3.806  -3.637   5.567  0.00  0.00     0.003 A 
ATOM      5  C4  UNL d   1       3.909  -4.958   6.000  0.00  0.00    -0.005 A 
ATOM      6  C5  UNL d   1       3.567  -5.999   5.139  0.00  0.00     0.003 A 
ATOM      7  C6  UNL d   1       3.121  -5.719   3.846  0.00  0.00    -0.001 A 
ENDROOT
TORSDOF 0
ENDMDL
