MODEL 1
REMARK minimizedAffinity 0.282000333
REMARK minimizedRMSD -1
REMARK  0 active torsions:
REMARK  status: ('A' for Active; 'I' for Inactive)
ROOT
ATOM      1  C   UNL d   1       0.461  -0.491  -1.004  0.00  0.00     0.078 C 
ATOM      2  C1  UNL d   1       1.314   0.481  -1.764  0.00  0.00    -0.077 A 
ATOM      3  C2  UNL d   1       0.850   1.768  -2.062  0.00  0.00    -0.001 A 
ATOM      4  C3  UNL d   1       1.651   2.659  -2.778  0.00  0.00     0.003 A 
ATOM      5  C4  UNL d   1       2.921   2.273  -3.202  0.00  0.00    -0.005 A 
ATOM      6  C5  UNL d   1       3.391   0.993  -2.911  0.00  0.00     0.003 A 
ATOM      7  C6  UNL d   1       2.591   0.101  -2.196  0.00  0.00    -0.001 A 
ENDROOT
TORSDOF 0
ENDMDL
