MODEL 1
REMARK minimizedAffinity -2.65485907
REMARK minimizedRMSD -1
REMARK  0 active torsions:
REMARK  status: ('A' for Active; 'I' for Inactive)
ROOT
ATOM      1  C   UNL d   1       1.780  -3.450   1.894  0.00  0.00     0.078 C 
ATOM      2  C1  UNL d   1       0.774  -2.375   1.607  0.00  0.00    -0.077 A 
ATOM      3  C2  UNL d   1      -0.207  -2.036   2.547  0.00  0.00    -0.001 A 
ATOM      4  C3  UNL d   1      -1.143  -1.040   2.263  0.00  0.00     0.003 A 
ATOM      5  C4  UNL d   1      -1.107  -0.376   1.038  0.00  0.00    -0.005 A 
ATOM      6  C5  UNL d   1      -0.136  -0.708   0.096  0.00  0.00     0.003 A 
ATOM      7  C6  UNL d   1       0.801  -1.703   0.379  0.00  0.00    -0.001 A 
ENDROOT
TORSDOF 0
ENDMDL
