MODEL 1
REMARK minimizedAffinity 0.916198492
REMARK minimizedRMSD -1
REMARK  1 active torsions:
REMARK  status: ('A' for Active; 'I' for Inactive)
REMARK    1  A    between atoms: C1_2  and  C2_3 
ROOT
ATOM      1  C2  UNL d   1       0.213   0.217   0.887  0.00  0.00    -0.076 A 
ATOM      2  C3  UNL d   1       0.157  -0.301  -0.418  0.00  0.00     0.004 A 
ATOM      3  C4  UNL d   1      -1.066  -0.542  -1.043  0.00  0.00    -0.003 A 
ATOM      4  C5  UNL d   1      -2.252  -0.268  -0.372  0.00  0.00     0.000 A 
ATOM      5  C6  UNL d   1      -2.215   0.263   0.917  0.00  0.00     0.000 A 
ATOM      6  C7  UNL d   1      -0.991   0.526   1.555  0.00  0.00    -0.073 A 
ATOM      7  C8  UNL d   1      -1.010   1.093   2.948  0.00  0.00     0.078 C 
ENDROOT
BRANCH   1   8
ATOM      8  C1  UNL d   1       1.568   0.431   1.524  0.00  0.00     0.053 C 
ATOM      9  C   UNL d   1       2.560  -0.664   1.166  0.00  0.00     0.018 C 
ENDBRANCH   1   8
TORSDOF 1
ENDMDL
