MODEL 1
REMARK minimizedAffinity -4.18244171
REMARK minimizedRMSD -1
REMARK  1 active torsions:
REMARK  status: ('A' for Active; 'I' for Inactive)
REMARK    1  A    between atoms: C1_2  and  C2_3 
ROOT
ATOM      1  C2  UNL d   1      -0.013  -0.014   0.340  0.00  0.00    -0.076 A 
ATOM      2  C3  UNL d   1       1.022  -0.078   1.290  0.00  0.00     0.004 A 
ATOM      3  C4  UNL d   1       0.800   0.281   2.618  0.00  0.00    -0.003 A 
ATOM      4  C5  UNL d   1      -0.461   0.710   3.018  0.00  0.00     0.000 A 
ATOM      5  C6  UNL d   1      -1.503   0.763   2.094  0.00  0.00     0.000 A 
ATOM      6  C7  UNL d   1      -1.300   0.388   0.754  0.00  0.00    -0.073 A 
ATOM      7  C8  UNL d   1      -2.459   0.471  -0.202  0.00  0.00     0.078 C 
ENDROOT
BRANCH   1   8
ATOM      8  C1  UNL d   1       0.294  -0.391  -1.092  0.00  0.00     0.053 C 
ATOM      9  C   UNL d   1       0.982  -1.742  -1.204  0.00  0.00     0.018 C 
ENDBRANCH   1   8
TORSDOF 1
ENDMDL
