MODEL 1
REMARK minimizedAffinity -4.63697672
REMARK minimizedRMSD -1
REMARK  1 active torsions:
REMARK  status: ('A' for Active; 'I' for Inactive)
REMARK    1  A    between atoms: C1_2  and  C2_3 
ROOT
ATOM      1  C2  UNL d   1      -0.054   0.254   0.728  0.00  0.00    -0.076 A 
ATOM      2  C3  UNL d   1       0.927   0.167   1.731  0.00  0.00     0.004 A 
ATOM      3  C4  UNL d   1       0.603   0.370   3.071  0.00  0.00    -0.003 A 
ATOM      4  C5  UNL d   1      -0.708   0.663   3.431  0.00  0.00     0.000 A 
ATOM      5  C6  UNL d   1      -1.697   0.735   2.451  0.00  0.00     0.000 A 
ATOM      6  C7  UNL d   1      -1.390   0.517   1.097  0.00  0.00    -0.073 A 
ATOM      7  C8  UNL d   1      -2.496   0.613   0.081  0.00  0.00     0.078 C 
ENDROOT
BRANCH   1   8
ATOM      8  C1  UNL d   1       0.362   0.050  -0.711  0.00  0.00     0.053 C 
ATOM      9  C   UNL d   1       0.693  -1.401  -1.023  0.00  0.00     0.018 C 
ENDBRANCH   1   8
TORSDOF 1
ENDMDL
