MODEL 1
REMARK minimizedAffinity -5.5561924
REMARK minimizedRMSD -1
REMARK  1 active torsions:
REMARK  status: ('A' for Active; 'I' for Inactive)
REMARK    1  A    between atoms: C1_2  and  C2_3 
ROOT
ATOM      1  C2  UNL d   1       0.124  -0.179   1.002  0.00  0.00    -0.076 A 
ATOM      2  C3  UNL d   1      -1.107   0.464   0.787  0.00  0.00     0.004 A 
ATOM      3  C4  UNL d   1      -1.702   1.229   1.788  0.00  0.00    -0.003 A 
ATOM      4  C5  UNL d   1      -1.075   1.365   3.021  0.00  0.00     0.000 A 
ATOM      5  C6  UNL d   1       0.156   0.749   3.247  0.00  0.00     0.000 A 
ATOM      6  C7  UNL d   1       0.777  -0.013   2.243  0.00  0.00    -0.073 A 
ATOM      7  C8  UNL d   1       2.101  -0.661   2.542  0.00  0.00     0.078 C 
ENDROOT
BRANCH   1   8
ATOM      8  C1  UNL d   1       0.708  -1.019  -0.111  0.00  0.00     0.053 C 
ATOM      9  C   UNL d   1       0.624  -0.330  -1.465  0.00  0.00     0.018 C 
ENDBRANCH   1   8
TORSDOF 1
ENDMDL
