MODEL 1
REMARK minimizedAffinity -4.53920221
REMARK minimizedRMSD -1
REMARK  1 active torsions:
REMARK  status: ('A' for Active; 'I' for Inactive)
REMARK    1  A    between atoms: C1_2  and  C2_3 
ROOT
ATOM      1  C2  UNL d   1       0.218  -0.297   0.851  0.00  0.00    -0.076 A 
ATOM      2  C3  UNL d   1       1.458  -0.603   1.438  0.00  0.00     0.004 A 
ATOM      3  C4  UNL d   1       1.757  -0.196   2.737  0.00  0.00    -0.003 A 
ATOM      4  C5  UNL d   1       0.820   0.524   3.471  0.00  0.00     0.000 A 
ATOM      5  C6  UNL d   1      -0.422   0.821   2.911  0.00  0.00     0.000 A 
ATOM      6  C7  UNL d   1      -0.745   0.404   1.608  0.00  0.00    -0.073 A 
ATOM      7  C8  UNL d   1      -2.098   0.757   1.052  0.00  0.00     0.078 C 
ENDROOT
BRANCH   1   8
ATOM      8  C1  UNL d   1      -0.040  -0.742  -0.571  0.00  0.00     0.053 C 
ATOM      9  C   UNL d   1       0.511   0.237  -1.596  0.00  0.00     0.018 C 
ENDBRANCH   1   8
TORSDOF 1
ENDMDL
