MODEL 1
REMARK minimizedAffinity -5.45665264
REMARK minimizedRMSD -1
REMARK  1 active torsions:
REMARK  status: ('A' for Active; 'I' for Inactive)
REMARK    1  A    between atoms: C1_2  and  C2_3 
ROOT
ATOM      1  C2  UNL d   1       0.111   0.006   0.459  0.00  0.00    -0.076 A 
ATOM      2  C3  UNL d   1       0.873   0.886   1.247  0.00  0.00     0.004 A 
ATOM      3  C4  UNL d   1       0.297   1.577   2.311  0.00  0.00    -0.003 A 
ATOM      4  C5  UNL d   1      -1.051   1.399   2.605  0.00  0.00     0.000 A 
ATOM      5  C6  UNL d   1      -1.817   0.517   1.845  0.00  0.00     0.000 A 
ATOM      6  C7  UNL d   1      -1.248  -0.200   0.778  0.00  0.00    -0.073 A 
ATOM      7  C8  UNL d   1      -2.123  -1.134  -0.012  0.00  0.00     0.078 C 
ENDROOT
BRANCH   1   8
ATOM      8  C1  UNL d   1       0.783  -0.696  -0.699  0.00  0.00     0.053 C 
ATOM      9  C   UNL d   1       0.704   0.104  -1.991  0.00  0.00     0.018 C 
ENDBRANCH   1   8
TORSDOF 1
ENDMDL
