MODEL 1
REMARK minimizedAffinity 14.5231457
REMARK minimizedRMSD -1
REMARK  0 active torsions:
REMARK  status: ('A' for Active; 'I' for Inactive)
ROOT
ATOM      1  C   UNL d   1      -0.152   1.973   1.817  0.00  0.00     0.124 A 
ATOM      2  C1  UNL d   1       0.246   1.633   3.102  0.00  0.00     0.062 A 
ATOM      3  C2  UNL d   1       1.584   1.736   3.471  0.00  0.00     0.162 A 
ATOM      4  C3  UNL d   1       2.535   2.181   2.554  0.00  0.00    -0.034 A 
ATOM      5  C4  UNL d   1       2.128   2.520   1.262  0.00  0.00     0.162 A 
ATOM      6  C5  UNL d   1       0.790   2.416   0.898  0.00  0.00     0.062 A 
ATOM      7  F   UNL d   1       0.408   2.745  -0.345  0.00  0.00    -0.097 F 
ATOM      8  F1  UNL d   1       3.016   2.952   0.354  0.00  0.00    -0.096 F 
ATOM      9  I   UNL d   1       4.537   2.335   3.102  0.00  0.00    -0.060 I 
ATOM     10  F2  UNL d   1       1.939   1.400   4.721  0.00  0.00    -0.096 F 
ATOM     11  F3  UNL d   1      -0.662   1.204   3.991  0.00  0.00    -0.097 F 
ATOM     12  F4  UNL d   1      -1.440   1.873   1.464  0.00  0.00    -0.092 F 
ENDROOT
TORSDOF 0
ENDMDL
