MODEL 1
REMARK minimizedAffinity 7.64189148
REMARK minimizedRMSD -1
REMARK  0 active torsions:
REMARK  status: ('A' for Active; 'I' for Inactive)
ROOT
ATOM      1  C   UNL d   1       4.045   1.242  -1.154  0.00  0.00     0.124 A 
ATOM      2  C1  UNL d   1       4.120   0.157  -2.017  0.00  0.00     0.062 A 
ATOM      3  C2  UNL d   1       3.394  -1.000  -1.751  0.00  0.00     0.162 A 
ATOM      4  C3  UNL d   1       2.586  -1.079  -0.616  0.00  0.00    -0.034 A 
ATOM      5  C4  UNL d   1       2.516   0.016   0.247  0.00  0.00     0.162 A 
ATOM      6  C5  UNL d   1       3.243   1.170  -0.023  0.00  0.00     0.062 A 
ATOM      7  F   UNL d   1       3.170   2.217   0.811  0.00  0.00    -0.097 F 
ATOM      8  F1  UNL d   1       1.749  -0.026   1.346  0.00  0.00    -0.096 F 
ATOM      9  I   UNL d   1       1.499  -2.808  -0.215  0.00  0.00    -0.060 I 
ATOM     10  F2  UNL d   1       3.485  -2.033  -2.602  0.00  0.00    -0.096 F 
ATOM     11  F3  UNL d   1       4.894   0.224  -3.109  0.00  0.00    -0.097 F 
ATOM     12  F4  UNL d   1       4.745   2.354  -1.412  0.00  0.00    -0.092 F 
ENDROOT
TORSDOF 0
ENDMDL
