MODEL 1
REMARK minimizedAffinity 15.0695
REMARK minimizedRMSD -1
REMARK  0 active torsions:
REMARK  status: ('A' for Active; 'I' for Inactive)
ROOT
ATOM      1  C   UNL d   1       3.869  -1.196  -1.206  0.00  0.00     0.124 A 
ATOM      2  C1  UNL d   1       3.303  -1.498  -2.437  0.00  0.00     0.062 A 
ATOM      3  C2  UNL d   1       2.170  -2.303  -2.508  0.00  0.00     0.162 A 
ATOM      4  C3  UNL d   1       1.594  -2.811  -1.343  0.00  0.00    -0.034 A 
ATOM      5  C4  UNL d   1       2.169  -2.503  -0.109  0.00  0.00     0.162 A 
ATOM      6  C5  UNL d   1       3.302  -1.699  -0.044  0.00  0.00     0.062 A 
ATOM      7  F   UNL d   1       3.848  -1.408   1.146  0.00  0.00    -0.097 F 
ATOM      8  F1  UNL d   1       1.641  -2.975   1.030  0.00  0.00    -0.096 F 
ATOM      9  I   UNL d   1      -0.102  -4.014  -1.444  0.00  0.00    -0.060 I 
ATOM     10  F2  UNL d   1       1.644  -2.578  -3.710  0.00  0.00    -0.096 F 
ATOM     11  F3  UNL d   1       3.850  -1.015  -3.562  0.00  0.00    -0.097 F 
ATOM     12  F4  UNL d   1       4.961  -0.423  -1.142  0.00  0.00    -0.092 F 
ENDROOT
TORSDOF 0
ENDMDL
