MODEL 1
REMARK minimizedAffinity 2.15707088
REMARK minimizedRMSD -1
REMARK  0 active torsions:
REMARK  status: ('A' for Active; 'I' for Inactive)
ROOT
ATOM      1  C   UNL d   1       1.652  -0.128  -0.121  0.00  0.00     0.124 A 
ATOM      2  C1  UNL d   1       1.085   1.097   0.199  0.00  0.00     0.062 A 
ATOM      3  C2  UNL d   1      -0.295   1.216   0.334  0.00  0.00     0.162 A 
ATOM      4  C3  UNL d   1      -1.119   0.106   0.149  0.00  0.00    -0.034 A 
ATOM      5  C4  UNL d   1      -0.542  -1.123  -0.174  0.00  0.00     0.162 A 
ATOM      6  C5  UNL d   1       0.838  -1.237  -0.308  0.00  0.00     0.062 A 
ATOM      7  F   UNL d   1       1.384  -2.422  -0.617  0.00  0.00    -0.097 F 
ATOM      8  F1  UNL d   1      -1.304  -2.211  -0.359  0.00  0.00    -0.096 F 
ATOM      9  I   UNL d   1      -3.183   0.280   0.349  0.00  0.00    -0.060 I 
ATOM     10  F2  UNL d   1      -0.816   2.413   0.644  0.00  0.00    -0.096 F 
ATOM     11  F3  UNL d   1       1.868   2.170   0.379  0.00  0.00    -0.097 F 
ATOM     12  F4  UNL d   1       2.980  -0.240  -0.251  0.00  0.00    -0.092 F 
ENDROOT
TORSDOF 0
ENDMDL
