MODEL 1
REMARK minimizedAffinity -0.114993751
REMARK minimizedRMSD -1
REMARK  0 active torsions:
REMARK  status: ('A' for Active; 'I' for Inactive)
ROOT
ATOM      1  C   UNL d   1       1.171  -2.124  -1.215  0.00  0.00     0.124 A 
ATOM      2  C1  UNL d   1       2.131  -1.224  -0.772  0.00  0.00     0.062 A 
ATOM      3  C2  UNL d   1       1.784   0.100  -0.516  0.00  0.00     0.162 A 
ATOM      4  C3  UNL d   1       0.471   0.532  -0.703  0.00  0.00    -0.034 A 
ATOM      5  C4  UNL d   1      -0.488  -0.379  -1.151  0.00  0.00     0.162 A 
ATOM      6  C5  UNL d   1      -0.137  -1.700  -1.404  0.00  0.00     0.062 A 
ATOM      7  F   UNL d   1      -1.065  -2.568  -1.833  0.00  0.00    -0.097 F 
ATOM      8  F1  UNL d   1      -1.760   0.003  -1.341  0.00  0.00    -0.096 F 
ATOM      9  I   UNL d   1      -0.052   2.510  -0.322  0.00  0.00    -0.060 I 
ATOM     10  F2  UNL d   1       2.731   0.947  -0.088  0.00  0.00    -0.096 F 
ATOM     11  F3  UNL d   1       3.395  -1.630  -0.589  0.00  0.00    -0.097 F 
ATOM     12  F4  UNL d   1       1.508  -3.396  -1.461  0.00  0.00    -0.092 F 
ENDROOT
TORSDOF 0
ENDMDL
