MODEL 1
REMARK minimizedAffinity 11.0245056
REMARK minimizedRMSD -1
REMARK  0 active torsions:
REMARK  status: ('A' for Active; 'I' for Inactive)
ROOT
ATOM      1  C   UNL d   1       2.065  -0.831  -1.096  0.00  0.00     0.124 A 
ATOM      2  C1  UNL d   1       2.861   0.161  -0.540  0.00  0.00     0.062 A 
ATOM      3  C2  UNL d   1       2.305   1.105   0.319  0.00  0.00     0.162 A 
ATOM      4  C3  UNL d   1       0.946   1.062   0.627  0.00  0.00    -0.034 A 
ATOM      5  C4  UNL d   1       0.151   0.062   0.063  0.00  0.00     0.162 A 
ATOM      6  C5  UNL d   1       0.712  -0.879  -0.794  0.00  0.00     0.062 A 
ATOM      7  F   UNL d   1      -0.059  -1.837  -1.331  0.00  0.00    -0.097 F 
ATOM      8  F1  UNL d   1      -1.159  -0.009   0.338  0.00  0.00    -0.096 F 
ATOM      9  I   UNL d   1       0.111   2.472   1.910  0.00  0.00    -0.060 I 
ATOM     10  F2  UNL d   1       3.098   2.053   0.842  0.00  0.00    -0.096 F 
ATOM     11  F3  UNL d   1       4.169   0.211  -0.830  0.00  0.00    -0.097 F 
ATOM     12  F4  UNL d   1       2.603  -1.737  -1.922  0.00  0.00    -0.092 F 
ENDROOT
TORSDOF 0
ENDMDL
