MODEL 1
REMARK minimizedAffinity 7.11087179
REMARK minimizedRMSD -1
REMARK  0 active torsions:
REMARK  status: ('A' for Active; 'I' for Inactive)
ROOT
ATOM      1  C   UNL d   1       0.138  -2.454  -0.534  0.00  0.00     0.124 A 
ATOM      2  C1  UNL d   1      -0.820  -1.671   0.095  0.00  0.00     0.062 A 
ATOM      3  C2  UNL d   1      -0.580  -0.318   0.319  0.00  0.00     0.162 A 
ATOM      4  C3  UNL d   1       0.622   0.261  -0.086  0.00  0.00    -0.034 A 
ATOM      5  C4  UNL d   1       1.581  -0.534  -0.717  0.00  0.00     0.162 A 
ATOM      6  C5  UNL d   1       1.337  -1.885  -0.939  0.00  0.00     0.062 A 
ATOM      7  F   UNL d   1       2.264  -2.640  -1.547  0.00  0.00    -0.097 F 
ATOM      8  F1  UNL d   1       2.748  -0.009  -1.119  0.00  0.00    -0.096 F 
ATOM      9  I   UNL d   1       0.984   2.283   0.248  0.00  0.00    -0.060 I 
ATOM     10  F2  UNL d   1      -1.524   0.415   0.929  0.00  0.00    -0.096 F 
ATOM     11  F3  UNL d   1      -1.979  -2.218   0.488  0.00  0.00    -0.097 F 
ATOM     12  F4  UNL d   1      -0.094  -3.755  -0.748  0.00  0.00    -0.092 F 
ENDROOT
TORSDOF 0
ENDMDL
