MODEL 1
REMARK minimizedAffinity -0.0161632244
REMARK minimizedRMSD -1
REMARK  0 active torsions:
REMARK  status: ('A' for Active; 'I' for Inactive)
ROOT
ATOM      1  C   UNL d   1       0.154   0.067  -0.711  0.00  0.00     0.172 C 
ATOM      2  N   UNL d   1       0.151  -0.370   0.665  0.00  0.00    -0.070 N 
ATOM      3  C1  UNL d   1      -0.663   0.113   1.654  0.00  0.00    -0.004 A 
ATOM      4  C2  UNL d   1      -0.358  -0.560   2.818  0.00  0.00    -0.047 A 
ATOM      5  C3  UNL d   1       0.677  -1.477   2.518  0.00  0.00    -0.047 A 
ATOM      6  C4  UNL d   1       0.973  -1.338   1.178  0.00  0.00    -0.004 A 
ENDROOT
TORSDOF 0
ENDMDL
