MODEL 1
REMARK minimizedAffinity -4.0264492
REMARK minimizedRMSD -1
REMARK  0 active torsions:
REMARK  status: ('A' for Active; 'I' for Inactive)
ROOT
ATOM      1  C   UNL d   1       0.130   0.293  -0.558  0.00  0.00     0.172 C 
ATOM      2  N   UNL d   1       0.629  -0.374   0.622  0.00  0.00    -0.070 N 
ATOM      3  C1  UNL d   1       1.713  -1.208   0.669  0.00  0.00    -0.004 A 
ATOM      4  C2  UNL d   1       1.860  -1.637   1.970  0.00  0.00    -0.047 A 
ATOM      5  C3  UNL d   1       0.827  -1.040   2.732  0.00  0.00    -0.047 A 
ATOM      6  C4  UNL d   1       0.080  -0.263   1.872  0.00  0.00    -0.004 A 
ENDROOT
TORSDOF 0
ENDMDL
