MODEL 1
REMARK minimizedAffinity -1.07401931
REMARK minimizedRMSD -1
REMARK  0 active torsions:
REMARK  status: ('A' for Active; 'I' for Inactive)
ROOT
ATOM      1  C   UNL d   1      -0.146  -0.127  -0.250  0.00  0.00     0.172 C 
ATOM      2  N   UNL d   1       0.410  -0.950   0.798  0.00  0.00    -0.070 N 
ATOM      3  C1  UNL d   1      -0.040  -1.010   2.090  0.00  0.00    -0.004 A 
ATOM      4  C2  UNL d   1       0.752  -1.908   2.772  0.00  0.00    -0.047 A 
ATOM      5  C3  UNL d   1       1.712  -2.405   1.859  0.00  0.00    -0.047 A 
ATOM      6  C4  UNL d   1       1.477  -1.795   0.644  0.00  0.00    -0.004 A 
ENDROOT
TORSDOF 0
ENDMDL
