MODEL 1
REMARK minimizedAffinity -1.78836012
REMARK minimizedRMSD -1
REMARK  0 active torsions:
REMARK  status: ('A' for Active; 'I' for Inactive)
ROOT
ATOM      1  C   UNL d   1      -0.068   2.952  -2.928  0.00  0.00     0.172 C 
ATOM      2  N   UNL d   1      -0.229   1.840  -2.020  0.00  0.00    -0.070 N 
ATOM      3  C1  UNL d   1       0.392   1.703  -0.808  0.00  0.00    -0.004 A 
ATOM      4  C2  UNL d   1      -0.025   0.513  -0.252  0.00  0.00    -0.047 A 
ATOM      5  C3  UNL d   1      -0.927  -0.087  -1.163  0.00  0.00    -0.047 A 
ATOM      6  C4  UNL d   1      -1.036   0.756  -2.248  0.00  0.00    -0.004 A 
ENDROOT
TORSDOF 0
ENDMDL
