MODEL 1
REMARK minimizedAffinity -4.07875443
REMARK minimizedRMSD -1
REMARK  0 active torsions:
REMARK  status: ('A' for Active; 'I' for Inactive)
ROOT
ATOM      1  C   UNL d   1      -0.057   0.229  -0.060  0.00  0.00     0.172 C 
ATOM      2  N   UNL d   1       0.894  -0.585   0.661  0.00  0.00    -0.070 N 
ATOM      3  C1  UNL d   1       0.999  -0.672   2.024  0.00  0.00    -0.004 A 
ATOM      4  C2  UNL d   1       2.022  -1.549   2.313  0.00  0.00    -0.047 A 
ATOM      5  C3  UNL d   1       2.551  -2.004   1.082  0.00  0.00    -0.047 A 
ATOM      6  C4  UNL d   1       1.834  -1.391   0.075  0.00  0.00    -0.004 A 
ENDROOT
TORSDOF 0
ENDMDL
