MODEL 1
REMARK minimizedAffinity -2.02061272
REMARK minimizedRMSD -1
REMARK  0 active torsions:
REMARK  status: ('A' for Active; 'I' for Inactive)
ROOT
ATOM      1  C   UNL d   1       0.042  -1.020   2.484  0.00  0.00     0.172 C 
ATOM      2  N   UNL d   1      -0.088  -0.816   1.060  0.00  0.00    -0.070 N 
ATOM      3  C1  UNL d   1      -1.003   0.001   0.451  0.00  0.00    -0.004 A 
ATOM      4  C2  UNL d   1      -0.801  -0.080  -0.910  0.00  0.00    -0.047 A 
ATOM      5  C3  UNL d   1       0.272  -0.978  -1.126  0.00  0.00    -0.047 A 
ATOM      6  C4  UNL d   1       0.694  -1.418   0.110  0.00  0.00    -0.004 A 
ENDROOT
TORSDOF 0
ENDMDL
