MODEL 1
REMARK minimizedAffinity -3.0738132
REMARK minimizedRMSD -1
REMARK  0 active torsions:
REMARK  status: ('A' for Active; 'I' for Inactive)
ROOT
ATOM      1  C   UNL d   1       0.102  -0.822   2.585  0.00  0.00     0.172 C 
ATOM      2  N   UNL d   1      -0.227  -0.302   1.278  0.00  0.00    -0.070 N 
ATOM      3  C1  UNL d   1       0.512  -0.480   0.139  0.00  0.00    -0.004 A 
ATOM      4  C2  UNL d   1      -0.136   0.169  -0.890  0.00  0.00    -0.047 A 
ATOM      5  C3  UNL d   1      -1.304   0.757  -0.350  0.00  0.00    -0.047 A 
ATOM      6  C4  UNL d   1      -1.335   0.450   0.994  0.00  0.00    -0.004 A 
ENDROOT
TORSDOF 0
ENDMDL
