MODEL 1
REMARK minimizedAffinity -2.3812921
REMARK minimizedRMSD -1
REMARK  0 active torsions:
REMARK  status: ('A' for Active; 'I' for Inactive)
ROOT
ATOM      1  C   UNL d   1      -0.170  -0.444  -1.566  0.00  0.00     0.172 C 
ATOM      2  N   UNL d   1      -0.298   0.028  -0.207  0.00  0.00    -0.070 N 
ATOM      3  C1  UNL d   1      -0.722  -0.717   0.861  0.00  0.00    -0.004 A 
ATOM      4  C2  UNL d   1      -0.704   0.093   1.975  0.00  0.00    -0.047 A 
ATOM      5  C3  UNL d   1      -0.255   1.370   1.563  0.00  0.00    -0.047 A 
ATOM      6  C4  UNL d   1      -0.011   1.302   0.207  0.00  0.00    -0.004 A 
ENDROOT
TORSDOF 0
ENDMDL
