MODEL 1
REMARK minimizedAffinity -3.71153998
REMARK minimizedRMSD -1
REMARK  0 active torsions:
REMARK  status: ('A' for Active; 'I' for Inactive)
ROOT
ATOM      1  C   UNL d   1       1.131  -1.509   2.620  0.00  0.00     0.172 C 
ATOM      2  N   UNL d   1       0.688  -1.080   1.314  0.00  0.00    -0.070 N 
ATOM      3  C1  UNL d   1       1.400  -1.202   0.150  0.00  0.00    -0.004 A 
ATOM      4  C2  UNL d   1       0.635  -0.678  -0.869  0.00  0.00    -0.047 A 
ATOM      5  C3  UNL d   1      -0.578  -0.224  -0.298  0.00  0.00    -0.047 A 
ATOM      6  C4  UNL d   1      -0.518  -0.485   1.055  0.00  0.00    -0.004 A 
ENDROOT
TORSDOF 0
ENDMDL
