MODEL 1
REMARK minimizedAffinity -3.45030665
REMARK minimizedRMSD -1
REMARK  0 active torsions:
REMARK  status: ('A' for Active; 'I' for Inactive)
ROOT
ATOM      1  C   UNL d   1      -1.572  -0.423   0.613  0.00  0.00     0.172 C 
ATOM      2  N   UNL d   1      -0.281  -0.891   1.058  0.00  0.00    -0.070 N 
ATOM      3  C1  UNL d   1      -0.004  -1.418   2.291  0.00  0.00    -0.004 A 
ATOM      4  C2  UNL d   1       1.335  -1.742   2.321  0.00  0.00    -0.047 A 
ATOM      5  C3  UNL d   1       1.882  -1.399   1.061  0.00  0.00    -0.047 A 
ATOM      6  C4  UNL d   1       0.860  -0.874   0.299  0.00  0.00    -0.004 A 
ENDROOT
TORSDOF 0
ENDMDL
