MODEL 1
REMARK minimizedAffinity -3.67220306
REMARK minimizedRMSD -1
REMARK  0 active torsions:
REMARK  status: ('A' for Active; 'I' for Inactive)
ROOT
ATOM      1  C   UNL d   1      -1.272  -0.553   0.033  0.00  0.00     0.172 C 
ATOM      2  N   UNL d   1      -0.097  -0.563   0.873  0.00  0.00    -0.070 N 
ATOM      3  C1  UNL d   1      -0.037  -1.040   2.155  0.00  0.00    -0.004 A 
ATOM      4  C2  UNL d   1       1.254  -0.872   2.608  0.00  0.00    -0.047 A 
ATOM      5  C3  UNL d   1       1.995  -0.272   1.562  0.00  0.00    -0.047 A 
ATOM      6  C4  UNL d   1       1.134  -0.092   0.500  0.00  0.00    -0.004 A 
ENDROOT
TORSDOF 0
ENDMDL
