MODEL 1
REMARK minimizedAffinity -2.94606113
REMARK minimizedRMSD -1
REMARK  0 active torsions:
REMARK  status: ('A' for Active; 'I' for Inactive)
ROOT
ATOM      1  C   UNL d   1      -0.805   0.297   0.612  0.00  0.00     0.172 C 
ATOM      2  N   UNL d   1       0.330  -0.400   1.170  0.00  0.00    -0.070 N 
ATOM      3  C1  UNL d   1       0.295  -1.257   2.237  0.00  0.00    -0.004 A 
ATOM      4  C2  UNL d   1       1.577  -1.712   2.456  0.00  0.00    -0.047 A 
ATOM      5  C3  UNL d   1       2.413  -1.106   1.488  0.00  0.00    -0.047 A 
ATOM      6  C4  UNL d   1       1.615  -0.299   0.704  0.00  0.00    -0.004 A 
ENDROOT
TORSDOF 0
ENDMDL
