MODEL 1
REMARK minimizedAffinity 0.426059395
REMARK minimizedRMSD -1
REMARK  0 active torsions:
REMARK  status: ('A' for Active; 'I' for Inactive)
ROOT
ATOM      1  C1  BNZ d   1       0.187   5.954  -3.136  0.00  0.00     0.000 A 
ATOM      2  C2  BNZ d   1       1.405   5.945  -3.762  0.00  0.00     0.000 A 
ATOM      3  C3  BNZ d   1       1.492   5.988  -5.125  0.00  0.00     0.000 A 
ATOM      4  C4  BNZ d   1       0.361   5.999  -5.861  0.00  0.00     0.000 A 
ATOM      5  C5  BNZ d   1      -0.874   5.999  -5.245  0.00  0.00     0.000 A 
ATOM      6  C6  BNZ d   1      -0.957   5.995  -3.871  0.00  0.00     0.000 A 
ENDROOT
TORSDOF 0
ENDMDL
