MODEL 1
REMARK minimizedAffinity 0.731924295
REMARK minimizedRMSD -1
REMARK  0 active torsions:
REMARK  status: ('A' for Active; 'I' for Inactive)
ROOT
ATOM      1  C1  BNZ d   1      -0.771   3.779  -5.425  0.00  0.00     0.000 A 
ATOM      2  C2  BNZ d   1       0.472   3.793  -5.999  0.00  0.00     0.000 A 
ATOM      3  C3  BNZ d   1       1.274   4.895  -5.904  0.00  0.00     0.000 A 
ATOM      4  C4  BNZ d   1       0.818   5.995  -5.270  0.00  0.00     0.000 A 
ATOM      5  C5  BNZ d   1      -0.437   5.999  -4.694  0.00  0.00     0.000 A 
ATOM      6  C6  BNZ d   1      -1.226   4.874  -4.758  0.00  0.00     0.000 A 
ENDROOT
TORSDOF 0
ENDMDL
