MODEL 1
REMARK minimizedAffinity -0.453720719
REMARK minimizedRMSD -1
REMARK  0 active torsions:
REMARK  status: ('A' for Active; 'I' for Inactive)
ROOT
ATOM      1  C1  BNZ d   1       4.901   5.995  -5.894  0.00  0.00     0.000 A 
ATOM      2  C2  BNZ d   1       6.000   5.184  -5.998  0.00  0.00     0.000 A 
ATOM      3  C3  BNZ d   1       5.994   3.925  -5.464  0.00  0.00     0.000 A 
ATOM      4  C4  BNZ d   1       4.906   3.495  -4.793  0.00  0.00     0.000 A 
ATOM      5  C5  BNZ d   1       3.794   4.304  -4.672  0.00  0.00     0.000 A 
ATOM      6  C6  BNZ d   1       3.789   5.556  -5.244  0.00  0.00     0.000 A 
ENDROOT
TORSDOF 0
ENDMDL
