MODEL 1
REMARK minimizedAffinity -1.15285397
REMARK minimizedRMSD -1
REMARK  0 active torsions:
REMARK  status: ('A' for Active; 'I' for Inactive)
ROOT
ATOM      1  C1  BNZ d   1       0.852   0.861   0.967  0.00  0.00     0.000 A 
ATOM      2  C2  BNZ d   1       1.151   2.197   0.979  0.00  0.00     0.000 A 
ATOM      3  C3  BNZ d   1       1.571   2.831  -0.157  0.00  0.00     0.000 A 
ATOM      4  C4  BNZ d   1       1.728   2.121  -1.293  0.00  0.00     0.000 A 
ATOM      5  C5  BNZ d   1       1.440   0.771  -1.319  0.00  0.00     0.000 A 
ATOM      6  C6  BNZ d   1       0.981   0.145  -0.183  0.00  0.00     0.000 A 
ENDROOT
TORSDOF 0
ENDMDL
