MODEL 1
REMARK minimizedAffinity -0.296084672
REMARK minimizedRMSD -1
REMARK  0 active torsions:
REMARK  status: ('A' for Active; 'I' for Inactive)
ROOT
ATOM      1  C1  BNZ d   1       3.401   4.985  -5.445  0.00  0.00     0.000 A 
ATOM      2  C2  BNZ d   1       4.258   5.998  -5.781  0.00  0.00     0.000 A 
ATOM      3  C3  BNZ d   1       5.550   5.999  -5.334  0.00  0.00     0.000 A 
ATOM      4  C4  BNZ d   1       5.971   5.009  -4.521  0.00  0.00     0.000 A 
ATOM      5  C5  BNZ d   1       5.116   3.985  -4.166  0.00  0.00     0.000 A 
ATOM      6  C6  BNZ d   1       3.827   3.967  -4.649  0.00  0.00     0.000 A 
ENDROOT
TORSDOF 0
ENDMDL
