MODEL 1
REMARK minimizedAffinity 5.82045221
REMARK minimizedRMSD -1
REMARK  0 active torsions:
REMARK  status: ('A' for Active; 'I' for Inactive)
ROOT
ATOM      1  C1  BNZ d   1       2.735   5.993  -5.967  0.00  0.00     0.000 A 
ATOM      2  C2  BNZ d   1       2.034   4.818  -5.911  0.00  0.00     0.000 A 
ATOM      3  C3  BNZ d   1       2.678   3.626  -5.730  0.00  0.00     0.000 A 
ATOM      4  C4  BNZ d   1       4.024   3.606  -5.646  0.00  0.00     0.000 A 
ATOM      5  C5  BNZ d   1       4.746   4.781  -5.710  0.00  0.00     0.000 A 
ATOM      6  C6  BNZ d   1       4.091   5.983  -5.853  0.00  0.00     0.000 A 
ENDROOT
TORSDOF 0
ENDMDL
