MODEL 1
REMARK minimizedAffinity 0.136069939
REMARK minimizedRMSD -1
REMARK  0 active torsions:
REMARK  status: ('A' for Active; 'I' for Inactive)
ROOT
ATOM      1  C1  BNZ d   1      -1.015   5.990  -2.576  0.00  0.00     0.000 A 
ATOM      2  C2  BNZ d   1      -1.107   5.993  -1.209  0.00  0.00     0.000 A 
ATOM      3  C3  BNZ d   1      -2.326   5.975  -0.590  0.00  0.00     0.000 A 
ATOM      4  C4  BNZ d   1      -3.449   5.993  -1.336  0.00  0.00     0.000 A 
ATOM      5  C5  BNZ d   1      -3.373   5.999  -2.714  0.00  0.00     0.000 A 
ATOM      6  C6  BNZ d   1      -2.145   5.979  -3.335  0.00  0.00     0.000 A 
ENDROOT
TORSDOF 0
ENDMDL
