MODEL 1
REMARK minimizedAffinity -0.445709974
REMARK minimizedRMSD -1
REMARK  0 active torsions:
REMARK  status: ('A' for Active; 'I' for Inactive)
ROOT
ATOM      1  C1  BNZ d   1      -3.022   6.000  -4.122  0.00  0.00     0.000 A 
ATOM      2  C2  BNZ d   1      -1.658   5.895  -4.081  0.00  0.00     0.000 A 
ATOM      3  C3  BNZ d   1      -1.000   5.773  -2.889  0.00  0.00     0.000 A 
ATOM      4  C4  BNZ d   1      -1.703   5.797  -1.739  0.00  0.00     0.000 A 
ATOM      5  C5  BNZ d   1      -3.079   5.912  -1.762  0.00  0.00     0.000 A 
ATOM      6  C6  BNZ d   1      -3.741   5.995  -2.966  0.00  0.00     0.000 A 
ENDROOT
TORSDOF 0
ENDMDL
