MODEL 1
REMARK minimizedAffinity -2.49793768
REMARK minimizedRMSD -1
REMARK  0 active torsions:
REMARK  status: ('A' for Active; 'I' for Inactive)
ROOT
ATOM      1  C1  BNZ d   1      -1.466   5.823  -4.838  0.00  0.00     0.000 A 
ATOM      2  C2  BNZ d   1      -0.787   5.553  -5.996  0.00  0.00     0.000 A 
ATOM      3  C3  BNZ d   1       0.576   5.446  -6.000  0.00  0.00     0.000 A 
ATOM      4  C4  BNZ d   1       1.259   5.649  -4.855  0.00  0.00     0.000 A 
ATOM      5  C5  BNZ d   1       0.590   5.931  -3.681  0.00  0.00     0.000 A 
ATOM      6  C6  BNZ d   1      -0.785   6.000  -3.674  0.00  0.00     0.000 A 
ENDROOT
TORSDOF 0
ENDMDL
