MODEL 1
REMARK minimizedAffinity 4.15910864
REMARK minimizedRMSD -1
REMARK  0 active torsions:
REMARK  status: ('A' for Active; 'I' for Inactive)
ROOT
ATOM      1  C1  BNZ d   1       2.140   5.988  -5.980  0.00  0.00     0.000 A 
ATOM      2  C2  BNZ d   1       3.507   5.996  -5.904  0.00  0.00     0.000 A 
ATOM      3  C3  BNZ d   1       4.174   5.037  -5.194  0.00  0.00     0.000 A 
ATOM      4  C4  BNZ d   1       3.473   4.096  -4.530  0.00  0.00     0.000 A 
ATOM      5  C5  BNZ d   1       2.094   4.080  -4.590  0.00  0.00     0.000 A 
ATOM      6  C6  BNZ d   1       1.427   5.024  -5.337  0.00  0.00     0.000 A 
ENDROOT
TORSDOF 0
ENDMDL
