MODEL 1
REMARK minimizedAffinity -3.2380681
REMARK minimizedRMSD -1
REMARK  0 active torsions:
REMARK  status: ('A' for Active; 'I' for Inactive)
ROOT
ATOM      1  C1  BNZ d   1       1.635   5.998  -4.783  0.00  0.00     0.000 A 
ATOM      2  C2  BNZ d   1       0.908   5.990  -3.623  0.00  0.00     0.000 A 
ATOM      3  C3  BNZ d   1      -0.373   5.515  -3.603  0.00  0.00     0.000 A 
ATOM      4  C4  BNZ d   1      -0.940   5.087  -4.749  0.00  0.00     0.000 A 
ATOM      5  C5  BNZ d   1      -0.223   5.098  -5.929  0.00  0.00     0.000 A 
ATOM      6  C6  BNZ d   1       1.080   5.540  -5.938  0.00  0.00     0.000 A 
ENDROOT
TORSDOF 0
ENDMDL
