MODEL 1
REMARK minimizedAffinity 1.9549675
REMARK minimizedRMSD -1
REMARK  0 active torsions:
REMARK  status: ('A' for Active; 'I' for Inactive)
ROOT
ATOM      1  C1  BNZ d   1      -2.924   5.993   0.394  0.00  0.00     0.000 A 
ATOM      2  C2  BNZ d   1      -4.108   5.999  -0.294  0.00  0.00     0.000 A 
ATOM      3  C3  BNZ d   1      -4.123   5.980  -1.661  0.00  0.00     0.000 A 
ATOM      4  C4  BNZ d   1      -2.956   5.996  -2.337  0.00  0.00     0.000 A 
ATOM      5  C5  BNZ d   1      -1.754   6.000  -1.657  0.00  0.00     0.000 A 
ATOM      6  C6  BNZ d   1      -1.743   5.979  -0.281  0.00  0.00     0.000 A 
ENDROOT
TORSDOF 0
ENDMDL
