MODEL 1
REMARK minimizedAffinity 6.94701242
REMARK minimizedRMSD -1
REMARK  0 active torsions:
REMARK  status: ('A' for Active; 'I' for Inactive)
ROOT
ATOM      1  C1  BNZ d   1      -1.303   0.268  -5.178  0.00  0.00     0.000 A 
ATOM      2  C2  BNZ d   1      -1.081   0.105  -3.837  0.00  0.00     0.000 A 
ATOM      3  C3  BNZ d   1      -0.904  -1.141  -3.303  0.00  0.00     0.000 A 
ATOM      4  C4  BNZ d   1      -0.990  -2.223  -4.104  0.00  0.00     0.000 A 
ATOM      5  C5  BNZ d   1      -1.223  -2.076  -5.457  0.00  0.00     0.000 A 
ATOM      6  C6  BNZ d   1      -1.361  -0.818  -5.997  0.00  0.00     0.000 A 
ENDROOT
TORSDOF 0
ENDMDL
