MODEL 1
REMARK minimizedAffinity 5.41516018
REMARK minimizedRMSD -1
REMARK  0 active torsions:
REMARK  status: ('A' for Active; 'I' for Inactive)
ROOT
ATOM      1  C1  BNZ d   1      -1.180   5.877  -4.822  0.00  0.00     0.000 A 
ATOM      2  C2  BNZ d   1      -0.499   5.919  -3.634  0.00  0.00     0.000 A 
ATOM      3  C3  BNZ d   1       0.866   5.990  -3.612  0.00  0.00     0.000 A 
ATOM      4  C4  BNZ d   1       1.549   5.978  -4.774  0.00  0.00     0.000 A 
ATOM      5  C5  BNZ d   1       0.878   5.927  -5.980  0.00  0.00     0.000 A 
ATOM      6  C6  BNZ d   1      -0.498   5.895  -5.999  0.00  0.00     0.000 A 
ENDROOT
TORSDOF 0
ENDMDL
