MODEL 1
REMARK minimizedAffinity 0.29522875
REMARK minimizedRMSD -1
REMARK  0 active torsions:
REMARK  status: ('A' for Active; 'I' for Inactive)
ROOT
ATOM      1  C1  BNZ d   1      -0.104   5.993  -4.805  0.00  0.00     0.000 A 
ATOM      2  C2  BNZ d   1       0.594   5.977  -5.983  0.00  0.00     0.000 A 
ATOM      3  C3  BNZ d   1       1.960   5.937  -5.987  0.00  0.00     0.000 A 
ATOM      4  C4  BNZ d   1       2.627   5.954  -4.815  0.00  0.00     0.000 A 
ATOM      5  C5  BNZ d   1       1.937   5.979  -3.619  0.00  0.00     0.000 A 
ATOM      6  C6  BNZ d   1       0.561   5.980  -3.619  0.00  0.00     0.000 A 
ENDROOT
TORSDOF 0
ENDMDL
