MODEL 1
REMARK minimizedAffinity -2.72794318
REMARK minimizedRMSD -1
REMARK  0 active torsions:
REMARK  status: ('A' for Active; 'I' for Inactive)
ROOT
ATOM      1  C1  BNZ d   1       0.724   4.229  -5.678  0.00  0.00     0.000 A 
ATOM      2  C2  BNZ d   1       2.055   4.239  -6.000  0.00  0.00     0.000 A 
ATOM      3  C3  BNZ d   1       2.916   5.107  -5.390  0.00  0.00     0.000 A 
ATOM      4  C4  BNZ d   1       2.439   5.991  -4.489  0.00  0.00     0.000 A 
ATOM      5  C5  BNZ d   1       1.098   6.000  -4.161  0.00  0.00     0.000 A 
ATOM      6  C6  BNZ d   1       0.241   5.098  -4.748  0.00  0.00     0.000 A 
ENDROOT
TORSDOF 0
ENDMDL
