MODEL 1
REMARK minimizedAffinity -0.919613481
REMARK minimizedRMSD -1
REMARK  0 active torsions:
REMARK  status: ('A' for Active; 'I' for Inactive)
ROOT
ATOM      1  C1  BNZ d   1      -3.743   5.985  -3.680  0.00  0.00     0.000 A 
ATOM      2  C2  BNZ d   1      -3.530   5.980  -2.327  0.00  0.00     0.000 A 
ATOM      3  C3  BNZ d   1      -2.262   6.000  -1.818  0.00  0.00     0.000 A 
ATOM      4  C4  BNZ d   1      -1.209   5.985  -2.660  0.00  0.00     0.000 A 
ATOM      5  C5  BNZ d   1      -1.407   5.981  -4.026  0.00  0.00     0.000 A 
ATOM      6  C6  BNZ d   1      -2.685   6.000  -4.536  0.00  0.00     0.000 A 
ENDROOT
TORSDOF 0
ENDMDL
