MODEL 1
REMARK minimizedAffinity 0.173750579
REMARK minimizedRMSD -1
REMARK  1 active torsions:
REMARK  status: ('A' for Active; 'I' for Inactive)
REMARK    1  A    between atoms: C3_4  and  O_7 
ROOT
ATOM      1  C   UNL d   1       3.622  -5.653  -2.421  0.00  0.00    -0.033 A 
ATOM      2  C1  UNL d   1       4.533  -5.846  -1.382  0.00  0.00     0.039 A 
ATOM      3  C2  UNL d   1       4.646  -4.896  -0.364  0.00  0.00    -0.080 A 
ATOM      4  C3  UNL d   1       3.842  -3.760  -0.398  0.00  0.00     0.150 A 
ATOM      5  C4  UNL d   1       2.929  -3.563  -1.428  0.00  0.00    -0.007 A 
ATOM      6  C5  UNL d   1       2.818  -4.512  -2.444  0.00  0.00     0.039 A 
ENDROOT
BRANCH   4   7
ATOM      7  O   UNL d   1       3.920  -2.803   0.570  0.00  0.00    -0.526 OA
ATOM      8  H5  UNL d   1       4.614  -3.059   1.201  0.00  0.00     0.418 HD
ENDBRANCH   4   7
TORSDOF 1
ENDMDL
