MODEL 1
REMARK minimizedAffinity 5.85872746
REMARK minimizedRMSD -1
REMARK  1 active torsions:
REMARK  status: ('A' for Active; 'I' for Inactive)
REMARK    1  A    between atoms: C3_4  and  O_7 
ROOT
ATOM      1  C   UNL d   1      -1.307   1.864   1.885  0.00  0.00    -0.033 A 
ATOM      2  C1  UNL d   1      -0.672   0.684   2.280  0.00  0.00     0.039 A 
ATOM      3  C2  UNL d   1       0.690   0.691   2.585  0.00  0.00    -0.080 A 
ATOM      4  C3  UNL d   1       1.405   1.882   2.494  0.00  0.00     0.150 A 
ATOM      5  C4  UNL d   1       0.779   3.061   2.105  0.00  0.00    -0.007 A 
ATOM      6  C5  UNL d   1      -0.582   3.053   1.800  0.00  0.00     0.039 A 
ENDROOT
BRANCH   4   7
ATOM      7  O   UNL d   1       2.738   1.937   2.777  0.00  0.00    -0.526 OA
ATOM      8  H5  UNL d   1       3.041   1.042   3.003  0.00  0.00     0.418 HD
ENDBRANCH   4   7
TORSDOF 1
ENDMDL
