MODEL 1
REMARK minimizedAffinity 3.56234694
REMARK minimizedRMSD -1
REMARK  1 active torsions:
REMARK  status: ('A' for Active; 'I' for Inactive)
REMARK    1  A    between atoms: C3_4  and  O_7 
ROOT
ATOM      1  C   UNL d   1       2.597  -3.366  -1.716  0.00  0.00    -0.033 A 
ATOM      2  C1  UNL d   1       3.004  -4.421  -2.535  0.00  0.00     0.039 A 
ATOM      3  C2  UNL d   1       3.975  -5.319  -2.089  0.00  0.00    -0.080 A 
ATOM      4  C3  UNL d   1       4.530  -5.152  -0.823  0.00  0.00     0.150 A 
ATOM      5  C4  UNL d   1       4.126  -4.105  -0.000  0.00  0.00    -0.007 A 
ATOM      6  C5  UNL d   1       3.157  -3.209  -0.448  0.00  0.00     0.039 A 
ENDROOT
BRANCH   4   7
ATOM      7  O   UNL d   1       5.484  -6.000  -0.345  0.00  0.00    -0.526 OA
ATOM      8  H5  UNL d   1       5.684  -6.656  -1.033  0.00  0.00     0.418 HD
ENDBRANCH   4   7
TORSDOF 1
ENDMDL
