MODEL 1
REMARK minimizedAffinity 5.85199833
REMARK minimizedRMSD -1
REMARK  1 active torsions:
REMARK  status: ('A' for Active; 'I' for Inactive)
REMARK    1  A    between atoms: C3_4  and  O_7 
ROOT
ATOM      1  C   UNL d   1      -5.999  -4.237   1.629  0.00  0.00    -0.033 A 
ATOM      2  C1  UNL d   1      -6.000  -2.984   2.246  0.00  0.00     0.039 A 
ATOM      3  C2  UNL d   1      -5.999  -2.890   3.639  0.00  0.00    -0.080 A 
ATOM      4  C3  UNL d   1      -5.996  -4.054   4.403  0.00  0.00     0.150 A 
ATOM      5  C4  UNL d   1      -5.991  -5.305   3.795  0.00  0.00    -0.007 A 
ATOM      6  C5  UNL d   1      -5.993  -5.397   2.404  0.00  0.00     0.039 A 
ENDROOT
BRANCH   4   7
ATOM      7  O   UNL d   1      -6.000  -4.013   5.766  0.00  0.00    -0.526 OA
ATOM      8  H5  UNL d   1      -6.032  -3.083   6.045  0.00  0.00     0.418 HD
ENDBRANCH   4   7
TORSDOF 1
ENDMDL
