MODEL 1
REMARK minimizedAffinity -0.202530697
REMARK minimizedRMSD -1
REMARK  1 active torsions:
REMARK  status: ('A' for Active; 'I' for Inactive)
REMARK    1  A    between atoms: C3_4  and  O_7 
ROOT
ATOM      1  C   UNL d   1       3.201  -1.973   0.357  0.00  0.00    -0.033 A 
ATOM      2  C1  UNL d   1       2.023  -2.277  -0.327  0.00  0.00     0.039 A 
ATOM      3  C2  UNL d   1       1.668  -1.552  -1.466  0.00  0.00    -0.080 A 
ATOM      4  C3  UNL d   1       2.500  -0.527  -1.910  0.00  0.00     0.150 A 
ATOM      5  C4  UNL d   1       3.677  -0.221  -1.235  0.00  0.00    -0.007 A 
ATOM      6  C5  UNL d   1       4.029  -0.946  -0.098  0.00  0.00     0.039 A 
ENDROOT
BRANCH   4   7
ATOM      7  O   UNL d   1       2.193   0.212  -3.014  0.00  0.00    -0.526 OA
ATOM      8  H5  UNL d   1       1.337  -0.093  -3.360  0.00  0.00     0.418 HD
ENDBRANCH   4   7
TORSDOF 1
ENDMDL
