MODEL 1
REMARK minimizedAffinity 8.74638557
REMARK minimizedRMSD -1
REMARK  1 active torsions:
REMARK  status: ('A' for Active; 'I' for Inactive)
REMARK    1  A    between atoms: C3_4  and  O_7 
ROOT
ATOM      1  C   UNL d   1       0.535  -3.178  -1.631  0.00  0.00    -0.033 A 
ATOM      2  C1  UNL d   1       0.316  -1.801  -1.700  0.00  0.00     0.039 A 
ATOM      3  C2  UNL d   1      -0.924  -1.310  -2.116  0.00  0.00    -0.080 A 
ATOM      4  C3  UNL d   1      -1.933  -2.205  -2.458  0.00  0.00     0.150 A 
ATOM      5  C4  UNL d   1      -1.723  -3.578  -2.389  0.00  0.00    -0.007 A 
ATOM      6  C5  UNL d   1      -0.484  -4.067  -1.974  0.00  0.00     0.039 A 
ENDROOT
BRANCH   4   7
ATOM      7  O   UNL d   1      -3.158  -1.773  -2.874  0.00  0.00    -0.526 OA
ATOM      8  H5  UNL d   1      -3.149  -0.802  -2.900  0.00  0.00     0.418 HD
ENDBRANCH   4   7
TORSDOF 1
ENDMDL
