MODEL 1
REMARK minimizedAffinity 14.1939411
REMARK minimizedRMSD -1
REMARK  1 active torsions:
REMARK  status: ('A' for Active; 'I' for Inactive)
REMARK    1  A    between atoms: C3_4  and  O_7 
ROOT
ATOM      1  C   UNL d   1       1.493  -2.028  -0.735  0.00  0.00    -0.033 A 
ATOM      2  C1  UNL d   1       0.895  -1.297  -1.763  0.00  0.00     0.039 A 
ATOM      3  C2  UNL d   1      -0.168  -1.843  -2.484  0.00  0.00    -0.080 A 
ATOM      4  C3  UNL d   1      -0.625  -3.119  -2.165  0.00  0.00     0.150 A 
ATOM      5  C4  UNL d   1      -0.036  -3.852  -1.140  0.00  0.00    -0.007 A 
ATOM      6  C5  UNL d   1       1.027  -3.305  -0.422  0.00  0.00     0.039 A 
ENDROOT
BRANCH   4   7
ATOM      7  O   UNL d   1      -1.657  -3.697  -2.844  0.00  0.00    -0.526 OA
ATOM      8  H5  UNL d   1      -1.945  -3.087  -3.543  0.00  0.00     0.418 HD
ENDBRANCH   4   7
TORSDOF 1
ENDMDL
