MODEL 1
REMARK minimizedAffinity 12.6629686
REMARK minimizedRMSD -1
REMARK  1 active torsions:
REMARK  status: ('A' for Active; 'I' for Inactive)
REMARK    1  A    between atoms: C3_4  and  O_7 
ROOT
ATOM      1  C   UNL d   1       3.820   3.790   6.000  0.00  0.00    -0.033 A 
ATOM      2  C1  UNL d   1       2.991   4.317   5.007  0.00  0.00     0.039 A 
ATOM      3  C2  UNL d   1       2.481   3.485   4.008  0.00  0.00    -0.080 A 
ATOM      4  C3  UNL d   1       2.806   2.132   4.014  0.00  0.00     0.150 A 
ATOM      5  C4  UNL d   1       3.628   1.600   5.002  0.00  0.00    -0.007 A 
ATOM      6  C5  UNL d   1       4.137   2.432   5.998  0.00  0.00     0.039 A 
ENDROOT
BRANCH   4   7
ATOM      7  O   UNL d   1       2.336   1.282   3.057  0.00  0.00    -0.526 OA
ATOM      8  H5  UNL d   1       1.805   1.794   2.424  0.00  0.00     0.418 HD
ENDBRANCH   4   7
TORSDOF 1
ENDMDL
