MODEL 1
REMARK minimizedAffinity 9.36388969
REMARK minimizedRMSD -1
REMARK  1 active torsions:
REMARK  status: ('A' for Active; 'I' for Inactive)
REMARK    1  A    between atoms: C3_4  and  O_7 
ROOT
ATOM      1  C   UNL d   1      -0.093  -3.576  -1.703  0.00  0.00    -0.033 A 
ATOM      2  C1  UNL d   1      -1.206  -4.338  -2.064  0.00  0.00     0.039 A 
ATOM      3  C2  UNL d   1      -2.321  -3.722  -2.636  0.00  0.00    -0.080 A 
ATOM      4  C3  UNL d   1      -2.309  -2.345  -2.842  0.00  0.00     0.150 A 
ATOM      5  C4  UNL d   1      -1.203  -1.580  -2.488  0.00  0.00    -0.007 A 
ATOM      6  C5  UNL d   1      -0.091  -2.197  -1.917  0.00  0.00     0.039 A 
ENDROOT
BRANCH   4   7
ATOM      7  O   UNL d   1      -3.376  -1.698  -3.392  0.00  0.00    -0.526 OA
ATOM      8  H5  UNL d   1      -4.078  -2.349  -3.559  0.00  0.00     0.418 HD
ENDBRANCH   4   7
TORSDOF 1
ENDMDL
