MODEL 1
REMARK minimizedAffinity 5.56632042
REMARK minimizedRMSD -1
REMARK  1 active torsions:
REMARK  status: ('A' for Active; 'I' for Inactive)
REMARK    1  A    between atoms: C3_4  and  O_7 
ROOT
ATOM      1  C   UNL d   1      -5.999  -3.779   3.368  0.00  0.00    -0.033 A 
ATOM      2  C1  UNL d   1      -5.999  -3.599   1.983  0.00  0.00     0.039 A 
ATOM      3  C2  UNL d   1      -5.998  -2.311   1.445  0.00  0.00    -0.080 A 
ATOM      4  C3  UNL d   1      -5.996  -1.213   2.301  0.00  0.00     0.150 A 
ATOM      5  C4  UNL d   1      -5.991  -1.385   3.681  0.00  0.00    -0.007 A 
ATOM      6  C5  UNL d   1      -5.993  -2.672   4.217  0.00  0.00     0.039 A 
ENDROOT
BRANCH   4   7
ATOM      7  O   UNL d   1      -6.000   0.064   1.822  0.00  0.00    -0.526 OA
ATOM      8  H5  UNL d   1      -6.032   0.028   0.851  0.00  0.00     0.418 HD
ENDBRANCH   4   7
TORSDOF 1
ENDMDL
