MODEL 1
REMARK minimizedAffinity 4.57415295
REMARK minimizedRMSD -1
REMARK  1 active torsions:
REMARK  status: ('A' for Active; 'I' for Inactive)
REMARK    1  A    between atoms: C3_4  and  O_7 
ROOT
ATOM      1  C   UNL d   1       0.346  -3.206  -2.006  0.00  0.00    -0.033 A 
ATOM      2  C1  UNL d   1      -0.655  -4.164  -2.183  0.00  0.00     0.039 A 
ATOM      3  C2  UNL d   1      -1.878  -3.801  -2.750  0.00  0.00    -0.080 A 
ATOM      4  C3  UNL d   1      -2.087  -2.481  -3.137  0.00  0.00     0.150 A 
ATOM      5  C4  UNL d   1      -1.093  -1.523  -2.968  0.00  0.00    -0.007 A 
ATOM      6  C5  UNL d   1       0.128  -1.886  -2.401  0.00  0.00     0.039 A 
ENDROOT
BRANCH   4   7
ATOM      7  O   UNL d   1      -3.266  -2.079  -3.691  0.00  0.00    -0.526 OA
ATOM      8  H5  UNL d   1      -3.868  -2.841  -3.719  0.00  0.00     0.418 HD
ENDBRANCH   4   7
TORSDOF 1
ENDMDL
