MODEL 1
REMARK minimizedAffinity 5.65501976
REMARK minimizedRMSD -1
REMARK  1 active torsions:
REMARK  status: ('A' for Active; 'I' for Inactive)
REMARK    1  A    between atoms: C3_4  and  O_7 
ROOT
ATOM      1  C   UNL d   1       1.928   5.998  -0.859  0.00  0.00    -0.033 A 
ATOM      2  C1  UNL d   1       2.355   5.872  -2.182  0.00  0.00     0.039 A 
ATOM      3  C2  UNL d   1       2.293   4.633  -2.823  0.00  0.00    -0.080 A 
ATOM      4  C3  UNL d   1       1.804   3.529  -2.131  0.00  0.00     0.150 A 
ATOM      5  C4  UNL d   1       1.374   3.648  -0.813  0.00  0.00    -0.007 A 
ATOM      6  C5  UNL d   1       1.436   4.886  -0.175  0.00  0.00     0.039 A 
ENDROOT
BRANCH   4   7
ATOM      7  O   UNL d   1       1.729   2.299  -2.712  0.00  0.00    -0.526 OA
ATOM      8  H5  UNL d   1       2.088   2.362  -3.614  0.00  0.00     0.418 HD
ENDBRANCH   4   7
TORSDOF 1
ENDMDL
