MODEL 1
REMARK minimizedAffinity 0.599910438
REMARK minimizedRMSD -1
REMARK  1 active torsions:
REMARK  status: ('A' for Active; 'I' for Inactive)
REMARK    1  A    between atoms: C3_4  and  O_7 
ROOT
ATOM      1  C   UNL d   1       2.221  -1.233  -1.754  0.00  0.00    -0.033 A 
ATOM      2  C1  UNL d   1       1.985  -2.073  -0.664  0.00  0.00     0.039 A 
ATOM      3  C2  UNL d   1       0.941  -2.999  -0.707  0.00  0.00    -0.080 A 
ATOM      4  C3  UNL d   1       0.143  -3.077  -1.844  0.00  0.00     0.150 A 
ATOM      5  C4  UNL d   1       0.375  -2.247  -2.936  0.00  0.00    -0.007 A 
ATOM      6  C5  UNL d   1       1.417  -1.321  -2.891  0.00  0.00     0.039 A 
ENDROOT
BRANCH   4   7
ATOM      7  O   UNL d   1      -0.891  -3.962  -1.931  0.00  0.00    -0.526 OA
ATOM      8  H5  UNL d   1      -0.949  -4.449  -1.092  0.00  0.00     0.418 HD
ENDBRANCH   4   7
TORSDOF 1
ENDMDL
