MODEL 1
REMARK minimizedAffinity -4.39283562
REMARK minimizedRMSD -1
REMARK  1 active torsions:
REMARK  status: ('A' for Active; 'I' for Inactive)
REMARK    1  A    between atoms: C3_4  and  O_7 
ROOT
ATOM      1  C   UNL d   1       2.196  -1.323  -1.941  0.00  0.00    -0.033 A 
ATOM      2  C1  UNL d   1       1.410  -2.128  -1.115  0.00  0.00     0.039 A 
ATOM      3  C2  UNL d   1       0.595  -1.548  -0.141  0.00  0.00    -0.080 A 
ATOM      4  C3  UNL d   1       0.574  -0.162  -0.005  0.00  0.00     0.150 A 
ATOM      5  C4  UNL d   1       1.352   0.647  -0.827  0.00  0.00    -0.007 A 
ATOM      6  C5  UNL d   1       2.166   0.065  -1.798  0.00  0.00     0.039 A 
ENDROOT
BRANCH   4   7
ATOM      7  O   UNL d   1      -0.202   0.449   0.934  0.00  0.00    -0.526 OA
ATOM      8  H5  UNL d   1      -0.662  -0.236   1.447  0.00  0.00     0.418 HD
ENDBRANCH   4   7
TORSDOF 1
ENDMDL
