MODEL 1
REMARK minimizedAffinity 5.11764479
REMARK minimizedRMSD -1
REMARK  0 active torsions:
REMARK  status: ('A' for Active; 'I' for Inactive)
ROOT
ATOM      1  C   UNL d   1      -1.351  -3.405  -2.327  0.00  0.00     0.172 C 
ATOM      2  N   UNL d   1      -1.607  -4.227  -3.486  0.00  0.00    -0.070 N 
ATOM      3  C1  UNL d   1      -1.606  -3.796  -4.786  0.00  0.00    -0.004 A 
ATOM      4  C2  UNL d   1      -1.892  -4.879  -5.589  0.00  0.00    -0.047 A 
ATOM      5  C3  UNL d   1      -2.072  -5.998  -4.743  0.00  0.00    -0.047 A 
ATOM      6  C4  UNL d   1      -1.890  -5.566  -3.446  0.00  0.00    -0.004 A 
ENDROOT
TORSDOF 0
ENDMDL
