MODEL 1
REMARK minimizedAffinity 3.50307298
REMARK minimizedRMSD -1
REMARK  0 active torsions:
REMARK  status: ('A' for Active; 'I' for Inactive)
ROOT
ATOM      1  C   UNL d   1      -1.288  -2.191  -2.077  0.00  0.00     0.172 C 
ATOM      2  N   UNL d   1      -0.442  -1.425  -2.961  0.00  0.00    -0.070 N 
ATOM      3  C1  UNL d   1      -0.359  -1.579  -4.319  0.00  0.00    -0.004 A 
ATOM      4  C2  UNL d   1       0.556  -0.664  -4.793  0.00  0.00    -0.047 A 
ATOM      5  C3  UNL d   1       1.041   0.064  -3.681  0.00  0.00    -0.047 A 
ATOM      6  C4  UNL d   1       0.407  -0.427  -2.560  0.00  0.00    -0.004 A 
ENDROOT
TORSDOF 0
ENDMDL
