MODEL 1
REMARK minimizedAffinity 3.59622765
REMARK minimizedRMSD -1
REMARK  0 active torsions:
REMARK  status: ('A' for Active; 'I' for Inactive)
ROOT
ATOM      1  C   UNL d   1       1.528  -2.955   4.692  0.00  0.00     0.172 C 
ATOM      2  N   UNL d   1       1.281  -1.734   3.963  0.00  0.00    -0.070 N 
ATOM      3  C1  UNL d   1       0.483  -1.613   2.857  0.00  0.00    -0.004 A 
ATOM      4  C2  UNL d   1       0.509  -0.293   2.460  0.00  0.00    -0.047 A 
ATOM      5  C3  UNL d   1       1.353   0.403   3.358  0.00  0.00    -0.047 A 
ATOM      6  C4  UNL d   1       1.817  -0.513   4.278  0.00  0.00    -0.004 A 
ENDROOT
TORSDOF 0
ENDMDL
