MODEL 1
REMARK minimizedAffinity 0.964010537
REMARK minimizedRMSD -1
REMARK  0 active torsions:
REMARK  status: ('A' for Active; 'I' for Inactive)
ROOT
ATOM      1  C   UNL d   1      -0.657   2.586   2.594  0.00  0.00     0.172 C 
ATOM      2  N   UNL d   1      -0.278   1.210   2.815  0.00  0.00    -0.070 N 
ATOM      3  C1  UNL d   1      -0.884   0.116   2.258  0.00  0.00    -0.004 A 
ATOM      4  C2  UNL d   1      -0.229  -1.007   2.715  0.00  0.00    -0.047 A 
ATOM      5  C3  UNL d   1       0.806  -0.573   3.577  0.00  0.00    -0.047 A 
ATOM      6  C4  UNL d   1       0.753   0.804   3.621  0.00  0.00    -0.004 A 
ENDROOT
TORSDOF 0
ENDMDL
