MODEL 1
REMARK minimizedAffinity 8.348876
REMARK minimizedRMSD -1
REMARK  0 active torsions:
REMARK  status: ('A' for Active; 'I' for Inactive)
ROOT
ATOM      1  C   UNL d   1      -1.659  -1.597   0.624  0.00  0.00     0.172 C 
ATOM      2  N   UNL d   1      -0.901  -0.705   1.469  0.00  0.00    -0.070 N 
ATOM      3  C1  UNL d   1       0.394  -0.893   1.872  0.00  0.00    -0.004 A 
ATOM      4  C2  UNL d   1       0.750   0.177   2.664  0.00  0.00    -0.047 A 
ATOM      5  C3  UNL d   1      -0.371   1.038   2.741  0.00  0.00    -0.047 A 
ATOM      6  C4  UNL d   1      -1.379   0.468   1.993  0.00  0.00    -0.004 A 
ENDROOT
TORSDOF 0
ENDMDL
