MODEL 1
REMARK minimizedAffinity 8.92659664
REMARK minimizedRMSD -1
REMARK  0 active torsions:
REMARK  status: ('A' for Active; 'I' for Inactive)
ROOT
ATOM      1  C   UNL d   1       0.920  -4.408  -5.721  0.00  0.00     0.172 C 
ATOM      2  N   UNL d   1      -0.470  -4.788  -5.635  0.00  0.00    -0.070 N 
ATOM      3  C1  UNL d   1      -1.535  -4.008  -6.000  0.00  0.00    -0.004 A 
ATOM      4  C2  UNL d   1      -2.686  -4.728  -5.766  0.00  0.00    -0.047 A 
ATOM      5  C3  UNL d   1      -2.300  -5.984  -5.240  0.00  0.00    -0.047 A 
ATOM      6  C4  UNL d   1      -0.923  -5.994  -5.170  0.00  0.00    -0.004 A 
ENDROOT
TORSDOF 0
ENDMDL
