MODEL 1
REMARK minimizedAffinity 4.70502424
REMARK minimizedRMSD -1
REMARK  0 active torsions:
REMARK  status: ('A' for Active; 'I' for Inactive)
ROOT
ATOM      1  C   UNL d   1       1.476  -0.212  -4.672  0.00  0.00     0.172 C 
ATOM      2  N   UNL d   1       0.368  -0.844  -3.996  0.00  0.00    -0.070 N 
ATOM      3  C1  UNL d   1      -0.486  -0.232  -3.118  0.00  0.00    -0.004 A 
ATOM      4  C2  UNL d   1      -1.402  -1.171  -2.695  0.00  0.00    -0.047 A 
ATOM      5  C3  UNL d   1      -1.086  -2.390  -3.340  0.00  0.00    -0.047 A 
ATOM      6  C4  UNL d   1       0.013  -2.160  -4.140  0.00  0.00    -0.004 A 
ENDROOT
TORSDOF 0
ENDMDL
