MODEL 1
REMARK minimizedAffinity 8.70527172
REMARK minimizedRMSD -1
REMARK  0 active torsions:
REMARK  status: ('A' for Active; 'I' for Inactive)
ROOT
ATOM      1  C   UNL d   1      -1.722  -1.923  -3.263  0.00  0.00     0.172 C 
ATOM      2  N   UNL d   1      -0.706  -1.207  -3.998  0.00  0.00    -0.070 N 
ATOM      3  C1  UNL d   1      -0.717  -0.966  -5.346  0.00  0.00    -0.004 A 
ATOM      4  C2  UNL d   1       0.423  -0.257  -5.657  0.00  0.00    -0.047 A 
ATOM      5  C3  UNL d   1       1.145  -0.067  -4.455  0.00  0.00    -0.047 A 
ATOM      6  C4  UNL d   1       0.423  -0.665  -3.443  0.00  0.00    -0.004 A 
ENDROOT
TORSDOF 0
ENDMDL
