MODEL 1
REMARK minimizedAffinity 4.87754965
REMARK minimizedRMSD -1
REMARK  2 active torsions:
REMARK  status: ('A' for Active; 'I' for Inactive)
REMARK    1  A    between atoms: C1_2  and  C2_3 
REMARK    2  A    between atoms: C2_3  and  C3_4 
ROOT
ATOM      1  C3  UNL d   1      -0.870   0.232   2.115  0.00  0.00    -0.075 A 
ATOM      2  C4  UNL d   1      -1.910   1.171   2.165  0.00  0.00     0.002 A 
ATOM      3  C5  UNL d   1      -1.720   2.465   1.679  0.00  0.00     0.002 A 
ATOM      4  C6  UNL d   1      -0.488   2.838   1.147  0.00  0.00    -0.004 A 
ATOM      5  C7  UNL d   1       0.557   1.918   1.107  0.00  0.00     0.002 A 
ATOM      6  C8  UNL d   1       0.369   0.622   1.589  0.00  0.00     0.002 A 
ENDROOT
BRANCH   1   7
ATOM      7  C2  UNL d   1      -1.078  -1.179   2.612  0.00  0.00     0.056 C 
BRANCH   7   8
ATOM      8  C1  UNL d   1      -2.490  -1.452   3.140  0.00  0.00     0.007 C 
ATOM      9  C   UNL d   1      -2.501  -2.178   4.479  0.00  0.00     0.009 C 
ENDBRANCH   7   8
ENDBRANCH   1   7
TORSDOF 2
ENDMDL
