MODEL 1
REMARK minimizedAffinity -3.44320822
REMARK minimizedRMSD -1
REMARK  2 active torsions:
REMARK  status: ('A' for Active; 'I' for Inactive)
REMARK    1  A    between atoms: C1_2  and  C2_3 
REMARK    2  A    between atoms: C2_3  and  C3_4 
ROOT
ATOM      1  C3  UNL d   1      -2.002   1.470   1.940  0.00  0.00    -0.075 A 
ATOM      2  C4  UNL d   1      -2.104   0.072   1.978  0.00  0.00     0.002 A 
ATOM      3  C5  UNL d   1      -1.042  -0.727   1.553  0.00  0.00     0.002 A 
ATOM      4  C6  UNL d   1       0.128  -0.141   1.076  0.00  0.00    -0.004 A 
ATOM      5  C7  UNL d   1       0.234   1.247   1.018  0.00  0.00     0.002 A 
ATOM      6  C8  UNL d   1      -0.825   2.049   1.447  0.00  0.00     0.002 A 
ENDROOT
BRANCH   1   7
ATOM      7  C2  UNL d   1      -3.135   2.341   2.427  0.00  0.00     0.056 C 
BRANCH   7   8
ATOM      8  C1  UNL d   1      -4.113   1.626   3.366  0.00  0.00     0.007 C 
ATOM      9  C   UNL d   1      -4.578   2.497   4.525  0.00  0.00     0.009 C 
ENDBRANCH   7   8
ENDBRANCH   1   7
TORSDOF 2
ENDMDL
