MODEL 1
REMARK minimizedAffinity -3.59103155
REMARK minimizedRMSD -1
REMARK  2 active torsions:
REMARK  status: ('A' for Active; 'I' for Inactive)
REMARK    1  A    between atoms: C1_2  and  C2_3 
REMARK    2  A    between atoms: C2_3  and  C3_4 
ROOT
ATOM      1  C3  UNL d   1      -2.493   1.317   2.592  0.00  0.00    -0.075 A 
ATOM      2  C4  UNL d   1      -2.050  -0.003   2.762  0.00  0.00     0.002 A 
ATOM      3  C5  UNL d   1      -0.808  -0.402   2.266  0.00  0.00     0.002 A 
ATOM      4  C6  UNL d   1      -0.001   0.508   1.587  0.00  0.00    -0.004 A 
ATOM      5  C7  UNL d   1      -0.438   1.817   1.398  0.00  0.00     0.002 A 
ATOM      6  C8  UNL d   1      -1.678   2.220   1.897  0.00  0.00     0.002 A 
ENDROOT
BRANCH   1   7
ATOM      7  C2  UNL d   1      -3.823   1.763   3.151  0.00  0.00     0.056 C 
BRANCH   7   8
ATOM      8  C1  UNL d   1      -3.868   1.821   4.682  0.00  0.00     0.007 C 
ATOM      9  C   UNL d   1      -4.947   2.753   5.216  0.00  0.00     0.009 C 
ENDBRANCH   7   8
ENDBRANCH   1   7
TORSDOF 2
ENDMDL
