MODEL 1
REMARK minimizedAffinity 0.393164515
REMARK minimizedRMSD -1
REMARK  2 active torsions:
REMARK  status: ('A' for Active; 'I' for Inactive)
REMARK    1  A    between atoms: C1_2  and  C2_3 
REMARK    2  A    between atoms: C2_3  and  C3_4 
ROOT
ATOM      1  C3  UNL d   1      -1.041   0.043   2.008  0.00  0.00    -0.075 A 
ATOM      2  C4  UNL d   1       0.252   0.283   1.520  0.00  0.00     0.002 A 
ATOM      3  C5  UNL d   1       0.673   1.583   1.238  0.00  0.00     0.002 A 
ATOM      4  C6  UNL d   1      -0.194   2.656   1.430  0.00  0.00    -0.004 A 
ATOM      5  C7  UNL d   1      -1.486   2.428   1.898  0.00  0.00     0.002 A 
ATOM      6  C8  UNL d   1      -1.909   1.129   2.185  0.00  0.00     0.002 A 
ENDROOT
BRANCH   1   7
ATOM      7  C2  UNL d   1      -1.493  -1.358   2.343  0.00  0.00     0.056 C 
BRANCH   7   8
ATOM      8  C1  UNL d   1      -2.713  -1.416   3.267  0.00  0.00     0.007 C 
ATOM      9  C   UNL d   1      -2.457  -2.190   4.553  0.00  0.00     0.009 C 
ENDBRANCH   7   8
ENDBRANCH   1   7
TORSDOF 2
ENDMDL
