MODEL 1
REMARK minimizedAffinity -0.2125213
REMARK minimizedRMSD -1
REMARK  2 active torsions:
REMARK  status: ('A' for Active; 'I' for Inactive)
REMARK    1  A    between atoms: C1_2  and  C2_3 
REMARK    2  A    between atoms: C2_3  and  C3_4 
ROOT
ATOM      1  C3  UNL d   1       0.178   2.636   1.139  0.00  0.00    -0.075 A 
ATOM      2  C4  UNL d   1       0.251   1.541   2.012  0.00  0.00     0.002 A 
ATOM      3  C5  UNL d   1      -0.909   0.880   2.418  0.00  0.00     0.002 A 
ATOM      4  C6  UNL d   1      -2.154   1.311   1.966  0.00  0.00    -0.004 A 
ATOM      5  C7  UNL d   1      -2.240   2.408   1.112  0.00  0.00     0.002 A 
ATOM      6  C8  UNL d   1      -1.081   3.069   0.700  0.00  0.00     0.002 A 
ENDROOT
BRANCH   1   7
ATOM      7  C2  UNL d   1       1.431   3.338   0.672  0.00  0.00     0.056 C 
BRANCH   7   8
ATOM      8  C1  UNL d   1       1.494   4.821   1.052  0.00  0.00     0.007 C 
ATOM      9  C   UNL d   1       2.838   5.464   0.738  0.00  0.00     0.009 C 
ENDBRANCH   7   8
ENDBRANCH   1   7
TORSDOF 2
ENDMDL
