MODEL 1
REMARK minimizedAffinity 4.30632067
REMARK minimizedRMSD -1
REMARK  2 active torsions:
REMARK  status: ('A' for Active; 'I' for Inactive)
REMARK    1  A    between atoms: C1_2  and  C2_3 
REMARK    2  A    between atoms: C2_3  and  C3_4 
ROOT
ATOM      1  C3  UNL d   1      -2.346  -3.985  -0.871  0.00  0.00    -0.075 A 
ATOM      2  C4  UNL d   1      -2.012  -3.109  -1.915  0.00  0.00     0.002 A 
ATOM      3  C5  UNL d   1      -2.915  -2.133  -2.337  0.00  0.00     0.002 A 
ATOM      4  C6  UNL d   1      -4.164  -2.026  -1.729  0.00  0.00    -0.004 A 
ATOM      5  C7  UNL d   1      -4.513  -2.901  -0.703  0.00  0.00     0.002 A 
ATOM      6  C8  UNL d   1      -3.609  -3.876  -0.275  0.00  0.00     0.002 A 
ENDROOT
BRANCH   1   7
ATOM      7  C2  UNL d   1      -1.362  -5.024  -0.390  0.00  0.00     0.056 C 
BRANCH   7   8
ATOM      8  C1  UNL d   1      -0.037  -4.443   0.114  0.00  0.00     0.007 C 
ATOM      9  C   UNL d   1       0.994  -4.253  -0.991  0.00  0.00     0.009 C 
ENDBRANCH   7   8
ENDBRANCH   1   7
TORSDOF 2
ENDMDL
