MODEL 1
REMARK minimizedAffinity 5.42066097
REMARK minimizedRMSD -1
REMARK  2 active torsions:
REMARK  status: ('A' for Active; 'I' for Inactive)
REMARK    1  A    between atoms: C1_2  and  C2_3 
REMARK    2  A    between atoms: C2_3  and  C3_4 
ROOT
ATOM      1  C3  UNL d   1      -1.300   0.230   2.063  0.00  0.00    -0.075 A 
ATOM      2  C4  UNL d   1      -2.277   1.233   2.142  0.00  0.00     0.002 A 
ATOM      3  C5  UNL d   1      -1.957   2.558   1.845  0.00  0.00     0.002 A 
ATOM      4  C6  UNL d   1      -0.657   2.898   1.477  0.00  0.00    -0.004 A 
ATOM      5  C7  UNL d   1       0.325   1.912   1.411  0.00  0.00     0.002 A 
ATOM      6  C8  UNL d   1       0.007   0.585   1.703  0.00  0.00     0.002 A 
ENDROOT
BRANCH   1   7
ATOM      7  C2  UNL d   1      -1.647  -1.211   2.354  0.00  0.00     0.056 C 
BRANCH   7   8
ATOM      8  C1  UNL d   1      -3.032  -1.405   2.981  0.00  0.00     0.007 C 
ATOM      9  C   UNL d   1      -3.001  -2.225   4.264  0.00  0.00     0.009 C 
ENDBRANCH   7   8
ENDBRANCH   1   7
TORSDOF 2
ENDMDL
