MODEL 1
REMARK minimizedAffinity 3.08739805
REMARK minimizedRMSD -1
REMARK  2 active torsions:
REMARK  status: ('A' for Active; 'I' for Inactive)
REMARK    1  A    between atoms: C1_2  and  C2_3 
REMARK    2  A    between atoms: C2_3  and  C3_4 
ROOT
ATOM      1  C3  UNL d   1      -2.229   1.581   2.524  0.00  0.00    -0.075 A 
ATOM      2  C4  UNL d   1      -1.210   0.626   2.660  0.00  0.00     0.002 A 
ATOM      3  C5  UNL d   1       0.018   0.806   2.024  0.00  0.00     0.002 A 
ATOM      4  C6  UNL d   1       0.241   1.935   1.237  0.00  0.00    -0.004 A 
ATOM      5  C7  UNL d   1      -0.770   2.881   1.082  0.00  0.00     0.002 A 
ATOM      6  C8  UNL d   1      -1.999   2.706   1.721  0.00  0.00     0.002 A 
ENDROOT
BRANCH   1   7
ATOM      7  C2  UNL d   1      -3.550   1.406   3.233  0.00  0.00     0.056 C 
BRANCH   7   8
ATOM      8  C1  UNL d   1      -4.179   2.719   3.712  0.00  0.00     0.007 C 
ATOM      9  C   UNL d   1      -4.592   2.688   5.178  0.00  0.00     0.009 C 
ENDBRANCH   7   8
ENDBRANCH   1   7
TORSDOF 2
ENDMDL
