MODEL 1
REMARK minimizedAffinity 5.97936201
REMARK minimizedRMSD -1
REMARK  2 active torsions:
REMARK  status: ('A' for Active; 'I' for Inactive)
REMARK    1  A    between atoms: C1_2  and  C2_3 
REMARK    2  A    between atoms: C2_3  and  C3_4 
ROOT
ATOM      1  C3  UNL d   1       1.024   2.354   1.131  0.00  0.00    -0.075 A 
ATOM      2  C4  UNL d   1      -0.230   2.944   1.348  0.00  0.00     0.002 A 
ATOM      3  C5  UNL d   1      -1.292   2.187   1.843  0.00  0.00     0.002 A 
ATOM      4  C6  UNL d   1      -1.118   0.832   2.117  0.00  0.00    -0.004 A 
ATOM      5  C7  UNL d   1       0.119   0.232   1.889  0.00  0.00     0.002 A 
ATOM      6  C8  UNL d   1       1.184   0.988   1.398  0.00  0.00     0.002 A 
ENDROOT
BRANCH   1   7
ATOM      7  C2  UNL d   1       2.186   3.175   0.623  0.00  0.00     0.056 C 
BRANCH   7   8
ATOM      8  C1  UNL d   1       2.191   4.624   1.122  0.00  0.00     0.007 C 
ATOM      9  C   UNL d   1       3.486   5.362   0.808  0.00  0.00     0.009 C 
ENDBRANCH   7   8
ENDBRANCH   1   7
TORSDOF 2
ENDMDL
