MODEL 1
REMARK minimizedAffinity 8.20068932
REMARK minimizedRMSD -1
REMARK  2 active torsions:
REMARK  status: ('A' for Active; 'I' for Inactive)
REMARK    1  A    between atoms: C1_2  and  C2_3 
REMARK    2  A    between atoms: C2_3  and  C3_4 
ROOT
ATOM      1  C3  UNL d   1      -4.251   1.122   3.546  0.00  0.00    -0.075 A 
ATOM      2  C4  UNL d   1      -4.079  -0.247   3.297  0.00  0.00     0.002 A 
ATOM      3  C5  UNL d   1      -3.010  -0.697   2.523  0.00  0.00     0.002 A 
ATOM      4  C6  UNL d   1      -2.106   0.214   1.981  0.00  0.00    -0.004 A 
ATOM      5  C7  UNL d   1      -2.276   1.578   2.208  0.00  0.00     0.002 A 
ATOM      6  C8  UNL d   1      -3.343   2.031   2.986  0.00  0.00     0.002 A 
ENDROOT
BRANCH   1   7
ATOM      7  C2  UNL d   1      -5.390   1.614   4.408  0.00  0.00     0.056 C 
BRANCH   7   8
ATOM      8  C1  UNL d   1      -4.949   2.491   5.584  0.00  0.00     0.007 C 
ATOM      9  C   UNL d   1      -5.996   3.518   5.993  0.00  0.00     0.009 C 
ENDBRANCH   7   8
ENDBRANCH   1   7
TORSDOF 2
ENDMDL
