MODEL 1
REMARK minimizedAffinity 9.6089077
REMARK minimizedRMSD -1
REMARK  2 active torsions:
REMARK  status: ('A' for Active; 'I' for Inactive)
REMARK    1  A    between atoms: C1_2  and  C2_3 
REMARK    2  A    between atoms: C2_3  and  C3_4 
ROOT
ATOM      1  C3  UNL d   1       3.598   5.239  -3.362  0.00  0.00    -0.075 A 
ATOM      2  C4  UNL d   1       4.915   5.642  -3.630  0.00  0.00     0.002 A 
ATOM      3  C5  UNL d   1       5.331   5.871  -4.942  0.00  0.00     0.002 A 
ATOM      4  C6  UNL d   1       4.443   5.691  -6.000  0.00  0.00    -0.004 A 
ATOM      5  C7  UNL d   1       3.138   5.275  -5.746  0.00  0.00     0.002 A 
ATOM      6  C8  UNL d   1       2.717   5.049  -4.434  0.00  0.00     0.002 A 
ENDROOT
BRANCH   1   7
ATOM      7  C2  UNL d   1       3.133   5.017  -1.943  0.00  0.00     0.056 C 
BRANCH   7   8
ATOM      8  C1  UNL d   1       3.731   6.000  -0.930  0.00  0.00     0.007 C 
ATOM      9  C   UNL d   1       3.355   5.679   0.511  0.00  0.00     0.009 C 
ENDBRANCH   7   8
ENDBRANCH   1   7
TORSDOF 2
ENDMDL
