MODEL 1
REMARK minimizedAffinity -1.16529155
REMARK minimizedRMSD -1
REMARK  2 active torsions:
REMARK  status: ('A' for Active; 'I' for Inactive)
REMARK    1  A    between atoms: C1_2  and  C2_3 
REMARK    2  A    between atoms: C2_3  and  C3_4 
ROOT
ATOM      1  C3  UNL d   1      -0.115  -0.551   2.571  0.00  0.00    -0.075 A 
ATOM      2  C4  UNL d   1      -0.990   0.327   1.914  0.00  0.00     0.002 A 
ATOM      3  C5  UNL d   1      -0.498   1.451   1.249  0.00  0.00     0.002 A 
ATOM      4  C6  UNL d   1       0.869   1.717   1.242  0.00  0.00    -0.004 A 
ATOM      5  C7  UNL d   1       1.745   0.861   1.906  0.00  0.00     0.002 A 
ATOM      6  C8  UNL d   1       1.257  -0.267   2.568  0.00  0.00     0.002 A 
ENDROOT
BRANCH   1   7
ATOM      7  C2  UNL d   1      -0.637  -1.785   3.267  0.00  0.00     0.056 C 
BRANCH   7   8
ATOM      8  C1  UNL d   1      -1.405  -1.494   4.561  0.00  0.00     0.007 C 
ATOM      9  C   UNL d   1      -2.916  -1.487   4.374  0.00  0.00     0.009 C 
ENDBRANCH   7   8
ENDBRANCH   1   7
TORSDOF 2
ENDMDL
