MODEL 1
REMARK minimizedAffinity -3.39701605
REMARK minimizedRMSD -1
REMARK  0 active torsions:
REMARK  status: ('A' for Active; 'I' for Inactive)
ROOT
ATOM      1  C   UNL d   1      -2.267   0.243  -1.122  0.00  0.00     0.077 C 
ATOM      2  C1  UNL d   1      -1.130   0.032  -0.166  0.00  0.00    -0.074 A 
ATOM      3  C2  UNL d   1      -1.106  -1.074   0.689  0.00  0.00    -0.005 A 
ATOM      4  C3  UNL d   1      -0.037  -1.263   1.566  0.00  0.00     0.006 A 
ATOM      5  C4  UNL d   1       1.017  -0.348   1.595  0.00  0.00    -0.005 A 
ATOM      6  C5  UNL d   1       1.010   0.763   0.746  0.00  0.00    -0.074 A 
ATOM      7  C6  UNL d   1       2.140   1.750   0.758  0.00  0.00     0.077 C 
ATOM      8  C7  UNL d   1      -0.064   0.941  -0.137  0.00  0.00    -0.001 A 
ENDROOT
TORSDOF 0
ENDMDL
