MODEL 1
REMARK minimizedAffinity -2.73471165
REMARK minimizedRMSD -1
REMARK  0 active torsions:
REMARK  status: ('A' for Active; 'I' for Inactive)
ROOT
ATOM      1  C   UNL d   1       1.893  -1.884   2.634  0.00  0.00     0.077 C 
ATOM      2  C1  UNL d   1       1.496  -0.718   1.778  0.00  0.00    -0.074 A 
ATOM      3  C2  UNL d   1       2.299   0.424   1.703  0.00  0.00    -0.005 A 
ATOM      4  C3  UNL d   1       1.922   1.497   0.895  0.00  0.00     0.006 A 
ATOM      5  C4  UNL d   1       0.740   1.438   0.156  0.00  0.00    -0.005 A 
ATOM      6  C5  UNL d   1      -0.075   0.303   0.217  0.00  0.00    -0.074 A 
ATOM      7  C6  UNL d   1      -1.343   0.220  -0.579  0.00  0.00     0.077 C 
ATOM      8  C7  UNL d   1       0.315  -0.773   1.026  0.00  0.00    -0.001 A 
ENDROOT
TORSDOF 0
ENDMDL
