MODEL 1
REMARK minimizedAffinity -1.56966376
REMARK minimizedRMSD -1
REMARK  0 active torsions:
REMARK  status: ('A' for Active; 'I' for Inactive)
ROOT
ATOM      1  C   UNL d   1      -0.549   0.229  -0.710  0.00  0.00     0.077 C 
ATOM      2  C1  UNL d   1       0.469   0.559   0.342  0.00  0.00    -0.074 A 
ATOM      3  C2  UNL d   1       0.889   1.877   0.548  0.00  0.00    -0.005 A 
ATOM      4  C3  UNL d   1       1.828   2.169   1.536  0.00  0.00     0.006 A 
ATOM      5  C4  UNL d   1       2.357   1.149   2.327  0.00  0.00    -0.005 A 
ATOM      6  C5  UNL d   1       1.949  -0.175   2.137  0.00  0.00    -0.074 A 
ATOM      7  C6  UNL d   1       2.500  -1.283   2.985  0.00  0.00     0.077 C 
ATOM      8  C7  UNL d   1       0.999  -0.460   1.146  0.00  0.00    -0.001 A 
ENDROOT
TORSDOF 0
ENDMDL
