MODEL 1
REMARK minimizedAffinity -4.28885221
REMARK minimizedRMSD -1
REMARK  0 active torsions:
REMARK  status: ('A' for Active; 'I' for Inactive)
ROOT
ATOM      1  C   UNL d   1      -1.272   0.017  -0.028  0.00  0.00     0.077 C 
ATOM      2  C1  UNL d   1       0.078   0.663   0.071  0.00  0.00    -0.074 A 
ATOM      3  C2  UNL d   1       0.219   2.051  -0.021  0.00  0.00    -0.005 A 
ATOM      4  C3  UNL d   1       1.480   2.638   0.082  0.00  0.00     0.006 A 
ATOM      5  C4  UNL d   1       2.611   1.845   0.277  0.00  0.00    -0.005 A 
ATOM      6  C5  UNL d   1       2.489   0.455   0.372  0.00  0.00    -0.074 A 
ATOM      7  C6  UNL d   1       3.693  -0.412   0.593  0.00  0.00     0.077 C 
ATOM      8  C7  UNL d   1       1.218  -0.127   0.275  0.00  0.00    -0.001 A 
ENDROOT
TORSDOF 0
ENDMDL
