MODEL 1
REMARK minimizedAffinity -5.27644491
REMARK minimizedRMSD -1
REMARK  0 active torsions:
REMARK  status: ('A' for Active; 'I' for Inactive)
ROOT
ATOM      1  C   UNL d   1      -0.585  -0.312  -1.101  0.00  0.00     0.077 C 
ATOM      2  C1  UNL d   1       0.342   0.242  -0.060  0.00  0.00    -0.074 A 
ATOM      3  C2  UNL d   1       0.089   1.478   0.543  0.00  0.00    -0.005 A 
ATOM      4  C3  UNL d   1       0.956   1.977   1.516  0.00  0.00     0.006 A 
ATOM      5  C4  UNL d   1       2.082   1.245   1.895  0.00  0.00    -0.005 A 
ATOM      6  C5  UNL d   1       2.350   0.006   1.303  0.00  0.00    -0.074 A 
ATOM      7  C6  UNL d   1       3.551  -0.797   1.706  0.00  0.00     0.077 C 
ATOM      8  C7  UNL d   1       1.471  -0.491   0.331  0.00  0.00    -0.001 A 
ENDROOT
TORSDOF 0
ENDMDL
