MODEL 1
REMARK minimizedAffinity -3.14370537
REMARK minimizedRMSD -1
REMARK  0 active torsions:
REMARK  status: ('A' for Active; 'I' for Inactive)
ROOT
ATOM      1  C   UNL d   1       2.148   0.107   4.956  0.00  0.00     0.077 C 
ATOM      2  C1  UNL d   1       2.378   0.074   3.475  0.00  0.00    -0.074 A 
ATOM      3  C2  UNL d   1       2.849  -1.084   2.846  0.00  0.00    -0.005 A 
ATOM      4  C3  UNL d   1       3.049  -1.102   1.466  0.00  0.00     0.006 A 
ATOM      5  C4  UNL d   1       2.781   0.034   0.702  0.00  0.00    -0.005 A 
ATOM      6  C5  UNL d   1       2.309   1.200   1.313  0.00  0.00    -0.074 A 
ATOM      7  C6  UNL d   1       2.007   2.427   0.505  0.00  0.00     0.077 C 
ATOM      8  C7  UNL d   1       2.104   1.209   2.699  0.00  0.00    -0.001 A 
ENDROOT
TORSDOF 0
ENDMDL
