MODEL 1
REMARK minimizedAffinity -3.72310066
REMARK minimizedRMSD -1
REMARK  0 active torsions:
REMARK  status: ('A' for Active; 'I' for Inactive)
ROOT
ATOM      1  C   UNL d   1       1.834  -1.821   2.515  0.00  0.00     0.077 C 
ATOM      2  C1  UNL d   1       1.531  -0.607   1.688  0.00  0.00    -0.074 A 
ATOM      3  C2  UNL d   1       2.502   0.377   1.473  0.00  0.00    -0.005 A 
ATOM      4  C3  UNL d   1       2.209   1.496   0.694  0.00  0.00     0.006 A 
ATOM      5  C4  UNL d   1       0.944   1.642   0.122  0.00  0.00    -0.005 A 
ATOM      6  C5  UNL d   1      -0.039   0.668   0.325  0.00  0.00    -0.074 A 
ATOM      7  C6  UNL d   1      -1.400   0.804  -0.290  0.00  0.00     0.077 C 
ATOM      8  C7  UNL d   1       0.266  -0.457   1.104  0.00  0.00    -0.001 A 
ENDROOT
TORSDOF 0
ENDMDL
