MODEL 1
REMARK minimizedAffinity 1.52514911
REMARK minimizedRMSD -1
REMARK  0 active torsions:
REMARK  status: ('A' for Active; 'I' for Inactive)
ROOT
ATOM      1  C   UNL d   1       2.987  -0.006   1.506  0.00  0.00     0.077 C 
ATOM      2  C1  UNL d   1       1.642   0.300   0.917  0.00  0.00    -0.074 A 
ATOM      3  C2  UNL d   1       1.293   1.608   0.565  0.00  0.00    -0.005 A 
ATOM      4  C3  UNL d   1       0.042   1.876   0.009  0.00  0.00     0.006 A 
ATOM      5  C4  UNL d   1      -0.871   0.842  -0.199  0.00  0.00    -0.005 A 
ATOM      6  C5  UNL d   1      -0.539  -0.472   0.146  0.00  0.00    -0.074 A 
ATOM      7  C6  UNL d   1      -1.504  -1.597  -0.081  0.00  0.00     0.077 C 
ATOM      8  C7  UNL d   1       0.723  -0.735   0.697  0.00  0.00    -0.001 A 
ENDROOT
TORSDOF 0
ENDMDL
