MODEL 1
REMARK minimizedAffinity -3.26491666
REMARK minimizedRMSD -1
REMARK  0 active torsions:
REMARK  status: ('A' for Active; 'I' for Inactive)
ROOT
ATOM      1  C   UNL d   1      -1.193  -0.172  -0.337  0.00  0.00     0.077 C 
ATOM      2  C1  UNL d   1       0.120   0.446   0.040  0.00  0.00    -0.074 A 
ATOM      3  C2  UNL d   1       0.334   1.821  -0.098  0.00  0.00    -0.005 A 
ATOM      4  C3  UNL d   1       1.557   2.383   0.266  0.00  0.00     0.006 A 
ATOM      5  C4  UNL d   1       2.579   1.576   0.769  0.00  0.00    -0.005 A 
ATOM      6  C5  UNL d   1       2.384   0.199   0.914  0.00  0.00    -0.074 A 
ATOM      7  C6  UNL d   1       3.468  -0.680   1.463  0.00  0.00     0.077 C 
ATOM      8  C7  UNL d   1       1.149  -0.357   0.554  0.00  0.00    -0.001 A 
ENDROOT
TORSDOF 0
ENDMDL
