MODEL 1
REMARK minimizedAffinity -2.59508228
REMARK minimizedRMSD -1
REMARK  0 active torsions:
REMARK  status: ('A' for Active; 'I' for Inactive)
ROOT
ATOM      1  C   UNL d   1      -1.925   0.405   0.216  0.00  0.00     0.077 C 
ATOM      2  C1  UNL d   1      -2.309   0.632  -1.216  0.00  0.00    -0.074 A 
ATOM      3  C2  UNL d   1      -2.444  -0.441  -2.103  0.00  0.00    -0.005 A 
ATOM      4  C3  UNL d   1      -2.811  -0.215  -3.430  0.00  0.00     0.006 A 
ATOM      5  C4  UNL d   1      -3.045   1.085  -3.882  0.00  0.00    -0.005 A 
ATOM      6  C5  UNL d   1      -2.916   2.170  -3.010  0.00  0.00    -0.074 A 
ATOM      7  C6  UNL d   1      -3.173   3.571  -3.477  0.00  0.00     0.077 C 
ATOM      8  C7  UNL d   1      -2.554   1.934  -1.676  0.00  0.00    -0.001 A 
ENDROOT
TORSDOF 0
ENDMDL
