MODEL 1
REMARK minimizedAffinity -0.532990158
REMARK minimizedRMSD -1
REMARK  0 active torsions:
REMARK  status: ('A' for Active; 'I' for Inactive)
ROOT
ATOM      1  C   UNL d   1       0.269   0.749  -0.311  0.00  0.00     0.077 C 
ATOM      2  C1  UNL d   1       1.133   0.771   0.914  0.00  0.00    -0.074 A 
ATOM      3  C2  UNL d   1       1.925   1.884   1.216  0.00  0.00    -0.005 A 
ATOM      4  C3  UNL d   1       2.716   1.893   2.364  0.00  0.00     0.006 A 
ATOM      5  C4  UNL d   1       2.724   0.792   3.221  0.00  0.00    -0.005 A 
ATOM      6  C5  UNL d   1       1.939  -0.329   2.936  0.00  0.00    -0.074 A 
ATOM      7  C6  UNL d   1       1.928  -1.517   3.852  0.00  0.00     0.077 C 
ATOM      8  C7  UNL d   1       1.141  -0.329   1.784  0.00  0.00    -0.001 A 
ENDROOT
TORSDOF 0
ENDMDL
