MODEL 1
REMARK minimizedAffinity 2.66449213
REMARK minimizedRMSD -1
REMARK  0 active torsions:
REMARK  status: ('A' for Active; 'I' for Inactive)
ROOT
ATOM      1  C   UNL d   1       2.658   1.267   3.412  0.00  0.00     0.077 C 
ATOM      2  C1  UNL d   1       2.394   0.222   2.369  0.00  0.00    -0.074 A 
ATOM      3  C2  UNL d   1       3.424  -0.250   1.548  0.00  0.00    -0.005 A 
ATOM      4  C3  UNL d   1       3.166  -1.229   0.589  0.00  0.00     0.006 A 
ATOM      5  C4  UNL d   1       1.878  -1.745   0.440  0.00  0.00    -0.005 A 
ATOM      6  C5  UNL d   1       0.836  -1.286   1.252  0.00  0.00    -0.074 A 
ATOM      7  C6  UNL d   1      -0.552  -1.836   1.112  0.00  0.00     0.077 C 
ATOM      8  C7  UNL d   1       1.105  -0.307   2.218  0.00  0.00    -0.001 A 
ENDROOT
TORSDOF 0
ENDMDL
