MODEL 1
REMARK minimizedAffinity -6.15515327
REMARK minimizedRMSD -1
REMARK  0 active torsions:
REMARK  status: ('A' for Active; 'I' for Inactive)
ROOT
ATOM      1  C   UNL d   1       2.899  -1.966   1.833  0.00  0.00    -0.002 A 
ATOM      2  C1  UNL d   1       2.135  -1.595   2.931  0.00  0.00     0.010 A 
ATOM      3  C2  UNL d   1       0.874  -1.020   2.756  0.00  0.00     0.041 A 
ATOM      4  C3  UNL d   1       0.389  -0.824   1.448  0.00  0.00    -0.075 A 
ATOM      5  S   UNL d   1      -1.126  -0.140   0.993  0.00  0.00     0.015 SA
ATOM      6  C4  UNL d   1      -0.795  -0.324  -0.668  0.00  0.00     0.022 A 
ATOM      7  C5  UNL d   1       0.438  -0.892  -0.889  0.00  0.00     0.026 A 
ATOM      8  C6  UNL d   1       1.140  -1.191   0.328  0.00  0.00    -0.082 A 
ATOM      9  C7  UNL d   1       2.415  -1.770   0.537  0.00  0.00     0.045 A 
ENDROOT
TORSDOF 0
ENDMDL
