MODEL 1
REMARK minimizedAffinity -2.84137154
REMARK minimizedRMSD -1
REMARK  0 active torsions:
REMARK  status: ('A' for Active; 'I' for Inactive)
ROOT
ATOM      1  C   UNL d   1       2.267  -1.815   2.328  0.00  0.00    -0.002 A 
ATOM      2  C1  UNL d   1       2.881  -1.878   1.086  0.00  0.00     0.010 A 
ATOM      3  C2  UNL d   1       2.251  -1.356  -0.045  0.00  0.00     0.041 A 
ATOM      4  C3  UNL d   1       0.982  -0.761   0.095  0.00  0.00    -0.075 A 
ATOM      5  S   UNL d   1       0.021  -0.055  -1.150  0.00  0.00     0.015 SA
ATOM      6  C4  UNL d   1      -1.227   0.349  -0.061  0.00  0.00     0.022 A 
ATOM      7  C5  UNL d   1      -0.934  -0.039   1.225  0.00  0.00     0.026 A 
ATOM      8  C6  UNL d   1       0.343  -0.685   1.337  0.00  0.00    -0.082 A 
ATOM      9  C7  UNL d   1       1.008  -1.224   2.464  0.00  0.00     0.045 A 
ENDROOT
TORSDOF 0
ENDMDL
