MODEL 1
REMARK minimizedAffinity -4.56931639
REMARK minimizedRMSD -1
REMARK  0 active torsions:
REMARK  status: ('A' for Active; 'I' for Inactive)
ROOT
ATOM      1  C   UNL d   1       2.440  -1.708   2.413  0.00  0.00    -0.002 A 
ATOM      2  C1  UNL d   1       2.962  -1.883   1.140  0.00  0.00     0.010 A 
ATOM      3  C2  UNL d   1       2.279  -1.406   0.020  0.00  0.00     0.041 A 
ATOM      4  C3  UNL d   1       1.050  -0.741   0.203  0.00  0.00    -0.075 A 
ATOM      5  S   UNL d   1       0.038  -0.071  -1.021  0.00  0.00     0.015 SA
ATOM      6  C4  UNL d   1      -1.112   0.464   0.118  0.00  0.00     0.022 A 
ATOM      7  C5  UNL d   1      -0.748   0.147   1.406  0.00  0.00     0.026 A 
ATOM      8  C6  UNL d   1       0.504  -0.552   1.476  0.00  0.00    -0.082 A 
ATOM      9  C7  UNL d   1       1.221  -1.048   2.591  0.00  0.00     0.045 A 
ENDROOT
TORSDOF 0
ENDMDL
