MODEL 1
REMARK minimizedAffinity -4.33295012
REMARK minimizedRMSD -1
REMARK  0 active torsions:
REMARK  status: ('A' for Active; 'I' for Inactive)
ROOT
ATOM      1  C   UNL d   1       1.227  -1.071   2.984  0.00  0.00    -0.002 A 
ATOM      2  C1  UNL d   1       2.290  -1.495   2.200  0.00  0.00     0.010 A 
ATOM      3  C2  UNL d   1       2.261  -1.331   0.814  0.00  0.00     0.041 A 
ATOM      4  C3  UNL d   1       1.134  -0.725   0.223  0.00  0.00    -0.075 A 
ATOM      5  S   UNL d   1       0.877  -0.420  -1.454  0.00  0.00     0.015 SA
ATOM      6  C4  UNL d   1      -0.649   0.282  -1.169  0.00  0.00     0.022 A 
ATOM      7  C5  UNL d   1      -0.972   0.291   0.167  0.00  0.00     0.026 A 
ATOM      8  C6  UNL d   1       0.051  -0.289   0.992  0.00  0.00    -0.082 A 
ATOM      9  C7  UNL d   1       0.111  -0.471   2.395  0.00  0.00     0.045 A 
ENDROOT
TORSDOF 0
ENDMDL
