MODEL 1
REMARK minimizedAffinity -5.08404255
REMARK minimizedRMSD -1
REMARK  0 active torsions:
REMARK  status: ('A' for Active; 'I' for Inactive)
ROOT
ATOM      1  C   UNL d   1       2.411  -1.912   2.295  0.00  0.00    -0.002 A 
ATOM      2  C1  UNL d   1       2.782  -1.930   0.958  0.00  0.00     0.010 A 
ATOM      3  C2  UNL d   1       2.020  -1.258   0.001  0.00  0.00     0.041 A 
ATOM      4  C3  UNL d   1       0.868  -0.559   0.414  0.00  0.00    -0.075 A 
ATOM      5  S   UNL d   1      -0.218   0.336  -0.582  0.00  0.00     0.015 SA
ATOM      6  C4  UNL d   1      -1.199   0.764   0.744  0.00  0.00     0.022 A 
ATOM      7  C5  UNL d   1      -0.725   0.245   1.926  0.00  0.00     0.026 A 
ATOM      8  C6  UNL d   1       0.475  -0.526   1.755  0.00  0.00    -0.082 A 
ATOM      9  C7  UNL d   1       1.268  -1.218   2.701  0.00  0.00     0.045 A 
ENDROOT
TORSDOF 0
ENDMDL
