MODEL 1
REMARK minimizedAffinity -3.81235337
REMARK minimizedRMSD -1
REMARK  0 active torsions:
REMARK  status: ('A' for Active; 'I' for Inactive)
ROOT
ATOM      1  C   UNL d   1       1.506  -1.624   2.843  0.00  0.00    -0.002 A 
ATOM      2  C1  UNL d   1       2.305  -1.664   1.709  0.00  0.00     0.010 A 
ATOM      3  C2  UNL d   1       1.868  -1.094   0.512  0.00  0.00     0.041 A 
ATOM      4  C3  UNL d   1       0.603  -0.476   0.473  0.00  0.00    -0.075 A 
ATOM      5  S   UNL d   1      -0.139   0.289  -0.882  0.00  0.00     0.015 SA
ATOM      6  C4  UNL d   1      -1.534   0.688   0.012  0.00  0.00     0.022 A 
ATOM      7  C5  UNL d   1      -1.453   0.256   1.315  0.00  0.00     0.026 A 
ATOM      8  C6  UNL d   1      -0.220  -0.422   1.602  0.00  0.00    -0.082 A 
ATOM      9  C7  UNL d   1       0.251  -1.009   2.801  0.00  0.00     0.045 A 
ENDROOT
TORSDOF 0
ENDMDL
