MODEL 1
REMARK minimizedAffinity -4.75031424
REMARK minimizedRMSD -1
REMARK  0 active torsions:
REMARK  status: ('A' for Active; 'I' for Inactive)
ROOT
ATOM      1  C   UNL d   1       0.673  -1.532   3.049  0.00  0.00    -0.002 A 
ATOM      2  C1  UNL d   1       1.880  -1.954   2.509  0.00  0.00     0.010 A 
ATOM      3  C2  UNL d   1       2.190  -1.696   1.172  0.00  0.00     0.041 A 
ATOM      4  C3  UNL d   1       1.257  -1.000   0.379  0.00  0.00    -0.075 A 
ATOM      5  S   UNL d   1       1.420  -0.571  -1.283  0.00  0.00     0.015 SA
ATOM      6  C4  UNL d   1      -0.108   0.182  -1.316  0.00  0.00     0.022 A 
ATOM      7  C5  UNL d   1      -0.742   0.118  -0.097  0.00  0.00     0.026 A 
ATOM      8  C6  UNL d   1       0.035  -0.564   0.900  0.00  0.00    -0.082 A 
ATOM      9  C7  UNL d   1      -0.249  -0.842   2.259  0.00  0.00     0.045 A 
ENDROOT
TORSDOF 0
ENDMDL
