MODEL 1
REMARK minimizedAffinity -5.21397209
REMARK minimizedRMSD -1
REMARK  0 active torsions:
REMARK  status: ('A' for Active; 'I' for Inactive)
ROOT
ATOM      1  C   UNL d   1       1.838  -1.260   3.164  0.00  0.00    -0.002 A 
ATOM      2  C1  UNL d   1       2.553  -1.847   2.129  0.00  0.00     0.010 A 
ATOM      3  C2  UNL d   1       2.135  -1.699   0.805  0.00  0.00     0.041 A 
ATOM      4  C3  UNL d   1       0.978  -0.942   0.535  0.00  0.00    -0.075 A 
ATOM      5  S   UNL d   1       0.279  -0.625  -1.008  0.00  0.00     0.015 SA
ATOM      6  C4  UNL d   1      -0.983   0.298  -0.331  0.00  0.00     0.022 A 
ATOM      7  C5  UNL d   1      -0.890   0.372   1.039  0.00  0.00     0.026 A 
ATOM      8  C6  UNL d   1       0.242  -0.341   1.561  0.00  0.00    -0.082 A 
ATOM      9  C7  UNL d   1       0.691  -0.510   2.893  0.00  0.00     0.045 A 
ENDROOT
TORSDOF 0
ENDMDL
