MODEL 1
REMARK minimizedAffinity 6.49654198
REMARK minimizedRMSD -1
REMARK  0 active torsions:
REMARK  status: ('A' for Active; 'I' for Inactive)
ROOT
ATOM      1  C   UNL d   1      -2.249  -5.122  -3.033  0.00  0.00     0.078 C 
ATOM      2  C1  UNL d   1      -3.141  -4.504  -4.067  0.00  0.00    -0.077 A 
ATOM      3  C2  UNL d   1      -3.389  -3.126  -4.075  0.00  0.00    -0.001 A 
ATOM      4  C3  UNL d   1      -4.229  -2.565  -5.038  0.00  0.00     0.003 A 
ATOM      5  C4  UNL d   1      -4.830  -3.375  -6.000  0.00  0.00    -0.005 A 
ATOM      6  C5  UNL d   1      -4.592  -4.748  -5.999  0.00  0.00     0.003 A 
ATOM      7  C6  UNL d   1      -3.751  -5.310  -5.036  0.00  0.00    -0.001 A 
ENDROOT
TORSDOF 0
ENDMDL
