MODEL 1
REMARK minimizedAffinity 7.68244553
REMARK minimizedRMSD -1
REMARK  0 active torsions:
REMARK  status: ('A' for Active; 'I' for Inactive)
ROOT
ATOM      1  C   UNL d   1      -0.388   4.501   6.000  0.00  0.00     0.078 C 
ATOM      2  C1  UNL d   1       0.008   3.222   5.324  0.00  0.00    -0.077 A 
ATOM      3  C2  UNL d   1       0.755   2.250   6.000  0.00  0.00    -0.001 A 
ATOM      4  C3  UNL d   1       1.124   1.069   5.355  0.00  0.00     0.003 A 
ATOM      5  C4  UNL d   1       0.752   0.849   4.030  0.00  0.00    -0.005 A 
ATOM      6  C5  UNL d   1       0.011   1.812   3.348  0.00  0.00     0.003 A 
ATOM      7  C6  UNL d   1      -0.360   2.993   3.991  0.00  0.00    -0.001 A 
ENDROOT
TORSDOF 0
ENDMDL
