MODEL 1
REMARK minimizedAffinity 4.80783796
REMARK minimizedRMSD -1
REMARK  0 active torsions:
REMARK  status: ('A' for Active; 'I' for Inactive)
ROOT
ATOM      1  C   UNL d   1      -6.000  -2.092   2.235  0.00  0.00     0.078 C 
ATOM      2  C1  UNL d   1      -4.869  -1.206   2.666  0.00  0.00    -0.077 A 
ATOM      3  C2  UNL d   1      -4.471  -0.113   1.886  0.00  0.00    -0.001 A 
ATOM      4  C3  UNL d   1      -3.411   0.697   2.295  0.00  0.00     0.003 A 
ATOM      5  C4  UNL d   1      -2.738   0.422   3.484  0.00  0.00    -0.005 A 
ATOM      6  C5  UNL d   1      -3.126  -0.664   4.266  0.00  0.00     0.003 A 
ATOM      7  C6  UNL d   1      -4.186  -1.475   3.859  0.00  0.00    -0.001 A 
ENDROOT
TORSDOF 0
ENDMDL
