MODEL 1
REMARK minimizedAffinity 8.58140659
REMARK minimizedRMSD -1
REMARK  0 active torsions:
REMARK  status: ('A' for Active; 'I' for Inactive)
ROOT
ATOM      1  C   UNL d   1      -1.795  -0.284  -3.273  0.00  0.00     0.078 C 
ATOM      2  C1  UNL d   1      -1.836  -1.781  -3.206  0.00  0.00    -0.077 A 
ATOM      3  C2  UNL d   1      -2.996  -2.487  -3.550  0.00  0.00    -0.001 A 
ATOM      4  C3  UNL d   1      -3.023  -3.880  -3.474  0.00  0.00     0.003 A 
ATOM      5  C4  UNL d   1      -1.894  -4.580  -3.054  0.00  0.00    -0.005 A 
ATOM      6  C5  UNL d   1      -0.736  -3.886  -2.708  0.00  0.00     0.003 A 
ATOM      7  C6  UNL d   1      -0.707  -2.493  -2.783  0.00  0.00    -0.001 A 
ENDROOT
TORSDOF 0
ENDMDL
