MODEL 1
REMARK minimizedAffinity 7.30294132
REMARK minimizedRMSD -1
REMARK  0 active torsions:
REMARK  status: ('A' for Active; 'I' for Inactive)
ROOT
ATOM      1  C   UNL d   1      -5.123  -3.724  -5.325  0.00  0.00     0.078 C 
ATOM      2  C1  UNL d   1      -3.879  -3.966  -4.524  0.00  0.00    -0.077 A 
ATOM      3  C2  UNL d   1      -2.709  -3.238  -4.772  0.00  0.00    -0.001 A 
ATOM      4  C3  UNL d   1      -1.555  -3.480  -4.026  0.00  0.00     0.003 A 
ATOM      5  C4  UNL d   1      -1.559  -4.451  -3.026  0.00  0.00    -0.005 A 
ATOM      6  C5  UNL d   1      -2.718  -5.181  -2.773  0.00  0.00     0.003 A 
ATOM      7  C6  UNL d   1      -3.873  -4.941  -3.518  0.00  0.00    -0.001 A 
ENDROOT
TORSDOF 0
ENDMDL
