MODEL 1
REMARK minimizedAffinity 12.6464424
REMARK minimizedRMSD -1
REMARK  0 active torsions:
REMARK  status: ('A' for Active; 'I' for Inactive)
ROOT
ATOM      1  C   UNL d   1       2.302   0.272  -3.653  0.00  0.00     0.078 C 
ATOM      2  C1  UNL d   1       3.004   0.324  -2.329  0.00  0.00    -0.077 A 
ATOM      3  C2  UNL d   1       3.653   1.489  -1.902  0.00  0.00    -0.001 A 
ATOM      4  C3  UNL d   1       4.311   1.520  -0.672  0.00  0.00     0.003 A 
ATOM      5  C4  UNL d   1       4.328   0.389   0.141  0.00  0.00    -0.005 A 
ATOM      6  C5  UNL d   1       3.687  -0.776  -0.276  0.00  0.00     0.003 A 
ATOM      7  C6  UNL d   1       3.029  -0.809  -1.506  0.00  0.00    -0.001 A 
ENDROOT
TORSDOF 0
ENDMDL
