MODEL 1
REMARK minimizedAffinity 8.11105347
REMARK minimizedRMSD -1
REMARK  0 active torsions:
REMARK  status: ('A' for Active; 'I' for Inactive)
ROOT
ATOM      1  C   UNL d   1      -3.541   2.424  -5.951  0.00  0.00     0.078 C 
ATOM      2  C1  UNL d   1      -2.816   3.616  -5.402  0.00  0.00    -0.077 A 
ATOM      3  C2  UNL d   1      -1.976   3.500  -4.288  0.00  0.00    -0.001 A 
ATOM      4  C3  UNL d   1      -1.315   4.620  -3.782  0.00  0.00     0.003 A 
ATOM      5  C4  UNL d   1      -1.489   5.865  -4.382  0.00  0.00    -0.005 A 
ATOM      6  C5  UNL d   1      -2.325   5.992  -5.490  0.00  0.00     0.003 A 
ATOM      7  C6  UNL d   1      -2.986   4.872  -5.997  0.00  0.00    -0.001 A 
ENDROOT
TORSDOF 0
ENDMDL
