MODEL 1
REMARK minimizedAffinity 5.95339727
REMARK minimizedRMSD -1
REMARK  0 active torsions:
REMARK  status: ('A' for Active; 'I' for Inactive)
ROOT
ATOM      1  C   UNL d   1      -0.474   3.249  -5.885  0.00  0.00     0.078 C 
ATOM      2  C1  UNL d   1      -1.797   3.954  -5.932  0.00  0.00    -0.077 A 
ATOM      3  C2  UNL d   1      -1.870   5.352  -5.942  0.00  0.00    -0.001 A 
ATOM      4  C3  UNL d   1      -3.109   5.994  -5.976  0.00  0.00     0.003 A 
ATOM      5  C4  UNL d   1      -4.284   5.246  -6.000  0.00  0.00    -0.005 A 
ATOM      6  C5  UNL d   1      -4.222   3.854  -5.988  0.00  0.00     0.003 A 
ATOM      7  C6  UNL d   1      -2.984   3.210  -5.954  0.00  0.00    -0.001 A 
ENDROOT
TORSDOF 0
ENDMDL
