MODEL 1
REMARK minimizedAffinity 2.35010481
REMARK minimizedRMSD -1
REMARK  0 active torsions:
REMARK  status: ('A' for Active; 'I' for Inactive)
ROOT
ATOM      1  C   UNL d   1       1.503  -1.900  -1.066  0.00  0.00     0.078 C 
ATOM      2  C1  UNL d   1       1.786  -0.428  -1.014  0.00  0.00    -0.077 A 
ATOM      3  C2  UNL d   1       2.422   0.222  -2.079  0.00  0.00    -0.001 A 
ATOM      4  C3  UNL d   1       2.688   1.591  -2.013  0.00  0.00     0.003 A 
ATOM      5  C4  UNL d   1       2.322   2.321  -0.884  0.00  0.00    -0.005 A 
ATOM      6  C5  UNL d   1       1.691   1.682   0.181  0.00  0.00     0.003 A 
ATOM      7  C6  UNL d   1       1.424   0.314   0.117  0.00  0.00    -0.001 A 
ENDROOT
TORSDOF 0
ENDMDL
