MODEL 1
REMARK minimizedAffinity 13.1290293
REMARK minimizedRMSD -1
REMARK  0 active torsions:
REMARK  status: ('A' for Active; 'I' for Inactive)
ROOT
ATOM      1  C   UNL d   1      -0.805  -2.547  -3.101  0.00  0.00     0.078 C 
ATOM      2  C1  UNL d   1       0.288  -1.809  -3.814  0.00  0.00    -0.077 A 
ATOM      3  C2  UNL d   1       0.635  -2.132  -5.132  0.00  0.00    -0.001 A 
ATOM      4  C3  UNL d   1       1.661  -1.443  -5.780  0.00  0.00     0.003 A 
ATOM      5  C4  UNL d   1       2.349  -0.428  -5.119  0.00  0.00    -0.005 A 
ATOM      6  C5  UNL d   1       2.012  -0.101  -3.807  0.00  0.00     0.003 A 
ATOM      7  C6  UNL d   1       0.987  -0.789  -3.157  0.00  0.00    -0.001 A 
ENDROOT
TORSDOF 0
ENDMDL
