MODEL 1
REMARK minimizedAffinity 2.65450716
REMARK minimizedRMSD -1
REMARK  0 active torsions:
REMARK  status: ('A' for Active; 'I' for Inactive)
ROOT
ATOM      1  C   UNL d   1      -5.949  -2.142  -5.924  0.00  0.00     0.078 C 
ATOM      2  C1  UNL d   1      -5.348  -3.476  -5.595  0.00  0.00    -0.077 A 
ATOM      3  C2  UNL d   1      -4.134  -3.569  -4.902  0.00  0.00    -0.001 A 
ATOM      4  C3  UNL d   1      -3.582  -4.817  -4.611  0.00  0.00     0.003 A 
ATOM      5  C4  UNL d   1      -4.235  -5.981  -5.009  0.00  0.00    -0.005 A 
ATOM      6  C5  UNL d   1      -5.442  -5.899  -5.701  0.00  0.00     0.003 A 
ATOM      7  C6  UNL d   1      -5.996  -4.652  -5.993  0.00  0.00    -0.001 A 
ENDROOT
TORSDOF 0
ENDMDL
