MODEL 1
REMARK minimizedAffinity 10.2459507
REMARK minimizedRMSD -1
REMARK  0 active torsions:
REMARK  status: ('A' for Active; 'I' for Inactive)
ROOT
ATOM      1  C   UNL d   1      -3.755  -0.077   2.818  0.00  0.00     0.078 C 
ATOM      2  C1  UNL d   1      -2.317   0.345   2.838  0.00  0.00    -0.077 A 
ATOM      3  C2  UNL d   1      -1.930   1.612   2.385  0.00  0.00    -0.001 A 
ATOM      4  C3  UNL d   1      -0.586   1.988   2.400  0.00  0.00     0.003 A 
ATOM      5  C4  UNL d   1       0.382   1.103   2.868  0.00  0.00    -0.005 A 
ATOM      6  C5  UNL d   1       0.008  -0.161   3.319  0.00  0.00     0.003 A 
ATOM      7  C6  UNL d   1      -1.336  -0.539   3.304  0.00  0.00    -0.001 A 
ENDROOT
TORSDOF 0
ENDMDL
