MODEL 1
REMARK minimizedAffinity 14.817112
REMARK minimizedRMSD -1
REMARK  0 active torsions:
REMARK  status: ('A' for Active; 'I' for Inactive)
ROOT
ATOM      1  C   UNL d   1      -3.943  -3.413  -4.613  0.00  0.00     0.078 C 
ATOM      2  C1  UNL d   1      -2.817  -3.808  -3.705  0.00  0.00    -0.077 A 
ATOM      3  C2  UNL d   1      -1.582  -3.149  -3.759  0.00  0.00    -0.001 A 
ATOM      4  C3  UNL d   1      -0.540  -3.533  -2.914  0.00  0.00     0.003 A 
ATOM      5  C4  UNL d   1      -0.720  -4.579  -2.011  0.00  0.00    -0.005 A 
ATOM      6  C5  UNL d   1      -1.944  -5.242  -1.952  0.00  0.00     0.003 A 
ATOM      7  C6  UNL d   1      -2.988  -4.859  -2.796  0.00  0.00    -0.001 A 
ENDROOT
TORSDOF 0
ENDMDL
