MODEL 1
REMARK minimizedAffinity 13.8110733
REMARK minimizedRMSD -1
REMARK  0 active torsions:
REMARK  status: ('A' for Active; 'I' for Inactive)
ROOT
ATOM      1  C   UNL d   1      -4.997  -2.129   1.909  0.00  0.00     0.078 C 
ATOM      2  C1  UNL d   1      -3.569  -1.727   2.123  0.00  0.00    -0.077 A 
ATOM      3  C2  UNL d   1      -3.119  -0.448   1.771  0.00  0.00    -0.001 A 
ATOM      4  C3  UNL d   1      -1.785  -0.090   1.967  0.00  0.00     0.003 A 
ATOM      5  C4  UNL d   1      -0.888  -1.005   2.515  0.00  0.00    -0.005 A 
ATOM      6  C5  UNL d   1      -1.326  -2.280   2.867  0.00  0.00     0.003 A 
ATOM      7  C6  UNL d   1      -2.660  -2.640   2.672  0.00  0.00    -0.001 A 
ENDROOT
TORSDOF 0
ENDMDL
