MODEL 1
REMARK minimizedAffinity 9.87162018
REMARK minimizedRMSD -1
REMARK  0 active torsions:
REMARK  status: ('A' for Active; 'I' for Inactive)
ROOT
ATOM      1  C   UNL d   1      -5.022  -1.589   1.665  0.00  0.00     0.078 C 
ATOM      2  C1  UNL d   1      -3.945  -0.633   2.085  0.00  0.00    -0.077 A 
ATOM      3  C2  UNL d   1      -2.645  -0.744   1.577  0.00  0.00    -0.001 A 
ATOM      4  C3  UNL d   1      -1.650   0.146   1.985  0.00  0.00     0.003 A 
ATOM      5  C4  UNL d   1      -1.945   1.152   2.903  0.00  0.00    -0.005 A 
ATOM      6  C5  UNL d   1      -3.235   1.269   3.415  0.00  0.00     0.003 A 
ATOM      7  C6  UNL d   1      -4.231   0.380   3.009  0.00  0.00    -0.001 A 
ENDROOT
TORSDOF 0
ENDMDL
