MODEL 1
REMARK minimizedAffinity -0.447265297
REMARK minimizedRMSD -1
REMARK  0 active torsions:
REMARK  status: ('A' for Active; 'I' for Inactive)
ROOT
ATOM      1  C   UNL d   1      -5.821  -4.861  -5.999  0.00  0.00     0.078 C 
ATOM      2  C1  UNL d   1      -4.455  -4.679  -5.406  0.00  0.00    -0.077 A 
ATOM      3  C2  UNL d   1      -3.520  -3.822  -5.999  0.00  0.00    -0.001 A 
ATOM      4  C3  UNL d   1      -2.249  -3.670  -5.441  0.00  0.00     0.003 A 
ATOM      5  C4  UNL d   1      -1.902  -4.372  -4.289  0.00  0.00    -0.005 A 
ATOM      6  C5  UNL d   1      -2.825  -5.229  -3.694  0.00  0.00     0.003 A 
ATOM      7  C6  UNL d   1      -4.096  -5.383  -4.250  0.00  0.00    -0.001 A 
ENDROOT
TORSDOF 0
ENDMDL
