MODEL 1
REMARK minimizedAffinity 4.28479481
REMARK minimizedRMSD -1
REMARK  0 active torsions:
REMARK  status: ('A' for Active; 'I' for Inactive)
ROOT
ATOM      1  C   UNL d   1      -2.588   0.238   5.999  0.00  0.00     0.078 C 
ATOM      2  C1  UNL d   1      -2.977   1.063   4.809  0.00  0.00    -0.077 A 
ATOM      3  C2  UNL d   1      -2.247   2.204   4.452  0.00  0.00    -0.001 A 
ATOM      4  C3  UNL d   1      -2.627   2.967   3.348  0.00  0.00     0.003 A 
ATOM      5  C4  UNL d   1      -3.737   2.599   2.591  0.00  0.00    -0.005 A 
ATOM      6  C5  UNL d   1      -4.471   1.467   2.939  0.00  0.00     0.003 A 
ATOM      7  C6  UNL d   1      -4.093   0.702   4.044  0.00  0.00    -0.001 A 
ENDROOT
TORSDOF 0
ENDMDL
