MODEL 1
REMARK minimizedAffinity 1.50351071
REMARK minimizedRMSD -1
REMARK  0 active torsions:
REMARK  status: ('A' for Active; 'I' for Inactive)
ROOT
ATOM      1  C   UNL d   1       1.095   2.965  -3.398  0.00  0.00     0.078 C 
ATOM      2  C1  UNL d   1       1.161   3.345  -1.949  0.00  0.00    -0.077 A 
ATOM      3  C2  UNL d   1       1.346   4.678  -1.561  0.00  0.00    -0.001 A 
ATOM      4  C3  UNL d   1       1.416   5.016  -0.209  0.00  0.00     0.003 A 
ATOM      5  C4  UNL d   1       1.303   4.028   0.767  0.00  0.00    -0.005 A 
ATOM      6  C5  UNL d   1       1.120   2.698   0.390  0.00  0.00     0.003 A 
ATOM      7  C6  UNL d   1       1.050   2.358  -0.962  0.00  0.00    -0.001 A 
ENDROOT
TORSDOF 0
ENDMDL
