MODEL 1
REMARK minimizedAffinity 12.7825966
REMARK minimizedRMSD -1
REMARK  0 active torsions:
REMARK  status: ('A' for Active; 'I' for Inactive)
ROOT
ATOM      1  C   UNL d   1       2.689  -0.344   3.660  0.00  0.00    -0.002 A 
ATOM      2  C1  UNL d   1       1.893   0.221   2.673  0.00  0.00     0.010 A 
ATOM      3  C2  UNL d   1       2.400   0.441   1.391  0.00  0.00     0.041 A 
ATOM      4  C3  UNL d   1       3.733   0.079   1.114  0.00  0.00    -0.075 A 
ATOM      5  S   UNL d   1       4.567   0.254  -0.385  0.00  0.00     0.015 SA
ATOM      6  C4  UNL d   1       6.000  -0.418   0.249  0.00  0.00     0.022 A 
ATOM      7  C5  UNL d   1       5.863  -0.772   1.570  0.00  0.00     0.026 A 
ATOM      8  C6  UNL d   1       4.554  -0.492   2.090  0.00  0.00    -0.082 A 
ATOM      9  C7  UNL d   1       4.011  -0.702   3.381  0.00  0.00     0.045 A 
ENDROOT
TORSDOF 0
ENDMDL
