MODEL 1
REMARK minimizedAffinity 12.33253
REMARK minimizedRMSD -1
REMARK  0 active torsions:
REMARK  status: ('A' for Active; 'I' for Inactive)
ROOT
ATOM      1  C   UNL d   1       2.227   1.892   0.658  0.00  0.00    -0.002 A 
ATOM      2  C1  UNL d   1       3.028   1.704  -0.459  0.00  0.00     0.010 A 
ATOM      3  C2  UNL d   1       4.108   0.820  -0.418  0.00  0.00     0.041 A 
ATOM      4  C3  UNL d   1       4.371   0.120   0.776  0.00  0.00    -0.075 A 
ATOM      5  S   UNL d   1       5.638  -1.015   1.059  0.00  0.00     0.015 SA
ATOM      6  C4  UNL d   1       5.145  -1.277   2.669  0.00  0.00     0.022 A 
ATOM      7  C5  UNL d   1       4.043  -0.525   3.000  0.00  0.00     0.026 A 
ATOM      8  C6  UNL d   1       3.578   0.292   1.914  0.00  0.00    -0.082 A 
ATOM      9  C7  UNL d   1       2.491   1.196   1.841  0.00  0.00     0.045 A 
ENDROOT
TORSDOF 0
ENDMDL
