MODEL 1
REMARK minimizedAffinity 17.3062401
REMARK minimizedRMSD -1
REMARK  0 active torsions:
REMARK  status: ('A' for Active; 'I' for Inactive)
ROOT
ATOM      1  C   UNL d   1       5.092  -0.880   1.436  0.00  0.00    -0.002 A 
ATOM      2  C1  UNL d   1       5.329  -1.182   2.769  0.00  0.00     0.010 A 
ATOM      3  C2  UNL d   1       4.278  -1.220   3.687  0.00  0.00     0.041 A 
ATOM      4  C3  UNL d   1       2.971  -0.948   3.238  0.00  0.00    -0.075 A 
ATOM      5  S   UNL d   1       1.528  -0.938   4.181  0.00  0.00     0.015 SA
ATOM      6  C4  UNL d   1       0.562  -0.533   2.837  0.00  0.00     0.022 A 
ATOM      7  C5  UNL d   1       1.306  -0.405   1.688  0.00  0.00     0.026 A 
ATOM      8  C6  UNL d   1       2.706  -0.643   1.900  0.00  0.00    -0.082 A 
ATOM      9  C7  UNL d   1       3.794  -0.611   0.994  0.00  0.00     0.045 A 
ENDROOT
TORSDOF 0
ENDMDL
