MODEL 1
REMARK minimizedAffinity 14.6717901
REMARK minimizedRMSD -1
REMARK  0 active torsions:
REMARK  status: ('A' for Active; 'I' for Inactive)
ROOT
ATOM      1  C   UNL d   1      -4.871   3.680   5.327  0.00  0.00    -0.002 A 
ATOM      2  C1  UNL d   1      -4.168   3.437   4.155  0.00  0.00     0.010 A 
ATOM      3  C2  UNL d   1      -4.083   2.144   3.633  0.00  0.00     0.041 A 
ATOM      4  C3  UNL d   1      -4.725   1.091   4.314  0.00  0.00    -0.075 A 
ATOM      5  S   UNL d   1      -4.757  -0.572   3.861  0.00  0.00     0.015 SA
ATOM      6  C4  UNL d   1      -5.706  -0.999   5.212  0.00  0.00     0.022 A 
ATOM      7  C5  UNL d   1      -5.999   0.089   6.000  0.00  0.00     0.026 A 
ATOM      8  C6  UNL d   1      -5.439   1.311   5.495  0.00  0.00    -0.082 A 
ATOM      9  C7  UNL d   1      -5.506   2.632   5.999  0.00  0.00     0.045 A 
ENDROOT
TORSDOF 0
ENDMDL
