MODEL 1
REMARK minimizedAffinity 14.7942514
REMARK minimizedRMSD -1
REMARK  0 active torsions:
REMARK  status: ('A' for Active; 'I' for Inactive)
ROOT
ATOM      1  C   UNL d   1       2.626   2.087  -0.180  0.00  0.00    -0.002 A 
ATOM      2  C1  UNL d   1       3.634   1.933  -1.121  0.00  0.00     0.010 A 
ATOM      3  C2  UNL d   1       4.632   0.973  -0.942  0.00  0.00     0.041 A 
ATOM      4  C3  UNL d   1       4.598   0.161   0.208  0.00  0.00    -0.075 A 
ATOM      5  S   UNL d   1       5.714  -1.082   0.637  0.00  0.00     0.015 SA
ATOM      6  C4  UNL d   1       4.878  -1.438   2.079  0.00  0.00     0.022 A 
ATOM      7  C5  UNL d   1       3.772  -0.638   2.245  0.00  0.00     0.026 A 
ATOM      8  C6  UNL d   1       3.592   0.296   1.170  0.00  0.00    -0.082 A 
ATOM      9  C7  UNL d   1       2.595   1.279   0.961  0.00  0.00     0.045 A 
ENDROOT
TORSDOF 0
ENDMDL
