MODEL 1
REMARK minimizedAffinity 11.1352777
REMARK minimizedRMSD -1
REMARK  0 active torsions:
REMARK  status: ('A' for Active; 'I' for Inactive)
ROOT
ATOM      1  C   UNL d   1      -5.536  -0.861   4.001  0.00  0.00    -0.002 A 
ATOM      2  C1  UNL d   1      -6.000  -0.725   5.302  0.00  0.00     0.010 A 
ATOM      3  C2  UNL d   1      -5.834   0.477   5.993  0.00  0.00     0.041 A 
ATOM      4  C3  UNL d   1      -5.189   1.551   5.348  0.00  0.00    -0.075 A 
ATOM      5  S   UNL d   1      -4.875   3.116   5.998  0.00  0.00     0.015 SA
ATOM      6  C4  UNL d   1      -4.119   3.642   4.563  0.00  0.00     0.022 A 
ATOM      7  C5  UNL d   1      -4.098   2.659   3.602  0.00  0.00     0.026 A 
ATOM      8  C6  UNL d   1      -4.714   1.438   4.038  0.00  0.00    -0.082 A 
ATOM      9  C7  UNL d   1      -4.897   0.206   3.364  0.00  0.00     0.045 A 
ENDROOT
TORSDOF 0
ENDMDL
