MODEL 1
REMARK minimizedAffinity 17.6991673
REMARK minimizedRMSD -1
REMARK  0 active torsions:
REMARK  status: ('A' for Active; 'I' for Inactive)
ROOT
ATOM      1  C   UNL d   1      -5.631  -5.133  -2.298  0.00  0.00    -0.002 A 
ATOM      2  C1  UNL d   1      -5.999  -4.134  -3.189  0.00  0.00     0.010 A 
ATOM      3  C2  UNL d   1      -5.240  -2.968  -3.302  0.00  0.00     0.041 A 
ATOM      4  C3  UNL d   1      -4.092  -2.822  -2.498  0.00  0.00    -0.075 A 
ATOM      5  S   UNL d   1      -3.010  -1.480  -2.466  0.00  0.00     0.015 SA
ATOM      6  C4  UNL d   1      -2.033  -2.202  -1.270  0.00  0.00     0.022 A 
ATOM      7  C5  UNL d   1      -2.507  -3.436  -0.892  0.00  0.00     0.026 A 
ATOM      8  C6  UNL d   1      -3.701  -3.814  -1.594  0.00  0.00    -0.082 A 
ATOM      9  C7  UNL d   1      -4.492  -4.984  -1.503  0.00  0.00     0.045 A 
ENDROOT
TORSDOF 0
ENDMDL
