MODEL 1
REMARK minimizedAffinity 13.5871916
REMARK minimizedRMSD -1
REMARK  0 active torsions:
REMARK  status: ('A' for Active; 'I' for Inactive)
ROOT
ATOM      1  C   UNL d   1      -5.583   3.513   5.979  0.00  0.00    -0.002 A 
ATOM      2  C1  UNL d   1      -4.251   3.901   5.954  0.00  0.00     0.010 A 
ATOM      3  C2  UNL d   1      -3.309   3.163   5.235  0.00  0.00     0.041 A 
ATOM      4  C3  UNL d   1      -3.733   2.018   4.533  0.00  0.00    -0.075 A 
ATOM      5  S   UNL d   1      -2.758   0.960   3.583  0.00  0.00     0.015 SA
ATOM      6  C4  UNL d   1      -4.087  -0.031   3.187  0.00  0.00     0.022 A 
ATOM      7  C5  UNL d   1      -5.254   0.419   3.757  0.00  0.00     0.026 A 
ATOM      8  C6  UNL d   1      -5.070   1.607   4.542  0.00  0.00    -0.082 A 
ATOM      9  C7  UNL d   1      -6.000   2.377   5.281  0.00  0.00     0.045 A 
ENDROOT
TORSDOF 0
ENDMDL
