MODEL 1
REMARK minimizedAffinity 18.5069351
REMARK minimizedRMSD -1
REMARK  0 active torsions:
REMARK  status: ('A' for Active; 'I' for Inactive)
ROOT
ATOM      1  C   UNL d   1       0.153   1.899   2.367  0.00  0.00    -0.002 A 
ATOM      2  C1  UNL d   1       0.954   2.086   1.249  0.00  0.00     0.010 A 
ATOM      3  C2  UNL d   1       2.168   1.407   1.124  0.00  0.00     0.041 A 
ATOM      4  C3  UNL d   1       2.566   0.527   2.150  0.00  0.00    -0.075 A 
ATOM      5  S   UNL d   1       4.010  -0.412   2.211  0.00  0.00     0.015 SA
ATOM      6  C4  UNL d   1       3.598  -1.084   3.722  0.00  0.00     0.022 A 
ATOM      7  C5  UNL d   1       2.391  -0.614   4.183  0.00  0.00     0.026 A 
ATOM      8  C6  UNL d   1       1.776   0.322   3.284  0.00  0.00    -0.082 A 
ATOM      9  C7  UNL d   1       0.551   1.026   3.382  0.00  0.00     0.045 A 
ENDROOT
TORSDOF 0
ENDMDL
