MODEL 1
REMARK minimizedAffinity 2.17634535
REMARK minimizedRMSD -1
REMARK  0 active torsions:
REMARK  status: ('A' for Active; 'I' for Inactive)
ROOT
ATOM      1  C   UNL d   1      -5.254  -1.035   3.377  0.00  0.00    -0.002 A 
ATOM      2  C1  UNL d   1      -5.944  -1.126   4.578  0.00  0.00     0.010 A 
ATOM      3  C2  UNL d   1      -6.000  -0.036   5.449  0.00  0.00     0.041 A 
ATOM      4  C3  UNL d   1      -5.347   1.159   5.089  0.00  0.00    -0.075 A 
ATOM      5  S   UNL d   1      -5.282   2.623   5.997  0.00  0.00     0.015 SA
ATOM      6  C4  UNL d   1      -4.338   3.404   4.813  0.00  0.00     0.022 A 
ATOM      7  C5  UNL d   1      -4.069   2.583   3.743  0.00  0.00     0.026 A 
ATOM      8  C6  UNL d   1      -4.647   1.276   3.884  0.00  0.00    -0.082 A 
ATOM      9  C7  UNL d   1      -4.607   0.153   3.023  0.00  0.00     0.045 A 
ENDROOT
TORSDOF 0
ENDMDL
