MODEL 1
REMARK minimizedAffinity 6.93523932
REMARK minimizedRMSD -1
REMARK  0 active torsions:
REMARK  status: ('A' for Active; 'I' for Inactive)
ROOT
ATOM      1  C   UNL d   1      -2.704   6.000  -2.509  0.00  0.00    -0.002 A 
ATOM      2  C1  UNL d   1      -1.810   5.796  -1.467  0.00  0.00     0.010 A 
ATOM      3  C2  UNL d   1      -2.272   5.587  -0.166  0.00  0.00     0.041 A 
ATOM      4  C3  UNL d   1      -3.660   5.585   0.072  0.00  0.00    -0.075 A 
ATOM      5  S   UNL d   1      -4.455   5.349   1.584  0.00  0.00     0.015 SA
ATOM      6  C4  UNL d   1      -5.999   5.512   0.882  0.00  0.00     0.022 A 
ATOM      7  C5  UNL d   1      -5.929   5.742  -0.471  0.00  0.00     0.026 A 
ATOM      8  C6  UNL d   1      -4.580   5.787  -0.961  0.00  0.00    -0.082 A 
ATOM      9  C7  UNL d   1      -4.080   5.997  -2.269  0.00  0.00     0.045 A 
ENDROOT
TORSDOF 0
ENDMDL
