MODEL 1
REMARK minimizedAffinity 22.6877632
REMARK minimizedRMSD -1
REMARK  0 active torsions:
REMARK  status: ('A' for Active; 'I' for Inactive)
ROOT
ATOM      1  C   UNL d   1       0.606   0.963   3.388  0.00  0.00    -0.002 A 
ATOM      2  C1  UNL d   1       1.536   1.217   2.391  0.00  0.00     0.010 A 
ATOM      3  C2  UNL d   1       1.659   0.357   1.298  0.00  0.00     0.041 A 
ATOM      4  C3  UNL d   1       0.822  -0.773   1.223  0.00  0.00    -0.075 A 
ATOM      5  S   UNL d   1       0.793  -1.965  -0.022  0.00  0.00     0.015 SA
ATOM      6  C4  UNL d   1      -0.456  -2.839   0.740  0.00  0.00     0.022 A 
ATOM      7  C5  UNL d   1      -0.853  -2.251   1.917  0.00  0.00     0.026 A 
ATOM      8  C6  UNL d   1      -0.124  -1.050   2.215  0.00  0.00    -0.082 A 
ATOM      9  C7  UNL d   1      -0.224  -0.159   3.310  0.00  0.00     0.045 A 
ENDROOT
TORSDOF 0
ENDMDL
