MODEL 1
REMARK minimizedAffinity 10.7618065
REMARK minimizedRMSD -1
REMARK  0 active torsions:
REMARK  status: ('A' for Active; 'I' for Inactive)
ROOT
ATOM      1  C   UNL d   1       4.222   2.016  -3.123  0.00  0.00    -0.002 A 
ATOM      2  C1  UNL d   1       4.135   3.003  -2.151  0.00  0.00     0.010 A 
ATOM      3  C2  UNL d   1       3.585   4.250  -2.454  0.00  0.00     0.041 A 
ATOM      4  C3  UNL d   1       3.118   4.491  -3.761  0.00  0.00    -0.075 A 
ATOM      5  S   UNL d   1       2.406   5.942  -4.360  0.00  0.00     0.015 SA
ATOM      6  C4  UNL d   1       2.200   5.286  -5.919  0.00  0.00     0.022 A 
ATOM      7  C5  UNL d   1       2.658   3.992  -5.999  0.00  0.00     0.026 A 
ATOM      8  C6  UNL d   1       3.194   3.512  -4.756  0.00  0.00    -0.082 A 
ATOM      9  C7  UNL d   1       3.758   2.258  -4.419  0.00  0.00     0.045 A 
ENDROOT
TORSDOF 0
ENDMDL
