MODEL 1
REMARK minimizedAffinity 4.56742382
REMARK minimizedRMSD -1
REMARK  1 active torsions:
REMARK  status: ('A' for Active; 'I' for Inactive)
REMARK    1  A    between atoms: C3_4  and  O_7 
ROOT
ATOM      1  C   UNL d   1       2.065   2.668  -0.748  0.00  0.00    -0.033 A 
ATOM      2  C1  UNL d   1       1.774   1.902  -1.879  0.00  0.00     0.039 A 
ATOM      3  C2  UNL d   1       2.005   0.525  -1.871  0.00  0.00    -0.080 A 
ATOM      4  C3  UNL d   1       2.526  -0.073  -0.727  0.00  0.00     0.150 A 
ATOM      5  C4  UNL d   1       2.815   0.683   0.405  0.00  0.00    -0.007 A 
ATOM      6  C5  UNL d   1       2.584   2.058   0.394  0.00  0.00     0.039 A 
ENDROOT
BRANCH   4   7
ATOM      7  O   UNL d   1       2.774  -1.413  -0.673  0.00  0.00    -0.526 OA
ATOM      8  H5  UNL d   1       2.553  -1.801  -1.536  0.00  0.00     0.418 HD
ENDBRANCH   4   7
TORSDOF 1
ENDMDL
