MODEL 1
REMARK minimizedAffinity 3.76386285
REMARK minimizedRMSD -1
REMARK  1 active torsions:
REMARK  status: ('A' for Active; 'I' for Inactive)
REMARK    1  A    between atoms: C3_4  and  O_7 
ROOT
ATOM      1  C   UNL d   1       1.115  -0.178  -2.238  0.00  0.00    -0.033 A 
ATOM      2  C1  UNL d   1       1.359  -0.711  -0.970  0.00  0.00     0.039 A 
ATOM      3  C2  UNL d   1       1.999   0.061   0.002  0.00  0.00    -0.080 A 
ATOM      4  C3  UNL d   1       2.388   1.362  -0.305  0.00  0.00     0.150 A 
ATOM      5  C4  UNL d   1       2.145   1.900  -1.564  0.00  0.00    -0.007 A 
ATOM      6  C5  UNL d   1       1.507   1.128  -2.534  0.00  0.00     0.039 A 
ENDROOT
BRANCH   4   7
ATOM      7  O   UNL d   1       3.020   2.151   0.610  0.00  0.00    -0.526 OA
ATOM      8  H5  UNL d   1       3.146   1.637   1.424  0.00  0.00     0.418 HD
ENDBRANCH   4   7
TORSDOF 1
ENDMDL
