MODEL 1
REMARK minimizedAffinity -3.4844234
REMARK minimizedRMSD -1
REMARK  1 active torsions:
REMARK  status: ('A' for Active; 'I' for Inactive)
REMARK    1  A    between atoms: C3_4  and  O_7 
ROOT
ATOM      1  C   UNL d   1       3.170  -2.011   0.291  0.00  0.00    -0.033 A 
ATOM      2  C1  UNL d   1       3.317  -0.623   0.325  0.00  0.00     0.039 A 
ATOM      3  C2  UNL d   1       2.951   0.092   1.468  0.00  0.00    -0.080 A 
ATOM      4  C3  UNL d   1       2.442  -0.592   2.568  0.00  0.00     0.150 A 
ATOM      5  C4  UNL d   1       2.296  -1.976   2.542  0.00  0.00    -0.007 A 
ATOM      6  C5  UNL d   1       2.661  -2.687   1.400  0.00  0.00     0.039 A 
ENDROOT
BRANCH   4   7
ATOM      7  O   UNL d   1       2.067   0.062   3.703  0.00  0.00    -0.526 OA
ATOM      8  H5  UNL d   1       2.196   1.016   3.566  0.00  0.00     0.418 HD
ENDBRANCH   4   7
TORSDOF 1
ENDMDL
