MODEL 1
REMARK minimizedAffinity 15.7895365
REMARK minimizedRMSD -1
REMARK  0 active torsions:
REMARK  status: ('A' for Active; 'I' for Inactive)
ROOT
ATOM      1  C   UNL d   1       2.834  -1.058  -0.639  0.00  0.00     0.124 A 
ATOM      2  C1  UNL d   1       3.019  -1.546   0.647  0.00  0.00     0.062 A 
ATOM      3  C2  UNL d   1       1.926  -1.951   1.407  0.00  0.00     0.162 A 
ATOM      4  C3  UNL d   1       0.636  -1.870   0.882  0.00  0.00    -0.034 A 
ATOM      5  C4  UNL d   1       0.457  -1.377  -0.412  0.00  0.00     0.162 A 
ATOM      6  C5  UNL d   1       1.554  -0.974  -1.167  0.00  0.00     0.062 A 
ATOM      7  F   UNL d   1       1.372  -0.502  -2.409  0.00  0.00    -0.097 F 
ATOM      8  F1  UNL d   1      -0.769  -1.286  -0.947  0.00  0.00    -0.096 F 
ATOM      9  I   UNL d   1      -1.002  -2.475   2.014  0.00  0.00    -0.060 I 
ATOM     10  F2  UNL d   1       2.134  -2.419   2.646  0.00  0.00    -0.096 F 
ATOM     11  F3  UNL d   1       4.256  -1.627   1.160  0.00  0.00    -0.097 F 
ATOM     12  F4  UNL d   1       3.888  -0.668  -1.367  0.00  0.00    -0.092 F 
ENDROOT
TORSDOF 0
ENDMDL
