MODEL 1
REMARK minimizedAffinity 18.7351189
REMARK minimizedRMSD -1
REMARK  0 active torsions:
REMARK  status: ('A' for Active; 'I' for Inactive)
ROOT
ATOM      1  C   UNL d   1       0.435  -1.177   3.183  0.00  0.00     0.124 A 
ATOM      2  C1  UNL d   1       0.194   0.146   3.526  0.00  0.00     0.062 A 
ATOM      3  C2  UNL d   1      -1.037   0.730   3.241  0.00  0.00     0.162 A 
ATOM      4  C3  UNL d   1      -2.038  -0.010   2.611  0.00  0.00    -0.034 A 
ATOM      5  C4  UNL d   1      -1.788  -1.340   2.268  0.00  0.00     0.162 A 
ATOM      6  C5  UNL d   1      -0.556  -1.919   2.555  0.00  0.00     0.062 A 
ATOM      7  F   UNL d   1      -0.325  -3.197   2.222  0.00  0.00    -0.097 F 
ATOM      8  F1  UNL d   1      -2.727  -2.079   1.661  0.00  0.00    -0.096 F 
ATOM      9  I   UNL d   1      -3.880   0.860   2.184  0.00  0.00    -0.060 I 
ATOM     10  F2  UNL d   1      -1.242   2.010   3.584  0.00  0.00    -0.096 F 
ATOM     11  F3  UNL d   1       1.150   0.865   4.132  0.00  0.00    -0.097 F 
ATOM     12  F4  UNL d   1       1.621  -1.736   3.457  0.00  0.00    -0.092 F 
ENDROOT
TORSDOF 0
ENDMDL
