MODEL 1
REMARK minimizedAffinity 10.6459112
REMARK minimizedRMSD -1
REMARK  0 active torsions:
REMARK  status: ('A' for Active; 'I' for Inactive)
ROOT
ATOM      1  C   UNL d   1      -3.755   4.429  -3.793  0.00  0.00     0.124 A 
ATOM      2  C1  UNL d   1      -2.695   3.690  -3.286  0.00  0.00     0.062 A 
ATOM      3  C2  UNL d   1      -2.742   2.299  -3.298  0.00  0.00     0.162 A 
ATOM      4  C3  UNL d   1      -3.853   1.637  -3.820  0.00  0.00    -0.034 A 
ATOM      5  C4  UNL d   1      -4.916   2.387  -4.327  0.00  0.00     0.162 A 
ATOM      6  C5  UNL d   1      -4.864   3.777  -4.313  0.00  0.00     0.062 A 
ATOM      7  F   UNL d   1      -5.890   4.488  -4.804  0.00  0.00    -0.097 F 
ATOM      8  F1  UNL d   1      -6.000   1.782  -4.837  0.00  0.00    -0.096 F 
ATOM      9  I   UNL d   1      -3.928  -0.443  -3.839  0.00  0.00    -0.060 I 
ATOM     10  F2  UNL d   1      -1.704   1.611  -2.801  0.00  0.00    -0.096 F 
ATOM     11  F3  UNL d   1      -1.623   4.318  -2.782  0.00  0.00    -0.097 F 
ATOM     12  F4  UNL d   1      -3.708   5.767  -3.780  0.00  0.00    -0.092 F 
ENDROOT
TORSDOF 0
ENDMDL
