MODEL 1
REMARK minimizedAffinity 1.40806699
REMARK minimizedRMSD -1
REMARK  0 active torsions:
REMARK  status: ('A' for Active; 'I' for Inactive)
ROOT
ATOM      1  C   UNL d   1       2.765  -0.126  -2.214  0.00  0.00     0.124 A 
ATOM      2  C1  UNL d   1       3.182   1.179  -1.989  0.00  0.00     0.062 A 
ATOM      3  C2  UNL d   1       2.911   1.800  -0.773  0.00  0.00     0.162 A 
ATOM      4  C3  UNL d   1       2.221   1.117   0.228  0.00  0.00    -0.034 A 
ATOM      5  C4  UNL d   1       1.804  -0.194  -0.006  0.00  0.00     0.162 A 
ATOM      6  C5  UNL d   1       2.077  -0.811  -1.223  0.00  0.00     0.062 A 
ATOM      7  F   UNL d   1       1.673  -2.071  -1.439  0.00  0.00    -0.097 F 
ATOM      8  F1  UNL d   1       1.138  -0.880   0.935  0.00  0.00    -0.096 F 
ATOM      9  I   UNL d   1       1.814   2.043   2.047  0.00  0.00    -0.060 I 
ATOM     10  F2  UNL d   1       3.326   3.062  -0.583  0.00  0.00    -0.096 F 
ATOM     11  F3  UNL d   1       3.846   1.844  -2.945  0.00  0.00    -0.097 F 
ATOM     12  F4  UNL d   1       3.026  -0.721  -3.385  0.00  0.00    -0.092 F 
ENDROOT
TORSDOF 0
ENDMDL
