MODEL 1
REMARK minimizedAffinity 6.98801994
REMARK minimizedRMSD -1
REMARK  0 active torsions:
REMARK  status: ('A' for Active; 'I' for Inactive)
ROOT
ATOM      1  C   UNL d   1       1.307   2.377  -2.251  0.00  0.00     0.124 A 
ATOM      2  C1  UNL d   1       2.339   2.223  -1.337  0.00  0.00     0.062 A 
ATOM      3  C2  UNL d   1       2.426   1.066  -0.567  0.00  0.00     0.162 A 
ATOM      4  C3  UNL d   1       1.478   0.053  -0.710  0.00  0.00    -0.034 A 
ATOM      5  C4  UNL d   1       0.442   0.215  -1.631  0.00  0.00     0.162 A 
ATOM      6  C5  UNL d   1       0.359   1.373  -2.398  0.00  0.00     0.062 A 
ATOM      7  F   UNL d   1      -0.639   1.520  -3.281  0.00  0.00    -0.097 F 
ATOM      8  F1  UNL d   1      -0.487  -0.739  -1.793  0.00  0.00    -0.096 F 
ATOM      9  I   UNL d   1       1.604  -1.678   0.439  0.00  0.00    -0.060 I 
ATOM     10  F2  UNL d   1       3.435   0.944   0.309  0.00  0.00    -0.096 F 
ATOM     11  F3  UNL d   1       3.255   3.191  -1.193  0.00  0.00    -0.097 F 
ATOM     12  F4  UNL d   1       1.225   3.491  -2.990  0.00  0.00    -0.092 F 
ENDROOT
TORSDOF 0
ENDMDL
