MODEL 1
REMARK minimizedAffinity 7.39275312
REMARK minimizedRMSD -1
REMARK  0 active torsions:
REMARK  status: ('A' for Active; 'I' for Inactive)
ROOT
ATOM      1  C   UNL d   1       1.190   1.543  -1.641  0.00  0.00     0.124 A 
ATOM      2  C1  UNL d   1       2.448   1.328  -1.096  0.00  0.00     0.062 A 
ATOM      3  C2  UNL d   1       2.711   0.165  -0.378  0.00  0.00     0.162 A 
ATOM      4  C3  UNL d   1       1.712  -0.793  -0.201  0.00  0.00    -0.034 A 
ATOM      5  C4  UNL d   1       0.449  -0.569  -0.751  0.00  0.00     0.162 A 
ATOM      6  C5  UNL d   1       0.192   0.594  -1.468  0.00  0.00     0.062 A 
ATOM      7  F   UNL d   1      -1.024   0.800  -1.994  0.00  0.00    -0.097 F 
ATOM      8  F1  UNL d   1      -0.533  -1.470  -0.600  0.00  0.00    -0.096 F 
ATOM      9  I   UNL d   1       2.101  -2.533   0.873  0.00  0.00    -0.060 I 
ATOM     10  F2  UNL d   1       3.935  -0.016   0.138  0.00  0.00    -0.096 F 
ATOM     11  F3  UNL d   1       3.414   2.244  -1.261  0.00  0.00    -0.097 F 
ATOM     12  F4  UNL d   1       0.940   2.663  -2.331  0.00  0.00    -0.092 F 
ENDROOT
TORSDOF 0
ENDMDL
