MODEL 1
REMARK minimizedAffinity -5.38300228
REMARK minimizedRMSD -1
REMARK  0 active torsions:
REMARK  status: ('A' for Active; 'I' for Inactive)
ROOT
ATOM      1  C   UNL d   1       3.168   0.346   0.855  0.00  0.00     0.020 A 
ATOM      2  C1  UNL d   1       3.358  -0.987   0.492  0.00  0.00     0.020 A 
ATOM      3  C2  UNL d   1       2.286  -1.738   0.005  0.00  0.00     0.034 A 
ATOM      4  C3  UNL d   1       1.019  -1.157  -0.120  0.00  0.00     0.017 A 
ATOM      5  C4  UNL d   1       0.829   0.181   0.245  0.00  0.00     0.017 A 
ATOM      6  C5  UNL d   1       1.906   0.928   0.732  0.00  0.00     0.034 A 
ATOM      7 Cl   UNL d   1      -0.705   0.967   0.118  0.00  0.00    -0.070 Cl
ATOM      8 Cl1  UNL d   1      -0.261  -2.144  -0.730  0.00  0.00    -0.070 Cl
ENDROOT
TORSDOF 0
ENDMDL
