MODEL 1
REMARK minimizedAffinity -0.377534688
REMARK minimizedRMSD -1
REMARK  0 active torsions:
REMARK  status: ('A' for Active; 'I' for Inactive)
ROOT
ATOM      1  C   UNL d   1      -1.404  -0.986  -0.342  0.00  0.00     0.020 A 
ATOM      2  C1  UNL d   1      -1.455   0.370  -0.025  0.00  0.00     0.020 A 
ATOM      3  C2  UNL d   1      -0.272   1.091   0.153  0.00  0.00     0.034 A 
ATOM      4  C3  UNL d   1       0.967   0.455   0.014  0.00  0.00     0.017 A 
ATOM      5  C4  UNL d   1       1.017  -0.907  -0.305  0.00  0.00     0.017 A 
ATOM      6  C5  UNL d   1      -0.170  -1.623  -0.482  0.00  0.00     0.034 A 
ATOM      7 Cl   UNL d   1       2.508  -1.760  -0.494  0.00  0.00    -0.070 Cl
ATOM      8 Cl1  UNL d   1       2.390   1.407   0.248  0.00  0.00    -0.070 Cl
ENDROOT
TORSDOF 0
ENDMDL
