MODEL 1
REMARK minimizedAffinity -2.09555578
REMARK minimizedRMSD -1
REMARK  0 active torsions:
REMARK  status: ('A' for Active; 'I' for Inactive)
ROOT
ATOM      1  C   UNL d   1       0.035   2.417  -0.133  0.00  0.00     0.020 A 
ATOM      2  C1  UNL d   1       0.878   1.331   0.097  0.00  0.00     0.020 A 
ATOM      3  C2  UNL d   1       0.337   0.079   0.398  0.00  0.00     0.034 A 
ATOM      4  C3  UNL d   1      -1.050  -0.090   0.468  0.00  0.00     0.017 A 
ATOM      5  C4  UNL d   1      -1.896   1.001   0.236  0.00  0.00     0.017 A 
ATOM      6  C5  UNL d   1      -1.349   2.252  -0.064  0.00  0.00     0.034 A 
ATOM      7 Cl   UNL d   1      -3.618   0.870   0.305  0.00  0.00    -0.070 Cl
ATOM      8 Cl1  UNL d   1      -1.650  -1.667   0.844  0.00  0.00    -0.070 Cl
ENDROOT
TORSDOF 0
ENDMDL
