MODEL 1
REMARK minimizedAffinity -3.57209921
REMARK minimizedRMSD -1
REMARK  0 active torsions:
REMARK  status: ('A' for Active; 'I' for Inactive)
ROOT
ATOM      1  C   UNL d   1       1.452  -2.168  -0.297  0.00  0.00     0.020 A 
ATOM      2  C1  UNL d   1       0.094  -2.000  -0.563  0.00  0.00     0.020 A 
ATOM      3  C2  UNL d   1      -0.436  -0.716  -0.707  0.00  0.00     0.034 A 
ATOM      4  C3  UNL d   1       0.393   0.405  -0.585  0.00  0.00     0.017 A 
ATOM      5  C4  UNL d   1       1.756   0.235  -0.318  0.00  0.00     0.017 A 
ATOM      6  C5  UNL d   1       2.281  -1.053  -0.175  0.00  0.00     0.034 A 
ATOM      7 Cl   UNL d   1       2.841   1.571  -0.153  0.00  0.00    -0.070 Cl
ATOM      8 Cl1  UNL d   1      -0.330   1.963  -0.775  0.00  0.00    -0.070 Cl
ENDROOT
TORSDOF 0
ENDMDL
