MODEL 1
REMARK minimizedAffinity -5.43878603
REMARK minimizedRMSD -1
REMARK  0 active torsions:
REMARK  status: ('A' for Active; 'I' for Inactive)
ROOT
ATOM      1  C   UNL d   1       3.352   0.550   0.497  0.00  0.00     0.020 A 
ATOM      2  C1  UNL d   1       3.457  -0.840   0.466  0.00  0.00     0.020 A 
ATOM      3  C2  UNL d   1       2.398  -1.609  -0.022  0.00  0.00     0.034 A 
ATOM      4  C3  UNL d   1       1.231  -0.989  -0.481  0.00  0.00     0.017 A 
ATOM      5  C4  UNL d   1       1.127   0.407  -0.450  0.00  0.00     0.017 A 
ATOM      6  C5  UNL d   1       2.190   1.172   0.039  0.00  0.00     0.034 A 
ATOM      7 Cl   UNL d   1      -0.282   1.244  -1.000  0.00  0.00    -0.070 Cl
ATOM      8 Cl1  UNL d   1      -0.039  -2.002  -1.072  0.00  0.00    -0.070 Cl
ENDROOT
TORSDOF 0
ENDMDL
