MODEL 1
REMARK minimizedAffinity -2.3139832
REMARK minimizedRMSD -1
REMARK  0 active torsions:
REMARK  status: ('A' for Active; 'I' for Inactive)
ROOT
ATOM      1  C   UNL d   1       2.523  -1.530   0.274  0.00  0.00     0.020 A 
ATOM      2  C1  UNL d   1       1.326  -2.214   0.067  0.00  0.00     0.020 A 
ATOM      3  C2  UNL d   1       0.137  -1.503  -0.106  0.00  0.00     0.034 A 
ATOM      4  C3  UNL d   1       0.142  -0.103  -0.072  0.00  0.00     0.017 A 
ATOM      5  C4  UNL d   1       1.345   0.582   0.135  0.00  0.00     0.017 A 
ATOM      6  C5  UNL d   1       2.533  -0.135   0.308  0.00  0.00     0.034 A 
ATOM      7 Cl   UNL d   1       1.431   2.307   0.189  0.00  0.00    -0.070 Cl
ATOM      8 Cl1  UNL d   1      -1.365   0.712  -0.294  0.00  0.00    -0.070 Cl
ENDROOT
TORSDOF 0
ENDMDL
