MODEL 1
REMARK minimizedAffinity 6.44024038
REMARK minimizedRMSD -1
REMARK  0 active torsions:
REMARK  status: ('A' for Active; 'I' for Inactive)
ROOT
ATOM      1  C   UNL d   1       0.040  -3.580  -0.391  0.00  0.00     0.020 A 
ATOM      2  C1  UNL d   1      -0.928  -2.730   0.142  0.00  0.00     0.020 A 
ATOM      3  C2  UNL d   1      -0.644  -1.375   0.324  0.00  0.00     0.034 A 
ATOM      4  C3  UNL d   1       0.612  -0.866  -0.025  0.00  0.00     0.017 A 
ATOM      5  C4  UNL d   1       1.584  -1.720  -0.560  0.00  0.00     0.017 A 
ATOM      6  C5  UNL d   1       1.294  -3.076  -0.741  0.00  0.00     0.034 A 
ATOM      7 Cl   UNL d   1       3.156  -1.166  -1.015  0.00  0.00    -0.070 Cl
ATOM      8 Cl1  UNL d   1       0.895   0.819   0.228  0.00  0.00    -0.070 Cl
ENDROOT
TORSDOF 0
ENDMDL
