MODEL 1
REMARK minimizedAffinity 2.35262108
REMARK minimizedRMSD -1
REMARK  0 active torsions:
REMARK  status: ('A' for Active; 'I' for Inactive)
ROOT
ATOM      1  C   UNL d   1       4.101   2.208  -0.575  0.00  0.00     0.020 A 
ATOM      2  C1  UNL d   1       4.923   1.146  -0.948  0.00  0.00     0.020 A 
ATOM      3  C2  UNL d   1       4.413  -0.154  -0.980  0.00  0.00     0.034 A 
ATOM      4  C3  UNL d   1       3.078  -0.395  -0.639  0.00  0.00     0.017 A 
ATOM      5  C4  UNL d   1       2.253   0.672  -0.265  0.00  0.00     0.017 A 
ATOM      6  C5  UNL d   1       2.768   1.972  -0.234  0.00  0.00     0.034 A 
ATOM      7 Cl   UNL d   1       0.594   0.453   0.170  0.00  0.00    -0.070 Cl
ATOM      8 Cl1  UNL d   1       2.514  -2.027  -0.701  0.00  0.00    -0.070 Cl
ENDROOT
TORSDOF 0
ENDMDL
