MODEL 1
REMARK minimizedAffinity -5.89869452
REMARK minimizedRMSD -1
REMARK  1 active torsions:
REMARK  status: ('A' for Active; 'I' for Inactive)
REMARK    1  A    between atoms: C1_2  and  C2_3 
ROOT
ATOM      1  C2  UNL d   1      -1.768  -0.197  -0.538  0.00  0.00    -0.077 A 
ATOM      2  C3  UNL d   1      -1.630   0.754  -1.559  0.00  0.00     0.002 A 
ATOM      3  C4  UNL d   1      -0.391   1.347  -1.808  0.00  0.00     0.002 A 
ATOM      4  C5  UNL d   1       0.719   0.994  -1.043  0.00  0.00    -0.004 A 
ATOM      5  C6  UNL d   1       0.591   0.051  -0.024  0.00  0.00     0.002 A 
ATOM      6  C7  UNL d   1      -0.647  -0.542   0.227  0.00  0.00     0.002 A 
ENDROOT
BRANCH   1   7
ATOM      7  C1  UNL d   1      -3.092  -0.875  -0.300  0.00  0.00     0.055 C 
ATOM      8  C   UNL d   1      -2.903  -2.312   0.164  0.00  0.00     0.019 C 
ENDBRANCH   1   7
TORSDOF 1
ENDMDL
