MODEL 1
REMARK minimizedAffinity -1.23166502
REMARK minimizedRMSD -1
REMARK  1 active torsions:
REMARK  status: ('A' for Active; 'I' for Inactive)
REMARK    1  A    between atoms: C1_2  and  C2_3 
ROOT
ATOM      1  C2  UNL d   1       3.941   3.961   0.539  0.00  0.00    -0.077 A 
ATOM      2  C3  UNL d   1       4.388   5.070  -0.192  0.00  0.00     0.002 A 
ATOM      3  C4  UNL d   1       5.064   4.893  -1.401  0.00  0.00     0.002 A 
ATOM      4  C5  UNL d   1       5.295   3.609  -1.891  0.00  0.00    -0.004 A 
ATOM      5  C6  UNL d   1       4.856   2.499  -1.170  0.00  0.00     0.002 A 
ATOM      6  C7  UNL d   1       4.181   2.675   0.039  0.00  0.00     0.002 A 
ENDROOT
BRANCH   1   7
ATOM      7  C1  UNL d   1       3.169   4.151   1.818  0.00  0.00     0.055 C 
ATOM      8  C   UNL d   1       2.143   3.044   2.016  0.00  0.00     0.019 C 
ENDBRANCH   1   7
TORSDOF 1
ENDMDL
