MODEL 1
REMARK minimizedAffinity -5.84584761
REMARK minimizedRMSD -1
REMARK  1 active torsions:
REMARK  status: ('A' for Active; 'I' for Inactive)
REMARK    1  A    between atoms: C1_2  and  C2_3 
ROOT
ATOM      1  C2  UNL d   1      -1.328  -0.293   0.097  0.00  0.00    -0.077 A 
ATOM      2  C3  UNL d   1      -1.280  -1.546   0.726  0.00  0.00     0.002 A 
ATOM      3  C4  UNL d   1      -2.358  -2.428   0.624  0.00  0.00     0.002 A 
ATOM      4  C5  UNL d   1      -3.488  -2.069  -0.108  0.00  0.00    -0.004 A 
ATOM      5  C6  UNL d   1      -3.545  -0.825  -0.735  0.00  0.00     0.002 A 
ATOM      6  C7  UNL d   1      -2.470   0.059  -0.633  0.00  0.00     0.002 A 
ENDROOT
BRANCH   1   7
ATOM      7  C1  UNL d   1      -0.147   0.640   0.164  0.00  0.00     0.055 C 
ATOM      8  C   UNL d   1       1.143  -0.072  -0.216  0.00  0.00     0.019 C 
ENDBRANCH   1   7
TORSDOF 1
ENDMDL
