MODEL 1
REMARK minimizedAffinity -3.75150609
REMARK minimizedRMSD -1
REMARK  1 active torsions:
REMARK  status: ('A' for Active; 'I' for Inactive)
REMARK    1  A    between atoms: C1_2  and  C2_3 
ROOT
ATOM      1  C2  UNL d   1       1.945   1.327   0.925  0.00  0.00    -0.077 A 
ATOM      2  C3  UNL d   1       0.701   1.897   0.621  0.00  0.00     0.002 A 
ATOM      3  C4  UNL d   1      -0.312   1.120   0.056  0.00  0.00     0.002 A 
ATOM      4  C5  UNL d   1      -0.093  -0.231  -0.206  0.00  0.00    -0.004 A 
ATOM      5  C6  UNL d   1       1.141  -0.806   0.091  0.00  0.00     0.002 A 
ATOM      6  C7  UNL d   1       2.156  -0.031   0.655  0.00  0.00     0.002 A 
ENDROOT
BRANCH   1   7
ATOM      7  C1  UNL d   1       3.023   2.151   1.581  0.00  0.00     0.055 C 
ATOM      8  C   UNL d   1       2.670   3.631   1.572  0.00  0.00     0.019 C 
ENDBRANCH   1   7
TORSDOF 1
ENDMDL
