MODEL 1
REMARK minimizedAffinity -6.19404984
REMARK minimizedRMSD -1
REMARK  1 active torsions:
REMARK  status: ('A' for Active; 'I' for Inactive)
REMARK    1  A    between atoms: C1_2  and  C2_3 
ROOT
ATOM      1  C2  UNL d   1      -1.128  -0.526   0.246  0.00  0.00    -0.077 A 
ATOM      2  C3  UNL d   1      -2.312  -0.202  -0.432  0.00  0.00     0.002 A 
ATOM      3  C4  UNL d   1      -3.410  -1.062  -0.385  0.00  0.00     0.002 A 
ATOM      4  C5  UNL d   1      -3.338  -2.249   0.341  0.00  0.00    -0.004 A 
ATOM      5  C6  UNL d   1      -2.164  -2.581   1.017  0.00  0.00     0.002 A 
ATOM      6  C7  UNL d   1      -1.065  -1.723   0.971  0.00  0.00     0.002 A 
ENDROOT
BRANCH   1   7
ATOM      7  C1  UNL d   1       0.041   0.424   0.237  0.00  0.00     0.055 C 
ATOM      8  C   UNL d   1       1.337  -0.297  -0.103  0.00  0.00     0.019 C 
ENDBRANCH   1   7
TORSDOF 1
ENDMDL
