MODEL 1
REMARK minimizedAffinity -4.75387955
REMARK minimizedRMSD -1
REMARK  1 active torsions:
REMARK  status: ('A' for Active; 'I' for Inactive)
REMARK    1  A    between atoms: C1_2  and  C2_3 
ROOT
ATOM      1  C2  UNL d   1       1.769   1.275   0.890  0.00  0.00    -0.077 A 
ATOM      2  C3  UNL d   1       0.505   1.794   0.574  0.00  0.00     0.002 A 
ATOM      3  C4  UNL d   1      -0.478   0.970   0.022  0.00  0.00     0.002 A 
ATOM      4  C5  UNL d   1      -0.209  -0.376  -0.214  0.00  0.00    -0.004 A 
ATOM      5  C6  UNL d   1       1.045  -0.901   0.096  0.00  0.00     0.002 A 
ATOM      6  C7  UNL d   1       2.029  -0.079   0.646  0.00  0.00     0.002 A 
ENDROOT
BRANCH   1   7
ATOM      7  C1  UNL d   1       2.814   2.151   1.531  0.00  0.00     0.055 C 
ATOM      8  C   UNL d   1       2.603   3.615   1.177  0.00  0.00     0.019 C 
ENDBRANCH   1   7
TORSDOF 1
ENDMDL
