MODEL 1
REMARK minimizedAffinity 4.66739988
REMARK minimizedRMSD -1
REMARK  1 active torsions:
REMARK  status: ('A' for Active; 'I' for Inactive)
REMARK    1  A    between atoms: C1_2  and  C2_3 
ROOT
ATOM      1  C2  UNL d   1      -0.574  -1.374   1.283  0.00  0.00    -0.077 A 
ATOM      2  C3  UNL d   1       0.613  -2.042   1.614  0.00  0.00     0.002 A 
ATOM      3  C4  UNL d   1       1.458  -1.532   2.603  0.00  0.00     0.002 A 
ATOM      4  C5  UNL d   1       1.122  -0.356   3.270  0.00  0.00    -0.004 A 
ATOM      5  C6  UNL d   1      -0.055   0.317   2.946  0.00  0.00     0.002 A 
ATOM      6  C7  UNL d   1      -0.900  -0.190   1.958  0.00  0.00     0.002 A 
ENDROOT
BRANCH   1   7
ATOM      7  C1  UNL d   1      -1.511  -1.947   0.252  0.00  0.00     0.055 C 
ATOM      8  C   UNL d   1      -1.925  -0.895  -0.766  0.00  0.00     0.019 C 
ENDBRANCH   1   7
TORSDOF 1
ENDMDL
