MODEL 1
REMARK minimizedAffinity -4.75288248
REMARK minimizedRMSD -1
REMARK  1 active torsions:
REMARK  status: ('A' for Active; 'I' for Inactive)
REMARK    1  A    between atoms: C1_2  and  C2_3 
ROOT
ATOM      1  C2  UNL d   1       1.030   0.500  -0.903  0.00  0.00    -0.073 A 
ATOM      2  C3  UNL d   1       2.261   0.339  -1.548  0.00  0.00    -0.002 A 
ATOM      3  C4  UNL d   1       2.822  -0.931  -1.691  0.00  0.00     0.004 A 
ATOM      4  C5  UNL d   1       2.155  -2.052  -1.198  0.00  0.00    -0.004 A 
ATOM      5  C6  UNL d   1       0.917  -1.913  -0.562  0.00  0.00    -0.075 A 
ATOM      6  C7  UNL d   1       0.188  -3.109  -0.024  0.00  0.00     0.076 C 
ATOM      7  C8  UNL d   1       0.362  -0.634  -0.419  0.00  0.00     0.001 A 
ENDROOT
BRANCH   1   8
ATOM      8  C1  UNL d   1       0.418   1.868  -0.752  0.00  0.00     0.053 C 
ATOM      9  C   UNL d   1      -0.722   2.095  -1.733  0.00  0.00     0.018 C 
ENDBRANCH   1   8
TORSDOF 1
ENDMDL
