MODEL 1
REMARK minimizedAffinity -2.9344511
REMARK minimizedRMSD -1
REMARK  1 active torsions:
REMARK  status: ('A' for Active; 'I' for Inactive)
REMARK    1  A    between atoms: C1_2  and  C2_3 
ROOT
ATOM      1  C2  UNL d   1      -0.940   0.542   1.152  0.00  0.00    -0.073 A 
ATOM      2  C3  UNL d   1       0.031  -0.466   1.162  0.00  0.00    -0.002 A 
ATOM      3  C4  UNL d   1       1.000  -0.521   0.159  0.00  0.00     0.004 A 
ATOM      4  C5  UNL d   1       1.012   0.432  -0.859  0.00  0.00    -0.004 A 
ATOM      5  C6  UNL d   1       0.057   1.454  -0.880  0.00  0.00    -0.075 A 
ATOM      6  C7  UNL d   1       0.055   2.486  -1.969  0.00  0.00     0.076 C 
ATOM      7  C8  UNL d   1      -0.914   1.501   0.129  0.00  0.00     0.001 A 
ENDROOT
BRANCH   1   8
ATOM      8  C1  UNL d   1      -1.984   0.609   2.236  0.00  0.00     0.053 C 
ATOM      9  C   UNL d   1      -1.564   1.523   3.376  0.00  0.00     0.018 C 
ENDBRANCH   1   8
TORSDOF 1
ENDMDL
