MODEL 1
REMARK minimizedAffinity -4.88208437
REMARK minimizedRMSD -1
REMARK  1 active torsions:
REMARK  status: ('A' for Active; 'I' for Inactive)
REMARK    1  A    between atoms: C1_2  and  C2_3 
ROOT
ATOM      1  C2  UNL d   1      -0.753   0.101   0.565  0.00  0.00    -0.073 A 
ATOM      2  C3  UNL d   1      -0.254   1.294   0.031  0.00  0.00    -0.002 A 
ATOM      3  C4  UNL d   1       0.860   1.279  -0.809  0.00  0.00     0.004 A 
ATOM      4  C5  UNL d   1       1.482   0.072  -1.128  0.00  0.00    -0.004 A 
ATOM      5  C6  UNL d   1       0.991  -1.133  -0.613  0.00  0.00    -0.075 A 
ATOM      6  C7  UNL d   1       1.650  -2.439  -0.944  0.00  0.00     0.076 C 
ATOM      7  C8  UNL d   1      -0.127  -1.109   0.232  0.00  0.00     0.001 A 
ENDROOT
BRANCH   1   8
ATOM      8  C1  UNL d   1      -1.960   0.112   1.467  0.00  0.00     0.053 C 
ATOM      9  C   UNL d   1      -1.610   0.542   2.883  0.00  0.00     0.018 C 
ENDBRANCH   1   8
TORSDOF 1
ENDMDL
