MODEL 1
REMARK minimizedAffinity -4.31117678
REMARK minimizedRMSD -1
REMARK  1 active torsions:
REMARK  status: ('A' for Active; 'I' for Inactive)
REMARK    1  A    between atoms: C1_2  and  C2_3 
ROOT
ATOM      1  C2  UNL d   1      -0.182   0.237   0.101  0.00  0.00    -0.073 A 
ATOM      2  C3  UNL d   1       0.382   1.445  -0.324  0.00  0.00    -0.002 A 
ATOM      3  C4  UNL d   1       1.604   1.454  -0.998  0.00  0.00     0.004 A 
ATOM      4  C5  UNL d   1       2.270   0.256  -1.259  0.00  0.00    -0.004 A 
ATOM      5  C6  UNL d   1       1.716  -0.962  -0.853  0.00  0.00    -0.075 A 
ATOM      6  C7  UNL d   1       2.421  -2.259  -1.125  0.00  0.00     0.076 C 
ATOM      7  C8  UNL d   1       0.490  -0.962  -0.174  0.00  0.00     0.001 A 
ENDROOT
BRANCH   1   8
ATOM      8  C1  UNL d   1      -1.504   0.222   0.824  0.00  0.00     0.053 C 
ATOM      9  C   UNL d   1      -1.492   1.117   2.054  0.00  0.00     0.018 C 
ENDBRANCH   1   8
TORSDOF 1
ENDMDL
