MODEL 1
REMARK minimizedAffinity -5.03896523
REMARK minimizedRMSD -1
REMARK  1 active torsions:
REMARK  status: ('A' for Active; 'I' for Inactive)
REMARK    1  A    between atoms: C1_2  and  C2_3 
ROOT
ATOM      1  C2  UNL d   1      -0.300  -0.186  -0.441  0.00  0.00    -0.073 A 
ATOM      2  C3  UNL d   1       0.708   0.677  -0.887  0.00  0.00    -0.002 A 
ATOM      3  C4  UNL d   1       1.974   0.180  -1.198  0.00  0.00     0.004 A 
ATOM      4  C5  UNL d   1       2.244  -1.183  -1.073  0.00  0.00    -0.004 A 
ATOM      5  C6  UNL d   1       1.246  -2.063  -0.640  0.00  0.00    -0.075 A 
ATOM      6  C7  UNL d   1       1.521  -3.531  -0.499  0.00  0.00     0.076 C 
ATOM      7  C8  UNL d   1      -0.022  -1.556  -0.327  0.00  0.00     0.001 A 
ENDROOT
BRANCH   1   8
ATOM      8  C1  UNL d   1      -1.671   0.345  -0.109  0.00  0.00     0.053 C 
ATOM      9  C   UNL d   1      -2.152  -0.130   1.252  0.00  0.00     0.018 C 
ENDBRANCH   1   8
TORSDOF 1
ENDMDL
