MODEL 1
REMARK minimizedAffinity -4.76947069
REMARK minimizedRMSD -1
REMARK  1 active torsions:
REMARK  status: ('A' for Active; 'I' for Inactive)
REMARK    1  A    between atoms: C1_2  and  C2_3 
ROOT
ATOM      1  C2  UNL d   1      -0.129   0.514   0.365  0.00  0.00    -0.073 A 
ATOM      2  C3  UNL d   1       0.740   1.526  -0.060  0.00  0.00    -0.002 A 
ATOM      3  C4  UNL d   1       1.854   1.217  -0.841  0.00  0.00     0.004 A 
ATOM      4  C5  UNL d   1       2.108  -0.104  -1.210  0.00  0.00    -0.004 A 
ATOM      5  C6  UNL d   1       1.245  -1.128  -0.805  0.00  0.00    -0.075 A 
ATOM      6  C7  UNL d   1       1.505  -2.554  -1.192  0.00  0.00     0.076 C 
ATOM      7  C8  UNL d   1       0.129  -0.809  -0.019  0.00  0.00     0.001 A 
ENDROOT
BRANCH   1   8
ATOM      8  C1  UNL d   1      -1.337   0.844   1.202  0.00  0.00     0.053 C 
ATOM      9  C   UNL d   1      -0.956   1.510   2.515  0.00  0.00     0.018 C 
ENDBRANCH   1   8
TORSDOF 1
ENDMDL
