MODEL 1
REMARK minimizedAffinity -5.39263296
REMARK minimizedRMSD -1
REMARK  1 active torsions:
REMARK  status: ('A' for Active; 'I' for Inactive)
REMARK    1  A    between atoms: C1_2  and  C2_3 
ROOT
ATOM      1  C2  UNL d   1      -1.108  -0.591  -0.586  0.00  0.00    -0.073 A 
ATOM      2  C3  UNL d   1      -1.472   0.731  -0.869  0.00  0.00    -0.002 A 
ATOM      3  C4  UNL d   1      -0.496   1.684  -1.161  0.00  0.00     0.004 A 
ATOM      4  C5  UNL d   1       0.852   1.325  -1.180  0.00  0.00    -0.004 A 
ATOM      5  C6  UNL d   1       1.235   0.007  -0.912  0.00  0.00    -0.075 A 
ATOM      6  C7  UNL d   1       2.681  -0.394  -0.926  0.00  0.00     0.076 C 
ATOM      7  C8  UNL d   1       0.249  -0.944  -0.616  0.00  0.00     0.001 A 
ENDROOT
BRANCH   1   8
ATOM      8  C1  UNL d   1      -2.159  -1.625  -0.276  0.00  0.00     0.053 C 
ATOM      9  C   UNL d   1      -1.777  -3.000  -0.800  0.00  0.00     0.018 C 
ENDBRANCH   1   8
TORSDOF 1
ENDMDL
