MODEL 1
REMARK minimizedAffinity -5.5779047
REMARK minimizedRMSD -1
REMARK  1 active torsions:
REMARK  status: ('A' for Active; 'I' for Inactive)
REMARK    1  A    between atoms: C1_2  and  C2_3 
ROOT
ATOM      1  C2  UNL d   1       1.136  -2.038  -0.827  0.00  0.00    -0.073 A 
ATOM      2  C3  UNL d   1       2.273  -1.223  -0.875  0.00  0.00    -0.002 A 
ATOM      3  C4  UNL d   1       2.159   0.157  -0.702  0.00  0.00     0.004 A 
ATOM      4  C5  UNL d   1       0.911   0.735  -0.473  0.00  0.00    -0.004 A 
ATOM      5  C6  UNL d   1      -0.236  -0.064  -0.410  0.00  0.00    -0.075 A 
ATOM      6  C7  UNL d   1      -1.586   0.543  -0.166  0.00  0.00     0.076 C 
ATOM      7  C8  UNL d   1      -0.113  -1.448  -0.587  0.00  0.00     0.001 A 
ENDROOT
BRANCH   1   8
ATOM      8  C1  UNL d   1       1.255  -3.529  -1.007  0.00  0.00     0.053 C 
ATOM      9  C   UNL d   1       0.467  -4.295   0.043  0.00  0.00     0.018 C 
ENDBRANCH   1   8
TORSDOF 1
ENDMDL
