MODEL 1
REMARK minimizedAffinity -3.69701338
REMARK minimizedRMSD -1
REMARK  1 active torsions:
REMARK  status: ('A' for Active; 'I' for Inactive)
REMARK    1  A    between atoms: C1_2  and  C2_3 
ROOT
ATOM      1  C2  UNL d   1       1.283   0.789  -1.938  0.00  0.00    -0.073 A 
ATOM      2  C3  UNL d   1       2.497   0.398  -2.513  0.00  0.00    -0.002 A 
ATOM      3  C4  UNL d   1       3.017  -0.873  -2.269  0.00  0.00     0.004 A 
ATOM      4  C5  UNL d   1       2.326  -1.769  -1.453  0.00  0.00    -0.004 A 
ATOM      5  C6  UNL d   1       1.104  -1.402  -0.879  0.00  0.00    -0.075 A 
ATOM      6  C7  UNL d   1       0.349  -2.353   0.003  0.00  0.00     0.076 C 
ATOM      7  C8  UNL d   1       0.591  -0.122  -1.127  0.00  0.00     0.001 A 
ENDROOT
BRANCH   1   8
ATOM      8  C1  UNL d   1       0.715   2.159  -2.205  0.00  0.00     0.053 C 
ATOM      9  C   UNL d   1      -0.592   2.388  -1.462  0.00  0.00     0.018 C 
ENDBRANCH   1   8
TORSDOF 1
ENDMDL
