MODEL 1
REMARK minimizedAffinity -0.6179021
REMARK minimizedRMSD -1
REMARK  1 active torsions:
REMARK  status: ('A' for Active; 'I' for Inactive)
REMARK    1  A    between atoms: N_2  and  C1_3 
ROOT
ATOM      1  C1  UNL d   1       1.666   1.072   0.579  0.00  0.00     0.143 A 
ATOM      2  C2  UNL d   1       2.679   0.936   1.533  0.00  0.00    -0.057 A 
ATOM      3  C3  UNL d   1       3.380  -0.267   1.681  0.00  0.00     0.033 A 
ATOM      4  C4  UNL d   1       3.059  -1.368   0.894  0.00  0.00    -0.042 A 
ATOM      5  C5  UNL d   1       2.037  -1.263  -0.043  0.00  0.00     0.033 A 
ATOM      6  C6  UNL d   1       1.346  -0.057  -0.191  0.00  0.00    -0.057 A 
ENDROOT
BRANCH   1   7
ATOM      7  N   UNL d   1       0.866   2.210   0.450  0.00  0.00    -0.732 N 
ATOM      8  C   UNL d   1       0.646   3.088   1.580  0.00  0.00     0.284 C 
ATOM      9  H3  UNL d   1       1.021   2.697  -0.430  0.00  0.00     0.395 HD
ENDBRANCH   1   7
TORSDOF 1
ENDMDL
