MODEL 1
REMARK minimizedAffinity -2.53718972
REMARK minimizedRMSD -1
REMARK  1 active torsions:
REMARK  status: ('A' for Active; 'I' for Inactive)
REMARK    1  A    between atoms: N_2  and  C1_3 
ROOT
ATOM      1  C1  UNL d   1       0.798   0.621   0.252  0.00  0.00     0.143 A 
ATOM      2  C2  UNL d   1       1.559  -0.544   0.398  0.00  0.00    -0.057 A 
ATOM      3  C3  UNL d   1       1.219  -1.723  -0.278  0.00  0.00     0.033 A 
ATOM      4  C4  UNL d   1       0.091  -1.765  -1.091  0.00  0.00    -0.042 A 
ATOM      5  C5  UNL d   1      -0.694  -0.626  -1.231  0.00  0.00     0.033 A 
ATOM      6  C6  UNL d   1      -0.346   0.550  -0.559  0.00  0.00    -0.057 A 
ENDROOT
BRANCH   1   7
ATOM      7  N   UNL d   1       1.027   1.795   0.974  0.00  0.00    -0.732 N 
ATOM      8  C   UNL d   1       0.044   2.285   1.916  0.00  0.00     0.284 C 
ATOM      9  H3  UNL d   1       1.989   1.869   1.299  0.00  0.00     0.395 HD
ENDBRANCH   1   7
TORSDOF 1
ENDMDL
