MODEL 1
REMARK minimizedAffinity -3.17442727
REMARK minimizedRMSD -1
REMARK  1 active torsions:
REMARK  status: ('A' for Active; 'I' for Inactive)
REMARK    1  A    between atoms: N_2  and  C1_3 
ROOT
ATOM      1  C1  UNL d   1       2.737  -0.092  -0.288  0.00  0.00     0.143 A 
ATOM      2  C2  UNL d   1       3.744  -0.102  -1.259  0.00  0.00    -0.057 A 
ATOM      3  C3  UNL d   1       4.126  -1.288  -1.897  0.00  0.00     0.033 A 
ATOM      4  C4  UNL d   1       3.526  -2.495  -1.554  0.00  0.00    -0.042 A 
ATOM      5  C5  UNL d   1       2.540  -2.513  -0.573  0.00  0.00     0.033 A 
ATOM      6  C6  UNL d   1       2.158  -1.324   0.056  0.00  0.00    -0.057 A 
ENDROOT
BRANCH   1   7
ATOM      7  N   UNL d   1       2.381   1.037   0.452  0.00  0.00    -0.732 N 
ATOM      8  C   UNL d   1       3.381   2.008   0.843  0.00  0.00     0.284 C 
ATOM      9  H3  UNL d   1       1.504   1.447   0.138  0.00  0.00     0.395 HD
ENDBRANCH   1   7
TORSDOF 1
ENDMDL
