MODEL 1
REMARK minimizedAffinity 7.18245125
REMARK minimizedRMSD -1
REMARK  1 active torsions:
REMARK  status: ('A' for Active; 'I' for Inactive)
REMARK    1  A    between atoms: N_2  and  C1_3 
ROOT
ATOM      1  C1  UNL d   1       1.120  -0.006   1.753  0.00  0.00     0.143 A 
ATOM      2  C2  UNL d   1       1.112   1.199   2.463  0.00  0.00    -0.057 A 
ATOM      3  C3  UNL d   1       1.244   1.221   3.857  0.00  0.00     0.033 A 
ATOM      4  C4  UNL d   1       1.359   0.032   4.570  0.00  0.00    -0.042 A 
ATOM      5  C5  UNL d   1       1.345  -1.179   3.887  0.00  0.00     0.033 A 
ATOM      6  C6  UNL d   1       1.219  -1.194   2.495  0.00  0.00    -0.057 A 
ENDROOT
BRANCH   1   7
ATOM      7  N   UNL d   1       0.894  -0.100   0.378  0.00  0.00    -0.732 N 
ATOM      8  C   UNL d   1       0.723  -1.391  -0.255  0.00  0.00     0.284 C 
ATOM      9  H3  UNL d   1       0.255   0.616   0.040  0.00  0.00     0.395 HD
ENDBRANCH   1   7
TORSDOF 1
ENDMDL
