MODEL 1
REMARK minimizedAffinity 2.78863692
REMARK minimizedRMSD -1
REMARK  1 active torsions:
REMARK  status: ('A' for Active; 'I' for Inactive)
REMARK    1  A    between atoms: N_2  and  C1_3 
ROOT
ATOM      1  C1  UNL d   1       1.140  -1.640  -0.162  0.00  0.00     0.143 A 
ATOM      2  C2  UNL d   1       1.305  -0.284   0.140  0.00  0.00    -0.057 A 
ATOM      3  C3  UNL d   1       0.291   0.646  -0.119  0.00  0.00     0.033 A 
ATOM      4  C4  UNL d   1      -0.898   0.240  -0.715  0.00  0.00    -0.042 A 
ATOM      5  C5  UNL d   1      -1.075  -1.099  -1.047  0.00  0.00     0.033 A 
ATOM      6  C6  UNL d   1      -0.061  -2.024  -0.779  0.00  0.00    -0.057 A 
ENDROOT
BRANCH   1   7
ATOM      7  N   UNL d   1       2.147  -2.597  -0.019  0.00  0.00    -0.732 N 
ATOM      8  C   UNL d   1       3.224  -2.685  -0.983  0.00  0.00     0.284 C 
ATOM      9  H3  UNL d   1       2.445  -2.706   0.948  0.00  0.00     0.395 HD
ENDBRANCH   1   7
TORSDOF 1
ENDMDL
