MODEL 1
REMARK minimizedAffinity 4.78634548
REMARK minimizedRMSD -1
REMARK  1 active torsions:
REMARK  status: ('A' for Active; 'I' for Inactive)
REMARK    1  A    between atoms: N_2  and  C1_3 
ROOT
ATOM      1  C1  UNL d   1      -1.054  -2.253  -2.948  0.00  0.00     0.143 A 
ATOM      2  C2  UNL d   1      -0.336  -3.003  -2.010  0.00  0.00    -0.057 A 
ATOM      3  C3  UNL d   1      -0.152  -2.543  -0.700  0.00  0.00     0.033 A 
ATOM      4  C4  UNL d   1      -0.658  -1.306  -0.314  0.00  0.00    -0.042 A 
ATOM      5  C5  UNL d   1      -1.353  -0.532  -1.236  0.00  0.00     0.033 A 
ATOM      6  C6  UNL d   1      -1.540  -1.001  -2.541  0.00  0.00    -0.057 A 
ENDROOT
BRANCH   1   7
ATOM      7  N   UNL d   1      -1.187  -2.611  -4.292  0.00  0.00    -0.732 N 
ATOM      8  C   UNL d   1      -2.108  -3.654  -4.689  0.00  0.00     0.284 C 
ATOM      9  H3  UNL d   1      -1.181  -1.804  -4.911  0.00  0.00     0.395 HD
ENDBRANCH   1   7
TORSDOF 1
ENDMDL
