MODEL 1
REMARK minimizedAffinity 5.55368805
REMARK minimizedRMSD -1
REMARK  1 active torsions:
REMARK  status: ('A' for Active; 'I' for Inactive)
REMARK    1  A    between atoms: N_2  and  C1_3 
ROOT
ATOM      1  C1  UNL d   1       0.512  -1.302  -0.319  0.00  0.00     0.143 A 
ATOM      2  C2  UNL d   1       0.858  -0.056   0.214  0.00  0.00    -0.057 A 
ATOM      3  C3  UNL d   1       0.025   1.058   0.055  0.00  0.00     0.033 A 
ATOM      4  C4  UNL d   1      -1.159   0.951  -0.666  0.00  0.00    -0.042 A 
ATOM      5  C5  UNL d   1      -1.511  -0.272  -1.226  0.00  0.00     0.033 A 
ATOM      6  C6  UNL d   1      -0.678  -1.382  -1.058  0.00  0.00    -0.057 A 
ENDROOT
BRANCH   1   7
ATOM      7  N   UNL d   1       1.345  -2.424  -0.280  0.00  0.00    -0.732 N 
ATOM      8  C   UNL d   1       2.772  -2.276  -0.089  0.00  0.00     0.284 C 
ATOM      9  H3  UNL d   1       0.934  -3.195   0.240  0.00  0.00     0.395 HD
ENDBRANCH   1   7
TORSDOF 1
ENDMDL
