MODEL 1
REMARK minimizedAffinity 0.812568724
REMARK minimizedRMSD -1
REMARK  1 active torsions:
REMARK  status: ('A' for Active; 'I' for Inactive)
REMARK    1  A    between atoms: N_2  and  C1_3 
ROOT
ATOM      1  C1  UNL d   1       1.491  -2.688  -1.921  0.00  0.00     0.143 A 
ATOM      2  C2  UNL d   1       1.669  -1.928  -0.760  0.00  0.00    -0.057 A 
ATOM      3  C3  UNL d   1       0.588  -1.299  -0.131  0.00  0.00     0.033 A 
ATOM      4  C4  UNL d   1      -0.690  -1.394  -0.672  0.00  0.00    -0.042 A 
ATOM      5  C5  UNL d   1      -0.887  -2.123  -1.839  0.00  0.00     0.033 A 
ATOM      6  C6  UNL d   1       0.196  -2.755  -2.458  0.00  0.00    -0.057 A 
ENDROOT
BRANCH   1   7
ATOM      7  N   UNL d   1       2.541  -3.256  -2.647  0.00  0.00    -0.732 N 
ATOM      8  C   UNL d   1       3.858  -2.657  -2.630  0.00  0.00     0.284 C 
ATOM      9  H3  UNL d   1       2.545  -4.272  -2.592  0.00  0.00     0.395 HD
ENDBRANCH   1   7
TORSDOF 1
ENDMDL
