MODEL 1
REMARK minimizedAffinity -1.53475845
REMARK minimizedRMSD -1
REMARK  0 active torsions:
REMARK  status: ('A' for Active; 'I' for Inactive)
ROOT
ATOM      1  O1  BZF d   1       1.034   1.585   0.407  0.00  0.00    -0.204 OA
ATOM      2  C2  BZF d   1       1.995   0.626   0.153  0.00  0.00     0.174 A 
ATOM      3  C3  BZF d   1       1.441  -0.602   0.090  0.00  0.00    -0.012 A 
ATOM      4  C3A BZF d   1       0.033  -0.387   0.228  0.00  0.00    -0.107 A 
ATOM      5  C4  BZF d   1      -1.048  -1.221   0.230  0.00  0.00     0.055 A 
ATOM      6  C5  BZF d   1      -2.282  -0.701   0.461  0.00  0.00    -0.016 A 
ATOM      7  C6  BZF d   1      -2.471   0.644   0.698  0.00  0.00     0.022 A 
ATOM      8  C7  BZF d   1      -1.430   1.512   0.701  0.00  0.00     0.029 A 
ATOM      9  C7A BZF d   1      -0.185   0.995   0.435  0.00  0.00     0.058 A 
ENDROOT
TORSDOF 0
ENDMDL
