MODEL 1
REMARK minimizedAffinity -4.56912804
REMARK minimizedRMSD -1
REMARK  0 active torsions:
REMARK  status: ('A' for Active; 'I' for Inactive)
ROOT
ATOM      1  O1  BZF d   1      -1.541   1.140   1.083  0.00  0.00    -0.204 OA
ATOM      2  C2  BZF d   1      -0.645   2.164   0.848  0.00  0.00     0.174 A 
ATOM      3  C3  BZF d   1       0.579   1.673   0.567  0.00  0.00    -0.012 A 
ATOM      4  C3A BZF d   1       0.417   0.252   0.539  0.00  0.00    -0.107 A 
ATOM      5  C4  BZF d   1       1.272  -0.786   0.297  0.00  0.00     0.055 A 
ATOM      6  C5  BZF d   1       0.815  -2.060   0.420  0.00  0.00    -0.016 A 
ATOM      7  C6  BZF d   1      -0.487  -2.332   0.787  0.00  0.00     0.022 A 
ATOM      8  C7  BZF d   1      -1.372  -1.336   1.032  0.00  0.00     0.029 A 
ATOM      9  C7A BZF d   1      -0.923  -0.047   0.877  0.00  0.00     0.058 A 
ENDROOT
TORSDOF 0
ENDMDL
