MODEL 1
REMARK minimizedAffinity -1.4597187
REMARK minimizedRMSD -1
REMARK  0 active torsions:
REMARK  status: ('A' for Active; 'I' for Inactive)
ROOT
ATOM      1  O1  BZF d   1       0.141   2.161   0.346  0.00  0.00    -0.204 OA
ATOM      2  C2  BZF d   1       1.248   1.436  -0.052  0.00  0.00     0.174 A 
ATOM      3  C3  BZF d   1       0.945   0.127  -0.170  0.00  0.00    -0.012 A 
ATOM      4  C3A BZF d   1      -0.460   0.042   0.087  0.00  0.00    -0.107 A 
ATOM      5  C4  BZF d   1      -1.351  -0.994   0.103  0.00  0.00     0.055 A 
ATOM      6  C5  BZF d   1      -2.638  -0.752   0.463  0.00  0.00    -0.016 A 
ATOM      7  C6  BZF d   1      -3.069   0.510   0.818  0.00  0.00     0.022 A 
ATOM      8  C7  BZF d   1      -2.223   1.569   0.812  0.00  0.00     0.029 A 
ATOM      9  C7A BZF d   1      -0.929   1.334   0.417  0.00  0.00     0.058 A 
ENDROOT
TORSDOF 0
ENDMDL
