MODEL 1
REMARK minimizedAffinity -4.91468
REMARK minimizedRMSD -1
REMARK  0 active torsions:
REMARK  status: ('A' for Active; 'I' for Inactive)
ROOT
ATOM      1  O1  BZF d   1      -0.227   1.214   0.050  0.00  0.00    -0.204 OA
ATOM      2  C2  BZF d   1       1.141   1.073   0.183  0.00  0.00     0.174 A 
ATOM      3  C3  BZF d   1       1.452  -0.154   0.649  0.00  0.00    -0.012 A 
ATOM      4  C3A BZF d   1       0.206  -0.853   0.729  0.00  0.00    -0.107 A 
ATOM      5  C4  BZF d   1      -0.137  -2.119   1.107  0.00  0.00     0.055 A 
ATOM      6  C5  BZF d   1      -1.451  -2.465   1.142  0.00  0.00    -0.016 A 
ATOM      7  C6  BZF d   1      -2.447  -1.570   0.810  0.00  0.00     0.022 A 
ATOM      8  C7  BZF d   1      -2.155  -0.304   0.423  0.00  0.00     0.029 A 
ATOM      9  C7A BZF d   1      -0.826   0.039   0.356  0.00  0.00     0.058 A 
ENDROOT
TORSDOF 0
ENDMDL
