MODEL 1
REMARK minimizedAffinity -3.90889239
REMARK minimizedRMSD -1
REMARK  0 active torsions:
REMARK  status: ('A' for Active; 'I' for Inactive)
ROOT
ATOM      1  O1  BZF d   1      -0.300   1.257  -0.549  0.00  0.00    -0.204 OA
ATOM      2  C2  BZF d   1       1.036   1.210  -0.897  0.00  0.00     0.174 A 
ATOM      3  C3  BZF d   1       1.573   0.016  -0.576  0.00  0.00    -0.012 A 
ATOM      4  C3A BZF d   1       0.483  -0.764  -0.074  0.00  0.00    -0.107 A 
ATOM      5  C4  BZF d   1       0.379  -2.043   0.391  0.00  0.00     0.055 A 
ATOM      6  C5  BZF d   1      -0.815  -2.476   0.875  0.00  0.00    -0.016 A 
ATOM      7  C6  BZF d   1      -1.923  -1.655   0.913  0.00  0.00     0.022 A 
ATOM      8  C7  BZF d   1      -1.871  -0.380   0.457  0.00  0.00     0.029 A 
ATOM      9  C7A BZF d   1      -0.674   0.050  -0.062  0.00  0.00     0.058 A 
ENDROOT
TORSDOF 0
ENDMDL
