MODEL 1
REMARK minimizedAffinity -0.0532321744
REMARK minimizedRMSD -1
REMARK  0 active torsions:
REMARK  status: ('A' for Active; 'I' for Inactive)
ROOT
ATOM      1  O1  BZF d   1      -1.462  -0.782   1.565  0.00  0.00    -0.204 OA
ATOM      2  C2  BZF d   1      -1.085  -2.082   1.841  0.00  0.00     0.174 A 
ATOM      3  C3  BZF d   1      -0.019  -2.439   1.096  0.00  0.00    -0.012 A 
ATOM      4  C3A BZF d   1       0.346  -1.259   0.372  0.00  0.00    -0.107 A 
ATOM      5  C4  BZF d   1       1.338  -0.977  -0.523  0.00  0.00     0.055 A 
ATOM      6  C5  BZF d   1       1.374   0.252  -1.102  0.00  0.00    -0.016 A 
ATOM      7  C6  BZF d   1       0.433   1.219  -0.813  0.00  0.00     0.022 A 
ATOM      8  C7  BZF d   1      -0.566   0.987   0.072  0.00  0.00     0.029 A 
ATOM      9  C7A BZF d   1      -0.587  -0.243   0.683  0.00  0.00     0.058 A 
ENDROOT
TORSDOF 0
ENDMDL
