MODEL 1
REMARK minimizedAffinity -4.67021942
REMARK minimizedRMSD -1
REMARK  0 active torsions:
REMARK  status: ('A' for Active; 'I' for Inactive)
ROOT
ATOM      1  O1  BZF d   1       0.144   1.514  -0.238  0.00  0.00    -0.204 OA
ATOM      2  C2  BZF d   1       1.436   1.268  -0.662  0.00  0.00     0.174 A 
ATOM      3  C3  BZF d   1       1.753  -0.033  -0.498  0.00  0.00    -0.012 A 
ATOM      4  C3A BZF d   1       0.556  -0.655  -0.022  0.00  0.00    -0.107 A 
ATOM      5  C4  BZF d   1       0.234  -1.940   0.311  0.00  0.00     0.055 A 
ATOM      6  C5  BZF d   1      -1.002  -2.202   0.812  0.00  0.00    -0.016 A 
ATOM      7  C6  BZF d   1      -1.937  -1.205   0.997  0.00  0.00     0.022 A 
ATOM      8  C7  BZF d   1      -1.666   0.083   0.676  0.00  0.00     0.029 A 
ATOM      9  C7A BZF d   1      -0.429   0.347   0.139  0.00  0.00     0.058 A 
ENDROOT
TORSDOF 0
ENDMDL
