MODEL 1
REMARK minimizedAffinity -5.56362581
REMARK minimizedRMSD -1
REMARK  0 active torsions:
REMARK  status: ('A' for Active; 'I' for Inactive)
ROOT
ATOM      1  O1  BZF d   1      -0.686   1.029   0.447  0.00  0.00    -0.204 OA
ATOM      2  C2  BZF d   1       0.572   0.691  -0.014  0.00  0.00     0.174 A 
ATOM      3  C3  BZF d   1       0.808  -0.625   0.161  0.00  0.00    -0.012 A 
ATOM      4  C3A BZF d   1      -0.412  -1.159   0.685  0.00  0.00    -0.107 A 
ATOM      5  C4  BZF d   1      -0.806  -2.415   1.049  0.00  0.00     0.055 A 
ATOM      6  C5  BZF d   1      -2.039  -2.588   1.593  0.00  0.00    -0.016 A 
ATOM      7  C6  BZF d   1      -2.901  -1.528   1.791  0.00  0.00     0.022 A 
ATOM      8  C7  BZF d   1      -2.556  -0.265   1.441  0.00  0.00     0.029 A 
ATOM      9  C7A BZF d   1      -1.323  -0.092   0.861  0.00  0.00     0.058 A 
ENDROOT
TORSDOF 0
ENDMDL
