MODEL 1
REMARK minimizedAffinity -3.26999569
REMARK minimizedRMSD -1
REMARK  0 active torsions:
REMARK  status: ('A' for Active; 'I' for Inactive)
ROOT
ATOM      1  O1  BZF d   1       1.163  -0.007  -0.286  0.00  0.00    -0.204 OA
ATOM      2  C2  BZF d   1       0.501   1.111  -0.754  0.00  0.00     0.174 A 
ATOM      3  C3  BZF d   1      -0.835   0.950  -0.661  0.00  0.00    -0.012 A 
ATOM      4  C3A BZF d   1      -1.018  -0.313  -0.015  0.00  0.00    -0.107 A 
ATOM      5  C4  BZF d   1      -2.121  -1.020   0.370  0.00  0.00     0.055 A 
ATOM      6  C5  BZF d   1      -1.958  -2.256   0.910  0.00  0.00    -0.016 A 
ATOM      7  C6  BZF d   1      -0.709  -2.818   1.075  0.00  0.00     0.022 A 
ATOM      8  C7  BZF d   1       0.415  -2.153   0.713  0.00  0.00     0.029 A 
ATOM      9  C7A BZF d   1       0.256  -0.890   0.197  0.00  0.00     0.058 A 
ENDROOT
TORSDOF 0
ENDMDL
