MODEL 1
REMARK minimizedAffinity -3.69009638
REMARK minimizedRMSD -1
REMARK  0 active torsions:
REMARK  status: ('A' for Active; 'I' for Inactive)
ROOT
ATOM      1  O1  BZF d   1      -1.468  -2.295   1.503  0.00  0.00    -0.204 OA
ATOM      2  C2  BZF d   1      -2.537  -1.802   0.781  0.00  0.00     0.174 A 
ATOM      3  C3  BZF d   1      -2.156  -0.762   0.011  0.00  0.00    -0.012 A 
ATOM      4  C3A BZF d   1      -0.741  -0.654   0.198  0.00  0.00    -0.107 A 
ATOM      5  C4  BZF d   1       0.212   0.180  -0.312  0.00  0.00     0.055 A 
ATOM      6  C5  BZF d   1       1.492   0.069   0.131  0.00  0.00    -0.016 A 
ATOM      7  C6  BZF d   1       1.852  -0.860   1.085  0.00  0.00     0.022 A 
ATOM      8  C7  BZF d   1       0.942  -1.712   1.617  0.00  0.00     0.029 A 
ATOM      9  C7A BZF d   1      -0.346  -1.624   1.148  0.00  0.00     0.058 A 
ENDROOT
TORSDOF 0
ENDMDL
