MODEL 1
REMARK minimizedAffinity -4.61944437
REMARK minimizedRMSD -1
REMARK  0 active torsions:
REMARK  status: ('A' for Active; 'I' for Inactive)
ROOT
ATOM      1  O1  BZF d   1      -0.697  -2.574   0.871  0.00  0.00    -0.204 OA
ATOM      2  C2  BZF d   1      -2.063  -2.380   0.939  0.00  0.00     0.174 A 
ATOM      3  C3  BZF d   1      -2.382  -1.108   0.622  0.00  0.00    -0.012 A 
ATOM      4  C3A BZF d   1      -1.146  -0.492   0.248  0.00  0.00    -0.107 A 
ATOM      5  C4  BZF d   1      -0.815   0.761  -0.183  0.00  0.00     0.055 A 
ATOM      6  C5  BZF d   1       0.494   1.061  -0.394  0.00  0.00    -0.016 A 
ATOM      7  C6  BZF d   1       1.495   0.137  -0.179  0.00  0.00     0.022 A 
ATOM      8  C7  BZF d   1       1.214  -1.120   0.243  0.00  0.00     0.029 A 
ATOM      9  C7A BZF d   1      -0.109  -1.437   0.425  0.00  0.00     0.058 A 
ENDROOT
TORSDOF 0
ENDMDL
