MODEL 1
REMARK minimizedAffinity -5.01463127
REMARK minimizedRMSD -1
REMARK  0 active torsions:
REMARK  status: ('A' for Active; 'I' for Inactive)
ROOT
ATOM      1  O1  BZF d   1      -0.229   0.747  -0.045  0.00  0.00    -0.204 OA
ATOM      2  C2  BZF d   1       1.138   0.612  -0.194  0.00  0.00     0.174 A 
ATOM      3  C3  BZF d   1       1.549  -0.597   0.237  0.00  0.00    -0.012 A 
ATOM      4  C3A BZF d   1       0.353  -1.295   0.598  0.00  0.00    -0.107 A 
ATOM      5  C4  BZF d   1       0.107  -2.548   1.081  0.00  0.00     0.055 A 
ATOM      6  C5  BZF d   1      -1.168  -2.895   1.399  0.00  0.00    -0.016 A 
ATOM      7  C6  BZF d   1      -2.218  -2.013   1.252  0.00  0.00     0.022 A 
ATOM      8  C7  BZF d   1      -2.024  -0.761   0.771  0.00  0.00     0.029 A 
ATOM      9  C7A BZF d   1      -0.742  -0.419   0.418  0.00  0.00     0.058 A 
ENDROOT
TORSDOF 0
ENDMDL
