MODEL 1
REMARK minimizedAffinity -4.25668478
REMARK minimizedRMSD -1
REMARK  0 active torsions:
REMARK  status: ('A' for Active; 'I' for Inactive)
ROOT
ATOM      1  O1  BZF d   1      -1.880  -1.953  -0.241  0.00  0.00    -0.204 OA
ATOM      2  C2  BZF d   1      -1.649  -2.689   0.905  0.00  0.00     0.174 A 
ATOM      3  C3  BZF d   1      -0.474  -2.342   1.468  0.00  0.00    -0.012 A 
ATOM      4  C3A BZF d   1       0.019  -1.260   0.672  0.00  0.00    -0.107 A 
ATOM      5  C4  BZF d   1       1.138  -0.480   0.739  0.00  0.00     0.055 A 
ATOM      6  C5  BZF d   1       1.359   0.442  -0.235  0.00  0.00    -0.016 A 
ATOM      7  C6  BZF d   1       0.486   0.607  -1.290  0.00  0.00     0.022 A 
ATOM      8  C7  BZF d   1      -0.640  -0.140  -1.396  0.00  0.00     0.029 A 
ATOM      9  C7A BZF d   1      -0.883  -1.050  -0.396  0.00  0.00     0.058 A 
ENDROOT
TORSDOF 0
ENDMDL
