MODEL 1
REMARK minimizedAffinity -6.53396845
REMARK minimizedRMSD -1
REMARK  0 active torsions:
REMARK  status: ('A' for Active; 'I' for Inactive)
ROOT
ATOM      1  O1  BZF d   1      -0.933   1.364   1.113  0.00  0.00    -0.204 OA
ATOM      2  C2  BZF d   1       0.284   1.373   0.458  0.00  0.00     0.174 A 
ATOM      3  C3  BZF d   1       0.746   0.117   0.292  0.00  0.00    -0.012 A 
ATOM      4  C3A BZF d   1      -0.287  -0.734   0.797  0.00  0.00    -0.107 A 
ATOM      5  C4  BZF d   1      -0.423  -2.090   0.893  0.00  0.00     0.055 A 
ATOM      6  C5  BZF d   1      -1.524  -2.601   1.504  0.00  0.00    -0.016 A 
ATOM      7  C6  BZF d   1      -2.504  -1.788   2.035  0.00  0.00     0.022 A 
ATOM      8  C7  BZF d   1      -2.415  -0.437   1.960  0.00  0.00     0.029 A 
ATOM      9  C7A BZF d   1      -1.320   0.082   1.313  0.00  0.00     0.058 A 
ENDROOT
TORSDOF 0
ENDMDL
