MODEL 1
REMARK minimizedAffinity -3.67739987
REMARK minimizedRMSD -1
REMARK  0 active torsions:
REMARK  status: ('A' for Active; 'I' for Inactive)
ROOT
ATOM      1  O1  BZF d   1      -0.073   0.082  -1.314  0.00  0.00    -0.204 OA
ATOM      2  C2  BZF d   1       0.681   1.073  -0.715  0.00  0.00     0.174 A 
ATOM      3  C3  BZF d   1       0.635   0.963   0.629  0.00  0.00    -0.012 A 
ATOM      4  C3A BZF d   1      -0.125  -0.222   0.883  0.00  0.00    -0.107 A 
ATOM      5  C4  BZF d   1      -0.503  -0.868   2.026  0.00  0.00     0.055 A 
ATOM      6  C5  BZF d   1      -1.305  -1.961   1.932  0.00  0.00    -0.016 A 
ATOM      7  C6  BZF d   1      -1.751  -2.432   0.715  0.00  0.00     0.022 A 
ATOM      8  C7  BZF d   1      -1.399  -1.828  -0.446  0.00  0.00     0.029 A 
ATOM      9  C7A BZF d   1      -0.562  -0.743  -0.357  0.00  0.00     0.058 A 
ENDROOT
TORSDOF 0
ENDMDL
