MODEL 1
REMARK minimizedAffinity 4.29589033
REMARK minimizedRMSD -1
REMARK  1 active torsions:
REMARK  status: ('A' for Active; 'I' for Inactive)
REMARK    1  A    between atoms: C1_2  and  C2_3 
ROOT
ATOM      1  C2  UNL d   1       2.177   1.455  -0.716  0.00  0.00    -0.081 A 
ATOM      2  C3  UNL d   1       1.117   2.339  -0.955  0.00  0.00     0.006 A 
ATOM      3  C4  UNL d   1      -0.202   1.941  -0.725  0.00  0.00     0.002 A 
ATOM      4  C5  UNL d   1      -0.482   0.657  -0.245  0.00  0.00    -0.080 A 
ATOM      5  C6  UNL d   1      -1.892   0.228   0.036  0.00  0.00     0.076 C 
ATOM      6  C7  UNL d   1       0.575  -0.231  -0.022  0.00  0.00     0.002 A 
ATOM      7  C8  UNL d   1       1.894   0.166  -0.253  0.00  0.00     0.006 A 
ENDROOT
BRANCH   1   8
ATOM      8  C1  UNL d   1       3.605   1.903  -0.902  0.00  0.00     0.054 C 
ATOM      9  C   UNL d   1       4.329   2.010   0.433  0.00  0.00     0.018 C 
ENDBRANCH   1   8
TORSDOF 1
ENDMDL
