MODEL 1
REMARK minimizedAffinity -4.11770535
REMARK minimizedRMSD -1
REMARK  1 active torsions:
REMARK  status: ('A' for Active; 'I' for Inactive)
REMARK    1  A    between atoms: C1_2  and  C2_3 
ROOT
ATOM      1  C2  UNL d   1       2.627  -3.146   2.810  0.00  0.00    -0.081 A 
ATOM      2  C3  UNL d   1       2.769  -2.809   1.459  0.00  0.00     0.006 A 
ATOM      3  C4  UNL d   1       1.909  -1.882   0.866  0.00  0.00     0.002 A 
ATOM      4  C5  UNL d   1       0.899  -1.269   1.616  0.00  0.00    -0.080 A 
ATOM      5  C6  UNL d   1      -0.011  -0.249   0.999  0.00  0.00     0.076 C 
ATOM      6  C7  UNL d   1       0.746  -1.618   2.962  0.00  0.00     0.002 A 
ATOM      7  C8  UNL d   1       1.605  -2.546   3.555  0.00  0.00     0.006 A 
ENDROOT
BRANCH   1   8
ATOM      8  C1  UNL d   1       3.592  -4.097   3.469  0.00  0.00     0.054 C 
ATOM      9  C   UNL d   1       3.827  -3.727   4.927  0.00  0.00     0.018 C 
ENDBRANCH   1   8
TORSDOF 1
ENDMDL
