MODEL 1
REMARK minimizedAffinity 1.43805563
REMARK minimizedRMSD -1
REMARK  1 active torsions:
REMARK  status: ('A' for Active; 'I' for Inactive)
REMARK    1  A    between atoms: C1_2  and  C2_3 
ROOT
ATOM      1  C2  UNL d   1       1.257  -0.807   1.418  0.00  0.00    -0.081 A 
ATOM      2  C3  UNL d   1       1.600  -2.123   1.749  0.00  0.00     0.006 A 
ATOM      3  C4  UNL d   1       0.705  -2.934   2.450  0.00  0.00     0.002 A 
ATOM      4  C5  UNL d   1      -0.551  -2.445   2.826  0.00  0.00    -0.080 A 
ATOM      5  C6  UNL d   1      -1.533  -3.315   3.553  0.00  0.00     0.076 C 
ATOM      6  C7  UNL d   1      -0.887  -1.124   2.511  0.00  0.00     0.002 A 
ATOM      7  C8  UNL d   1       0.008  -0.313   1.811  0.00  0.00     0.006 A 
ENDROOT
BRANCH   1   8
ATOM      8  C1  UNL d   1       2.194   0.049   0.606  0.00  0.00     0.054 C 
ATOM      9  C   UNL d   1       1.632   0.322  -0.782  0.00  0.00     0.018 C 
ENDBRANCH   1   8
TORSDOF 1
ENDMDL
