MODEL 1
REMARK minimizedAffinity 3.51115918
REMARK minimizedRMSD -1
REMARK  1 active torsions:
REMARK  status: ('A' for Active; 'I' for Inactive)
REMARK    1  A    between atoms: C1_2  and  C2_3 
ROOT
ATOM      1  C2  UNL d   1      -0.015  -1.739   2.090  0.00  0.00    -0.081 A 
ATOM      2  C3  UNL d   1       0.297  -2.973   2.673  0.00  0.00     0.006 A 
ATOM      3  C4  UNL d   1       1.321  -3.765   2.148  0.00  0.00     0.002 A 
ATOM      4  C5  UNL d   1       2.054  -3.333   1.037  0.00  0.00    -0.080 A 
ATOM      5  C6  UNL d   1       3.176  -4.160   0.482  0.00  0.00     0.076 C 
ATOM      6  C7  UNL d   1       1.730  -2.108   0.444  0.00  0.00     0.002 A 
ATOM      7  C8  UNL d   1       0.706  -1.316   0.968  0.00  0.00     0.006 A 
ENDROOT
BRANCH   1   8
ATOM      8  C1  UNL d   1      -1.076  -0.853   2.693  0.00  0.00     0.054 C 
ATOM      9  C   UNL d   1      -1.507   0.234   1.720  0.00  0.00     0.018 C 
ENDBRANCH   1   8
TORSDOF 1
ENDMDL
