MODEL 1
REMARK minimizedAffinity -1.9389993
REMARK minimizedRMSD -1
REMARK  1 active torsions:
REMARK  status: ('A' for Active; 'I' for Inactive)
REMARK    1  A    between atoms: C1_2  and  C2_3 
ROOT
ATOM      1  C2  UNL d   1      -1.506   0.185  -1.315  0.00  0.00    -0.081 A 
ATOM      2  C3  UNL d   1      -2.464   0.151  -0.293  0.00  0.00     0.006 A 
ATOM      3  C4  UNL d   1      -2.115  -0.275   0.991  0.00  0.00     0.002 A 
ATOM      4  C5  UNL d   1      -0.802  -0.666   1.276  0.00  0.00    -0.080 A 
ATOM      5  C6  UNL d   1      -0.407  -1.097   2.658  0.00  0.00     0.076 C 
ATOM      6  C7  UNL d   1       0.150  -0.649   0.252  0.00  0.00     0.002 A 
ATOM      7  C8  UNL d   1      -0.198  -0.224  -1.032  0.00  0.00     0.006 A 
ENDROOT
BRANCH   1   8
ATOM      8  C1  UNL d   1      -1.864   0.705  -2.683  0.00  0.00     0.054 C 
ATOM      9  C   UNL d   1      -1.797   2.225  -2.733  0.00  0.00     0.018 C 
ENDBRANCH   1   8
TORSDOF 1
ENDMDL
