MODEL 1
REMARK minimizedAffinity 1.40346634
REMARK minimizedRMSD -1
REMARK  1 active torsions:
REMARK  status: ('A' for Active; 'I' for Inactive)
REMARK    1  A    between atoms: C1_2  and  C2_3 
ROOT
ATOM      1  C2  UNL d   1       1.365  -1.873   0.936  0.00  0.00    -0.081 A 
ATOM      2  C3  UNL d   1       1.359  -3.199   1.386  0.00  0.00     0.006 A 
ATOM      3  C4  UNL d   1       0.475  -3.602   2.390  0.00  0.00     0.002 A 
ATOM      4  C5  UNL d   1      -0.421  -2.689   2.956  0.00  0.00    -0.080 A 
ATOM      5  C6  UNL d   1      -1.395  -3.115   4.013  0.00  0.00     0.076 C 
ATOM      6  C7  UNL d   1      -0.402  -1.360   2.519  0.00  0.00     0.002 A 
ATOM      7  C8  UNL d   1       0.481  -0.956   1.515  0.00  0.00     0.006 A 
ENDROOT
BRANCH   1   8
ATOM      8  C1  UNL d   1       2.272  -1.451  -0.192  0.00  0.00     0.054 C 
ATOM      9  C   UNL d   1       1.642  -0.342  -1.022  0.00  0.00     0.018 C 
ENDBRANCH   1   8
TORSDOF 1
ENDMDL
