MODEL 1
REMARK minimizedAffinity -4.37727022
REMARK minimizedRMSD -1
REMARK  1 active torsions:
REMARK  status: ('A' for Active; 'I' for Inactive)
REMARK    1  A    between atoms: C1_2  and  C2_3 
ROOT
ATOM      1  C2  UNL d   1       1.299  -2.613   1.527  0.00  0.00    -0.081 A 
ATOM      2  C3  UNL d   1       0.328  -2.032   2.352  0.00  0.00     0.006 A 
ATOM      3  C4  UNL d   1      -0.323  -0.859   1.961  0.00  0.00     0.002 A 
ATOM      4  C5  UNL d   1      -0.020  -0.253   0.737  0.00  0.00    -0.080 A 
ATOM      5  C6  UNL d   1      -0.734   0.989   0.292  0.00  0.00     0.076 C 
ATOM      6  C7  UNL d   1       0.962  -0.824  -0.079  0.00  0.00     0.002 A 
ATOM      7  C8  UNL d   1       1.614  -1.996   0.311  0.00  0.00     0.006 A 
ENDROOT
BRANCH   1   8
ATOM      8  C1  UNL d   1       1.956  -3.913   1.915  0.00  0.00     0.054 C 
ATOM      9  C   UNL d   1       2.818  -4.456   0.785  0.00  0.00     0.018 C 
ENDBRANCH   1   8
TORSDOF 1
ENDMDL
