MODEL 1
REMARK minimizedAffinity 8.41624928
REMARK minimizedRMSD -1
REMARK  0 active torsions:
REMARK  status: ('A' for Active; 'I' for Inactive)
ROOT
ATOM      1  C   UNL d   1      -2.168  -4.913  -2.250  0.00  0.00     0.020 A 
ATOM      2  C1  UNL d   1      -2.168  -3.572  -2.633  0.00  0.00     0.020 A 
ATOM      3  C2  UNL d   1      -3.362  -2.954  -3.009  0.00  0.00     0.034 A 
ATOM      4  C3  UNL d   1      -4.561  -3.676  -3.004  0.00  0.00     0.017 A 
ATOM      5  C4  UNL d   1      -4.560  -5.022  -2.620  0.00  0.00     0.017 A 
ATOM      6  C5  UNL d   1      -3.361  -5.636  -2.244  0.00  0.00     0.034 A 
ATOM      7 Cl   UNL d   1      -6.000  -5.977  -2.588  0.00  0.00    -0.070 Cl
ATOM      8 Cl1  UNL d   1      -6.000  -2.847  -3.481  0.00  0.00    -0.070 Cl
ENDROOT
TORSDOF 0
ENDMDL
