MODEL 1
REMARK minimizedAffinity 9.63866901
REMARK minimizedRMSD -1
REMARK  0 active torsions:
REMARK  status: ('A' for Active; 'I' for Inactive)
ROOT
ATOM      1  C   UNL d   1       3.358   1.000   0.172  0.00  0.00     0.020 A 
ATOM      2  C1  UNL d   1       3.497   0.052   1.186  0.00  0.00     0.020 A 
ATOM      3  C2  UNL d   1       2.634   0.071   2.283  0.00  0.00     0.034 A 
ATOM      4  C3  UNL d   1       1.628   1.040   2.371  0.00  0.00     0.017 A 
ATOM      5  C4  UNL d   1       1.489   1.991   1.353  0.00  0.00     0.017 A 
ATOM      6  C5  UNL d   1       2.355   1.967   0.256  0.00  0.00     0.034 A 
ATOM      7 Cl   UNL d   1       0.271   3.217   1.391  0.00  0.00    -0.070 Cl
ATOM      8 Cl1  UNL d   1       0.596   1.004   3.757  0.00  0.00    -0.070 Cl
ENDROOT
TORSDOF 0
ENDMDL
