MODEL 1
REMARK minimizedAffinity 11.6834297
REMARK minimizedRMSD -1
REMARK  0 active torsions:
REMARK  status: ('A' for Active; 'I' for Inactive)
ROOT
ATOM      1  C   UNL d   1      -2.078  -3.155  -2.932  0.00  0.00     0.020 A 
ATOM      2  C1  UNL d   1      -1.910  -4.490  -2.568  0.00  0.00     0.020 A 
ATOM      3  C2  UNL d   1      -3.014  -5.345  -2.520  0.00  0.00     0.034 A 
ATOM      4  C3  UNL d   1      -4.290  -4.865  -2.837  0.00  0.00     0.017 A 
ATOM      5  C4  UNL d   1      -4.457  -3.525  -3.203  0.00  0.00     0.017 A 
ATOM      6  C5  UNL d   1      -3.348  -2.673  -3.249  0.00  0.00     0.034 A 
ATOM      7 Cl   UNL d   1      -6.000  -2.860  -3.608  0.00  0.00    -0.070 Cl
ATOM      8 Cl1  UNL d   1      -5.609  -5.978  -2.758  0.00  0.00    -0.070 Cl
ENDROOT
TORSDOF 0
ENDMDL
