MODEL 1
REMARK minimizedAffinity 12.295599
REMARK minimizedRMSD -1
REMARK  0 active torsions:
REMARK  status: ('A' for Active; 'I' for Inactive)
ROOT
ATOM      1  C   UNL d   1       2.431   1.229   0.326  0.00  0.00     0.020 A 
ATOM      2  C1  UNL d   1       1.233   1.598   0.936  0.00  0.00     0.020 A 
ATOM      3  C2  UNL d   1       1.069   1.430   2.312  0.00  0.00     0.034 A 
ATOM      4  C3  UNL d   1       2.105   0.893   3.084  0.00  0.00     0.017 A 
ATOM      5  C4  UNL d   1       3.308   0.523   2.471  0.00  0.00     0.017 A 
ATOM      6  C5  UNL d   1       3.467   0.693   1.093  0.00  0.00     0.034 A 
ATOM      7 Cl   UNL d   1       4.633  -0.146   3.358  0.00  0.00    -0.070 Cl
ATOM      8 Cl1  UNL d   1       1.834   0.714   4.781  0.00  0.00    -0.070 Cl
ENDROOT
TORSDOF 0
ENDMDL
