MODEL 1
REMARK minimizedAffinity 7.1970458
REMARK minimizedRMSD -1
REMARK  0 active torsions:
REMARK  status: ('A' for Active; 'I' for Inactive)
ROOT
ATOM      1  C   UNL d   1       5.380  -0.543   0.047  0.00  0.00     0.020 A 
ATOM      2  C1  UNL d   1       4.499   0.246  -0.691  0.00  0.00     0.020 A 
ATOM      3  C2  UNL d   1       3.317   0.707  -0.107  0.00  0.00     0.034 A 
ATOM      4  C3  UNL d   1       3.014   0.379   1.220  0.00  0.00     0.017 A 
ATOM      5  C4  UNL d   1       3.899  -0.412   1.960  0.00  0.00     0.017 A 
ATOM      6  C5  UNL d   1       5.081  -0.871   1.370  0.00  0.00     0.034 A 
ATOM      7 Cl   UNL d   1       3.594  -0.858   3.602  0.00  0.00    -0.070 Cl
ATOM      8 Cl1  UNL d   1       1.535   0.984   1.879  0.00  0.00    -0.070 Cl
ENDROOT
TORSDOF 0
ENDMDL
