MODEL 1
REMARK minimizedAffinity 8.43325996
REMARK minimizedRMSD -1
REMARK  0 active torsions:
REMARK  status: ('A' for Active; 'I' for Inactive)
ROOT
ATOM      1  C   UNL d   1      -5.412   3.346   5.594  0.00  0.00     0.020 A 
ATOM      2  C1  UNL d   1      -4.857   3.554   4.331  0.00  0.00     0.020 A 
ATOM      3  C2  UNL d   1      -4.647   2.471   3.474  0.00  0.00     0.034 A 
ATOM      4  C3  UNL d   1      -4.992   1.176   3.879  0.00  0.00     0.017 A 
ATOM      5  C4  UNL d   1      -5.549   0.969   5.146  0.00  0.00     0.017 A 
ATOM      6  C5  UNL d   1      -5.757   2.057   6.000  0.00  0.00     0.034 A 
ATOM      7 Cl   UNL d   1      -6.000  -0.599   5.715  0.00  0.00    -0.070 Cl
ATOM      8 Cl1  UNL d   1      -4.706  -0.116   2.768  0.00  0.00    -0.070 Cl
ENDROOT
TORSDOF 0
ENDMDL
