MODEL 1
REMARK minimizedAffinity 11.2933073
REMARK minimizedRMSD -1
REMARK  0 active torsions:
REMARK  status: ('A' for Active; 'I' for Inactive)
ROOT
ATOM      1  C   UNL d   1      -3.528  -3.285  -2.780  0.00  0.00     0.020 A 
ATOM      2  C1  UNL d   1      -3.135  -4.566  -2.394  0.00  0.00     0.020 A 
ATOM      3  C2  UNL d   1      -1.990  -5.141  -2.948  0.00  0.00     0.034 A 
ATOM      4  C3  UNL d   1      -1.234  -4.436  -3.892  0.00  0.00     0.017 A 
ATOM      5  C4  UNL d   1      -1.630  -3.151  -4.279  0.00  0.00     0.017 A 
ATOM      6  C5  UNL d   1      -2.777  -2.579  -3.720  0.00  0.00     0.034 A 
ATOM      7 Cl   UNL d   1      -0.748  -2.219  -5.437  0.00  0.00    -0.070 Cl
ATOM      8 Cl1  UNL d   1       0.171  -5.209  -4.536  0.00  0.00    -0.070 Cl
ENDROOT
TORSDOF 0
ENDMDL
