MODEL 1
REMARK minimizedAffinity 12.4147797
REMARK minimizedRMSD -1
REMARK  0 active torsions:
REMARK  status: ('A' for Active; 'I' for Inactive)
ROOT
ATOM      1  C   UNL d   1      -2.132  -3.377  -2.882  0.00  0.00     0.020 A 
ATOM      2  C1  UNL d   1      -2.119  -4.711  -2.479  0.00  0.00     0.020 A 
ATOM      3  C2  UNL d   1      -3.314  -5.432  -2.410  0.00  0.00     0.034 A 
ATOM      4  C3  UNL d   1      -4.526  -4.817  -2.743  0.00  0.00     0.017 A 
ATOM      5  C4  UNL d   1      -4.538  -3.478  -3.148  0.00  0.00     0.017 A 
ATOM      6  C5  UNL d   1      -3.339  -2.761  -3.216  0.00  0.00     0.034 A 
ATOM      7 Cl   UNL d   1      -5.995  -2.652  -3.575  0.00  0.00    -0.070 Cl
ATOM      8 Cl1  UNL d   1      -5.965  -5.768  -2.635  0.00  0.00    -0.070 Cl
ENDROOT
TORSDOF 0
ENDMDL
