MODEL 1
REMARK minimizedAffinity 7.31040239
REMARK minimizedRMSD -1
REMARK  0 active torsions:
REMARK  status: ('A' for Active; 'I' for Inactive)
ROOT
ATOM      1  C   UNL d   1       5.998  -0.013   0.240  0.00  0.00     0.020 A 
ATOM      2  C1  UNL d   1       5.260  -0.523   1.306  0.00  0.00     0.020 A 
ATOM      3  C2  UNL d   1       3.974  -0.041   1.560  0.00  0.00     0.034 A 
ATOM      4  C3  UNL d   1       3.423   0.956   0.746  0.00  0.00     0.017 A 
ATOM      5  C4  UNL d   1       4.165   1.468  -0.324  0.00  0.00     0.017 A 
ATOM      6  C5  UNL d   1       5.452   0.981  -0.574  0.00  0.00     0.034 A 
ATOM      7 Cl   UNL d   1       3.553   2.698  -1.373  0.00  0.00    -0.070 Cl
ATOM      8 Cl1  UNL d   1       1.828   1.506   1.118  0.00  0.00    -0.070 Cl
ENDROOT
TORSDOF 0
ENDMDL
