MODEL 1
REMARK minimizedAffinity 10.5791607
REMARK minimizedRMSD -1
REMARK  0 active torsions:
REMARK  status: ('A' for Active; 'I' for Inactive)
ROOT
ATOM      1  C   UNL d   1      -5.619  -0.217   4.113  0.00  0.00     0.020 A 
ATOM      2  C1  UNL d   1      -5.999   0.013   5.435  0.00  0.00     0.020 A 
ATOM      3  C2  UNL d   1      -5.834   1.280   5.998  0.00  0.00     0.034 A 
ATOM      4  C3  UNL d   1      -5.288   2.322   5.239  0.00  0.00     0.017 A 
ATOM      5  C4  UNL d   1      -4.907   2.090   3.912  0.00  0.00     0.017 A 
ATOM      6  C5  UNL d   1      -5.075   0.819   3.353  0.00  0.00     0.034 A 
ATOM      7 Cl   UNL d   1      -4.227   3.326   2.914  0.00  0.00    -0.070 Cl
ATOM      8 Cl1  UNL d   1      -5.113   3.864   6.000  0.00  0.00    -0.070 Cl
ENDROOT
TORSDOF 0
ENDMDL
