MODEL 1
REMARK minimizedAffinity 12.4599218
REMARK minimizedRMSD -1
REMARK  0 active torsions:
REMARK  status: ('A' for Active; 'I' for Inactive)
ROOT
ATOM      1  C   UNL d   1      -5.581  -5.999  -1.905  0.00  0.00     0.020 A 
ATOM      2  C1  UNL d   1      -4.321  -5.893  -1.317  0.00  0.00     0.020 A 
ATOM      3  C2  UNL d   1      -3.479  -4.832  -1.658  0.00  0.00     0.034 A 
ATOM      4  C3  UNL d   1      -3.896  -3.874  -2.589  0.00  0.00     0.017 A 
ATOM      5  C4  UNL d   1      -5.161  -3.982  -3.178  0.00  0.00     0.017 A 
ATOM      6  C5  UNL d   1      -6.000  -5.046  -2.833  0.00  0.00     0.034 A 
ATOM      7 Cl   UNL d   1      -5.745  -2.838  -4.335  0.00  0.00    -0.070 Cl
ATOM      8 Cl1  UNL d   1      -2.803  -2.589  -2.963  0.00  0.00    -0.070 Cl
ENDROOT
TORSDOF 0
ENDMDL
