MODEL 1
REMARK minimizedAffinity 12.483984
REMARK minimizedRMSD -1
REMARK  0 active torsions:
REMARK  status: ('A' for Active; 'I' for Inactive)
ROOT
ATOM      1  C   UNL d   1      -5.983   5.997   5.003  0.00  0.00     0.020 A 
ATOM      2  C1  UNL d   1      -5.076   5.630   5.996  0.00  0.00     0.020 A 
ATOM      3  C2  UNL d   1      -4.185   4.578   5.774  0.00  0.00     0.034 A 
ATOM      4  C3  UNL d   1      -4.198   3.890   4.555  0.00  0.00     0.017 A 
ATOM      5  C4  UNL d   1      -5.109   4.260   3.558  0.00  0.00     0.017 A 
ATOM      6  C5  UNL d   1      -6.000   5.313   3.787  0.00  0.00     0.034 A 
ATOM      7 Cl   UNL d   1      -5.186   3.458   2.029  0.00  0.00    -0.070 Cl
ATOM      8 Cl1  UNL d   1      -3.068   2.600   4.348  0.00  0.00    -0.070 Cl
ENDROOT
TORSDOF 0
ENDMDL
