MODEL 1
REMARK minimizedAffinity 11.6295967
REMARK minimizedRMSD -1
REMARK  0 active torsions:
REMARK  status: ('A' for Active; 'I' for Inactive)
ROOT
ATOM      1  C   UNL d   1       2.163   2.483  -1.025  0.00  0.00     0.020 A 
ATOM      2  C1  UNL d   1       3.459   2.029  -1.266  0.00  0.00     0.020 A 
ATOM      3  C2  UNL d   1       3.984   0.980  -0.509  0.00  0.00     0.034 A 
ATOM      4  C3  UNL d   1       3.213   0.381   0.494  0.00  0.00     0.017 A 
ATOM      5  C4  UNL d   1       1.913   0.837   0.736  0.00  0.00     0.017 A 
ATOM      6  C5  UNL d   1       1.392   1.888  -0.025  0.00  0.00     0.034 A 
ATOM      7 Cl   UNL d   1       0.901   0.148   1.957  0.00  0.00    -0.070 Cl
ATOM      8 Cl1  UNL d   1       3.927  -0.911   1.392  0.00  0.00    -0.070 Cl
ENDROOT
TORSDOF 0
ENDMDL
