MODEL 1
REMARK minimizedAffinity 12.3464375
REMARK minimizedRMSD -1
REMARK  0 active torsions:
REMARK  status: ('A' for Active; 'I' for Inactive)
ROOT
ATOM      1  C   UNL d   1      -5.311  -6.000  -2.616  0.00  0.00     0.020 A 
ATOM      2  C1  UNL d   1      -4.022  -5.964  -2.086  0.00  0.00     0.020 A 
ATOM      3  C2  UNL d   1      -3.205  -4.854  -2.311  0.00  0.00     0.034 A 
ATOM      4  C3  UNL d   1      -3.676  -3.775  -3.068  0.00  0.00     0.017 A 
ATOM      5  C4  UNL d   1      -4.971  -3.812  -3.600  0.00  0.00     0.017 A 
ATOM      6  C5  UNL d   1      -5.784  -4.926  -3.371  0.00  0.00     0.034 A 
ATOM      7 Cl   UNL d   1      -5.622  -2.519  -4.544  0.00  0.00    -0.070 Cl
ATOM      8 Cl1  UNL d   1      -2.612  -2.435  -3.306  0.00  0.00    -0.070 Cl
ENDROOT
TORSDOF 0
ENDMDL
