MODEL 1
REMARK minimizedAffinity 20.3187237
REMARK minimizedRMSD -1
REMARK  0 active torsions:
REMARK  status: ('A' for Active; 'I' for Inactive)
ROOT
ATOM      1  C   UNL d   1      -5.582  -6.000  -2.287  0.00  0.00     0.020 A 
ATOM      2  C1  UNL d   1      -4.313  -5.979  -1.710  0.00  0.00     0.020 A 
ATOM      3  C2  UNL d   1      -3.460  -4.897  -1.938  0.00  0.00     0.034 A 
ATOM      4  C3  UNL d   1      -3.875  -3.831  -2.745  0.00  0.00     0.017 A 
ATOM      5  C4  UNL d   1      -5.150  -3.853  -3.323  0.00  0.00     0.017 A 
ATOM      6  C5  UNL d   1      -6.000  -4.939  -3.091  0.00  0.00     0.034 A 
ATOM      7 Cl   UNL d   1      -5.733  -2.575  -4.330  0.00  0.00    -0.070 Cl
ATOM      8 Cl1  UNL d   1      -2.769  -2.526  -2.983  0.00  0.00    -0.070 Cl
ENDROOT
TORSDOF 0
ENDMDL
