MODEL 1
REMARK minimizedAffinity 14.5140095
REMARK minimizedRMSD -1
REMARK  0 active torsions:
REMARK  status: ('A' for Active; 'I' for Inactive)
ROOT
ATOM      1  C   UNL d   1      -6.000  -0.109   5.452  0.00  0.00     0.020 A 
ATOM      2  C1  UNL d   1      -5.448  -0.357   4.196  0.00  0.00     0.020 A 
ATOM      3  C2  UNL d   1      -4.857   0.684   3.476  0.00  0.00     0.034 A 
ATOM      4  C3  UNL d   1      -4.816   1.976   4.012  0.00  0.00     0.017 A 
ATOM      5  C4  UNL d   1      -5.371   2.223   5.273  0.00  0.00     0.017 A 
ATOM      6  C5  UNL d   1      -5.961   1.178   5.990  0.00  0.00     0.034 A 
ATOM      7 Cl   UNL d   1      -5.358   3.791   6.000  0.00  0.00    -0.070 Cl
ATOM      8 Cl1  UNL d   1      -4.069   3.214   3.067  0.00  0.00    -0.070 Cl
ENDROOT
TORSDOF 0
ENDMDL
