MODEL 1
REMARK minimizedAffinity 14.5907955
REMARK minimizedRMSD -1
REMARK  0 active torsions:
REMARK  status: ('A' for Active; 'I' for Inactive)
ROOT
ATOM      1  C   UNL d   1      -4.131   2.003   3.775  0.00  0.00     0.020 A 
ATOM      2  C1  UNL d   1      -4.128   2.482   5.084  0.00  0.00     0.020 A 
ATOM      3  C2  UNL d   1      -4.708   3.718   5.377  0.00  0.00     0.034 A 
ATOM      4  C3  UNL d   1      -5.293   4.480   4.359  0.00  0.00     0.017 A 
ATOM      5  C4  UNL d   1      -5.296   3.998   3.045  0.00  0.00     0.017 A 
ATOM      6  C5  UNL d   1      -4.714   2.760   2.757  0.00  0.00     0.034 A 
ATOM      7 Cl   UNL d   1      -5.999   4.881   1.736  0.00  0.00    -0.070 Cl
ATOM      8 Cl1  UNL d   1      -5.993   5.999   4.793  0.00  0.00    -0.070 Cl
ENDROOT
TORSDOF 0
ENDMDL
