MODEL 1
REMARK minimizedAffinity 16.1797523
REMARK minimizedRMSD -1
REMARK  0 active torsions:
REMARK  status: ('A' for Active; 'I' for Inactive)
ROOT
ATOM      1  C   UNL d   1       2.833   0.839   1.654  0.00  0.00     0.020 A 
ATOM      2  C1  UNL d   1       2.834   1.888   0.735  0.00  0.00     0.020 A 
ATOM      3  C2  UNL d   1       3.820   1.950  -0.252  0.00  0.00     0.034 A 
ATOM      4  C3  UNL d   1       4.809   0.963  -0.323  0.00  0.00     0.017 A 
ATOM      5  C4  UNL d   1       4.808  -0.089   0.601  0.00  0.00     0.017 A 
ATOM      6  C5  UNL d   1       3.818  -0.147   1.587  0.00  0.00     0.034 A 
ATOM      7 Cl   UNL d   1       5.995  -1.345   0.577  0.00  0.00    -0.070 Cl
ATOM      8 Cl1  UNL d   1       5.997   1.103  -1.569  0.00  0.00    -0.070 Cl
ENDROOT
TORSDOF 0
ENDMDL
