MODEL 1
REMARK minimizedAffinity 19.2111397
REMARK minimizedRMSD -1
REMARK  0 active torsions:
REMARK  status: ('A' for Active; 'I' for Inactive)
ROOT
ATOM      1  C   UNL d   1      -5.647  -5.980  -2.112  0.00  0.00     0.020 A 
ATOM      2  C1  UNL d   1      -4.396  -5.995  -1.495  0.00  0.00     0.020 A 
ATOM      3  C2  UNL d   1      -3.498  -4.948  -1.714  0.00  0.00     0.034 A 
ATOM      4  C3  UNL d   1      -3.849  -3.883  -2.551  0.00  0.00     0.017 A 
ATOM      5  C4  UNL d   1      -5.104  -3.869  -3.169  0.00  0.00     0.017 A 
ATOM      6  C5  UNL d   1      -6.000  -4.920  -2.947  0.00  0.00     0.034 A 
ATOM      7 Cl   UNL d   1      -5.608  -2.589  -4.216  0.00  0.00    -0.070 Cl
ATOM      8 Cl1  UNL d   1      -2.688  -2.622  -2.776  0.00  0.00    -0.070 Cl
ENDROOT
TORSDOF 0
ENDMDL
