MODEL 1
REMARK minimizedAffinity -0.563246787
REMARK minimizedRMSD -1
REMARK  0 active torsions:
REMARK  status: ('A' for Active; 'I' for Inactive)
ROOT
ATOM      1  C   UNL d   1       0.096  -0.349   1.129  0.00  0.00     0.124 A 
ATOM      2  C1  UNL d   1       1.266   0.063   0.506  0.00  0.00     0.062 A 
ATOM      3  C2  UNL d   1       1.437   1.398   0.152  0.00  0.00     0.162 A 
ATOM      4  C3  UNL d   1       0.436   2.332   0.422  0.00  0.00    -0.034 A 
ATOM      5  C4  UNL d   1      -0.738   1.909   1.048  0.00  0.00     0.162 A 
ATOM      6  C5  UNL d   1      -0.904   0.574   1.399  0.00  0.00     0.062 A 
ATOM      7  F   UNL d   1      -2.035   0.177   2.001  0.00  0.00    -0.097 F 
ATOM      8  F1  UNL d   1      -1.720   2.780   1.322  0.00  0.00    -0.096 F 
ATOM      9  I   UNL d   1       0.689   4.329  -0.106  0.00  0.00    -0.060 I 
ATOM     10  F2  UNL d   1       2.578   1.769  -0.449  0.00  0.00    -0.096 F 
ATOM     11  F3  UNL d   1       2.233  -0.827   0.243  0.00  0.00    -0.097 F 
ATOM     12  F4  UNL d   1      -0.067  -1.635   1.467  0.00  0.00    -0.092 F 
ENDROOT
TORSDOF 0
ENDMDL
