MODEL 1
REMARK minimizedAffinity 0.866575181
REMARK minimizedRMSD -1
REMARK  0 active torsions:
REMARK  status: ('A' for Active; 'I' for Inactive)
ROOT
ATOM      1  C   UNL d   1       2.359   1.398  -0.012  0.00  0.00     0.124 A 
ATOM      2  C1  UNL d   1       1.367   2.327  -0.291  0.00  0.00     0.062 A 
ATOM      3  C2  UNL d   1       0.044   2.062   0.050  0.00  0.00     0.162 A 
ATOM      4  C3  UNL d   1      -0.295   0.862   0.674  0.00  0.00    -0.034 A 
ATOM      5  C4  UNL d   1       0.708  -0.069   0.950  0.00  0.00     0.162 A 
ATOM      6  C5  UNL d   1       2.029   0.201   0.608  0.00  0.00     0.062 A 
ATOM      7  F   UNL d   1       2.987  -0.698   0.878  0.00  0.00    -0.097 F 
ATOM      8  F1  UNL d   1       0.417  -1.233   1.550  0.00  0.00    -0.096 F 
ATOM      9  I   UNL d   1      -2.273   0.461   1.185  0.00  0.00    -0.060 I 
ATOM     10  F2  UNL d   1      -0.895   2.978  -0.231  0.00  0.00    -0.096 F 
ATOM     11  F3  UNL d   1       1.683   3.484  -0.891  0.00  0.00    -0.097 F 
ATOM     12  F4  UNL d   1       3.631   1.655  -0.342  0.00  0.00    -0.092 F 
ENDROOT
TORSDOF 0
ENDMDL
