MODEL 1
REMARK minimizedAffinity -2.37971616
REMARK minimizedRMSD -1
REMARK  0 active torsions:
REMARK  status: ('A' for Active; 'I' for Inactive)
ROOT
ATOM      1  C   UNL d   1       0.169   3.063   0.650  0.00  0.00     0.124 A 
ATOM      2  C1  UNL d   1      -1.078   2.464   0.756  0.00  0.00     0.062 A 
ATOM      3  C2  UNL d   1      -1.228   1.107   0.485  0.00  0.00     0.162 A 
ATOM      4  C3  UNL d   1      -0.127   0.338   0.107  0.00  0.00    -0.034 A 
ATOM      5  C4  UNL d   1       1.125   0.948   0.002  0.00  0.00     0.162 A 
ATOM      6  C5  UNL d   1       1.269   2.305   0.273  0.00  0.00     0.062 A 
ATOM      7  F   UNL d   1       2.475   2.882   0.170  0.00  0.00    -0.097 F 
ATOM      8  F1  UNL d   1       2.204   0.239  -0.360  0.00  0.00    -0.096 F 
ATOM      9  I   UNL d   1      -0.347  -1.691  -0.298  0.00  0.00    -0.060 I 
ATOM     10  F2  UNL d   1      -2.445   0.554   0.596  0.00  0.00    -0.096 F 
ATOM     11  F3  UNL d   1      -2.142   3.194   1.119  0.00  0.00    -0.097 F 
ATOM     12  F4  UNL d   1       0.311   4.369   0.909  0.00  0.00    -0.092 F 
ENDROOT
TORSDOF 0
ENDMDL
