MODEL 1
REMARK minimizedAffinity -0.271758646
REMARK minimizedRMSD -1
REMARK  0 active torsions:
REMARK  status: ('A' for Active; 'I' for Inactive)
ROOT
ATOM      1  C   UNL d   1       0.070   1.337   0.747  0.00  0.00     0.124 A 
ATOM      2  C1  UNL d   1      -1.167   0.773   1.027  0.00  0.00     0.062 A 
ATOM      3  C2  UNL d   1      -1.465  -0.514   0.590  0.00  0.00     0.162 A 
ATOM      4  C3  UNL d   1      -0.523  -1.248  -0.131  0.00  0.00    -0.034 A 
ATOM      5  C4  UNL d   1       0.719  -0.674  -0.410  0.00  0.00     0.162 A 
ATOM      6  C5  UNL d   1       1.011   0.613   0.030  0.00  0.00     0.062 A 
ATOM      7  F   UNL d   1       2.207   1.156  -0.241  0.00  0.00    -0.097 F 
ATOM      8  F1  UNL d   1       1.648  -1.352  -1.100  0.00  0.00    -0.096 F 
ATOM      9  I   UNL d   1      -0.964  -3.174  -0.787  0.00  0.00    -0.060 I 
ATOM     10  F2  UNL d   1      -2.669  -1.034   0.874  0.00  0.00    -0.096 F 
ATOM     11  F3  UNL d   1      -2.079   1.471   1.719  0.00  0.00    -0.097 F 
ATOM     12  F4  UNL d   1       0.353   2.576   1.168  0.00  0.00    -0.092 F 
ENDROOT
TORSDOF 0
ENDMDL
