MODEL 1
REMARK minimizedAffinity -0.0734774992
REMARK minimizedRMSD -1
REMARK  0 active torsions:
REMARK  status: ('A' for Active; 'I' for Inactive)
ROOT
ATOM      1  C   UNL d   1      -1.322   1.904   1.156  0.00  0.00     0.124 A 
ATOM      2  C1  UNL d   1      -0.003   1.903   0.725  0.00  0.00     0.062 A 
ATOM      3  C2  UNL d   1       0.576   0.731   0.247  0.00  0.00     0.162 A 
ATOM      4  C3  UNL d   1      -0.164  -0.450   0.197  0.00  0.00    -0.034 A 
ATOM      5  C4  UNL d   1      -1.490  -0.442   0.634  0.00  0.00     0.162 A 
ATOM      6  C5  UNL d   1      -2.064   0.732   1.110  0.00  0.00     0.062 A 
ATOM      7  F   UNL d   1      -3.339   0.731   1.527  0.00  0.00    -0.097 F 
ATOM      8  F1  UNL d   1      -2.230  -1.560   0.599  0.00  0.00    -0.096 F 
ATOM      9  I   UNL d   1       0.699  -2.204  -0.517  0.00  0.00    -0.060 I 
ATOM     10  F2  UNL d   1       1.853   0.760  -0.163  0.00  0.00    -0.096 F 
ATOM     11  F3  UNL d   1       0.716   3.034   0.769  0.00  0.00    -0.097 F 
ATOM     12  F4  UNL d   1      -1.877   3.033   1.617  0.00  0.00    -0.092 F 
ENDROOT
TORSDOF 0
ENDMDL
