MODEL 1
REMARK minimizedAffinity 2.42545152
REMARK minimizedRMSD -1
REMARK  0 active torsions:
REMARK  status: ('A' for Active; 'I' for Inactive)
ROOT
ATOM      1  C   UNL d   1       0.593   2.342   0.484  0.00  0.00     0.124 A 
ATOM      2  C1  UNL d   1       1.501   1.337   0.183  0.00  0.00     0.062 A 
ATOM      3  C2  UNL d   1       1.090   0.008   0.152  0.00  0.00     0.162 A 
ATOM      4  C3  UNL d   1      -0.237  -0.325   0.423  0.00  0.00    -0.034 A 
ATOM      5  C4  UNL d   1      -1.145   0.692   0.726  0.00  0.00     0.162 A 
ATOM      6  C5  UNL d   1      -0.729   2.019   0.756  0.00  0.00     0.062 A 
ATOM      7  F   UNL d   1      -1.609   2.988   1.047  0.00  0.00    -0.097 F 
ATOM      8  F1  UNL d   1      -2.429   0.407   0.992  0.00  0.00    -0.096 F 
ATOM      9  I   UNL d   1      -0.856  -2.311   0.378  0.00  0.00    -0.060 I 
ATOM     10  F2  UNL d   1       1.990  -0.943  -0.142  0.00  0.00    -0.096 F 
ATOM     11  F3  UNL d   1       2.779   1.647  -0.079  0.00  0.00    -0.097 F 
ATOM     12  F4  UNL d   1       0.991   3.620   0.514  0.00  0.00    -0.092 F 
ENDROOT
TORSDOF 0
ENDMDL
