MODEL 1
REMARK minimizedAffinity 0.410309315
REMARK minimizedRMSD -1
REMARK  0 active torsions:
REMARK  status: ('A' for Active; 'I' for Inactive)
ROOT
ATOM      1  C   UNL d   1       0.045   3.280   0.475  0.00  0.00     0.124 A 
ATOM      2  C1  UNL d   1      -0.762   2.414   1.198  0.00  0.00     0.062 A 
ATOM      3  C2  UNL d   1      -0.943   1.102   0.769  0.00  0.00     0.162 A 
ATOM      4  C3  UNL d   1      -0.314   0.648  -0.390  0.00  0.00    -0.034 A 
ATOM      5  C4  UNL d   1       0.496   1.526  -1.113  0.00  0.00     0.162 A 
ATOM      6  C5  UNL d   1       0.674   2.836  -0.680  0.00  0.00     0.062 A 
ATOM      7  F   UNL d   1       1.454   3.671  -1.380  0.00  0.00    -0.097 F 
ATOM      8  F1  UNL d   1       1.116   1.122  -2.232  0.00  0.00    -0.096 F 
ATOM      9  I   UNL d   1      -0.581  -1.312  -1.036  0.00  0.00    -0.060 I 
ATOM     10  F2  UNL d   1      -1.729   0.287   1.488  0.00  0.00    -0.096 F 
ATOM     11  F3  UNL d   1      -1.371   2.841   2.314  0.00  0.00    -0.097 F 
ATOM     12  F4  UNL d   1       0.216   4.542   0.890  0.00  0.00    -0.092 F 
ENDROOT
TORSDOF 0
ENDMDL
