MODEL 1
REMARK minimizedAffinity 0.571134925
REMARK minimizedRMSD -1
REMARK  0 active torsions:
REMARK  status: ('A' for Active; 'I' for Inactive)
ROOT
ATOM      1  C   UNL d   1      -0.939  -1.284   0.549  0.00  0.00     0.124 A 
ATOM      2  C1  UNL d   1       0.226  -0.886  -0.092  0.00  0.00     0.062 A 
ATOM      3  C2  UNL d   1       0.464   0.462  -0.339  0.00  0.00     0.162 A 
ATOM      4  C3  UNL d   1      -0.466   1.425   0.056  0.00  0.00    -0.034 A 
ATOM      5  C4  UNL d   1      -1.636   1.017   0.700  0.00  0.00     0.162 A 
ATOM      6  C5  UNL d   1      -1.868  -0.332   0.944  0.00  0.00     0.062 A 
ATOM      7  F   UNL d   1      -2.995  -0.715   1.564  0.00  0.00    -0.097 F 
ATOM      8  F1  UNL d   1      -2.550   1.916   1.093  0.00  0.00    -0.096 F 
ATOM      9  I   UNL d   1      -0.114   3.443  -0.311  0.00  0.00    -0.060 I 
ATOM     10  F2  UNL d   1       1.598   0.818  -0.960  0.00  0.00    -0.096 F 
ATOM     11  F3  UNL d   1       1.125  -1.804  -0.475  0.00  0.00    -0.097 F 
ATOM     12  F4  UNL d   1      -1.165  -2.583   0.785  0.00  0.00    -0.092 F 
ENDROOT
TORSDOF 0
ENDMDL
