MODEL 1
REMARK minimizedAffinity -1.8548677
REMARK minimizedRMSD -1
REMARK  0 active torsions:
REMARK  status: ('A' for Active; 'I' for Inactive)
ROOT
ATOM      1  C   UNL d   1      -1.443   1.733   0.586  0.00  0.00     0.124 A 
ATOM      2  C1  UNL d   1      -2.032   0.503   0.843  0.00  0.00     0.062 A 
ATOM      3  C2  UNL d   1      -1.575  -0.641   0.195  0.00  0.00     0.162 A 
ATOM      4  C3  UNL d   1      -0.522  -0.561  -0.716  0.00  0.00    -0.034 A 
ATOM      5  C4  UNL d   1       0.065   0.680  -0.970  0.00  0.00     0.162 A 
ATOM      6  C5  UNL d   1      -0.395   1.821  -0.320  0.00  0.00     0.062 A 
ATOM      7  F   UNL d   1       0.175   3.008  -0.569  0.00  0.00    -0.097 F 
ATOM      8  F1  UNL d   1       1.079   0.794  -1.840  0.00  0.00    -0.096 F 
ATOM      9  I   UNL d   1       0.164  -2.269  -1.687  0.00  0.00    -0.060 I 
ATOM     10  F2  UNL d   1      -2.163  -1.817   0.463  0.00  0.00    -0.096 F 
ATOM     11  F3  UNL d   1      -3.044   0.416   1.718  0.00  0.00    -0.097 F 
ATOM     12  F4  UNL d   1      -1.885   2.832   1.210  0.00  0.00    -0.092 F 
ENDROOT
TORSDOF 0
ENDMDL
