MODEL 1
REMARK minimizedAffinity -1.812585
REMARK minimizedRMSD -1
REMARK  0 active torsions:
REMARK  status: ('A' for Active; 'I' for Inactive)
ROOT
ATOM      1  C   UNL d   1       2.057  -1.211   1.050  0.00  0.00     0.124 A 
ATOM      2  C1  UNL d   1       2.723   0.003   1.132  0.00  0.00     0.062 A 
ATOM      3  C2  UNL d   1       2.023   1.198   0.991  0.00  0.00     0.162 A 
ATOM      4  C3  UNL d   1       0.646   1.183   0.768  0.00  0.00    -0.034 A 
ATOM      5  C4  UNL d   1      -0.018  -0.042   0.685  0.00  0.00     0.162 A 
ATOM      6  C5  UNL d   1       0.687  -1.233   0.827  0.00  0.00     0.062 A 
ATOM      7  F   UNL d   1       0.042  -2.406   0.747  0.00  0.00    -0.097 F 
ATOM      8  F1  UNL d   1      -1.341  -0.092   0.471  0.00  0.00    -0.096 F 
ATOM      9  I   UNL d   1      -0.406   2.967   0.556  0.00  0.00    -0.060 I 
ATOM     10  F2  UNL d   1       2.692   2.357   1.075  0.00  0.00    -0.096 F 
ATOM     11  F3  UNL d   1       4.047   0.027   1.347  0.00  0.00    -0.097 F 
ATOM     12  F4  UNL d   1       2.734  -2.359   1.185  0.00  0.00    -0.092 F 
ENDROOT
TORSDOF 0
ENDMDL
