MODEL 1
REMARK minimizedAffinity -3.25727868
REMARK minimizedRMSD -1
REMARK  0 active torsions:
REMARK  status: ('A' for Active; 'I' for Inactive)
ROOT
ATOM      1  C   UNL d   1       1.096   2.887   0.329  0.00  0.00     0.124 A 
ATOM      2  C1  UNL d   1      -0.219   2.550   0.038  0.00  0.00     0.062 A 
ATOM      3  C2  UNL d   1      -0.588   1.215  -0.091  0.00  0.00     0.162 A 
ATOM      4  C3  UNL d   1       0.360   0.204   0.071  0.00  0.00    -0.034 A 
ATOM      5  C4  UNL d   1       1.681   0.550   0.363  0.00  0.00     0.162 A 
ATOM      6  C5  UNL d   1       2.044   1.887   0.491  0.00  0.00     0.062 A 
ATOM      7  F   UNL d   1       3.315   2.210   0.772  0.00  0.00    -0.097 F 
ATOM      8  F1  UNL d   1       2.617  -0.396   0.526  0.00  0.00    -0.096 F 
ATOM      9  I   UNL d   1      -0.187  -1.795  -0.121  0.00  0.00    -0.060 I 
ATOM     10  F2  UNL d   1      -1.865   0.919  -0.373  0.00  0.00    -0.096 F 
ATOM     11  F3  UNL d   1      -1.137   3.515  -0.120  0.00  0.00    -0.097 F 
ATOM     12  F4  UNL d   1       1.448   4.173   0.452  0.00  0.00    -0.092 F 
ENDROOT
TORSDOF 0
ENDMDL
