MODEL 1
REMARK minimizedAffinity 0.391252637
REMARK minimizedRMSD -1
REMARK  0 active torsions:
REMARK  status: ('A' for Active; 'I' for Inactive)
ROOT
ATOM      1  C   UNL d   1       1.644   2.680   0.649  0.00  0.00     0.124 A 
ATOM      2  C1  UNL d   1       2.443   1.545   0.669  0.00  0.00     0.062 A 
ATOM      3  C2  UNL d   1       1.888   0.294   0.416  0.00  0.00     0.162 A 
ATOM      4  C3  UNL d   1       0.527   0.170   0.140  0.00  0.00    -0.034 A 
ATOM      5  C4  UNL d   1      -0.271   1.316   0.123  0.00  0.00     0.162 A 
ATOM      6  C5  UNL d   1       0.288   2.564   0.376  0.00  0.00     0.062 A 
ATOM      7  F   UNL d   1      -0.486   3.659   0.357  0.00  0.00    -0.097 F 
ATOM      8  F1  UNL d   1      -1.584   1.233  -0.139  0.00  0.00    -0.096 F 
ATOM      9  I   UNL d   1      -0.306  -1.699  -0.238  0.00  0.00    -0.060 I 
ATOM     10  F2  UNL d   1       2.685  -0.786   0.442  0.00  0.00    -0.096 F 
ATOM     11  F3  UNL d   1       3.753   1.654   0.933  0.00  0.00    -0.097 F 
ATOM     12  F4  UNL d   1       2.179   3.882   0.893  0.00  0.00    -0.092 F 
ENDROOT
TORSDOF 0
ENDMDL
