MODEL 1
REMARK minimizedAffinity -3.50983477
REMARK minimizedRMSD -1
REMARK  0 active torsions:
REMARK  status: ('A' for Active; 'I' for Inactive)
ROOT
ATOM      1  C   UNL d   1      -0.840   1.729   1.205  0.00  0.00     0.124 A 
ATOM      2  C1  UNL d   1      -1.224   0.431   1.509  0.00  0.00     0.062 A 
ATOM      3  C2  UNL d   1      -0.758  -0.635   0.744  0.00  0.00     0.162 A 
ATOM      4  C3  UNL d   1       0.100  -0.406  -0.332  0.00  0.00    -0.034 A 
ATOM      5  C4  UNL d   1       0.481   0.903  -0.632  0.00  0.00     0.162 A 
ATOM      6  C5  UNL d   1       0.012   1.964   0.135  0.00  0.00     0.062 A 
ATOM      7  F   UNL d   1       0.384   3.218  -0.160  0.00  0.00    -0.097 F 
ATOM      8  F1  UNL d   1       1.305   1.158  -1.660  0.00  0.00    -0.096 F 
ATOM      9  I   UNL d   1       0.800  -1.996  -1.478  0.00  0.00    -0.060 I 
ATOM     10  F2  UNL d   1      -1.145  -1.879   1.061  0.00  0.00    -0.096 F 
ATOM     11  F3  UNL d   1      -2.049   0.201   2.541  0.00  0.00    -0.097 F 
ATOM     12  F4  UNL d   1      -1.292   2.752   1.941  0.00  0.00    -0.092 F 
ENDROOT
TORSDOF 0
ENDMDL
