MODEL 1
REMARK minimizedAffinity -2.52208161
REMARK minimizedRMSD -1
REMARK  0 active torsions:
REMARK  status: ('A' for Active; 'I' for Inactive)
ROOT
ATOM      1  C   UNL d   1       0.188   2.198   0.629  0.00  0.00     0.124 A 
ATOM      2  C1  UNL d   1       1.113   1.373   0.005  0.00  0.00     0.062 A 
ATOM      3  C2  UNL d   1       0.785   0.054  -0.294  0.00  0.00     0.162 A 
ATOM      4  C3  UNL d   1      -0.476  -0.449   0.030  0.00  0.00    -0.034 A 
ATOM      5  C4  UNL d   1      -1.400   0.387   0.659  0.00  0.00     0.162 A 
ATOM      6  C5  UNL d   1      -1.067   1.704   0.956  0.00  0.00     0.062 A 
ATOM      7  F   UNL d   1      -1.962   2.500   1.560  0.00  0.00    -0.097 F 
ATOM      8  F1  UNL d   1      -2.621  -0.064   0.985  0.00  0.00    -0.096 F 
ATOM      9  I   UNL d   1      -0.970  -2.421  -0.415  0.00  0.00    -0.060 I 
ATOM     10  F2  UNL d   1       1.698  -0.721  -0.898  0.00  0.00    -0.096 F 
ATOM     11  F3  UNL d   1       2.327   1.847  -0.311  0.00  0.00    -0.097 F 
ATOM     12  F4  UNL d   1       0.507   3.466   0.917  0.00  0.00    -0.092 F 
ENDROOT
TORSDOF 0
ENDMDL
