MODEL 1
REMARK minimizedAffinity -0.47266525
REMARK minimizedRMSD -1
REMARK  0 active torsions:
REMARK  status: ('A' for Active; 'I' for Inactive)
ROOT
ATOM      1  C   UNL d   1      -0.964   2.163   0.743  0.00  0.00     0.124 A 
ATOM      2  C1  UNL d   1      -1.504   0.893   0.887  0.00  0.00     0.062 A 
ATOM      3  C2  UNL d   1      -0.797  -0.223   0.447  0.00  0.00     0.162 A 
ATOM      4  C3  UNL d   1       0.459  -0.073  -0.140  0.00  0.00    -0.034 A 
ATOM      5  C4  UNL d   1       0.996   1.208  -0.282  0.00  0.00     0.162 A 
ATOM      6  C5  UNL d   1       0.285   2.319   0.159  0.00  0.00     0.062 A 
ATOM      7  F   UNL d   1       0.809   3.546   0.019  0.00  0.00    -0.097 F 
ATOM      8  F1  UNL d   1       2.201   1.388  -0.843  0.00  0.00    -0.096 F 
ATOM      9  I   UNL d   1       1.519  -1.738  -0.800  0.00  0.00    -0.060 I 
ATOM     10  F2  UNL d   1      -1.344  -1.438   0.599  0.00  0.00    -0.096 F 
ATOM     11  F3  UNL d   1      -2.711   0.739   1.450  0.00  0.00    -0.097 F 
ATOM     12  F4  UNL d   1      -1.646   3.235   1.167  0.00  0.00    -0.092 F 
ENDROOT
TORSDOF 0
ENDMDL
