MODEL 1
REMARK minimizedAffinity 1.3277452
REMARK minimizedRMSD -1
REMARK  0 active torsions:
REMARK  status: ('A' for Active; 'I' for Inactive)
ROOT
ATOM      1  C   UNL d   1       0.251   1.593   0.387  0.00  0.00     0.124 A 
ATOM      2  C1  UNL d   1      -1.117   1.472   0.184  0.00  0.00     0.062 A 
ATOM      3  C2  UNL d   1      -1.663   0.249  -0.194  0.00  0.00     0.162 A 
ATOM      4  C3  UNL d   1      -0.841  -0.864  -0.370  0.00  0.00    -0.034 A 
ATOM      5  C4  UNL d   1       0.534  -0.734  -0.165  0.00  0.00     0.162 A 
ATOM      6  C5  UNL d   1       1.075   0.490   0.212  0.00  0.00     0.062 A 
ATOM      7  F   UNL d   1       2.396   0.606   0.407  0.00  0.00    -0.097 F 
ATOM      8  F1  UNL d   1       1.353  -1.784  -0.326  0.00  0.00    -0.096 F 
ATOM      9  I   UNL d   1      -1.653  -2.696  -0.934  0.00  0.00    -0.060 I 
ATOM     10  F2  UNL d   1      -2.988   0.160  -0.383  0.00  0.00    -0.096 F 
ATOM     11  F3  UNL d   1      -1.915   2.536   0.351  0.00  0.00    -0.097 F 
ATOM     12  F4  UNL d   1       0.773   2.772   0.749  0.00  0.00    -0.092 F 
ENDROOT
TORSDOF 0
ENDMDL
