MODEL 1
REMARK minimizedAffinity 1.20068991
REMARK minimizedRMSD -1
REMARK  0 active torsions:
REMARK  status: ('A' for Active; 'I' for Inactive)
ROOT
ATOM      1  C   UNL d   1      -1.031   1.824   0.790  0.00  0.00     0.124 A 
ATOM      2  C1  UNL d   1      -1.338   0.511   1.120  0.00  0.00     0.062 A 
ATOM      3  C2  UNL d   1      -0.792  -0.540   0.388  0.00  0.00     0.162 A 
ATOM      4  C3  UNL d   1       0.068  -0.282  -0.680  0.00  0.00    -0.034 A 
ATOM      5  C4  UNL d   1       0.370   1.041  -1.006  0.00  0.00     0.162 A 
ATOM      6  C5  UNL d   1      -0.178   2.088  -0.272  0.00  0.00     0.062 A 
ATOM      7  F   UNL d   1       0.119   3.356  -0.592  0.00  0.00    -0.097 F 
ATOM      8  F1  UNL d   1       1.193   1.325  -2.027  0.00  0.00    -0.096 F 
ATOM      9  I   UNL d   1       0.886  -1.851  -1.776  0.00  0.00    -0.060 I 
ATOM     10  F2  UNL d   1      -1.105  -1.798   0.729  0.00  0.00    -0.096 F 
ATOM     11  F3  UNL d   1      -2.163   0.254   2.145  0.00  0.00    -0.097 F 
ATOM     12  F4  UNL d   1      -1.559   2.834   1.495  0.00  0.00    -0.092 F 
ENDROOT
TORSDOF 0
ENDMDL
