MODEL 1
REMARK minimizedAffinity -0.872565269
REMARK minimizedRMSD -1
REMARK  0 active torsions:
REMARK  status: ('A' for Active; 'I' for Inactive)
ROOT
ATOM      1  C   UNL d   1      -0.181   2.629   0.469  0.00  0.00     0.124 A 
ATOM      2  C1  UNL d   1      -1.241   1.937   1.039  0.00  0.00     0.062 A 
ATOM      3  C2  UNL d   1      -1.337   0.557   0.888  0.00  0.00     0.162 A 
ATOM      4  C3  UNL d   1      -0.371  -0.142   0.164  0.00  0.00    -0.034 A 
ATOM      5  C4  UNL d   1       0.692   0.562  -0.407  0.00  0.00     0.162 A 
ATOM      6  C5  UNL d   1       0.784   1.941  -0.253  0.00  0.00     0.062 A 
ATOM      7  F   UNL d   1       1.808   2.608  -0.805  0.00  0.00    -0.097 F 
ATOM      8  F1  UNL d   1       1.639  -0.078  -1.109  0.00  0.00    -0.096 F 
ATOM      9  I   UNL d   1      -0.511  -2.206  -0.064  0.00  0.00    -0.060 I 
ATOM     10  F2  UNL d   1      -2.372  -0.086   1.449  0.00  0.00    -0.096 F 
ATOM     11  F3  UNL d   1      -2.175   2.599   1.736  0.00  0.00    -0.097 F 
ATOM     12  F4  UNL d   1      -0.092   3.957   0.615  0.00  0.00    -0.092 F 
ENDROOT
TORSDOF 0
ENDMDL
