MODEL 1
REMARK minimizedAffinity -4.00353813
REMARK minimizedRMSD -1
REMARK  2 active torsions:
REMARK  status: ('A' for Active; 'I' for Inactive)
REMARK    1  A    between atoms: C2'_3  and  C1'_4 
REMARK    2  A    between atoms: C1'_4  and  C1_5 
ROOT
ATOM      1  C1  I4B d   1      -0.505   0.602  -0.523  0.00  0.00    -0.075 A 
ATOM      2  C2  I4B d   1      -0.816   1.374  -1.615  0.00  0.00     0.003 A 
ATOM      3  C3  I4B d   1      -2.145   1.415  -2.103  0.00  0.00     0.002 A 
ATOM      4  C4  I4B d   1      -3.113   0.635  -1.504  0.00  0.00    -0.004 A 
ATOM      5  C5  I4B d   1      -2.800  -0.128  -0.383  0.00  0.00     0.002 A 
ATOM      6  C6  I4B d   1      -1.491  -0.136   0.119  0.00  0.00     0.003 A 
ENDROOT
BRANCH   1   7
ATOM      7  C1' I4B d   1       0.915   0.556  -0.054  0.00  0.00     0.060 C 
BRANCH   7   8
ATOM      8  C2' I4B d   1       1.435  -0.850  -0.275  0.00  0.00    -0.013 C 
ATOM      9  C4' I4B d   1       2.483  -0.880  -1.356  0.00  0.00     0.013 C 
ATOM     10  C3' I4B d   1       1.985  -1.350   1.027  0.00  0.00     0.013 C 
ENDBRANCH   7   8
ENDBRANCH   1   7
TORSDOF 2
ENDMDL
