MODEL 1
REMARK minimizedAffinity -1.75789475
REMARK minimizedRMSD -1
REMARK  2 active torsions:
REMARK  status: ('A' for Active; 'I' for Inactive)
REMARK    1  A    between atoms: C2'_3  and  C1'_4 
REMARK    2  A    between atoms: C1'_4  and  C1_5 
ROOT
ATOM      1  C1  I4B d   1      -0.009   0.795  -0.339  0.00  0.00    -0.075 A 
ATOM      2  C2  I4B d   1      -0.621   0.051   0.638  0.00  0.00     0.003 A 
ATOM      3  C3  I4B d   1       0.092  -0.976   1.303  0.00  0.00     0.002 A 
ATOM      4  C4  I4B d   1       1.390  -1.256   0.927  0.00  0.00    -0.004 A 
ATOM      5  C5  I4B d   1       2.016  -0.485  -0.048  0.00  0.00     0.002 A 
ATOM      6  C6  I4B d   1       1.316   0.555  -0.677  0.00  0.00     0.003 A 
ENDROOT
BRANCH   1   7
ATOM      7  C1' I4B d   1      -0.802   1.850  -1.044  0.00  0.00     0.060 C 
BRANCH   7   8
ATOM      8  C2' I4B d   1      -1.484   1.205  -2.233  0.00  0.00    -0.013 C 
ATOM      9  C4' I4B d   1      -2.829   0.644  -1.851  0.00  0.00     0.013 C 
ATOM     10  C3' I4B d   1      -1.615   2.240  -3.310  0.00  0.00     0.013 C 
ENDBRANCH   7   8
ENDBRANCH   1   7
TORSDOF 2
ENDMDL
