MODEL 1
REMARK minimizedAffinity -1.76840639
REMARK minimizedRMSD -1
REMARK  2 active torsions:
REMARK  status: ('A' for Active; 'I' for Inactive)
REMARK    1  A    between atoms: C2'_3  and  C1'_4 
REMARK    2  A    between atoms: C1'_4  and  C1_5 
ROOT
ATOM      1  C1  I4B d   1      -1.556   0.459  -0.143  0.00  0.00    -0.075 A 
ATOM      2  C2  I4B d   1      -2.689  -0.236  -0.487  0.00  0.00     0.003 A 
ATOM      3  C3  I4B d   1      -3.386   0.082  -1.678  0.00  0.00     0.002 A 
ATOM      4  C4  I4B d   1      -2.948   1.129  -2.463  0.00  0.00    -0.004 A 
ATOM      5  C5  I4B d   1      -1.787   1.818  -2.124  0.00  0.00     0.002 A 
ATOM      6  C6  I4B d   1      -1.079   1.473  -0.963  0.00  0.00     0.003 A 
ENDROOT
BRANCH   1   7
ATOM      7  C1' I4B d   1      -0.863   0.118   1.138  0.00  0.00     0.060 C 
BRANCH   7   8
ATOM      8  C2' I4B d   1      -1.905  -0.394   2.111  0.00  0.00    -0.013 C 
ATOM      9  C4' I4B d   1      -1.266  -1.144   3.250  0.00  0.00     0.013 C 
ATOM     10  C3' I4B d   1      -2.690   0.782   2.610  0.00  0.00     0.013 C 
ENDBRANCH   7   8
ENDBRANCH   1   7
TORSDOF 2
ENDMDL
