MODEL 1
REMARK minimizedAffinity -5.41574001
REMARK minimizedRMSD -1
REMARK  2 active torsions:
REMARK  status: ('A' for Active; 'I' for Inactive)
REMARK    1  A    between atoms: C2'_3  and  C1'_4 
REMARK    2  A    between atoms: C1'_4  and  C1_5 
ROOT
ATOM      1  C1  I4B d   1      -0.636  -0.712   1.235  0.00  0.00    -0.075 A 
ATOM      2  C2  I4B d   1       0.449  -0.946   0.427  0.00  0.00     0.003 A 
ATOM      3  C3  I4B d   1       1.460  -1.849   0.835  0.00  0.00     0.002 A 
ATOM      4  C4  I4B d   1       1.372  -2.455   2.072  0.00  0.00    -0.004 A 
ATOM      5  C5  I4B d   1       0.260  -2.234   2.880  0.00  0.00     0.002 A 
ATOM      6  C6  I4B d   1      -0.757  -1.367   2.454  0.00  0.00     0.003 A 
ENDROOT
BRANCH   1   7
ATOM      7  C1' I4B d   1      -1.669   0.273   0.788  0.00  0.00     0.060 C 
BRANCH   7   8
ATOM      8  C2' I4B d   1      -1.330   0.694  -0.628  0.00  0.00    -0.013 C 
ATOM      9  C4' I4B d   1      -2.571   0.807  -1.474  0.00  0.00     0.013 C 
ATOM     10  C3' I4B d   1      -0.599   2.001  -0.560  0.00  0.00     0.013 C 
ENDBRANCH   7   8
ENDBRANCH   1   7
TORSDOF 2
ENDMDL
