MODEL 1
REMARK minimizedAffinity -3.57333684
REMARK minimizedRMSD -1
REMARK  2 active torsions:
REMARK  status: ('A' for Active; 'I' for Inactive)
REMARK    1  A    between atoms: C2'_3  and  C1'_4 
REMARK    2  A    between atoms: C1'_4  and  C1_5 
ROOT
ATOM      1  C1  I4B d   1      -0.816   0.902  -0.559  0.00  0.00    -0.075 A 
ATOM      2  C2  I4B d   1      -0.762   1.773  -1.618  0.00  0.00     0.003 A 
ATOM      3  C3  I4B d   1      -1.873   1.912  -2.485  0.00  0.00     0.002 A 
ATOM      4  C4  I4B d   1      -2.992   1.130  -2.285  0.00  0.00    -0.004 A 
ATOM      5  C5  I4B d   1      -3.055   0.264  -1.197  0.00  0.00     0.002 A 
ATOM      6  C6  I4B d   1      -1.965   0.158  -0.321  0.00  0.00     0.003 A 
ENDROOT
BRANCH   1   7
ATOM      7  C1' I4B d   1       0.388   0.755   0.317  0.00  0.00     0.060 C 
BRANCH   7   8
ATOM      8  C2' I4B d   1       1.073  -0.546  -0.046  0.00  0.00    -0.013 C 
ATOM      9  C4' I4B d   1       2.049  -0.352  -1.176  0.00  0.00     0.013 C 
ATOM     10  C3' I4B d   1       1.762  -1.064   1.181  0.00  0.00     0.013 C 
ENDBRANCH   7   8
ENDBRANCH   1   7
TORSDOF 2
ENDMDL
