MODEL 1
REMARK minimizedAffinity -6.02979803
REMARK minimizedRMSD -1
REMARK  2 active torsions:
REMARK  status: ('A' for Active; 'I' for Inactive)
REMARK    1  A    between atoms: C2'_3  and  C1'_4 
REMARK    2  A    between atoms: C1'_4  and  C1_5 
ROOT
ATOM      1  C1  I4B d   1      -0.242  -0.807   1.274  0.00  0.00    -0.075 A 
ATOM      2  C2  I4B d   1      -1.364  -0.031   1.423  0.00  0.00     0.003 A 
ATOM      3  C3  I4B d   1      -1.602   1.055   0.546  0.00  0.00     0.002 A 
ATOM      4  C4  I4B d   1      -0.673   1.357  -0.429  0.00  0.00    -0.004 A 
ATOM      5  C5  I4B d   1       0.453   0.555  -0.593  0.00  0.00     0.002 A 
ATOM      6  C6  I4B d   1       0.664  -0.541   0.256  0.00  0.00     0.003 A 
ENDROOT
BRANCH   1   7
ATOM      7  C1' I4B d   1      -0.006  -1.925   2.239  0.00  0.00     0.060 C 
BRANCH   7   8
ATOM      8  C2' I4B d   1       1.467  -2.279   2.192  0.00  0.00    -0.013 C 
ATOM      9  C4' I4B d   1       2.156  -1.915   3.481  0.00  0.00     0.013 C 
ATOM     10  C3' I4B d   1       1.582  -3.747   1.912  0.00  0.00     0.013 C 
ENDBRANCH   7   8
ENDBRANCH   1   7
TORSDOF 2
ENDMDL
