MODEL 1
REMARK minimizedAffinity -4.98037529
REMARK minimizedRMSD -1
REMARK  0 active torsions:
REMARK  status: ('A' for Active; 'I' for Inactive)
ROOT
ATOM      1  N1  IND d   1       1.480   0.029  -0.713  0.00  0.00    -0.196 N 
ATOM      2  C2  IND d   1       1.130   1.272  -0.264  0.00  0.00     0.054 A 
ATOM      3  C3  IND d   1       0.102   1.185   0.610  0.00  0.00    -0.031 A 
ATOM      4  C4  IND d   1      -1.093  -0.903   1.526  0.00  0.00     0.051 A 
ATOM      5  C5  IND d   1      -1.149  -2.261   1.384  0.00  0.00    -0.031 A 
ATOM      6  C6  IND d   1      -0.313  -2.939   0.520  0.00  0.00     0.015 A 
ATOM      7  C7  IND d   1       0.622  -2.282  -0.229  0.00  0.00    -0.016 A 
ATOM      8  C8  IND d   1       0.677  -0.902  -0.092  0.00  0.00    -0.047 A 
ATOM      9  C9  IND d   1      -0.197  -0.205   0.751  0.00  0.00    -0.096 A 
ATOM     10  HN1 IND d   1       2.097  -0.141  -1.287  0.00  0.00     0.298 HD
ENDROOT
TORSDOF 0
ENDMDL
