MODEL 1
REMARK minimizedAffinity -3.21455073
REMARK minimizedRMSD -1
REMARK  0 active torsions:
REMARK  status: ('A' for Active; 'I' for Inactive)
ROOT
ATOM      1  N1  IND d   1      -0.684   0.542  -1.192  0.00  0.00    -0.196 N 
ATOM      2  C2  IND d   1       0.335   0.364  -2.086  0.00  0.00     0.054 A 
ATOM      3  C3  IND d   1       1.050  -0.739  -1.771  0.00  0.00    -0.031 A 
ATOM      4  C4  IND d   1       0.665  -2.456   0.108  0.00  0.00     0.051 A 
ATOM      5  C5  IND d   1      -0.119  -2.700   1.200  0.00  0.00    -0.031 A 
ATOM      6  C6  IND d   1      -1.154  -1.860   1.557  0.00  0.00     0.015 A 
ATOM      7  C7  IND d   1      -1.452  -0.746   0.825  0.00  0.00    -0.016 A 
ATOM      8  C8  IND d   1      -0.653  -0.492  -0.282  0.00  0.00    -0.047 A 
ATOM      9  C9  IND d   1       0.425  -1.318  -0.624  0.00  0.00    -0.096 A 
ATOM     10  HN1 IND d   1      -1.248   1.190  -1.197  0.00  0.00     0.298 HD
ENDROOT
TORSDOF 0
ENDMDL
