MODEL 1
REMARK minimizedAffinity -2.74286222
REMARK minimizedRMSD -1
REMARK  0 active torsions:
REMARK  status: ('A' for Active; 'I' for Inactive)
ROOT
ATOM      1  N1  IND d   1       1.408   0.441  -0.609  0.00  0.00    -0.196 N 
ATOM      2  C2  IND d   1       0.070   0.213  -0.448  0.00  0.00     0.054 A 
ATOM      3  C3  IND d   1      -0.496   1.215   0.261  0.00  0.00    -0.031 A 
ATOM      4  C4  IND d   1       0.564   3.378   1.169  0.00  0.00     0.051 A 
ATOM      5  C5  IND d   1       1.766   4.014   1.302  0.00  0.00    -0.031 A 
ATOM      6  C6  IND d   1       2.933   3.483   0.793  0.00  0.00     0.015 A 
ATOM      7  C7  IND d   1       2.940   2.295   0.118  0.00  0.00    -0.016 A 
ATOM      8  C8  IND d   1       1.723   1.643  -0.013  0.00  0.00    -0.047 A 
ATOM      9  C9  IND d   1       0.542   2.156   0.539  0.00  0.00    -0.096 A 
ATOM     10  HN1 IND d   1       1.960  -0.079  -1.014  0.00  0.00     0.298 HD
ENDROOT
TORSDOF 0
ENDMDL
