MODEL 1
REMARK minimizedAffinity -1.17983663
REMARK minimizedRMSD -1
REMARK  0 active torsions:
REMARK  status: ('A' for Active; 'I' for Inactive)
ROOT
ATOM      1  N1  IND d   1      -0.799   0.685   0.727  0.00  0.00    -0.196 N 
ATOM      2  C2  IND d   1       0.009   1.538   0.030  0.00  0.00     0.054 A 
ATOM      3  C3  IND d   1       0.939   0.844  -0.663  0.00  0.00    -0.031 A 
ATOM      4  C4  IND d   1       1.255  -1.701  -0.880  0.00  0.00     0.051 A 
ATOM      5  C5  IND d   1       0.783  -2.890  -0.400  0.00  0.00    -0.031 A 
ATOM      6  C6  IND d   1      -0.265  -2.950   0.497  0.00  0.00     0.015 A 
ATOM      7  C7  IND d   1      -0.888  -1.818   0.940  0.00  0.00    -0.016 A 
ATOM      8  C8  IND d   1      -0.406  -0.608   0.460  0.00  0.00    -0.047 A 
ATOM      9  C9  IND d   1       0.684  -0.540  -0.418  0.00  0.00    -0.096 A 
ATOM     10  HN1 IND d   1      -1.445   0.916   1.246  0.00  0.00     0.298 HD
ENDROOT
TORSDOF 0
ENDMDL
