MODEL 1
REMARK minimizedAffinity -4.74709749
REMARK minimizedRMSD -1
REMARK  0 active torsions:
REMARK  status: ('A' for Active; 'I' for Inactive)
ROOT
ATOM      1  N1  IND d   1       0.317   0.276  -1.203  0.00  0.00    -0.196 N 
ATOM      2  C2  IND d   1      -0.111   0.774  -0.004  0.00  0.00     0.054 A 
ATOM      3  C3  IND d   1      -0.488  -0.232   0.816  0.00  0.00    -0.031 A 
ATOM      4  C4  IND d   1      -0.392  -2.776   0.434  0.00  0.00     0.051 A 
ATOM      5  C5  IND d   1      -0.109  -3.712  -0.521  0.00  0.00    -0.031 A 
ATOM      6  C6  IND d   1       0.342  -3.359  -1.777  0.00  0.00     0.015 A 
ATOM      7  C7  IND d   1       0.539  -2.052  -2.122  0.00  0.00    -0.016 A 
ATOM      8  C8  IND d   1       0.246  -1.099  -1.157  0.00  0.00    -0.047 A 
ATOM      9  C9  IND d   1      -0.253  -1.449   0.105  0.00  0.00    -0.096 A 
ATOM     10  HN1 IND d   1       0.585   0.744  -1.873  0.00  0.00     0.298 HD
ENDROOT
TORSDOF 0
ENDMDL
