MODEL 1
REMARK minimizedAffinity -3.63544583
REMARK minimizedRMSD -1
REMARK  0 active torsions:
REMARK  status: ('A' for Active; 'I' for Inactive)
ROOT
ATOM      1  N1  IND d   1      -1.968  -2.943   0.697  0.00  0.00    -0.196 N 
ATOM      2  C2  IND d   1      -0.986  -3.879   0.534  0.00  0.00     0.054 A 
ATOM      3  C3  IND d   1       0.212  -3.279   0.356  0.00  0.00    -0.031 A 
ATOM      4  C4  IND d   1       0.809  -0.775   0.399  0.00  0.00     0.051 A 
ATOM      5  C5  IND d   1       0.243   0.466   0.479  0.00  0.00    -0.031 A 
ATOM      6  C6  IND d   1      -1.117   0.638   0.643  0.00  0.00     0.015 A 
ATOM      7  C7  IND d   1      -1.963  -0.430   0.744  0.00  0.00    -0.016 A 
ATOM      8  C8  IND d   1      -1.392  -1.692   0.655  0.00  0.00    -0.047 A 
ATOM      9  C9  IND d   1      -0.019  -1.872   0.446  0.00  0.00    -0.096 A 
ATOM     10  HN1 IND d   1      -2.805  -3.107   0.808  0.00  0.00     0.298 HD
ENDROOT
TORSDOF 0
ENDMDL
