MODEL 1
REMARK minimizedAffinity -0.0923548564
REMARK minimizedRMSD -1
REMARK  0 active torsions:
REMARK  status: ('A' for Active; 'I' for Inactive)
ROOT
ATOM      1  N1  IND d   1       1.103  -1.116  -2.337  0.00  0.00    -0.196 N 
ATOM      2  C2  IND d   1       1.199  -2.124  -1.418  0.00  0.00     0.054 A 
ATOM      3  C3  IND d   1       1.143  -1.624  -0.164  0.00  0.00    -0.031 A 
ATOM      4  C4  IND d   1       0.794   0.805   0.616  0.00  0.00     0.051 A 
ATOM      5  C5  IND d   1       0.691   2.083   0.144  0.00  0.00    -0.031 A 
ATOM      6  C6  IND d   1       0.718   2.366  -1.207  0.00  0.00     0.015 A 
ATOM      7  C7  IND d   1       0.837   1.375  -2.140  0.00  0.00    -0.016 A 
ATOM      8  C8  IND d   1       0.950   0.077  -1.664  0.00  0.00    -0.047 A 
ATOM      9  C9  IND d   1       0.966  -0.213  -0.293  0.00  0.00    -0.096 A 
ATOM     10  HN1 IND d   1       1.133  -1.210  -3.191  0.00  0.00     0.298 HD
ENDROOT
TORSDOF 0
ENDMDL
