MODEL 1
REMARK minimizedAffinity -6.30620813
REMARK minimizedRMSD -1
REMARK  0 active torsions:
REMARK  status: ('A' for Active; 'I' for Inactive)
ROOT
ATOM      1  N1  IND d   1       0.456   0.430  -0.896  0.00  0.00    -0.196 N 
ATOM      2  C2  IND d   1       0.181   0.861   0.371  0.00  0.00     0.054 A 
ATOM      3  C3  IND d   1      -0.131  -0.186   1.167  0.00  0.00    -0.031 A 
ATOM      4  C4  IND d   1      -0.154  -2.702   0.624  0.00  0.00     0.051 A 
ATOM      5  C5  IND d   1      -0.008  -3.582  -0.412  0.00  0.00    -0.031 A 
ATOM      6  C6  IND d   1       0.309  -3.161  -1.687  0.00  0.00     0.015 A 
ATOM      7  C7  IND d   1       0.504  -1.840  -1.973  0.00  0.00    -0.016 A 
ATOM      8  C8  IND d   1       0.350  -0.943  -0.925  0.00  0.00    -0.047 A 
ATOM      9  C9  IND d   1      -0.014  -1.360   0.361  0.00  0.00    -0.096 A 
ATOM     10  HN1 IND d   1       0.661   0.933  -1.564  0.00  0.00     0.298 HD
ENDROOT
TORSDOF 0
ENDMDL
