MODEL 1
REMARK minimizedAffinity -2.23016858
REMARK minimizedRMSD -1
REMARK  0 active torsions:
REMARK  status: ('A' for Active; 'I' for Inactive)
ROOT
ATOM      1  N1  IND d   1       0.547  -1.076  -2.207  0.00  0.00    -0.196 N 
ATOM      2  C2  IND d   1       0.297  -2.275  -2.814  0.00  0.00     0.054 A 
ATOM      3  C3  IND d   1      -0.371  -3.097  -1.974  0.00  0.00    -0.031 A 
ATOM      4  C4  IND d   1      -1.246  -2.645   0.405  0.00  0.00     0.051 A 
ATOM      5  C5  IND d   1      -1.230  -1.707   1.398  0.00  0.00    -0.031 A 
ATOM      6  C6  IND d   1      -0.611  -0.484   1.237  0.00  0.00     0.015 A 
ATOM      7  C7  IND d   1       0.009  -0.149   0.066  0.00  0.00    -0.016 A 
ATOM      8  C8  IND d   1       0.001  -1.102  -0.943  0.00  0.00    -0.047 A 
ATOM      9  C9  IND d   1      -0.589  -2.361  -0.769  0.00  0.00    -0.096 A 
ATOM     10  HN1 IND d   1       0.974  -0.416  -2.556  0.00  0.00     0.298 HD
ENDROOT
TORSDOF 0
ENDMDL
