MODEL 1
REMARK minimizedAffinity -5.01986885
REMARK minimizedRMSD -1
REMARK  0 active torsions:
REMARK  status: ('A' for Active; 'I' for Inactive)
ROOT
ATOM      1  N1  IND d   1       0.580  -1.463  -2.232  0.00  0.00    -0.196 N 
ATOM      2  C2  IND d   1       0.678  -2.805  -2.472  0.00  0.00     0.054 A 
ATOM      3  C3  IND d   1       0.229  -3.507  -1.406  0.00  0.00    -0.031 A 
ATOM      4  C4  IND d   1      -0.803  -2.657   0.794  0.00  0.00     0.051 A 
ATOM      5  C5  IND d   1      -1.067  -1.509   1.487  0.00  0.00    -0.031 A 
ATOM      6  C6  IND d   1      -0.792  -0.262   0.965  0.00  0.00     0.015 A 
ATOM      7  C7  IND d   1      -0.252  -0.115  -0.281  0.00  0.00    -0.016 A 
ATOM      8  C8  IND d   1       0.025  -1.279  -0.986  0.00  0.00    -0.047 A 
ATOM      9  C9  IND d   1      -0.212  -2.548  -0.443  0.00  0.00    -0.096 A 
ATOM     10  HN1 IND d   1       0.825  -0.839  -2.770  0.00  0.00     0.298 HD
ENDROOT
TORSDOF 0
ENDMDL
