MODEL 1
REMARK minimizedAffinity -5.46906662
REMARK minimizedRMSD -1
REMARK  0 active torsions:
REMARK  status: ('A' for Active; 'I' for Inactive)
ROOT
ATOM      1  N1  IND d   1       0.083   0.702  -0.371  0.00  0.00    -0.196 N 
ATOM      2  C2  IND d   1      -0.983   1.154   0.355  0.00  0.00     0.054 A 
ATOM      3  C3  IND d   1      -1.563   0.133   1.026  0.00  0.00    -0.031 A 
ATOM      4  C4  IND d   1      -0.866  -2.342   1.158  0.00  0.00     0.051 A 
ATOM      5  C5  IND d   1       0.023  -3.240   0.637  0.00  0.00    -0.031 A 
ATOM      6  C6  IND d   1       0.999  -2.862  -0.262  0.00  0.00     0.015 A 
ATOM      7  C7  IND d   1       1.130  -1.563  -0.667  0.00  0.00    -0.016 A 
ATOM      8  C8  IND d   1       0.224  -0.650  -0.146  0.00  0.00    -0.047 A 
ATOM      9  C9  IND d   1      -0.795  -1.036   0.734  0.00  0.00    -0.096 A 
ATOM     10  HN1 IND d   1       0.581   1.181  -0.882  0.00  0.00     0.298 HD
ENDROOT
TORSDOF 0
ENDMDL
