MODEL 1
REMARK minimizedAffinity -5.81646538
REMARK minimizedRMSD -1
REMARK  0 active torsions:
REMARK  status: ('A' for Active; 'I' for Inactive)
ROOT
ATOM      1  N1  IND d   1       0.376   0.318  -0.893  0.00  0.00    -0.196 N 
ATOM      2  C2  IND d   1      -0.057   0.769   0.323  0.00  0.00     0.054 A 
ATOM      3  C3  IND d   1      -0.290  -0.270   1.155  0.00  0.00    -0.031 A 
ATOM      4  C4  IND d   1       0.070  -2.789   0.765  0.00  0.00     0.051 A 
ATOM      5  C5  IND d   1       0.417  -3.691  -0.201  0.00  0.00    -0.031 A 
ATOM      6  C6  IND d   1       0.778  -3.294  -1.473  0.00  0.00     0.015 A 
ATOM      7  C7  IND d   1       0.816  -1.975  -1.823  0.00  0.00    -0.016 A 
ATOM      8  C8  IND d   1       0.458  -1.056  -0.846  0.00  0.00    -0.047 A 
ATOM      9  C9  IND d   1       0.049  -1.455   0.433  0.00  0.00    -0.096 A 
ATOM     10  HN1 IND d   1       0.565   0.810  -1.572  0.00  0.00     0.298 HD
ENDROOT
TORSDOF 0
ENDMDL
