MODEL 1
REMARK minimizedAffinity -2.8476522
REMARK minimizedRMSD -1
REMARK  0 active torsions:
REMARK  status: ('A' for Active; 'I' for Inactive)
ROOT
ATOM      1  N1  IND d   1      -0.207   0.030  -1.507  0.00  0.00    -0.196 N 
ATOM      2  C2  IND d   1       0.233   1.314  -1.341  0.00  0.00     0.054 A 
ATOM      3  C3  IND d   1      -0.008   1.735  -0.079  0.00  0.00    -0.031 A 
ATOM      4  C4  IND d   1      -1.021   0.449   1.908  0.00  0.00     0.051 A 
ATOM      5  C5  IND d   1      -1.607  -0.741   2.235  0.00  0.00    -0.031 A 
ATOM      6  C6  IND d   1      -1.757  -1.757   1.313  0.00  0.00     0.015 A 
ATOM      7  C7  IND d   1      -1.314  -1.624   0.027  0.00  0.00    -0.016 A 
ATOM      8  C8  IND d   1      -0.725  -0.413  -0.310  0.00  0.00    -0.047 A 
ATOM      9  C9  IND d   1      -0.608   0.637   0.610  0.00  0.00    -0.096 A 
ATOM     10  HN1 IND d   1      -0.167  -0.424  -2.236  0.00  0.00     0.298 HD
ENDROOT
TORSDOF 0
ENDMDL
