MODEL 1
REMARK minimizedAffinity -3.05108547
REMARK minimizedRMSD -1
REMARK  0 active torsions:
REMARK  status: ('A' for Active; 'I' for Inactive)
ROOT
ATOM      1  N1  IND d   1      -0.116  -0.158  -0.846  0.00  0.00    -0.196 N 
ATOM      2  C2  IND d   1       0.257   1.122  -0.541  0.00  0.00     0.054 A 
ATOM      3  C3  IND d   1      -0.175   1.457   0.695  0.00  0.00    -0.031 A 
ATOM      4  C4  IND d   1      -1.426   0.027   2.433  0.00  0.00     0.051 A 
ATOM      5  C5  IND d   1      -2.018  -1.193   2.599  0.00  0.00    -0.031 A 
ATOM      6  C6  IND d   1      -2.003  -2.152   1.606  0.00  0.00     0.015 A 
ATOM      7  C7  IND d   1      -1.384  -1.928   0.409  0.00  0.00    -0.016 A 
ATOM      8  C8  IND d   1      -0.788  -0.687   0.234  0.00  0.00    -0.047 A 
ATOM      9  C9  IND d   1      -0.836   0.305   1.222  0.00  0.00    -0.096 A 
ATOM     10  HN1 IND d   1       0.042  -0.564  -1.587  0.00  0.00     0.298 HD
ENDROOT
TORSDOF 0
ENDMDL
