MODEL 1
REMARK minimizedAffinity -3.77106261
REMARK minimizedRMSD -1
REMARK  0 active torsions:
REMARK  status: ('A' for Active; 'I' for Inactive)
ROOT
ATOM      1  C   UNL d   1       0.451  -0.805  -0.742  0.00  0.00     0.172 C 
ATOM      2  N   UNL d   1      -0.138  -0.006   0.306  0.00  0.00    -0.070 N 
ATOM      3  C1  UNL d   1      -1.447  -0.054   0.708  0.00  0.00    -0.004 A 
ATOM      4  C2  UNL d   1      -1.609   0.858   1.728  0.00  0.00    -0.047 A 
ATOM      5  C3  UNL d   1      -0.355   1.476   1.947  0.00  0.00    -0.047 A 
ATOM      6  C4  UNL d   1       0.538   0.923   1.053  0.00  0.00    -0.004 A 
ENDROOT
TORSDOF 0
ENDMDL
