MODEL 1
REMARK minimizedAffinity -2.65502524
REMARK minimizedRMSD -1
REMARK  0 active torsions:
REMARK  status: ('A' for Active; 'I' for Inactive)
ROOT
ATOM      1  C   UNL d   1       1.097  -0.639  -1.469  0.00  0.00     0.172 C 
ATOM      2  N   UNL d   1       0.513  -0.007  -0.309  0.00  0.00    -0.070 N 
ATOM      3  C1  UNL d   1       1.181   0.333   0.836  0.00  0.00    -0.004 A 
ATOM      4  C2  UNL d   1       0.274   0.911   1.698  0.00  0.00    -0.047 A 
ATOM      5  C3  UNL d   1      -0.983   0.918   1.048  0.00  0.00    -0.047 A 
ATOM      6  C4  UNL d   1      -0.807   0.343  -0.193  0.00  0.00    -0.004 A 
ENDROOT
TORSDOF 0
ENDMDL
