MODEL 1
REMARK minimizedAffinity -1.20063508
REMARK minimizedRMSD -1
REMARK  0 active torsions:
REMARK  status: ('A' for Active; 'I' for Inactive)
ROOT
ATOM      1  C   UNL d   1       0.772   1.772   2.253  0.00  0.00     0.172 C 
ATOM      2  N   UNL d   1       0.799   0.852   1.141  0.00  0.00    -0.070 N 
ATOM      3  C1  UNL d   1       0.008   0.925   0.025  0.00  0.00    -0.004 A 
ATOM      4  C2  UNL d   1       0.339  -0.131  -0.796  0.00  0.00    -0.047 A 
ATOM      5  C3  UNL d   1       1.363  -0.865  -0.151  0.00  0.00    -0.047 A 
ATOM      6  C4  UNL d   1       1.629  -0.234   1.046  0.00  0.00    -0.004 A 
ENDROOT
TORSDOF 0
ENDMDL
