MODEL 1
REMARK minimizedAffinity -2.6036551
REMARK minimizedRMSD -1
REMARK  0 active torsions:
REMARK  status: ('A' for Active; 'I' for Inactive)
ROOT
ATOM      1  C   UNL d   1      -1.416  -0.359  -0.593  0.00  0.00     0.172 C 
ATOM      2  N   UNL d   1      -0.576   0.213   0.434  0.00  0.00    -0.070 N 
ATOM      3  C1  UNL d   1       0.784   0.085   0.516  0.00  0.00    -0.004 A 
ATOM      4  C2  UNL d   1       1.207   0.773   1.633  0.00  0.00    -0.047 A 
ATOM      5  C3  UNL d   1       0.060   1.333   2.244  0.00  0.00    -0.047 A 
ATOM      6  C4  UNL d   1      -1.030   0.971   1.481  0.00  0.00    -0.004 A 
ENDROOT
TORSDOF 0
ENDMDL
