MODEL 1
REMARK minimizedAffinity -1.40319097
REMARK minimizedRMSD -1
REMARK  0 active torsions:
REMARK  status: ('A' for Active; 'I' for Inactive)
ROOT
ATOM      1  C   UNL d   1      -1.959  -0.376  -0.307  0.00  0.00     0.172 C 
ATOM      2  N   UNL d   1      -1.403   0.198   0.896  0.00  0.00    -0.070 N 
ATOM      3  C1  UNL d   1      -2.059   0.338   2.090  0.00  0.00    -0.004 A 
ATOM      4  C2  UNL d   1      -1.189   0.926   2.983  0.00  0.00    -0.047 A 
ATOM      5  C3  UNL d   1       0.031   1.147   2.301  0.00  0.00    -0.047 A 
ATOM      6  C4  UNL d   1      -0.129   0.687   1.011  0.00  0.00    -0.004 A 
ENDROOT
TORSDOF 0
ENDMDL
