MODEL 1
REMARK minimizedAffinity -4.13310862
REMARK minimizedRMSD -1
REMARK  0 active torsions:
REMARK  status: ('A' for Active; 'I' for Inactive)
ROOT
ATOM      1  C   UNL d   1       0.512  -0.490  -0.724  0.00  0.00     0.172 C 
ATOM      2  N   UNL d   1      -0.018   0.230   0.410  0.00  0.00    -0.070 N 
ATOM      3  C1  UNL d   1       0.720   0.907   1.343  0.00  0.00    -0.004 A 
ATOM      4  C2  UNL d   1      -0.154   1.456   2.256  0.00  0.00    -0.047 A 
ATOM      5  C3  UNL d   1      -1.463   1.096   1.858  0.00  0.00    -0.047 A 
ATOM      6  C4  UNL d   1      -1.350   0.337   0.713  0.00  0.00    -0.004 A 
ENDROOT
TORSDOF 0
ENDMDL
