MODEL 1
REMARK minimizedAffinity -3.50802612
REMARK minimizedRMSD -1
REMARK  0 active torsions:
REMARK  status: ('A' for Active; 'I' for Inactive)
ROOT
ATOM      1  C   UNL d   1      -1.392   0.622   2.401  0.00  0.00     0.172 C 
ATOM      2  N   UNL d   1      -0.625   0.320   1.216  0.00  0.00    -0.070 N 
ATOM      3  C1  UNL d   1      -1.141  -0.059   0.005  0.00  0.00    -0.004 A 
ATOM      4  C2  UNL d   1      -0.088  -0.253  -0.861  0.00  0.00    -0.047 A 
ATOM      5  C3  UNL d   1       1.104   0.018  -0.147  0.00  0.00    -0.047 A 
ATOM      6  C4  UNL d   1       0.742   0.370   1.136  0.00  0.00    -0.004 A 
ENDROOT
TORSDOF 0
ENDMDL
