MODEL 1
REMARK minimizedAffinity -4.05116177
REMARK minimizedRMSD -1
REMARK  0 active torsions:
REMARK  status: ('A' for Active; 'I' for Inactive)
ROOT
ATOM      1  C   UNL d   1       0.624  -0.221  -0.604  0.00  0.00     0.172 C 
ATOM      2  N   UNL d   1      -0.137   0.308   0.504  0.00  0.00    -0.070 N 
ATOM      3  C1  UNL d   1      -1.497   0.238   0.644  0.00  0.00    -0.004 A 
ATOM      4  C2  UNL d   1      -1.832   0.857   1.829  0.00  0.00    -0.047 A 
ATOM      5  C3  UNL d   1      -0.631   1.315   2.421  0.00  0.00    -0.047 A 
ATOM      6  C4  UNL d   1       0.402   0.962   1.580  0.00  0.00    -0.004 A 
ENDROOT
TORSDOF 0
ENDMDL
