MODEL 1
REMARK minimizedAffinity -1.08504128
REMARK minimizedRMSD -1
REMARK  0 active torsions:
REMARK  status: ('A' for Active; 'I' for Inactive)
ROOT
ATOM      1  C   UNL d   1       1.781  -0.088   1.214  0.00  0.00     0.172 C 
ATOM      2  N   UNL d   1       0.404   0.341   1.295  0.00  0.00    -0.070 N 
ATOM      3  C1  UNL d   1      -0.565   0.093   0.360  0.00  0.00    -0.004 A 
ATOM      4  C2  UNL d   1      -1.737   0.666   0.805  0.00  0.00    -0.047 A 
ATOM      5  C3  UNL d   1      -1.462   1.279   2.051  0.00  0.00    -0.047 A 
ATOM      6  C4  UNL d   1      -0.129   1.062   2.330  0.00  0.00    -0.004 A 
ENDROOT
TORSDOF 0
ENDMDL
