MODEL 1
REMARK minimizedAffinity -3.36576223
REMARK minimizedRMSD -1
REMARK  0 active torsions:
REMARK  status: ('A' for Active; 'I' for Inactive)
ROOT
ATOM      1  C   UNL d   1      -2.964  -1.057  -0.592  0.00  0.00     0.172 C 
ATOM      2  N   UNL d   1      -1.675  -0.780  -0.003  0.00  0.00    -0.070 N 
ATOM      3  C1  UNL d   1      -1.463  -0.138   1.188  0.00  0.00    -0.004 A 
ATOM      4  C2  UNL d   1      -0.102  -0.071   1.395  0.00  0.00    -0.047 A 
ATOM      5  C3  UNL d   1       0.526  -0.693   0.289  0.00  0.00    -0.047 A 
ATOM      6  C4  UNL d   1      -0.471  -1.122  -0.561  0.00  0.00    -0.004 A 
ENDROOT
TORSDOF 0
ENDMDL
