MODEL 1
REMARK minimizedAffinity -3.99435282
REMARK minimizedRMSD -1
REMARK  0 active torsions:
REMARK  status: ('A' for Active; 'I' for Inactive)
ROOT
ATOM      1  C   UNL d   1      -0.013  -0.015  -0.263  0.00  0.00     0.172 C 
ATOM      2  N   UNL d   1       0.033   0.484   1.091  0.00  0.00    -0.070 N 
ATOM      3  C1  UNL d   1       0.937   0.111   2.049  0.00  0.00    -0.004 A 
ATOM      4  C2  UNL d   1       0.647   0.811   3.200  0.00  0.00    -0.047 A 
ATOM      5  C3  UNL d   1      -0.472   1.634   2.924  0.00  0.00    -0.047 A 
ATOM      6  C4  UNL d   1      -0.831   1.411   1.612  0.00  0.00    -0.004 A 
ENDROOT
TORSDOF 0
ENDMDL
