MODEL 1
REMARK minimizedAffinity 3.01595378
REMARK minimizedRMSD -1
REMARK  0 active torsions:
REMARK  status: ('A' for Active; 'I' for Inactive)
ROOT
ATOM      1  C   UNL d   1       1.711   4.900  -1.349  0.00  0.00     0.172 C 
ATOM      2  N   UNL d   1       1.542   3.470  -1.466  0.00  0.00    -0.070 N 
ATOM      3  C1  UNL d   1       2.223   2.525  -0.746  0.00  0.00    -0.004 A 
ATOM      4  C2  UNL d   1       1.775   1.285  -1.150  0.00  0.00    -0.047 A 
ATOM      5  C3  UNL d   1       0.793   1.493  -2.147  0.00  0.00    -0.047 A 
ATOM      6  C4  UNL d   1       0.669   2.855  -2.323  0.00  0.00    -0.004 A 
ENDROOT
TORSDOF 0
ENDMDL
