MODEL 1
REMARK minimizedAffinity -1.63200331
REMARK minimizedRMSD -1
REMARK  0 active torsions:
REMARK  status: ('A' for Active; 'I' for Inactive)
ROOT
ATOM      1  C   UNL d   1       1.676   4.527  -0.826  0.00  0.00     0.172 C 
ATOM      2  N   UNL d   1       1.518   3.134  -1.172  0.00  0.00    -0.070 N 
ATOM      3  C1  UNL d   1       0.749   2.648  -2.196  0.00  0.00    -0.004 A 
ATOM      4  C2  UNL d   1       0.864   1.275  -2.195  0.00  0.00    -0.047 A 
ATOM      5  C3  UNL d   1       1.731   0.923  -1.134  0.00  0.00    -0.047 A 
ATOM      6  C4  UNL d   1       2.121   2.093  -0.517  0.00  0.00    -0.004 A 
ENDROOT
TORSDOF 0
ENDMDL
