MODEL 1
REMARK minimizedAffinity -0.130535722
REMARK minimizedRMSD -1
REMARK  0 active torsions:
REMARK  status: ('A' for Active; 'I' for Inactive)
ROOT
ATOM      1  C   UNL d   1      -2.745   1.856   2.716  0.00  0.00     0.172 C 
ATOM      2  N   UNL d   1      -2.279   1.050   3.820  0.00  0.00    -0.070 N 
ATOM      3  C1  UNL d   1      -1.508  -0.077   3.717  0.00  0.00    -0.004 A 
ATOM      4  C2  UNL d   1      -1.279  -0.550   4.990  0.00  0.00    -0.047 A 
ATOM      5  C3  UNL d   1      -1.936   0.322   5.891  0.00  0.00    -0.047 A 
ATOM      6  C4  UNL d   1      -2.547   1.304   5.140  0.00  0.00    -0.004 A 
ENDROOT
TORSDOF 0
ENDMDL
