MODEL 1
REMARK minimizedAffinity -2.55952382
REMARK minimizedRMSD -1
REMARK  0 active torsions:
REMARK  status: ('A' for Active; 'I' for Inactive)
ROOT
ATOM      1  C   UNL d   1       1.489   0.591  -1.621  0.00  0.00     0.172 C 
ATOM      2  N   UNL d   1       1.405   1.861  -0.938  0.00  0.00    -0.070 N 
ATOM      3  C1  UNL d   1       1.413   2.039   0.420  0.00  0.00    -0.004 A 
ATOM      4  C2  UNL d   1       1.317   3.391   0.669  0.00  0.00    -0.047 A 
ATOM      5  C3  UNL d   1       1.248   4.048  -0.583  0.00  0.00    -0.047 A 
ATOM      6  C4  UNL d   1       1.305   3.077  -1.560  0.00  0.00    -0.004 A 
ENDROOT
TORSDOF 0
ENDMDL
