MODEL 1
REMARK minimizedAffinity -2.50623131
REMARK minimizedRMSD -1
REMARK  0 active torsions:
REMARK  status: ('A' for Active; 'I' for Inactive)
ROOT
ATOM      1  C   UNL d   1       1.244   2.228   1.692  0.00  0.00     0.172 C 
ATOM      2  N   UNL d   1       1.289   2.506   0.275  0.00  0.00    -0.070 N 
ATOM      3  C1  UNL d   1       1.219   1.572  -0.724  0.00  0.00    -0.004 A 
ATOM      4  C2  UNL d   1       1.295   2.236  -1.929  0.00  0.00    -0.047 A 
ATOM      5  C3  UNL d   1       1.417   3.617  -1.644  0.00  0.00    -0.047 A 
ATOM      6  C4  UNL d   1       1.411   3.756  -0.272  0.00  0.00    -0.004 A 
ENDROOT
TORSDOF 0
ENDMDL
