MODEL 1
REMARK minimizedAffinity 0.298133343
REMARK minimizedRMSD -1
REMARK  0 active torsions:
REMARK  status: ('A' for Active; 'I' for Inactive)
ROOT
ATOM      1  C   UNL d   1       1.615   4.992  -0.355  0.00  0.00     0.172 C 
ATOM      2  N   UNL d   1       1.384   3.775  -1.097  0.00  0.00    -0.070 N 
ATOM      3  C1  UNL d   1       2.248   2.716  -1.182  0.00  0.00    -0.004 A 
ATOM      4  C2  UNL d   1       1.662   1.756  -1.979  0.00  0.00    -0.047 A 
ATOM      5  C3  UNL d   1       0.404   2.256  -2.388  0.00  0.00    -0.047 A 
ATOM      6  C4  UNL d   1       0.257   3.508  -1.828  0.00  0.00    -0.004 A 
ENDROOT
TORSDOF 0
ENDMDL
