MODEL 1
REMARK minimizedAffinity -0.57361263
REMARK minimizedRMSD -1
REMARK  0 active torsions:
REMARK  status: ('A' for Active; 'I' for Inactive)
ROOT
ATOM      1  C   UNL d   1       0.923   1.425   1.415  0.00  0.00     0.172 C 
ATOM      2  N   UNL d   1       1.164   0.974   0.065  0.00  0.00    -0.070 N 
ATOM      3  C1  UNL d   1       1.115  -0.326  -0.363  0.00  0.00    -0.004 A 
ATOM      4  C2  UNL d   1       1.402  -0.337  -1.711  0.00  0.00    -0.047 A 
ATOM      5  C3  UNL d   1       1.632   1.002  -2.107  0.00  0.00    -0.047 A 
ATOM      6  C4  UNL d   1       1.478   1.793  -0.988  0.00  0.00    -0.004 A 
ENDROOT
TORSDOF 0
ENDMDL
