MODEL 1
REMARK minimizedAffinity -2.51343393
REMARK minimizedRMSD -1
REMARK  0 active torsions:
REMARK  status: ('A' for Active; 'I' for Inactive)
ROOT
ATOM      1  C   UNL d   1       1.193  -0.738  -0.756  0.00  0.00     0.172 C 
ATOM      2  N   UNL d   1       1.227   0.705  -0.774  0.00  0.00    -0.070 N 
ATOM      3  C1  UNL d   1       0.841   1.526   0.252  0.00  0.00    -0.004 A 
ATOM      4  C2  UNL d   1       1.026   2.829  -0.157  0.00  0.00    -0.047 A 
ATOM      5  C3  UNL d   1       1.539   2.790  -1.475  0.00  0.00    -0.047 A 
ATOM      6  C4  UNL d   1       1.653   1.463  -1.833  0.00  0.00    -0.004 A 
ENDROOT
TORSDOF 0
ENDMDL
