MODEL 1
REMARK minimizedAffinity -4.24464464
REMARK minimizedRMSD -1
REMARK  0 active torsions:
REMARK  status: ('A' for Active; 'I' for Inactive)
ROOT
ATOM      1  C   UNL d   1       1.151   3.928  -0.084  0.00  0.00     0.172 C 
ATOM      2  N   UNL d   1       1.188   2.518  -0.395  0.00  0.00    -0.070 N 
ATOM      3  C1  UNL d   1       1.062   1.497   0.510  0.00  0.00    -0.004 A 
ATOM      4  C2  UNL d   1       1.150   0.308  -0.181  0.00  0.00    -0.047 A 
ATOM      5  C3  UNL d   1       1.337   0.625  -1.547  0.00  0.00    -0.047 A 
ATOM      6  C4  UNL d   1       1.356   1.999  -1.651  0.00  0.00    -0.004 A 
ENDROOT
TORSDOF 0
ENDMDL
