MODEL 1
REMARK minimizedAffinity -3.25423789
REMARK minimizedRMSD -1
REMARK  0 active torsions:
REMARK  status: ('A' for Active; 'I' for Inactive)
ROOT
ATOM      1  C   UNL d   1       1.901   5.905  -0.712  0.00  0.00     0.172 C 
ATOM      2  N   UNL d   1       1.626   4.495  -0.561  0.00  0.00    -0.070 N 
ATOM      3  C1  UNL d   1       1.596   3.574  -1.574  0.00  0.00    -0.004 A 
ATOM      4  C2  UNL d   1       1.300   2.347  -1.020  0.00  0.00    -0.047 A 
ATOM      5  C3  UNL d   1       1.146   2.538   0.374  0.00  0.00    -0.047 A 
ATOM      6  C4  UNL d   1       1.353   3.877   0.631  0.00  0.00    -0.004 A 
ENDROOT
TORSDOF 0
ENDMDL
