MODEL 1
REMARK minimizedAffinity -0.486814111
REMARK minimizedRMSD -1
REMARK  0 active torsions:
REMARK  status: ('A' for Active; 'I' for Inactive)
ROOT
ATOM      1  C   UNL d   1      -3.745   2.759   3.734  0.00  0.00     0.172 C 
ATOM      2  N   UNL d   1      -4.445   1.507   3.566  0.00  0.00    -0.070 N 
ATOM      3  C1  UNL d   1      -5.687   1.214   4.061  0.00  0.00    -0.004 A 
ATOM      4  C2  UNL d   1      -5.998  -0.075   3.685  0.00  0.00    -0.047 A 
ATOM      5  C3  UNL d   1      -4.904  -0.574   2.939  0.00  0.00    -0.047 A 
ATOM      6  C4  UNL d   1      -3.957   0.426   2.880  0.00  0.00    -0.004 A 
ENDROOT
TORSDOF 0
ENDMDL
