MODEL 1
REMARK minimizedAffinity -3.49839258
REMARK minimizedRMSD -1
REMARK  0 active torsions:
REMARK  status: ('A' for Active; 'I' for Inactive)
ROOT
ATOM      1  C   UNL d   1       1.696   4.416  -0.940  0.00  0.00     0.172 C 
ATOM      2  N   UNL d   1       1.308   3.030  -0.828  0.00  0.00    -0.070 N 
ATOM      3  C1  UNL d   1       1.191   2.147  -1.868  0.00  0.00    -0.004 A 
ATOM      4  C2  UNL d   1       0.803   0.931  -1.348  0.00  0.00    -0.047 A 
ATOM      5  C3  UNL d   1       0.681   1.089   0.053  0.00  0.00    -0.047 A 
ATOM      6  C4  UNL d   1       1.000   2.398   0.348  0.00  0.00    -0.004 A 
ENDROOT
TORSDOF 0
ENDMDL
