MODEL 1
REMARK minimizedAffinity -1.39735973
REMARK minimizedRMSD -1
REMARK  0 active torsions:
REMARK  status: ('A' for Active; 'I' for Inactive)
ROOT
ATOM      1  C   UNL d   1       1.605   5.186  -1.050  0.00  0.00     0.172 C 
ATOM      2  N   UNL d   1       1.518   3.745  -1.043  0.00  0.00    -0.070 N 
ATOM      3  C1  UNL d   1       1.351   2.949  -2.145  0.00  0.00    -0.004 A 
ATOM      4  C2  UNL d   1       1.317   1.639  -1.718  0.00  0.00    -0.047 A 
ATOM      5  C3  UNL d   1       1.468   1.648  -0.311  0.00  0.00    -0.047 A 
ATOM      6  C4  UNL d   1       1.590   2.964   0.081  0.00  0.00    -0.004 A 
ENDROOT
TORSDOF 0
ENDMDL
