MODEL 1
REMARK minimizedAffinity -2.46961689
REMARK minimizedRMSD -1
REMARK  0 active torsions:
REMARK  status: ('A' for Active; 'I' for Inactive)
ROOT
ATOM      1  C   UNL d   1       1.719   4.543  -1.081  0.00  0.00     0.172 C 
ATOM      2  N   UNL d   1       1.410   3.241  -0.537  0.00  0.00    -0.070 N 
ATOM      3  C1  UNL d   1       1.342   2.927   0.794  0.00  0.00    -0.004 A 
ATOM      4  C2  UNL d   1       1.021   1.591   0.897  0.00  0.00    -0.047 A 
ATOM      5  C3  UNL d   1       0.893   1.083  -0.418  0.00  0.00    -0.047 A 
ATOM      6  C4  UNL d   1       1.139   2.126  -1.286  0.00  0.00    -0.004 A 
ENDROOT
TORSDOF 0
ENDMDL
