MODEL 1
REMARK minimizedAffinity -3.16945672
REMARK minimizedRMSD -1
REMARK  0 active torsions:
REMARK  status: ('A' for Active; 'I' for Inactive)
ROOT
ATOM      1  C   UNL d   1       1.645   4.330  -1.031  0.00  0.00     0.172 C 
ATOM      2  N   UNL d   1       1.423   2.921  -0.805  0.00  0.00    -0.070 N 
ATOM      3  C1  UNL d   1       1.327   1.963  -1.778  0.00  0.00    -0.004 A 
ATOM      4  C2  UNL d   1       1.114   0.751  -1.157  0.00  0.00    -0.047 A 
ATOM      5  C3  UNL d   1       1.081   0.990   0.237  0.00  0.00    -0.047 A 
ATOM      6  C4  UNL d   1       1.274   2.342   0.427  0.00  0.00    -0.004 A 
ENDROOT
TORSDOF 0
ENDMDL
