MODEL 1
REMARK minimizedAffinity 0.167328581
REMARK minimizedRMSD -1
REMARK  0 active torsions:
REMARK  status: ('A' for Active; 'I' for Inactive)
ROOT
ATOM      1  C   UNL d   1       1.696   2.722  -1.559  0.00  0.00     0.172 C 
ATOM      2  N   UNL d   1       1.492   1.340  -1.193  0.00  0.00    -0.070 N 
ATOM      3  C1  UNL d   1       2.082   0.698  -0.138  0.00  0.00    -0.004 A 
ATOM      4  C2  UNL d   1       1.630  -0.604  -0.129  0.00  0.00    -0.047 A 
ATOM      5  C3  UNL d   1       0.738  -0.750  -1.217  0.00  0.00    -0.047 A 
ATOM      6  C4  UNL d   1       0.671   0.469  -1.859  0.00  0.00    -0.004 A 
ENDROOT
TORSDOF 0
ENDMDL
