MODEL 1
REMARK minimizedAffinity -2.63516736
REMARK minimizedRMSD -1
REMARK  0 active torsions:
REMARK  status: ('A' for Active; 'I' for Inactive)
ROOT
ATOM      1  C   UNL d   1      -1.535   1.903   6.000  0.00  0.00     0.172 C 
ATOM      2  N   UNL d   1      -2.206   1.941   4.721  0.00  0.00    -0.070 N 
ATOM      3  C1  UNL d   1      -1.596   2.086   3.504  0.00  0.00    -0.004 A 
ATOM      4  C2  UNL d   1      -2.577   2.073   2.536  0.00  0.00    -0.047 A 
ATOM      5  C3  UNL d   1      -3.819   1.914   3.195  0.00  0.00    -0.047 A 
ATOM      6  C4  UNL d   1      -3.561   1.835   4.547  0.00  0.00    -0.004 A 
ENDROOT
TORSDOF 0
ENDMDL
