MODEL 1
REMARK minimizedAffinity -0.507480741
REMARK minimizedRMSD -1
REMARK  0 active torsions:
REMARK  status: ('A' for Active; 'I' for Inactive)
ROOT
ATOM      1  C   UNL d   1       1.740   4.118  -1.264  0.00  0.00     0.172 C 
ATOM      2  N   UNL d   1       1.360   2.730  -1.151  0.00  0.00    -0.070 N 
ATOM      3  C1  UNL d   1       0.919   1.937  -2.176  0.00  0.00    -0.004 A 
ATOM      4  C2  UNL d   1       0.661   0.685  -1.661  0.00  0.00    -0.047 A 
ATOM      5  C3  UNL d   1       0.957   0.727  -0.278  0.00  0.00    -0.047 A 
ATOM      6  C4  UNL d   1       1.387   2.005   0.011  0.00  0.00    -0.004 A 
ENDROOT
TORSDOF 0
ENDMDL
