MODEL 1
REMARK minimizedAffinity -3.26179934
REMARK minimizedRMSD -1
REMARK  0 active torsions:
REMARK  status: ('A' for Active; 'I' for Inactive)
ROOT
ATOM      1  C1  BNZ d   1      -2.404   0.304   2.168  0.00  0.00     0.000 A 
ATOM      2  C2  BNZ d   1      -2.454  -0.288   0.934  0.00  0.00     0.000 A 
ATOM      3  C3  BNZ d   1      -1.374  -0.254   0.097  0.00  0.00     0.000 A 
ATOM      4  C4  BNZ d   1      -0.261   0.406   0.478  0.00  0.00     0.000 A 
ATOM      5  C5  BNZ d   1      -0.199   1.016   1.715  0.00  0.00     0.000 A 
ATOM      6  C6  BNZ d   1      -1.274   0.946   2.570  0.00  0.00     0.000 A 
ENDROOT
TORSDOF 0
ENDMDL
