MODEL 1
REMARK minimizedAffinity -4.65789557
REMARK minimizedRMSD -1
REMARK  0 active torsions:
REMARK  status: ('A' for Active; 'I' for Inactive)
ROOT
ATOM      1  C1  BNZ d   1      -0.064   1.291   1.057  0.00  0.00     0.000 A 
ATOM      2  C2  BNZ d   1      -0.867   0.257   0.656  0.00  0.00     0.000 A 
ATOM      3  C3  BNZ d   1      -1.819  -0.256   1.493  0.00  0.00     0.000 A 
ATOM      4  C4  BNZ d   1      -1.940   0.239   2.741  0.00  0.00     0.000 A 
ATOM      5  C5  BNZ d   1      -1.132   1.276   3.164  0.00  0.00     0.000 A 
ATOM      6  C6  BNZ d   1      -0.201   1.815   2.306  0.00  0.00     0.000 A 
ENDROOT
TORSDOF 0
ENDMDL
