MODEL 1
REMARK minimizedAffinity -1.11620975
REMARK minimizedRMSD -1
REMARK  0 active torsions:
REMARK  status: ('A' for Active; 'I' for Inactive)
ROOT
ATOM      1  C1  BNZ d   1      -0.119  -0.012   0.090  0.00  0.00     0.000 A 
ATOM      2  C2  BNZ d   1      -0.447   1.166   0.707  0.00  0.00     0.000 A 
ATOM      3  C3  BNZ d   1       0.393   1.733   1.625  0.00  0.00     0.000 A 
ATOM      4  C4  BNZ d   1       1.538   1.102   1.954  0.00  0.00     0.000 A 
ATOM      5  C5  BNZ d   1       1.879  -0.091   1.348  0.00  0.00     0.000 A 
ATOM      6  C6  BNZ d   1       1.050  -0.638   0.396  0.00  0.00     0.000 A 
ENDROOT
TORSDOF 0
ENDMDL
