MODEL 1
REMARK minimizedAffinity -2.17265439
REMARK minimizedRMSD -1
REMARK  0 active torsions:
REMARK  status: ('A' for Active; 'I' for Inactive)
ROOT
ATOM      1  C1  BNZ d   1       0.158  -0.795  -0.085  0.00  0.00     0.000 A 
ATOM      2  C2  BNZ d   1       0.634  -0.721   1.197  0.00  0.00     0.000 A 
ATOM      3  C3  BNZ d   1       0.775   0.486   1.823  0.00  0.00     0.000 A 
ATOM      4  C4  BNZ d   1       0.478   1.618   1.154  0.00  0.00     0.000 A 
ATOM      5  C5  BNZ d   1       0.006   1.562  -0.142  0.00  0.00     0.000 A 
ATOM      6  C6  BNZ d   1      -0.171   0.343  -0.756  0.00  0.00     0.000 A 
ENDROOT
TORSDOF 0
ENDMDL
