MODEL 1
REMARK minimizedAffinity -0.172362998
REMARK minimizedRMSD -1
REMARK  1 active torsions:
REMARK  status: ('A' for Active; 'I' for Inactive)
REMARK    1  A    between atoms: C1_2  and  C2_3 
ROOT
ATOM      1  C2  UNL d   1      -0.460   0.855   2.321  0.00  0.00    -0.073 A 
ATOM      2  C3  UNL d   1      -0.184   2.097   2.903  0.00  0.00    -0.002 A 
ATOM      3  C4  UNL d   1       1.125   2.443   3.240  0.00  0.00     0.004 A 
ATOM      4  C5  UNL d   1       2.171   1.554   2.993  0.00  0.00    -0.004 A 
ATOM      5  C6  UNL d   1       1.917   0.312   2.402  0.00  0.00    -0.075 A 
ATOM      6  C7  UNL d   1       3.031  -0.657   2.132  0.00  0.00     0.076 C 
ATOM      7  C8  UNL d   1       0.599  -0.029   2.068  0.00  0.00     0.001 A 
ENDROOT
BRANCH   1   8
ATOM      8  C1  UNL d   1      -1.872   0.480   1.949  0.00  0.00     0.053 C 
ATOM      9  C   UNL d   1      -2.294  -0.840   2.573  0.00  0.00     0.018 C 
ENDBRANCH   1   8
TORSDOF 1
ENDMDL
