MODEL 1
REMARK minimizedAffinity 9.59456062
REMARK minimizedRMSD -1
REMARK  1 active torsions:
REMARK  status: ('A' for Active; 'I' for Inactive)
REMARK    1  A    between atoms: C1_2  and  C2_3 
ROOT
ATOM      1  C2  UNL d   1       0.956  -0.076   0.370  0.00  0.00    -0.073 A 
ATOM      2  C3  UNL d   1       1.897  -0.491   1.320  0.00  0.00    -0.002 A 
ATOM      3  C4  UNL d   1       1.579  -0.478   2.678  0.00  0.00     0.004 A 
ATOM      4  C5  UNL d   1       0.317  -0.058   3.100  0.00  0.00    -0.004 A 
ATOM      5  C6  UNL d   1      -0.640   0.349   2.165  0.00  0.00    -0.075 A 
ATOM      6  C7  UNL d   1      -2.000   0.806   2.603  0.00  0.00     0.076 C 
ATOM      7  C8  UNL d   1      -0.312   0.336   0.803  0.00  0.00     0.001 A 
ENDROOT
BRANCH   1   8
ATOM      8  C1  UNL d   1       1.293  -0.094  -1.099  0.00  0.00     0.053 C 
ATOM      9  C   UNL d   1       1.973   1.191  -1.544  0.00  0.00     0.018 C 
ENDBRANCH   1   8
TORSDOF 1
ENDMDL
