MODEL 1
REMARK minimizedAffinity 9.00701714
REMARK minimizedRMSD -1
REMARK  1 active torsions:
REMARK  status: ('A' for Active; 'I' for Inactive)
REMARK    1  A    between atoms: C1_2  and  C2_3 
ROOT
ATOM      1  C2  UNL d   1      -0.564   2.324   1.864  0.00  0.00    -0.073 A 
ATOM      2  C3  UNL d   1      -1.711   1.817   2.484  0.00  0.00    -0.002 A 
ATOM      3  C4  UNL d   1      -1.675   0.579   3.128  0.00  0.00     0.004 A 
ATOM      4  C5  UNL d   1      -0.492  -0.160   3.163  0.00  0.00    -0.004 A 
ATOM      5  C6  UNL d   1       0.667   0.336   2.558  0.00  0.00    -0.075 A 
ATOM      6  C7  UNL d   1       1.947  -0.448   2.585  0.00  0.00     0.076 C 
ATOM      7  C8  UNL d   1       0.623   1.578   1.912  0.00  0.00     0.001 A 
ENDROOT
BRANCH   1   8
ATOM      8  C1  UNL d   1      -0.596   3.663   1.173  0.00  0.00     0.053 C 
ATOM      9  C   UNL d   1       0.448   3.763   0.073  0.00  0.00     0.018 C 
ENDBRANCH   1   8
TORSDOF 1
ENDMDL
