MODEL 1
REMARK minimizedAffinity 0.484387368
REMARK minimizedRMSD -1
REMARK  1 active torsions:
REMARK  status: ('A' for Active; 'I' for Inactive)
REMARK    1  A    between atoms: C1_2  and  C2_3 
ROOT
ATOM      1  C2  UNL d   1      -5.651   3.241  -0.902  0.00  0.00    -0.073 A 
ATOM      2  C3  UNL d   1      -5.733   4.099  -2.005  0.00  0.00    -0.002 A 
ATOM      3  C4  UNL d   1      -5.907   5.471  -1.819  0.00  0.00     0.004 A 
ATOM      4  C5  UNL d   1      -5.995   5.999  -0.531  0.00  0.00    -0.004 A 
ATOM      5  C6  UNL d   1      -5.904   5.159   0.584  0.00  0.00    -0.075 A 
ATOM      6  C7  UNL d   1      -5.998   5.712   1.976  0.00  0.00     0.076 C 
ATOM      7  C8  UNL d   1      -5.731   3.782   0.389  0.00  0.00     0.001 A 
ENDROOT
BRANCH   1   8
ATOM      8  C1  UNL d   1      -5.455   1.759  -1.098  0.00  0.00     0.053 C 
ATOM      9  C   UNL d   1      -4.066   1.307  -0.676  0.00  0.00     0.018 C 
ENDBRANCH   1   8
TORSDOF 1
ENDMDL
