MODEL 1
REMARK minimizedAffinity 3.40062213
REMARK minimizedRMSD -1
REMARK  1 active torsions:
REMARK  status: ('A' for Active; 'I' for Inactive)
REMARK    1  A    between atoms: C1_2  and  C2_3 
ROOT
ATOM      1  C2  UNL d   1       0.501   0.029   2.464  0.00  0.00    -0.073 A 
ATOM      2  C3  UNL d   1      -0.161  -0.622   3.512  0.00  0.00    -0.002 A 
ATOM      3  C4  UNL d   1      -1.554  -0.603   3.586  0.00  0.00     0.004 A 
ATOM      4  C5  UNL d   1      -2.300   0.061   2.611  0.00  0.00    -0.004 A 
ATOM      5  C6  UNL d   1      -1.657   0.707   1.550  0.00  0.00    -0.075 A 
ATOM      6  C7  UNL d   1      -2.445   1.427   0.495  0.00  0.00     0.076 C 
ATOM      7  C8  UNL d   1      -0.258   0.685   1.484  0.00  0.00     0.001 A 
ENDROOT
BRANCH   1   8
ATOM      8  C1  UNL d   1       2.005   0.005   2.376  0.00  0.00     0.053 C 
ATOM      9  C   UNL d   1       2.493  -0.757   1.154  0.00  0.00     0.018 C 
ENDBRANCH   1   8
TORSDOF 1
ENDMDL
