MODEL 1
REMARK minimizedAffinity 6.68769884
REMARK minimizedRMSD -1
REMARK  1 active torsions:
REMARK  status: ('A' for Active; 'I' for Inactive)
REMARK    1  A    between atoms: C1_2  and  C2_3 
ROOT
ATOM      1  C2  UNL d   1      -0.754   1.362   3.010  0.00  0.00    -0.073 A 
ATOM      2  C3  UNL d   1      -1.987   0.703   2.948  0.00  0.00    -0.002 A 
ATOM      3  C4  UNL d   1      -2.143  -0.427   2.145  0.00  0.00     0.004 A 
ATOM      4  C5  UNL d   1      -1.068  -0.915   1.402  0.00  0.00    -0.004 A 
ATOM      5  C6  UNL d   1       0.176  -0.277   1.460  0.00  0.00    -0.075 A 
ATOM      6  C7  UNL d   1       1.342  -0.787   0.666  0.00  0.00     0.076 C 
ATOM      7  C8  UNL d   1       0.324   0.859   2.267  0.00  0.00     0.001 A 
ENDROOT
BRANCH   1   8
ATOM      8  C1  UNL d   1      -0.579   2.580   3.880  0.00  0.00     0.053 C 
ATOM      9  C   UNL d   1       0.315   2.301   5.078  0.00  0.00     0.018 C 
ENDBRANCH   1   8
TORSDOF 1
ENDMDL
