MODEL 1
REMARK minimizedAffinity 2.85547686
REMARK minimizedRMSD -1
REMARK  1 active torsions:
REMARK  status: ('A' for Active; 'I' for Inactive)
REMARK    1  A    between atoms: C1_2  and  C2_3 
ROOT
ATOM      1  C2  UNL d   1       1.001   0.380   2.630  0.00  0.00    -0.073 A 
ATOM      2  C3  UNL d   1       2.044  -0.213   3.350  0.00  0.00    -0.002 A 
ATOM      3  C4  UNL d   1       3.183  -0.674   2.690  0.00  0.00     0.004 A 
ATOM      4  C5  UNL d   1       3.294  -0.542   1.306  0.00  0.00    -0.004 A 
ATOM      5  C6  UNL d   1       2.268   0.058   0.570  0.00  0.00    -0.075 A 
ATOM      6  C7  UNL d   1       2.371   0.207  -0.920  0.00  0.00     0.076 C 
ATOM      7  C8  UNL d   1       1.125   0.517   1.240  0.00  0.00     0.001 A 
ENDROOT
BRANCH   1   8
ATOM      8  C1  UNL d   1      -0.229   0.885   3.339  0.00  0.00     0.053 C 
ATOM      9  C   UNL d   1      -1.287   1.378   2.365  0.00  0.00     0.018 C 
ENDBRANCH   1   8
TORSDOF 1
ENDMDL
