MODEL 1
REMARK minimizedAffinity 7.95038319
REMARK minimizedRMSD -1
REMARK  0 active torsions:
REMARK  status: ('A' for Active; 'I' for Inactive)
ROOT
ATOM      1  C   UNL d   1      -4.695  -0.825   0.405  0.00  0.00     0.023 A 
ATOM      2  C1  UNL d   1      -4.678  -1.940   1.244  0.00  0.00     0.003 A 
ATOM      3  C2  UNL d   1      -3.818  -1.975   2.344  0.00  0.00     0.048 A 
ATOM      4  C3  UNL d   1      -2.979  -0.891   2.599  0.00  0.00     0.023 A 
ATOM      5  C4  UNL d   1      -2.993   0.227   1.763  0.00  0.00     0.048 A 
ATOM      6  C5  UNL d   1      -3.854   0.257   0.665  0.00  0.00     0.003 A 
ATOM      7  I   UNL d   1      -1.698  -0.940   4.236  0.00  0.00    -0.146 I 
ENDROOT
TORSDOF 0
ENDMDL
