MODEL 1
REMARK minimizedAffinity 11.8674994
REMARK minimizedRMSD -1
REMARK  0 active torsions:
REMARK  status: ('A' for Active; 'I' for Inactive)
ROOT
ATOM      1  C   UNL d   1      -0.191  -5.999   0.456  0.00  0.00     0.023 A 
ATOM      2  C1  UNL d   1       0.535  -5.998  -0.736  0.00  0.00     0.003 A 
ATOM      3  C2  UNL d   1       0.188  -5.120  -1.765  0.00  0.00     0.048 A 
ATOM      4  C3  UNL d   1      -0.885  -4.247  -1.596  0.00  0.00     0.023 A 
ATOM      5  C4  UNL d   1      -1.614  -4.244  -0.406  0.00  0.00     0.048 A 
ATOM      6  C5  UNL d   1      -1.264  -5.123   0.620  0.00  0.00     0.003 A 
ATOM      7  I   UNL d   1      -1.404  -2.940  -3.127  0.00  0.00    -0.146 I 
ENDROOT
TORSDOF 0
ENDMDL
