MODEL 1
REMARK minimizedAffinity -0.794405937
REMARK minimizedRMSD -1
REMARK  0 active torsions:
REMARK  status: ('A' for Active; 'I' for Inactive)
ROOT
ATOM      1  C   UNL d   1      -4.388  -1.265  -0.101  0.00  0.00     0.023 A 
ATOM      2  C1  UNL d   1      -5.184  -1.012   1.016  0.00  0.00     0.003 A 
ATOM      3  C2  UNL d   1      -4.593  -0.638   2.225  0.00  0.00     0.048 A 
ATOM      4  C3  UNL d   1      -3.206  -0.519   2.309  0.00  0.00     0.023 A 
ATOM      5  C4  UNL d   1      -2.406  -0.771   1.194  0.00  0.00     0.048 A 
ATOM      6  C5  UNL d   1      -3.001  -1.145  -0.013  0.00  0.00     0.003 A 
ATOM      7  I   UNL d   1      -2.325   0.038   4.107  0.00  0.00    -0.146 I 
ENDROOT
TORSDOF 0
ENDMDL
