MODEL 1
REMARK minimizedAffinity 8.91341019
REMARK minimizedRMSD -1
REMARK  0 active torsions:
REMARK  status: ('A' for Active; 'I' for Inactive)
ROOT
ATOM      1  C   UNL d   1      -5.340  -0.047   0.749  0.00  0.00     0.023 A 
ATOM      2  C1  UNL d   1      -4.338  -0.162   1.713  0.00  0.00     0.003 A 
ATOM      3  C2  UNL d   1      -3.472  -1.258   1.694  0.00  0.00     0.048 A 
ATOM      4  C3  UNL d   1      -3.613  -2.233   0.708  0.00  0.00     0.023 A 
ATOM      5  C4  UNL d   1      -4.613  -2.122  -0.259  0.00  0.00     0.048 A 
ATOM      6  C5  UNL d   1      -5.477  -1.025  -0.235  0.00  0.00     0.003 A 
ATOM      7  I   UNL d   1      -2.325  -3.864   0.677  0.00  0.00    -0.146 I 
ENDROOT
TORSDOF 0
ENDMDL
