MODEL 1
REMARK minimizedAffinity 9.41973495
REMARK minimizedRMSD -1
REMARK  0 active torsions:
REMARK  status: ('A' for Active; 'I' for Inactive)
ROOT
ATOM      1  C   UNL d   1       1.416  -1.418   4.436  0.00  0.00     0.023 A 
ATOM      2  C1  UNL d   1       0.601  -1.218   5.550  0.00  0.00     0.003 A 
ATOM      3  C2  UNL d   1      -0.233  -2.244   6.000  0.00  0.00     0.048 A 
ATOM      4  C3  UNL d   1      -0.245  -3.468   5.332  0.00  0.00     0.023 A 
ATOM      5  C4  UNL d   1       0.570  -3.673   4.217  0.00  0.00     0.048 A 
ATOM      6  C5  UNL d   1       1.401  -2.644   3.771  0.00  0.00     0.003 A 
ATOM      7  I   UNL d   1      -1.485  -4.997   5.999  0.00  0.00    -0.146 I 
ENDROOT
TORSDOF 0
ENDMDL
