MODEL 1
REMARK minimizedAffinity 9.2460413
REMARK minimizedRMSD -1
REMARK  0 active torsions:
REMARK  status: ('A' for Active; 'I' for Inactive)
ROOT
ATOM      1  C   UNL d   1       0.395  -1.160  -0.246  0.00  0.00     0.023 A 
ATOM      2  C1  UNL d   1       1.662  -1.658  -0.553  0.00  0.00     0.003 A 
ATOM      3  C2  UNL d   1       2.776  -0.817  -0.500  0.00  0.00     0.048 A 
ATOM      4  C3  UNL d   1       2.616   0.520  -0.140  0.00  0.00     0.023 A 
ATOM      5  C4  UNL d   1       1.350   1.023   0.168  0.00  0.00     0.048 A 
ATOM      6  C5  UNL d   1       0.240   0.179   0.114  0.00  0.00     0.003 A 
ATOM      7  I   UNL d   1       4.271   1.774  -0.061  0.00  0.00    -0.146 I 
ENDROOT
TORSDOF 0
ENDMDL
