MODEL 1
REMARK minimizedAffinity 0.0955262482
REMARK minimizedRMSD -1
REMARK  1 active torsions:
REMARK  status: ('A' for Active; 'I' for Inactive)
REMARK    1  A    between atoms: N_2  and  C1_3 
ROOT
ATOM      1  C1  UNL d   1      -2.442   3.943   1.252  0.00  0.00     0.143 A 
ATOM      2  C2  UNL d   1      -1.058   4.101   1.116  0.00  0.00    -0.057 A 
ATOM      3  C3  UNL d   1      -0.338   3.392   0.146  0.00  0.00     0.033 A 
ATOM      4  C4  UNL d   1      -0.988   2.489  -0.689  0.00  0.00    -0.042 A 
ATOM      5  C5  UNL d   1      -2.358   2.297  -0.555  0.00  0.00     0.033 A 
ATOM      6  C6  UNL d   1      -3.073   3.012   0.411  0.00  0.00    -0.057 A 
ENDROOT
BRANCH   1   7
ATOM      7  N   UNL d   1      -3.198   4.544   2.261  0.00  0.00    -0.732 N 
ATOM      8  C   UNL d   1      -4.355   5.349   1.934  0.00  0.00     0.284 C 
ATOM      9  H3  UNL d   1      -3.329   3.933   3.064  0.00  0.00     0.395 HD
ENDBRANCH   1   7
TORSDOF 1
ENDMDL
