MODEL 1
REMARK minimizedAffinity 4.92232323
REMARK minimizedRMSD -1
REMARK  1 active torsions:
REMARK  status: ('A' for Active; 'I' for Inactive)
REMARK    1  A    between atoms: N_2  and  C1_3 
ROOT
ATOM      1  C1  UNL d   1       4.109  -2.291   5.921  0.00  0.00     0.143 A 
ATOM      2  C2  UNL d   1       3.090  -3.249   5.951  0.00  0.00    -0.057 A 
ATOM      3  C3  UNL d   1       1.741  -2.874   5.972  0.00  0.00     0.033 A 
ATOM      4  C4  UNL d   1       1.387  -1.530   5.993  0.00  0.00    -0.042 A 
ATOM      5  C5  UNL d   1       2.383  -0.560   5.990  0.00  0.00     0.033 A 
ATOM      6  C6  UNL d   1       3.728  -0.940   5.962  0.00  0.00    -0.057 A 
ENDROOT
BRANCH   1   7
ATOM      7  N   UNL d   1       5.469  -2.599   5.999  0.00  0.00    -0.732 N 
ATOM      8  C   UNL d   1       5.938  -3.939   5.721  0.00  0.00     0.284 C 
ATOM      9  H3  UNL d   1       6.057  -1.864   5.612  0.00  0.00     0.395 HD
ENDBRANCH   1   7
TORSDOF 1
ENDMDL
