MODEL 1
REMARK minimizedAffinity 2.05369782
REMARK minimizedRMSD -1
REMARK  1 active torsions:
REMARK  status: ('A' for Active; 'I' for Inactive)
REMARK    1  A    between atoms: N_2  and  C1_3 
ROOT
ATOM      1  C1  UNL d   1      -4.987   2.584  -3.677  0.00  0.00     0.143 A 
ATOM      2  C2  UNL d   1      -3.778   3.251  -3.456  0.00  0.00    -0.057 A 
ATOM      3  C3  UNL d   1      -3.601   4.583  -3.847  0.00  0.00     0.033 A 
ATOM      4  C4  UNL d   1      -4.626   5.265  -4.496  0.00  0.00    -0.042 A 
ATOM      5  C5  UNL d   1      -5.828   4.614  -4.749  0.00  0.00     0.033 A 
ATOM      6  C6  UNL d   1      -6.000   3.285  -4.349  0.00  0.00    -0.057 A 
ENDROOT
BRANCH   1   7
ATOM      7  N   UNL d   1      -5.190   1.229  -3.399  0.00  0.00    -0.732 N 
ATOM      8  C   UNL d   1      -4.079   0.376  -3.037  0.00  0.00     0.284 C 
ATOM      9  H3  UNL d   1      -6.034   1.067  -2.854  0.00  0.00     0.395 HD
ENDBRANCH   1   7
TORSDOF 1
ENDMDL
