MODEL 1
REMARK minimizedAffinity -4.64634705
REMARK minimizedRMSD -1
REMARK  1 active torsions:
REMARK  status: ('A' for Active; 'I' for Inactive)
REMARK    1  A    between atoms: N_2  and  C1_3 
ROOT
ATOM      1  C1  UNL d   1      -4.556   3.664  -4.748  0.00  0.00     0.143 A 
ATOM      2  C2  UNL d   1      -5.709   2.885  -4.601  0.00  0.00    -0.057 A 
ATOM      3  C3  UNL d   1      -5.729   1.769  -3.756  0.00  0.00     0.033 A 
ATOM      4  C4  UNL d   1      -4.583   1.394  -3.062  0.00  0.00    -0.042 A 
ATOM      5  C5  UNL d   1      -3.418   2.139  -3.212  0.00  0.00     0.033 A 
ATOM      6  C6  UNL d   1      -3.407   3.256  -4.053  0.00  0.00    -0.057 A 
ENDROOT
BRANCH   1   7
ATOM      7  N   UNL d   1      -4.444   4.726  -5.648  0.00  0.00    -0.732 N 
ATOM      8  C   UNL d   1      -5.603   5.519  -6.000  0.00  0.00     0.284 C 
ATOM      9  H3  UNL d   1      -3.596   5.270  -5.504  0.00  0.00     0.395 HD
ENDBRANCH   1   7
TORSDOF 1
ENDMDL
