MODEL 1
REMARK minimizedAffinity 9.42231655
REMARK minimizedRMSD -1
REMARK  1 active torsions:
REMARK  status: ('A' for Active; 'I' for Inactive)
REMARK    1  A    between atoms: N_2  and  C1_3 
ROOT
ATOM      1  C1  UNL d   1       0.511   5.147  -1.372  0.00  0.00     0.143 A 
ATOM      2  C2  UNL d   1      -0.881   5.010  -1.345  0.00  0.00    -0.057 A 
ATOM      3  C3  UNL d   1      -1.507   4.127  -0.456  0.00  0.00     0.033 A 
ATOM      4  C4  UNL d   1      -0.747   3.342   0.405  0.00  0.00    -0.042 A 
ATOM      5  C5  UNL d   1       0.640   3.443   0.378  0.00  0.00     0.033 A 
ATOM      6  C6  UNL d   1       1.258   4.331  -0.507  0.00  0.00    -0.057 A 
ENDROOT
BRANCH   1   7
ATOM      7  N   UNL d   1       1.198   5.934  -2.299  0.00  0.00    -0.732 N 
ATOM      8  C   UNL d   1       0.760   6.000  -3.677  0.00  0.00     0.284 C 
ATOM      9  H3  UNL d   1       1.486   6.829  -1.911  0.00  0.00     0.395 HD
ENDBRANCH   1   7
TORSDOF 1
ENDMDL
