MODEL 1
REMARK minimizedAffinity 0.214932665
REMARK minimizedRMSD -1
REMARK  1 active torsions:
REMARK  status: ('A' for Active; 'I' for Inactive)
REMARK    1  A    between atoms: N_2  and  C1_3 
ROOT
ATOM      1  C1  UNL d   1      -4.023   2.930  -4.273  0.00  0.00     0.143 A 
ATOM      2  C2  UNL d   1      -4.868   2.355  -5.228  0.00  0.00    -0.057 A 
ATOM      3  C3  UNL d   1      -5.734   3.141  -5.998  0.00  0.00     0.033 A 
ATOM      4  C4  UNL d   1      -5.790   4.517  -5.806  0.00  0.00    -0.042 A 
ATOM      5  C5  UNL d   1      -4.977   5.107  -4.845  0.00  0.00     0.033 A 
ATOM      6  C6  UNL d   1      -4.110   4.318  -4.083  0.00  0.00    -0.057 A 
ENDROOT
BRANCH   1   7
ATOM      7  N   UNL d   1      -3.212   2.192  -3.407  0.00  0.00    -0.732 N 
ATOM      8  C   UNL d   1      -3.750   1.068  -2.671  0.00  0.00     0.284 C 
ATOM      9  H3  UNL d   1      -2.282   2.032  -3.788  0.00  0.00     0.395 HD
ENDBRANCH   1   7
TORSDOF 1
ENDMDL
