MODEL 1
REMARK minimizedAffinity -3.59072065
REMARK minimizedRMSD -1
REMARK  1 active torsions:
REMARK  status: ('A' for Active; 'I' for Inactive)
REMARK    1  A    between atoms: N_2  and  C1_3 
ROOT
ATOM      1  C1  UNL d   1      -5.377  -0.111   1.535  0.00  0.00     0.143 A 
ATOM      2  C2  UNL d   1      -4.244   0.471   2.114  0.00  0.00    -0.057 A 
ATOM      3  C3  UNL d   1      -3.724  -0.000   3.326  0.00  0.00     0.033 A 
ATOM      4  C4  UNL d   1      -4.347  -1.047   3.997  0.00  0.00    -0.042 A 
ATOM      5  C5  UNL d   1      -5.489  -1.625   3.453  0.00  0.00     0.033 A 
ATOM      6  C6  UNL d   1      -6.000  -1.154   2.239  0.00  0.00    -0.057 A 
ENDROOT
BRANCH   1   7
ATOM      7  N   UNL d   1      -6.000   0.376   0.384  0.00  0.00    -0.732 N 
ATOM      8  C   UNL d   1      -5.250   1.132  -0.596  0.00  0.00     0.284 C 
ATOM      9  H3  UNL d   1      -6.651  -0.294  -0.019  0.00  0.00     0.395 HD
ENDBRANCH   1   7
TORSDOF 1
ENDMDL
