MODEL 1
REMARK minimizedAffinity -5.07360506
REMARK minimizedRMSD -1
REMARK  0 active torsions:
REMARK  status: ('A' for Active; 'I' for Inactive)
ROOT
ATOM      1  C2' OXE d   1      -0.828   1.253  -0.360  0.00  0.00     0.078 C 
ATOM      2  C1' OXE d   1       1.868   0.647  -0.857  0.00  0.00     0.078 C 
ATOM      3  C1  OXE d   1       1.099  -0.269   0.063  0.00  0.00    -0.078 A 
ATOM      4  C2  OXE d   1      -0.206   0.062   0.337  0.00  0.00    -0.078 A 
ATOM      5  C3  OXE d   1      -0.977  -0.779   1.136  0.00  0.00     0.003 A 
ATOM      6  C4  OXE d   1      -0.392  -1.873   1.784  0.00  0.00    -0.002 A 
ATOM      7  C5  OXE d   1       0.947  -2.204   1.550  0.00  0.00    -0.002 A 
ATOM      8  C6  OXE d   1       1.693  -1.439   0.661  0.00  0.00     0.003 A 
ENDROOT
TORSDOF 0
ENDMDL
