MODEL 1
REMARK minimizedAffinity -5.84383202
REMARK minimizedRMSD -1
REMARK  0 active torsions:
REMARK  status: ('A' for Active; 'I' for Inactive)
ROOT
ATOM      1  C2' OXE d   1       1.698  -0.560  -0.928  0.00  0.00     0.078 C 
ATOM      2  C1' OXE d   1      -0.817   0.483  -0.244  0.00  0.00     0.078 C 
ATOM      3  C1  OXE d   1      -0.260  -0.628   0.611  0.00  0.00    -0.078 A 
ATOM      4  C2  OXE d   1       0.950  -1.164   0.241  0.00  0.00    -0.078 A 
ATOM      5  C3  OXE d   1       1.535  -2.153   1.027  0.00  0.00     0.003 A 
ATOM      6  C4  OXE d   1       0.832  -2.713   2.101  0.00  0.00    -0.002 A 
ATOM      7  C5  OXE d   1      -0.419  -2.208   2.470  0.00  0.00    -0.002 A 
ATOM      8  C6  OXE d   1      -0.959  -1.140   1.763  0.00  0.00     0.003 A 
ENDROOT
TORSDOF 0
ENDMDL
