MODEL 1
REMARK minimizedAffinity -6.41718674
REMARK minimizedRMSD -1
REMARK  0 active torsions:
REMARK  status: ('A' for Active; 'I' for Inactive)
ROOT
ATOM      1  C2' OXE d   1       1.750  -0.278  -0.428  0.00  0.00     0.078 C 
ATOM      2  C1' OXE d   1      -0.726   0.866   0.239  0.00  0.00     0.078 C 
ATOM      3  C1  OXE d   1      -0.305  -0.380   0.977  0.00  0.00    -0.078 A 
ATOM      4  C2  OXE d   1       0.886  -0.960   0.612  0.00  0.00    -0.078 A 
ATOM      5  C3  OXE d   1       1.347  -2.079   1.298  0.00  0.00     0.003 A 
ATOM      6  C4  OXE d   1       0.538  -2.710   2.251  0.00  0.00    -0.002 A 
ATOM      7  C5  OXE d   1      -0.697  -2.158   2.610  0.00  0.00    -0.002 A 
ATOM      8  C6  OXE d   1      -1.113  -0.973   2.014  0.00  0.00     0.003 A 
ENDROOT
TORSDOF 0
ENDMDL
