MODEL 1
REMARK minimizedAffinity -4.76466036
REMARK minimizedRMSD -1
REMARK  0 active torsions:
REMARK  status: ('A' for Active; 'I' for Inactive)
ROOT
ATOM      1  C2' OXE d   1       1.986  -0.491  -0.871  0.00  0.00     0.078 C 
ATOM      2  C1' OXE d   1      -0.600   0.465  -0.344  0.00  0.00     0.078 C 
ATOM      3  C1  OXE d   1      -0.076  -0.658   0.516  0.00  0.00    -0.078 A 
ATOM      4  C2  OXE d   1       1.172  -1.151   0.221  0.00  0.00    -0.078 A 
ATOM      5  C3  OXE d   1       1.725  -2.150   1.017  0.00  0.00     0.003 A 
ATOM      6  C4  OXE d   1       0.961  -2.762   2.018  0.00  0.00    -0.002 A 
ATOM      7  C5  OXE d   1      -0.328  -2.302   2.309  0.00  0.00    -0.002 A 
ATOM      8  C6  OXE d   1      -0.844  -1.225   1.597  0.00  0.00     0.003 A 
ENDROOT
TORSDOF 0
ENDMDL
