MODEL 1
REMARK minimizedAffinity -4.13752937
REMARK minimizedRMSD -1
REMARK  0 active torsions:
REMARK  status: ('A' for Active; 'I' for Inactive)
ROOT
ATOM      1  C2' OXE d   1      -0.763   1.269   0.054  0.00  0.00     0.078 C 
ATOM      2  C1' OXE d   1      -1.415  -0.735   1.908  0.00  0.00     0.078 C 
ATOM      3  C1  OXE d   1      -0.137  -0.892   1.123  0.00  0.00    -0.078 A 
ATOM      4  C2  OXE d   1       0.151   0.070   0.185  0.00  0.00    -0.078 A 
ATOM      5  C3  OXE d   1       1.344   0.002  -0.529  0.00  0.00     0.003 A 
ATOM      6  C4  OXE d   1       2.179  -1.115  -0.409  0.00  0.00    -0.002 A 
ATOM      7  C5  OXE d   1       1.885  -2.126   0.513  0.00  0.00    -0.002 A 
ATOM      8  C6  OXE d   1       0.755  -2.008   1.315  0.00  0.00     0.003 A 
ENDROOT
TORSDOF 0
ENDMDL
