MODEL 1
REMARK minimizedAffinity -6.20156479
REMARK minimizedRMSD -1
REMARK  0 active torsions:
REMARK  status: ('A' for Active; 'I' for Inactive)
ROOT
ATOM      1  C2' OXE d   1       1.798   0.027  -0.831  0.00  0.00     0.078 C 
ATOM      2  C1' OXE d   1      -0.762   0.531   0.205  0.00  0.00     0.078 C 
ATOM      3  C1  OXE d   1       0.013  -0.629   0.778  0.00  0.00    -0.078 A 
ATOM      4  C2  OXE d   1       1.245  -0.897   0.233  0.00  0.00    -0.078 A 
ATOM      5  C3  OXE d   1       2.025  -1.922   0.761  0.00  0.00     0.003 A 
ATOM      6  C4  OXE d   1       1.503  -2.778   1.738  0.00  0.00    -0.002 A 
ATOM      7  C5  OXE d   1       0.234  -2.547   2.280  0.00  0.00    -0.002 A 
ATOM      8  C6  OXE d   1      -0.505  -1.454   1.841  0.00  0.00     0.003 A 
ENDROOT
TORSDOF 0
ENDMDL
