MODEL 1
REMARK minimizedAffinity -4.89066458
REMARK minimizedRMSD -1
REMARK  0 active torsions:
REMARK  status: ('A' for Active; 'I' for Inactive)
ROOT
ATOM      1  C2' OXE d   1      -0.613   1.006  -0.686  0.00  0.00     0.078 C 
ATOM      2  C1' OXE d   1       2.167   0.843  -1.039  0.00  0.00     0.078 C 
ATOM      3  C1  OXE d   1       1.499  -0.225  -0.210  0.00  0.00    -0.078 A 
ATOM      4  C2  OXE d   1       0.145  -0.112  -0.004  0.00  0.00    -0.078 A 
ATOM      5  C3  OXE d   1      -0.529  -1.100   0.708  0.00  0.00     0.003 A 
ATOM      6  C4  OXE d   1       0.182  -2.125   1.344  0.00  0.00    -0.002 A 
ATOM      7  C5  OXE d   1       1.566  -2.237   1.179  0.00  0.00    -0.002 A 
ATOM      8  C6  OXE d   1       2.233  -1.322   0.372  0.00  0.00     0.003 A 
ENDROOT
TORSDOF 0
ENDMDL
