MODEL 1
REMARK minimizedAffinity -2.8934269
REMARK minimizedRMSD -1
REMARK  0 active torsions:
REMARK  status: ('A' for Active; 'I' for Inactive)
ROOT
ATOM      1  C2' OXE d   1       1.624   0.433  -0.644  0.00  0.00     0.078 C 
ATOM      2  C1' OXE d   1      -1.060   0.248   0.159  0.00  0.00     0.078 C 
ATOM      3  C1  OXE d   1      -0.084  -0.750   0.731  0.00  0.00    -0.078 A 
ATOM      4  C2  OXE d   1       1.218  -0.681   0.296  0.00  0.00    -0.078 A 
ATOM      5  C3  OXE d   1       2.170  -1.543   0.834  0.00  0.00     0.003 A 
ATOM      6  C4  OXE d   1       1.785  -2.577   1.695  0.00  0.00    -0.002 A 
ATOM      7  C5  OXE d   1       0.456  -2.689   2.119  0.00  0.00    -0.002 A 
ATOM      8  C6  OXE d   1      -0.480  -1.760   1.681  0.00  0.00     0.003 A 
ENDROOT
TORSDOF 0
ENDMDL
