MODEL 1
REMARK minimizedAffinity -4.91881132
REMARK minimizedRMSD -1
REMARK  0 active torsions:
REMARK  status: ('A' for Active; 'I' for Inactive)
ROOT
ATOM      1  C2' OXE d   1      -0.917   0.694   0.221  0.00  0.00     0.078 C 
ATOM      2  C1' OXE d   1       1.586  -0.275  -0.599  0.00  0.00     0.078 C 
ATOM      3  C1  OXE d   1       0.926  -0.942   0.582  0.00  0.00    -0.078 A 
ATOM      4  C2  OXE d   1      -0.277  -0.431   1.006  0.00  0.00    -0.078 A 
ATOM      5  C3  OXE d   1      -0.955  -1.043   2.056  0.00  0.00     0.003 A 
ATOM      6  C4  OXE d   1      -0.351  -2.077   2.783  0.00  0.00    -0.002 A 
ATOM      7  C5  OXE d   1       0.892  -2.586   2.393  0.00  0.00    -0.002 A 
ATOM      8  C6  OXE d   1       1.523  -2.060   1.271  0.00  0.00     0.003 A 
ENDROOT
TORSDOF 0
ENDMDL
