MODEL 1
REMARK minimizedAffinity -3.58358693
REMARK minimizedRMSD -1
REMARK  0 active torsions:
REMARK  status: ('A' for Active; 'I' for Inactive)
ROOT
ATOM      1  C2' OXE d   1      -0.318   0.733  -0.194  0.00  0.00     0.078 C 
ATOM      2  C1' OXE d   1       2.183  -0.104  -1.155  0.00  0.00     0.078 C 
ATOM      3  C1  OXE d   1       1.554  -0.903  -0.041  0.00  0.00    -0.078 A 
ATOM      4  C2  OXE d   1       0.352  -0.459   0.455  0.00  0.00    -0.078 A 
ATOM      5  C3  OXE d   1      -0.298  -1.190   1.445  0.00  0.00     0.003 A 
ATOM      6  C4  OXE d   1       0.333  -2.285   2.047  0.00  0.00    -0.002 A 
ATOM      7  C5  OXE d   1       1.576  -2.731   1.584  0.00  0.00    -0.002 A 
ATOM      8  C6  OXE d   1       2.179  -2.078   0.515  0.00  0.00     0.003 A 
ENDROOT
TORSDOF 0
ENDMDL
