MODEL 1
REMARK minimizedAffinity -5.42206383
REMARK minimizedRMSD -1
REMARK  0 active torsions:
REMARK  status: ('A' for Active; 'I' for Inactive)
ROOT
ATOM      1  C2' OXE d   1       1.914  -0.705  -1.443  0.00  0.00     0.078 C 
ATOM      2  C1' OXE d   1      -0.306   0.549  -0.269  0.00  0.00     0.078 C 
ATOM      3  C1  OXE d   1       0.197  -0.725   0.362  0.00  0.00    -0.078 A 
ATOM      4  C2  OXE d   1       1.255  -1.357  -0.247  0.00  0.00    -0.078 A 
ATOM      5  C3  OXE d   1       1.793  -2.506   0.326  0.00  0.00     0.003 A 
ATOM      6  C4  OXE d   1       1.172  -3.107   1.427  0.00  0.00    -0.002 A 
ATOM      7  C5  OXE d   1       0.069  -2.501   2.038  0.00  0.00    -0.002 A 
ATOM      8  C6  OXE d   1      -0.403  -1.290   1.545  0.00  0.00     0.003 A 
ENDROOT
TORSDOF 0
ENDMDL
