MODEL 1
REMARK minimizedAffinity -2.70346951
REMARK minimizedRMSD -1
REMARK  0 active torsions:
REMARK  status: ('A' for Active; 'I' for Inactive)
ROOT
ATOM      1  C2' OXE d   1       1.368  -2.694   2.636  0.00  0.00     0.078 C 
ATOM      2  C1' OXE d   1      -1.097  -1.362   2.812  0.00  0.00     0.078 C 
ATOM      3  C1  OXE d   1      -0.182  -1.000   1.669  0.00  0.00    -0.078 A 
ATOM      4  C2  OXE d   1       1.042  -1.623   1.617  0.00  0.00    -0.078 A 
ATOM      5  C3  OXE d   1       1.902  -1.366   0.553  0.00  0.00     0.003 A 
ATOM      6  C4  OXE d   1       1.597  -0.367  -0.379  0.00  0.00    -0.002 A 
ATOM      7  C5  OXE d   1       0.373   0.308  -0.322  0.00  0.00    -0.002 A 
ATOM      8  C6  OXE d   1      -0.543  -0.026   0.669  0.00  0.00     0.003 A 
ENDROOT
TORSDOF 0
ENDMDL
