MODEL 1
REMARK minimizedAffinity -6.19036436
REMARK minimizedRMSD -1
REMARK  0 active torsions:
REMARK  status: ('A' for Active; 'I' for Inactive)
ROOT
ATOM      1  C2' OXE d   1      -0.030   1.247   0.030  0.00  0.00     0.078 C 
ATOM      2  C1' OXE d   1      -1.573   0.249   2.152  0.00  0.00     0.078 C 
ATOM      3  C1  OXE d   1      -0.434  -0.602   1.649  0.00  0.00    -0.078 A 
ATOM      4  C2  OXE d   1       0.286  -0.127   0.580  0.00  0.00    -0.078 A 
ATOM      5  C3  OXE d   1       1.381  -0.848   0.112  0.00  0.00     0.003 A 
ATOM      6  C4  OXE d   1       1.660  -2.123   0.619  0.00  0.00    -0.002 A 
ATOM      7  C5  OXE d   1       0.914  -2.643   1.682  0.00  0.00    -0.002 A 
ATOM      8  C6  OXE d   1      -0.107  -1.879   2.235  0.00  0.00     0.003 A 
ENDROOT
TORSDOF 0
ENDMDL
