MODEL 1
REMARK minimizedAffinity -5.69709539
REMARK minimizedRMSD -1
REMARK  0 active torsions:
REMARK  status: ('A' for Active; 'I' for Inactive)
ROOT
ATOM      1  C2' OXE d   1       1.905  -0.961  -0.856  0.00  0.00     0.078 C 
ATOM      2  C1' OXE d   1      -0.415   0.363   0.008  0.00  0.00     0.078 C 
ATOM      3  C1  OXE d   1       0.043  -0.839   0.794  0.00  0.00    -0.078 A 
ATOM      4  C2  OXE d   1       1.152  -1.509   0.337  0.00  0.00    -0.078 A 
ATOM      5  C3  OXE d   1       1.649  -2.592   1.057  0.00  0.00     0.003 A 
ATOM      6  C4  OXE d   1       0.941  -3.099   2.154  0.00  0.00    -0.002 A 
ATOM      7  C5  OXE d   1      -0.213  -2.455   2.612  0.00  0.00    -0.002 A 
ATOM      8  C6  OXE d   1      -0.651  -1.302   1.971  0.00  0.00     0.003 A 
ENDROOT
TORSDOF 0
ENDMDL
