MODEL 1
REMARK minimizedAffinity -3.57971716
REMARK minimizedRMSD -1
REMARK  0 active torsions:
REMARK  status: ('A' for Active; 'I' for Inactive)
ROOT
ATOM      1  C2' OXE d   1       2.160   0.750  -1.019  0.00  0.00     0.078 C 
ATOM      2  C1' OXE d   1      -0.578   0.971  -0.442  0.00  0.00     0.078 C 
ATOM      3  C1  OXE d   1       0.145  -0.262   0.040  0.00  0.00    -0.078 A 
ATOM      4  C2  OXE d   1       1.474  -0.384  -0.288  0.00  0.00    -0.078 A 
ATOM      5  C3  OXE d   1       2.201  -1.475   0.178  0.00  0.00     0.003 A 
ATOM      6  C4  OXE d   1       1.557  -2.524   0.845  0.00  0.00    -0.002 A 
ATOM      7  C5  OXE d   1       0.195  -2.439   1.154  0.00  0.00    -0.002 A 
ATOM      8  C6  OXE d   1      -0.515  -1.298   0.796  0.00  0.00     0.003 A 
ENDROOT
TORSDOF 0
ENDMDL
