MODEL 1
REMARK minimizedAffinity -4.47441626
REMARK minimizedRMSD -1
REMARK  0 active torsions:
REMARK  status: ('A' for Active; 'I' for Inactive)
ROOT
ATOM      1  C2' OXE d   1      -0.702   0.496  -0.167  0.00  0.00     0.078 C 
ATOM      2  C1' OXE d   1       1.914  -0.176  -0.931  0.00  0.00     0.078 C 
ATOM      3  C1  OXE d   1       1.339  -0.859   0.285  0.00  0.00    -0.078 A 
ATOM      4  C2  OXE d   1       0.075  -0.489   0.679  0.00  0.00    -0.078 A 
ATOM      5  C3  OXE d   1      -0.524  -1.127   1.761  0.00  0.00     0.003 A 
ATOM      6  C4  OXE d   1       0.205  -2.031   2.544  0.00  0.00    -0.002 A 
ATOM      7  C5  OXE d   1       1.508  -2.392   2.184  0.00  0.00    -0.002 A 
ATOM      8  C6  OXE d   1       2.073  -1.848   1.035  0.00  0.00     0.003 A 
ENDROOT
TORSDOF 0
ENDMDL
