MODEL 1
REMARK minimizedAffinity -0.185936615
REMARK minimizedRMSD -1
REMARK  0 active torsions:
REMARK  status: ('A' for Active; 'I' for Inactive)
ROOT
ATOM      1  C2' OXE d   1       1.967  -1.976   1.355  0.00  0.00     0.078 C 
ATOM      2  C1' OXE d   1      -0.574  -1.662   2.505  0.00  0.00     0.078 C 
ATOM      3  C1  OXE d   1      -0.245  -0.832   1.290  0.00  0.00    -0.078 A 
ATOM      4  C2  OXE d   1       1.018  -0.958   0.761  0.00  0.00    -0.078 A 
ATOM      5  C3  OXE d   1       1.355  -0.256  -0.392  0.00  0.00     0.003 A 
ATOM      6  C4  OXE d   1       0.474   0.691  -0.929  0.00  0.00    -0.002 A 
ATOM      7  C5  OXE d   1      -0.802   0.863  -0.383  0.00  0.00    -0.002 A 
ATOM      8  C6  OXE d   1      -1.192   0.081   0.699  0.00  0.00     0.003 A 
ENDROOT
TORSDOF 0
ENDMDL
