MODEL 1
REMARK minimizedAffinity -1.34566295
REMARK minimizedRMSD -1
REMARK  0 active torsions:
REMARK  status: ('A' for Active; 'I' for Inactive)
ROOT
ATOM      1  C2' OXE d   1       2.326  -1.561   0.690  0.00  0.00     0.078 C 
ATOM      2  C1' OXE d   1       2.726   0.741  -0.865  0.00  0.00     0.078 C 
ATOM      3  C1  OXE d   1       1.347   0.503  -0.302  0.00  0.00    -0.078 A 
ATOM      4  C2  OXE d   1       1.149  -0.650   0.419  0.00  0.00    -0.078 A 
ATOM      5  C3  OXE d   1      -0.090  -0.891   1.006  0.00  0.00     0.003 A 
ATOM      6  C4  OXE d   1      -1.176  -0.048   0.742  0.00  0.00    -0.002 A 
ATOM      7  C5  OXE d   1      -1.006   1.110  -0.023  0.00  0.00    -0.002 A 
ATOM      8  C6  OXE d   1       0.256   1.422  -0.516  0.00  0.00     0.003 A 
ENDROOT
TORSDOF 0
ENDMDL
