MODEL 1
REMARK minimizedAffinity -6.13561153
REMARK minimizedRMSD -1
REMARK  0 active torsions:
REMARK  status: ('A' for Active; 'I' for Inactive)
ROOT
ATOM      1  C   UNL d   1      -0.774   1.224  -0.522  0.00  0.00     0.077 C 
ATOM      2  C1  UNL d   1       0.302   0.291  -0.053  0.00  0.00    -0.074 A 
ATOM      3  C2  UNL d   1       0.014  -0.751   0.835  0.00  0.00    -0.005 A 
ATOM      4  C3  UNL d   1       1.023  -1.617   1.254  0.00  0.00     0.006 A 
ATOM      5  C4  UNL d   1       2.329  -1.451   0.791  0.00  0.00    -0.005 A 
ATOM      6  C5  UNL d   1       2.636  -0.415  -0.097  0.00  0.00    -0.074 A 
ATOM      7  C6  UNL d   1       4.033  -0.229  -0.612  0.00  0.00     0.077 C 
ATOM      8  C7  UNL d   1       1.615   0.447  -0.520  0.00  0.00    -0.001 A 
ENDROOT
TORSDOF 0
ENDMDL
