MODEL 1
REMARK minimizedAffinity -5.13083172
REMARK minimizedRMSD -1
REMARK  0 active torsions:
REMARK  status: ('A' for Active; 'I' for Inactive)
ROOT
ATOM      1  C   UNL d   1      -2.636   0.951  -4.062  0.00  0.00     0.077 C 
ATOM      2  C1  UNL d   1      -1.693   1.893  -3.374  0.00  0.00    -0.074 A 
ATOM      3  C2  UNL d   1      -1.136   2.979  -4.057  0.00  0.00    -0.005 A 
ATOM      4  C3  UNL d   1      -0.269   3.853  -3.401  0.00  0.00     0.006 A 
ATOM      5  C4  UNL d   1       0.050   3.650  -2.058  0.00  0.00    -0.005 A 
ATOM      6  C5  UNL d   1      -0.498   2.570  -1.359  0.00  0.00    -0.074 A 
ATOM      7  C6  UNL d   1      -0.174   2.343   0.088  0.00  0.00     0.077 C 
ATOM      8  C7  UNL d   1      -1.374   1.701  -2.023  0.00  0.00    -0.001 A 
ENDROOT
TORSDOF 0
ENDMDL
