MODEL 1
REMARK minimizedAffinity -5.17541599
REMARK minimizedRMSD -1
REMARK  0 active torsions:
REMARK  status: ('A' for Active; 'I' for Inactive)
ROOT
ATOM      1  C   UNL d   1       3.808   1.042  -0.931  0.00  0.00     0.077 C 
ATOM      2  C1  UNL d   1       2.631   0.381  -0.277  0.00  0.00    -0.074 A 
ATOM      3  C2  UNL d   1       1.356   0.952  -0.348  0.00  0.00    -0.005 A 
ATOM      4  C3  UNL d   1       0.269   0.321   0.256  0.00  0.00     0.006 A 
ATOM      5  C4  UNL d   1       0.445  -0.884   0.938  0.00  0.00    -0.005 A 
ATOM      6  C5  UNL d   1       1.712  -1.470   1.019  0.00  0.00    -0.074 A 
ATOM      7  C6  UNL d   1       1.918  -2.769   1.738  0.00  0.00     0.077 C 
ATOM      8  C7  UNL d   1       2.799  -0.833   0.402  0.00  0.00    -0.001 A 
ENDROOT
TORSDOF 0
ENDMDL
