MODEL 1
REMARK minimizedAffinity -5.23115349
REMARK minimizedRMSD -1
REMARK  0 active torsions:
REMARK  status: ('A' for Active; 'I' for Inactive)
ROOT
ATOM      1  C   UNL d   1      -0.552   0.486   0.580  0.00  0.00     0.077 C 
ATOM      2  C1  UNL d   1      -0.857   1.111  -0.749  0.00  0.00    -0.074 A 
ATOM      3  C2  UNL d   1      -1.741   0.501  -1.644  0.00  0.00    -0.005 A 
ATOM      4  C3  UNL d   1      -2.022   1.099  -2.873  0.00  0.00     0.006 A 
ATOM      5  C4  UNL d   1      -1.423   2.312  -3.217  0.00  0.00    -0.005 A 
ATOM      6  C5  UNL d   1      -0.537   2.937  -2.334  0.00  0.00    -0.074 A 
ATOM      7  C6  UNL d   1       0.108   4.244  -2.685  0.00  0.00     0.077 C 
ATOM      8  C7  UNL d   1      -0.265   2.333  -1.099  0.00  0.00    -0.001 A 
ENDROOT
TORSDOF 0
ENDMDL
