MODEL 1
REMARK minimizedAffinity -2.22791457
REMARK minimizedRMSD -1
REMARK  0 active torsions:
REMARK  status: ('A' for Active; 'I' for Inactive)
ROOT
ATOM      1  C   UNL d   1       1.274  -2.635   0.844  0.00  0.00     0.077 C 
ATOM      2  C1  UNL d   1       0.333  -1.468   0.794  0.00  0.00    -0.074 A 
ATOM      3  C2  UNL d   1      -0.734  -1.365   1.691  0.00  0.00    -0.005 A 
ATOM      4  C3  UNL d   1      -1.595  -0.269   1.638  0.00  0.00     0.006 A 
ATOM      5  C4  UNL d   1      -1.397   0.734   0.688  0.00  0.00    -0.005 A 
ATOM      6  C5  UNL d   1      -0.334   0.650  -0.216  0.00  0.00    -0.074 A 
ATOM      7  C6  UNL d   1      -0.101   1.724  -1.237  0.00  0.00     0.077 C 
ATOM      8  C7  UNL d   1       0.531  -0.452  -0.152  0.00  0.00    -0.001 A 
ENDROOT
TORSDOF 0
ENDMDL
