MODEL 1
REMARK minimizedAffinity -1.90063441
REMARK minimizedRMSD -1
REMARK  0 active torsions:
REMARK  status: ('A' for Active; 'I' for Inactive)
ROOT
ATOM      1  C   UNL d   1       0.186   4.831  -4.013  0.00  0.00     0.077 C 
ATOM      2  C1  UNL d   1      -0.584   3.605  -3.621  0.00  0.00    -0.074 A 
ATOM      3  C2  UNL d   1      -1.500   3.020  -4.500  0.00  0.00    -0.005 A 
ATOM      4  C3  UNL d   1      -2.202   1.874  -4.125  0.00  0.00     0.006 A 
ATOM      5  C4  UNL d   1      -1.994   1.303  -2.869  0.00  0.00    -0.005 A 
ATOM      6  C5  UNL d   1      -1.081   1.874  -1.977  0.00  0.00    -0.074 A 
ATOM      7  C6  UNL d   1      -0.838   1.267  -0.627  0.00  0.00     0.077 C 
ATOM      8  C7  UNL d   1      -0.375   3.021  -2.364  0.00  0.00    -0.001 A 
ENDROOT
TORSDOF 0
ENDMDL
