MODEL 1
REMARK minimizedAffinity -4.18668079
REMARK minimizedRMSD -1
REMARK  0 active torsions:
REMARK  status: ('A' for Active; 'I' for Inactive)
ROOT
ATOM      1  C   UNL d   1      -0.871   0.847  -0.664  0.00  0.00     0.077 C 
ATOM      2  C1  UNL d   1       0.433   0.175  -0.356  0.00  0.00    -0.074 A 
ATOM      3  C2  UNL d   1       1.640   0.690  -0.842  0.00  0.00    -0.005 A 
ATOM      4  C3  UNL d   1       2.846   0.059  -0.538  0.00  0.00     0.006 A 
ATOM      5  C4  UNL d   1       2.859  -1.090   0.253  0.00  0.00    -0.005 A 
ATOM      6  C5  UNL d   1       1.663  -1.619   0.748  0.00  0.00    -0.074 A 
ATOM      7  C6  UNL d   1       1.660  -2.848   1.608  0.00  0.00     0.077 C 
ATOM      8  C7  UNL d   1       0.455  -0.976   0.445  0.00  0.00    -0.001 A 
ENDROOT
TORSDOF 0
ENDMDL
