MODEL 1
REMARK minimizedAffinity -3.90962458
REMARK minimizedRMSD -1
REMARK  0 active torsions:
REMARK  status: ('A' for Active; 'I' for Inactive)
ROOT
ATOM      1  C   UNL d   1       1.400  -2.280   1.138  0.00  0.00     0.077 C 
ATOM      2  C1  UNL d   1       1.353  -1.009   0.344  0.00  0.00    -0.074 A 
ATOM      3  C2  UNL d   1       2.525  -0.422  -0.144  0.00  0.00    -0.005 A 
ATOM      4  C3  UNL d   1       2.465   0.755  -0.890  0.00  0.00     0.006 A 
ATOM      5  C4  UNL d   1       1.234   1.357  -1.155  0.00  0.00    -0.005 A 
ATOM      6  C5  UNL d   1       0.052   0.784  -0.676  0.00  0.00    -0.074 A 
ATOM      7  C6  UNL d   1      -1.280   1.413  -0.960  0.00  0.00     0.077 C 
ATOM      8  C7  UNL d   1       0.120  -0.402   0.066  0.00  0.00    -0.001 A 
ENDROOT
TORSDOF 0
ENDMDL
