MODEL 1
REMARK minimizedAffinity -4.02066755
REMARK minimizedRMSD -1
REMARK  0 active torsions:
REMARK  status: ('A' for Active; 'I' for Inactive)
ROOT
ATOM      1  C   UNL d   1       1.032  -2.636   0.773  0.00  0.00     0.077 C 
ATOM      2  C1  UNL d   1       0.030  -1.523   0.842  0.00  0.00    -0.074 A 
ATOM      3  C2  UNL d   1      -0.917  -1.471   1.870  0.00  0.00    -0.005 A 
ATOM      4  C3  UNL d   1      -1.838  -0.424   1.926  0.00  0.00     0.006 A 
ATOM      5  C4  UNL d   1      -1.821   0.579   0.957  0.00  0.00    -0.005 A 
ATOM      6  C5  UNL d   1      -0.881   0.544  -0.078  0.00  0.00    -0.074 A 
ATOM      7  C6  UNL d   1      -0.842   1.620  -1.122  0.00  0.00     0.077 C 
ATOM      8  C7  UNL d   1       0.045  -0.507  -0.124  0.00  0.00    -0.001 A 
ENDROOT
TORSDOF 0
ENDMDL
