MODEL 1
REMARK minimizedAffinity -2.74735618
REMARK minimizedRMSD -1
REMARK  0 active torsions:
REMARK  status: ('A' for Active; 'I' for Inactive)
ROOT
ATOM      1  C   UNL d   1       1.463  -3.306   1.265  0.00  0.00     0.077 C 
ATOM      2  C1  UNL d   1       1.057  -1.998   0.656  0.00  0.00    -0.074 A 
ATOM      3  C2  UNL d   1      -0.293  -1.678   0.473  0.00  0.00    -0.005 A 
ATOM      4  C3  UNL d   1      -0.656  -0.453  -0.087  0.00  0.00     0.006 A 
ATOM      5  C4  UNL d   1       0.325   0.463  -0.468  0.00  0.00    -0.005 A 
ATOM      6  C5  UNL d   1       1.679   0.162  -0.292  0.00  0.00    -0.074 A 
ATOM      7  C6  UNL d   1       2.746   1.139  -0.688  0.00  0.00     0.077 C 
ATOM      8  C7  UNL d   1       2.036  -1.069   0.277  0.00  0.00    -0.001 A 
ENDROOT
TORSDOF 0
ENDMDL
