MODEL 1
REMARK minimizedAffinity -3.90560484
REMARK minimizedRMSD -1
REMARK  0 active torsions:
REMARK  status: ('A' for Active; 'I' for Inactive)
ROOT
ATOM      1  C   UNL d   1       2.962  -1.454   0.478  0.00  0.00     0.077 C 
ATOM      2  C1  UNL d   1       1.566  -0.973   0.219  0.00  0.00    -0.074 A 
ATOM      3  C2  UNL d   1       0.459  -1.723   0.629  0.00  0.00    -0.005 A 
ATOM      4  C3  UNL d   1      -0.834  -1.258   0.390  0.00  0.00     0.006 A 
ATOM      5  C4  UNL d   1      -1.033  -0.040  -0.261  0.00  0.00    -0.005 A 
ATOM      6  C5  UNL d   1       0.061   0.725  -0.677  0.00  0.00    -0.074 A 
ATOM      7  C6  UNL d   1      -0.136   2.041  -1.369  0.00  0.00     0.077 C 
ATOM      8  C7  UNL d   1       1.357   0.254  -0.427  0.00  0.00    -0.001 A 
ENDROOT
TORSDOF 0
ENDMDL
