MODEL 1
REMARK minimizedAffinity -4.59810257
REMARK minimizedRMSD -1
REMARK  0 active torsions:
REMARK  status: ('A' for Active; 'I' for Inactive)
ROOT
ATOM      1  C   UNL d   1      -1.507   0.976   0.056  0.00  0.00     0.077 C 
ATOM      2  C1  UNL d   1      -0.144   0.351   0.056  0.00  0.00    -0.074 A 
ATOM      3  C2  UNL d   1       0.991   1.102  -0.264  0.00  0.00    -0.005 A 
ATOM      4  C3  UNL d   1       2.254   0.510  -0.251  0.00  0.00     0.006 A 
ATOM      5  C4  UNL d   1       2.394  -0.838   0.082  0.00  0.00    -0.005 A 
ATOM      6  C5  UNL d   1       1.270  -1.605   0.405  0.00  0.00    -0.074 A 
ATOM      7  C6  UNL d   1       1.404  -3.053   0.775  0.00  0.00     0.077 C 
ATOM      8  C7  UNL d   1       0.006  -1.001   0.397  0.00  0.00    -0.001 A 
ENDROOT
TORSDOF 0
ENDMDL
