MODEL 1
REMARK minimizedAffinity -1.32299447
REMARK minimizedRMSD -1
REMARK  0 active torsions:
REMARK  status: ('A' for Active; 'I' for Inactive)
ROOT
ATOM      1  C   UNL d   1      -0.358   1.313  -1.051  0.00  0.00     0.077 C 
ATOM      2  C1  UNL d   1      -0.684   2.111  -2.279  0.00  0.00    -0.074 A 
ATOM      3  C2  UNL d   1      -1.813   1.815  -3.050  0.00  0.00    -0.005 A 
ATOM      4  C3  UNL d   1      -2.108   2.572  -4.184  0.00  0.00     0.006 A 
ATOM      5  C4  UNL d   1      -1.280   3.630  -4.557  0.00  0.00    -0.005 A 
ATOM      6  C5  UNL d   1      -0.147   3.941  -3.798  0.00  0.00    -0.074 A 
ATOM      7  C6  UNL d   1       0.749   5.082  -4.181  0.00  0.00     0.077 C 
ATOM      8  C7  UNL d   1       0.139   3.181  -2.656  0.00  0.00    -0.001 A 
ENDROOT
TORSDOF 0
ENDMDL
