MODEL 1
REMARK minimizedAffinity -3.87709665
REMARK minimizedRMSD -1
REMARK  0 active torsions:
REMARK  status: ('A' for Active; 'I' for Inactive)
ROOT
ATOM      1  C   UNL d   1       3.635  -1.112  -0.019  0.00  0.00     0.077 C 
ATOM      2  C1  UNL d   1       2.174  -1.065   0.313  0.00  0.00    -0.074 A 
ATOM      3  C2  UNL d   1       1.558  -2.115   1.002  0.00  0.00    -0.005 A 
ATOM      4  C3  UNL d   1       0.200  -2.053   1.312  0.00  0.00     0.006 A 
ATOM      5  C4  UNL d   1      -0.556  -0.941   0.938  0.00  0.00    -0.005 A 
ATOM      6  C5  UNL d   1       0.043   0.120   0.250  0.00  0.00    -0.074 A 
ATOM      7  C6  UNL d   1      -0.753   1.326  -0.150  0.00  0.00     0.077 C 
ATOM      8  C7  UNL d   1       1.410   0.052  -0.052  0.00  0.00    -0.001 A 
ENDROOT
TORSDOF 0
ENDMDL
