MODEL 1
REMARK minimizedAffinity -4.70160627
REMARK minimizedRMSD -1
REMARK  0 active torsions:
REMARK  status: ('A' for Active; 'I' for Inactive)
ROOT
ATOM      1  C   UNL d   1       0.804  -3.324   0.737  0.00  0.00     0.077 C 
ATOM      2  C1  UNL d   1       0.907  -1.845   0.510  0.00  0.00    -0.074 A 
ATOM      3  C2  UNL d   1       2.067  -1.144   0.855  0.00  0.00    -0.005 A 
ATOM      4  C3  UNL d   1       2.151   0.230   0.629  0.00  0.00     0.006 A 
ATOM      5  C4  UNL d   1       1.079   0.916   0.058  0.00  0.00    -0.005 A 
ATOM      6  C5  UNL d   1      -0.089   0.231  -0.294  0.00  0.00    -0.074 A 
ATOM      7  C6  UNL d   1      -1.247   0.951  -0.919  0.00  0.00     0.077 C 
ATOM      8  C7  UNL d   1      -0.164  -1.150  -0.071  0.00  0.00    -0.001 A 
ENDROOT
TORSDOF 0
ENDMDL
