MODEL 1
REMARK minimizedAffinity -4.07665062
REMARK minimizedRMSD -1
REMARK  0 active torsions:
REMARK  status: ('A' for Active; 'I' for Inactive)
ROOT
ATOM      1  C   UNL d   1       1.267  -3.140   1.320  0.00  0.00     0.077 C 
ATOM      2  C1  UNL d   1       1.289  -1.750   0.756  0.00  0.00    -0.074 A 
ATOM      3  C2  UNL d   1       2.498  -1.118   0.449  0.00  0.00    -0.005 A 
ATOM      4  C3  UNL d   1       2.502   0.171  -0.084  0.00  0.00     0.006 A 
ATOM      5  C4  UNL d   1       1.299   0.840  -0.314  0.00  0.00    -0.005 A 
ATOM      6  C5  UNL d   1       0.080   0.223  -0.014  0.00  0.00    -0.074 A 
ATOM      7  C6  UNL d   1      -1.222   0.924  -0.265  0.00  0.00     0.077 C 
ATOM      8  C7  UNL d   1       0.084  -1.075   0.514  0.00  0.00    -0.001 A 
ENDROOT
TORSDOF 0
ENDMDL
