MODEL 1
REMARK minimizedAffinity -2.85430837
REMARK minimizedRMSD -1
REMARK  0 active torsions:
REMARK  status: ('A' for Active; 'I' for Inactive)
ROOT
ATOM      1  C   UNL d   1       2.512   1.701  -3.338  0.00  0.00     0.023 A 
ATOM      2  C1  UNL d   1       2.898   1.708  -1.997  0.00  0.00     0.003 A 
ATOM      3  C2  UNL d   1       2.071   1.134  -1.029  0.00  0.00     0.048 A 
ATOM      4  C3  UNL d   1       0.861   0.554  -1.408  0.00  0.00     0.023 A 
ATOM      5  C4  UNL d   1       0.472   0.544  -2.748  0.00  0.00     0.048 A 
ATOM      6  C5  UNL d   1       1.301   1.119  -3.713  0.00  0.00     0.003 A 
ATOM      7  I   UNL d   1      -0.371  -0.300   0.032  0.00  0.00    -0.146 I 
ENDROOT
TORSDOF 0
ENDMDL
