MODEL 1
REMARK minimizedAffinity 4.5383935
REMARK minimizedRMSD -1
REMARK  0 active torsions:
REMARK  status: ('A' for Active; 'I' for Inactive)
ROOT
ATOM      1  C   UNL d   1      -2.774   0.318  -0.241  0.00  0.00     0.023 A 
ATOM      2  C1  UNL d   1      -1.940   1.435  -0.285  0.00  0.00     0.003 A 
ATOM      3  C2  UNL d   1      -0.553   1.274  -0.248  0.00  0.00     0.048 A 
ATOM      4  C3  UNL d   1      -0.008  -0.007  -0.168  0.00  0.00     0.023 A 
ATOM      5  C4  UNL d   1      -0.839  -1.127  -0.124  0.00  0.00     0.048 A 
ATOM      6  C5  UNL d   1      -2.225  -0.961  -0.160  0.00  0.00     0.003 A 
ATOM      7  I   UNL d   1       2.056  -0.249  -0.113  0.00  0.00    -0.146 I 
ENDROOT
TORSDOF 0
ENDMDL
