MODEL 1
REMARK minimizedAffinity -2.39947009
REMARK minimizedRMSD -1
REMARK  0 active torsions:
REMARK  status: ('A' for Active; 'I' for Inactive)
ROOT
ATOM      1  C   UNL d   1       0.359  -0.658  -1.485  0.00  0.00     0.023 A 
ATOM      2  C1  UNL d   1       1.289  -0.526  -0.454  0.00  0.00     0.003 A 
ATOM      3  C2  UNL d   1       0.884  -0.060   0.799  0.00  0.00     0.048 A 
ATOM      4  C3  UNL d   1      -0.453   0.270   1.014  0.00  0.00     0.023 A 
ATOM      5  C4  UNL d   1      -1.388   0.139  -0.014  0.00  0.00     0.048 A 
ATOM      6  C5  UNL d   1      -0.978  -0.326  -1.265  0.00  0.00     0.003 A 
ATOM      7  I   UNL d   1      -1.059   0.963   2.877  0.00  0.00    -0.146 I 
ENDROOT
TORSDOF 0
ENDMDL
