MODEL 1
REMARK minimizedAffinity -4.35550022
REMARK minimizedRMSD -1
REMARK  1 active torsions:
REMARK  status: ('A' for Active; 'I' for Inactive)
REMARK    1  A    between atoms: C1_2  and  C2_3 
ROOT
ATOM      1  C2  UNL d   1       0.047  -0.291  -0.932  0.00  0.00    -0.081 A 
ATOM      2  C3  UNL d   1       1.211  -1.013  -0.644  0.00  0.00     0.006 A 
ATOM      3  C4  UNL d   1       1.545  -1.322   0.677  0.00  0.00     0.002 A 
ATOM      4  C5  UNL d   1       0.716  -0.921   1.731  0.00  0.00    -0.080 A 
ATOM      5  C6  UNL d   1       1.046  -1.272   3.151  0.00  0.00     0.076 C 
ATOM      6  C7  UNL d   1      -0.438  -0.184   1.444  0.00  0.00     0.002 A 
ATOM      7  C8  UNL d   1      -0.772   0.125   0.124  0.00  0.00     0.006 A 
ENDROOT
BRANCH   1   8
ATOM      8  C1  UNL d   1      -0.349  -0.013  -2.359  0.00  0.00     0.054 C 
ATOM      9  C   UNL d   1      -0.780   1.436  -2.542  0.00  0.00     0.018 C 
ENDBRANCH   1   8
TORSDOF 1
ENDMDL
