MODEL 1
REMARK minimizedAffinity -4.53931236
REMARK minimizedRMSD -1
REMARK  1 active torsions:
REMARK  status: ('A' for Active; 'I' for Inactive)
REMARK    1  A    between atoms: C1_2  and  C2_3 
ROOT
ATOM      1  C2  UNL d   1       0.360   0.090  -0.058  0.00  0.00    -0.081 A 
ATOM      2  C3  UNL d   1      -0.429  -0.398  -1.108  0.00  0.00     0.006 A 
ATOM      3  C4  UNL d   1      -0.964   0.476  -2.057  0.00  0.00     0.002 A 
ATOM      4  C5  UNL d   1      -0.714   1.850  -1.978  0.00  0.00    -0.080 A 
ATOM      5  C6  UNL d   1      -1.257   2.796  -3.008  0.00  0.00     0.076 C 
ATOM      6  C7  UNL d   1       0.059   2.340  -0.920  0.00  0.00     0.002 A 
ATOM      7  C8  UNL d   1       0.594   1.467   0.030  0.00  0.00     0.006 A 
ENDROOT
BRANCH   1   8
ATOM      8  C1  UNL d   1       0.992  -0.856   0.930  0.00  0.00     0.054 C 
ATOM      9  C   UNL d   1       0.344  -0.737   2.302  0.00  0.00     0.018 C 
ENDBRANCH   1   8
TORSDOF 1
ENDMDL
