MODEL 1
REMARK minimizedAffinity -2.98713684
REMARK minimizedRMSD -1
REMARK  1 active torsions:
REMARK  status: ('A' for Active; 'I' for Inactive)
REMARK    1  A    between atoms: C1_2  and  C2_3 
ROOT
ATOM      1  C2  UNL d   1      -0.462   0.851  -1.019  0.00  0.00    -0.081 A 
ATOM      2  C3  UNL d   1      -1.153   1.200   0.148  0.00  0.00     0.006 A 
ATOM      3  C4  UNL d   1      -1.001   0.444   1.313  0.00  0.00     0.002 A 
ATOM      4  C5  UNL d   1      -0.150  -0.667   1.333  0.00  0.00    -0.080 A 
ATOM      5  C6  UNL d   1       0.045  -1.469   2.585  0.00  0.00     0.076 C 
ATOM      6  C7  UNL d   1       0.526  -1.026   0.162  0.00  0.00     0.002 A 
ATOM      7  C8  UNL d   1       0.374  -0.271  -1.004  0.00  0.00     0.006 A 
ENDROOT
BRANCH   1   8
ATOM      8  C1  UNL d   1      -0.574   1.702  -2.258  0.00  0.00     0.054 C 
ATOM      9  C   UNL d   1      -2.013   2.132  -2.506  0.00  0.00     0.018 C 
ENDBRANCH   1   8
TORSDOF 1
ENDMDL
