MODEL 1
REMARK minimizedAffinity 0.269254148
REMARK minimizedRMSD -1
REMARK  1 active torsions:
REMARK  status: ('A' for Active; 'I' for Inactive)
REMARK    1  A    between atoms: C1_2  and  C2_3 
ROOT
ATOM      1  C2  UNL d   1      -0.495   1.032  -1.007  0.00  0.00    -0.081 A 
ATOM      2  C3  UNL d   1      -0.213  -0.339  -1.053  0.00  0.00     0.006 A 
ATOM      3  C4  UNL d   1      -0.223  -1.103   0.117  0.00  0.00     0.002 A 
ATOM      4  C5  UNL d   1      -0.523  -0.512   1.349  0.00  0.00    -0.080 A 
ATOM      5  C6  UNL d   1      -0.568  -1.327   2.607  0.00  0.00     0.076 C 
ATOM      6  C7  UNL d   1      -0.788   0.861   1.397  0.00  0.00     0.002 A 
ATOM      7  C8  UNL d   1      -0.777   1.626   0.228  0.00  0.00     0.006 A 
ENDROOT
BRANCH   1   8
ATOM      8  C1  UNL d   1      -0.548   1.846  -2.275  0.00  0.00     0.054 C 
ATOM      9  C   UNL d   1      -1.673   2.870  -2.228  0.00  0.00     0.018 C 
ENDBRANCH   1   8
TORSDOF 1
ENDMDL
