MODEL 1
REMARK minimizedAffinity -3.88524294
REMARK minimizedRMSD -1
REMARK  1 active torsions:
REMARK  status: ('A' for Active; 'I' for Inactive)
REMARK    1  A    between atoms: C1_2  and  C2_3 
ROOT
ATOM      1  C2  UNL d   1      -0.715   1.489  -1.569  0.00  0.00    -0.081 A 
ATOM      2  C3  UNL d   1      -0.581   0.119  -1.824  0.00  0.00     0.006 A 
ATOM      3  C4  UNL d   1      -0.351  -0.778  -0.777  0.00  0.00     0.002 A 
ATOM      4  C5  UNL d   1      -0.261  -0.321   0.542  0.00  0.00    -0.080 A 
ATOM      5  C6  UNL d   1      -0.045  -1.276   1.678  0.00  0.00     0.076 C 
ATOM      6  C7  UNL d   1      -0.378   1.050   0.795  0.00  0.00     0.002 A 
ATOM      7  C8  UNL d   1      -0.607   1.947  -0.251  0.00  0.00     0.006 A 
ENDROOT
BRANCH   1   8
ATOM      8  C1  UNL d   1      -1.027   2.450  -2.687  0.00  0.00     0.054 C 
ATOM      9  C   UNL d   1      -2.280   3.261  -2.387  0.00  0.00     0.018 C 
ENDBRANCH   1   8
TORSDOF 1
ENDMDL
