MODEL 1
REMARK minimizedAffinity -1.7792207
REMARK minimizedRMSD -1
REMARK  1 active torsions:
REMARK  status: ('A' for Active; 'I' for Inactive)
REMARK    1  A    between atoms: C1_2  and  C2_3 
ROOT
ATOM      1  C2  UNL d   1      -0.565   0.650  -0.924  0.00  0.00    -0.081 A 
ATOM      2  C3  UNL d   1       0.458  -0.299  -1.038  0.00  0.00     0.006 A 
ATOM      3  C4  UNL d   1       0.881  -1.022   0.079  0.00  0.00     0.002 A 
ATOM      4  C5  UNL d   1       0.282  -0.815   1.327  0.00  0.00    -0.080 A 
ATOM      5  C6  UNL d   1       0.706  -1.607   2.528  0.00  0.00     0.076 C 
ATOM      6  C7  UNL d   1      -0.728   0.146   1.445  0.00  0.00     0.002 A 
ATOM      7  C8  UNL d   1      -1.150   0.870   0.328  0.00  0.00     0.006 A 
ENDROOT
BRANCH   1   8
ATOM      8  C1  UNL d   1      -1.067   1.386  -2.140  0.00  0.00     0.054 C 
ATOM      9  C   UNL d   1      -1.071   2.891  -1.914  0.00  0.00     0.018 C 
ENDBRANCH   1   8
TORSDOF 1
ENDMDL
