MODEL 1
REMARK minimizedAffinity -3.53098726
REMARK minimizedRMSD -1
REMARK  0 active torsions:
REMARK  status: ('A' for Active; 'I' for Inactive)
ROOT
ATOM      1  C4' PXY d   1      -1.930  -2.443   1.642  0.00  0.00     0.077 C 
ATOM      2  C1' PXY d   1       1.445   1.440  -0.994  0.00  0.00     0.077 C 
ATOM      3  C1  PXY d   1       0.570   0.414  -0.301  0.00  0.00    -0.082 A 
ATOM      4  C2  PXY d   1      -0.725   0.371  -0.568  0.00  0.00     0.003 A 
ATOM      5  C3  PXY d   1      -1.536  -0.529   0.074  0.00  0.00     0.003 A 
ATOM      6  C4  PXY d   1      -1.007  -1.430   0.959  0.00  0.00    -0.082 A 
ATOM      7  C5  PXY d   1       0.315  -1.399   1.229  0.00  0.00     0.003 A 
ATOM      8  C6  PXY d   1       1.115  -0.451   0.598  0.00  0.00     0.003 A 
ENDROOT
TORSDOF 0
ENDMDL
