MODEL 1
REMARK minimizedAffinity -5.34412766
REMARK minimizedRMSD -1
REMARK  0 active torsions:
REMARK  status: ('A' for Active; 'I' for Inactive)
ROOT
ATOM      1  C4' PXY d   1      -2.958  -1.985   1.799  0.00  0.00     0.077 C 
ATOM      2  C1' PXY d   1       1.132   1.274  -0.664  0.00  0.00     0.077 C 
ATOM      3  C1  PXY d   1       0.065   0.408  -0.023  0.00  0.00    -0.082 A 
ATOM      4  C2  PXY d   1      -1.116   0.932   0.264  0.00  0.00     0.003 A 
ATOM      5  C3  PXY d   1      -2.082   0.172   0.873  0.00  0.00     0.003 A 
ATOM      6  C4  PXY d   1      -1.854  -1.151   1.143  0.00  0.00    -0.082 A 
ATOM      7  C5  PXY d   1      -0.656  -1.695   0.843  0.00  0.00     0.003 A 
ATOM      8  C6  PXY d   1       0.325  -0.896   0.263  0.00  0.00     0.003 A 
ENDROOT
TORSDOF 0
ENDMDL
