MODEL 1
REMARK minimizedAffinity -4.32760859
REMARK minimizedRMSD -1
REMARK  0 active torsions:
REMARK  status: ('A' for Active; 'I' for Inactive)
ROOT
ATOM      1  C4' PXY d   1       1.143   1.423  -0.452  0.00  0.00     0.077 C 
ATOM      2  C1' PXY d   1      -2.282  -2.913   1.244  0.00  0.00     0.077 C 
ATOM      3  C1  PXY d   1      -1.374  -1.782   0.805  0.00  0.00    -0.082 A 
ATOM      4  C2  PXY d   1      -1.891  -0.593   0.539  0.00  0.00     0.003 A 
ATOM      5  C3  PXY d   1      -1.088   0.432   0.110  0.00  0.00     0.003 A 
ATOM      6  C4  PXY d   1       0.265   0.255   0.003  0.00  0.00    -0.082 A 
ATOM      7  C5  PXY d   1       0.802  -0.952   0.283  0.00  0.00     0.003 A 
ATOM      8  C6  PXY d   1      -0.035  -1.992   0.677  0.00  0.00     0.003 A 
ENDROOT
TORSDOF 0
ENDMDL
