MODEL 1
REMARK minimizedAffinity -4.83390284
REMARK minimizedRMSD -1
REMARK  0 active torsions:
REMARK  status: ('A' for Active; 'I' for Inactive)
ROOT
ATOM      1  C4' PXY d   1       0.930   1.978  -0.645  0.00  0.00     0.077 C 
ATOM      2  C1' PXY d   1      -0.916  -3.110   1.386  0.00  0.00     0.077 C 
ATOM      3  C1  PXY d   1      -0.444  -1.773   0.849  0.00  0.00    -0.082 A 
ATOM      4  C2  PXY d   1       0.834  -1.601   0.555  0.00  0.00     0.003 A 
ATOM      5  C3  PXY d   1       1.284  -0.388   0.099  0.00  0.00     0.003 A 
ATOM      6  C4  PXY d   1       0.407   0.642  -0.109  0.00  0.00    -0.082 A 
ATOM      7  C5  PXY d   1      -0.901   0.471   0.179  0.00  0.00     0.003 A 
ATOM      8  C6  PXY d   1      -1.330  -0.754   0.680  0.00  0.00     0.003 A 
ENDROOT
TORSDOF 0
ENDMDL
