MODEL 1
REMARK minimizedAffinity -4.81843615
REMARK minimizedRMSD -1
REMARK  0 active torsions:
REMARK  status: ('A' for Active; 'I' for Inactive)
ROOT
ATOM      1  C4' PXY d   1       1.076   0.632  -0.271  0.00  0.00     0.077 C 
ATOM      2  C1' PXY d   1      -3.366  -2.414   1.828  0.00  0.00     0.077 C 
ATOM      3  C1  PXY d   1      -2.193  -1.625   1.281  0.00  0.00    -0.082 A 
ATOM      4  C2  PXY d   1      -2.284  -0.310   1.171  0.00  0.00     0.003 A 
ATOM      5  C3  PXY d   1      -1.244   0.416   0.648  0.00  0.00     0.003 A 
ATOM      6  C4  PXY d   1      -0.079  -0.205   0.285  0.00  0.00    -0.082 A 
ATOM      7  C5  PXY d   1       0.025  -1.545   0.404  0.00  0.00     0.003 A 
ATOM      8  C6  PXY d   1      -1.057  -2.269   0.898  0.00  0.00     0.003 A 
ENDROOT
TORSDOF 0
ENDMDL
