MODEL 1
REMARK minimizedAffinity -2.12019014
REMARK minimizedRMSD -1
REMARK  0 active torsions:
REMARK  status: ('A' for Active; 'I' for Inactive)
ROOT
ATOM      1  C4' PXY d   1       0.611   1.975  -2.004  0.00  0.00     0.077 C 
ATOM      2  C1' PXY d   1      -1.057  -2.342   1.460  0.00  0.00     0.077 C 
ATOM      3  C1  PXY d   1      -0.630  -1.203   0.556  0.00  0.00    -0.082 A 
ATOM      4  C2  PXY d   1       0.116  -1.456  -0.507  0.00  0.00     0.003 A 
ATOM      5  C3  PXY d   1       0.538  -0.434  -1.318  0.00  0.00     0.003 A 
ATOM      6  C4  PXY d   1       0.148   0.855  -1.068  0.00  0.00    -0.082 A 
ATOM      7  C5  PXY d   1      -0.621   1.120   0.009  0.00  0.00     0.003 A 
ATOM      8  C6  PXY d   1      -1.005   0.073   0.843  0.00  0.00     0.003 A 
ENDROOT
TORSDOF 0
ENDMDL
