MODEL 1
REMARK minimizedAffinity -4.78120422
REMARK minimizedRMSD -1
REMARK  0 active torsions:
REMARK  status: ('A' for Active; 'I' for Inactive)
ROOT
ATOM      1  C4' PXY d   1       1.517   2.108  -0.270  0.00  0.00     0.077 C 
ATOM      2  C1' PXY d   1      -1.810  -2.481   0.867  0.00  0.00     0.077 C 
ATOM      3  C1  PXY d   1      -0.948  -1.271   0.565  0.00  0.00    -0.082 A 
ATOM      4  C2  PXY d   1       0.344  -1.431   0.329  0.00  0.00     0.003 A 
ATOM      5  C3  PXY d   1       1.145  -0.344   0.086  0.00  0.00     0.003 A 
ATOM      6  C4  PXY d   1       0.607   0.914   0.031  0.00  0.00    -0.082 A 
ATOM      7  C5  PXY d   1      -0.713   1.084   0.260  0.00  0.00     0.003 A 
ATOM      8  C6  PXY d   1      -1.500  -0.027   0.546  0.00  0.00     0.003 A 
ENDROOT
TORSDOF 0
ENDMDL
