MODEL 1
REMARK minimizedAffinity -1.16274905
REMARK minimizedRMSD -1
REMARK  0 active torsions:
REMARK  status: ('A' for Active; 'I' for Inactive)
ROOT
ATOM      1  C4' PXY d   1      -0.813  -2.705   1.991  0.00  0.00     0.077 C 
ATOM      2  C1' PXY d   1       0.537   1.976  -1.120  0.00  0.00     0.077 C 
ATOM      3  C1  PXY d   1       0.194   0.742  -0.309  0.00  0.00    -0.082 A 
ATOM      4  C2  PXY d   1      -1.053   0.548   0.090  0.00  0.00     0.003 A 
ATOM      5  C3  PXY d   1      -1.375  -0.546   0.852  0.00  0.00     0.003 A 
ATOM      6  C4  PXY d   1      -0.422  -1.479   1.163  0.00  0.00    -0.082 A 
ATOM      7  C5  PXY d   1       0.850  -1.293   0.750  0.00  0.00     0.003 A 
ATOM      8  C6  PXY d   1       1.165  -0.155   0.013  0.00  0.00     0.003 A 
ENDROOT
TORSDOF 0
ENDMDL
