MODEL 1
REMARK minimizedAffinity -5.28712225
REMARK minimizedRMSD -1
REMARK  0 active torsions:
REMARK  status: ('A' for Active; 'I' for Inactive)
ROOT
ATOM      1  C4' PXY d   1       0.634   1.334  -1.117  0.00  0.00     0.077 C 
ATOM      2  C1' PXY d   1      -2.090  -2.728   1.965  0.00  0.00     0.077 C 
ATOM      3  C1  PXY d   1      -1.364  -1.669   1.159  0.00  0.00    -0.082 A 
ATOM      4  C2  PXY d   1      -1.888  -0.459   1.046  0.00  0.00     0.003 A 
ATOM      5  C3  PXY d   1      -1.261   0.501   0.294  0.00  0.00     0.003 A 
ATOM      6  C4  PXY d   1      -0.059   0.236  -0.305  0.00  0.00    -0.082 A 
ATOM      7  C5  PXY d   1       0.488  -0.992  -0.185  0.00  0.00     0.003 A 
ATOM      8  C6  PXY d   1      -0.185  -1.965   0.548  0.00  0.00     0.003 A 
ENDROOT
TORSDOF 0
ENDMDL
