MODEL 1
REMARK minimizedAffinity -3.76671386
REMARK minimizedRMSD -1
REMARK  0 active torsions:
REMARK  status: ('A' for Active; 'I' for Inactive)
ROOT
ATOM      1  C4' PXY d   1       0.757   1.707  -0.815  0.00  0.00     0.077 C 
ATOM      2  C1' PXY d   1      -1.750  -3.039   1.331  0.00  0.00     0.077 C 
ATOM      3  C1  PXY d   1      -1.081  -1.799   0.771  0.00  0.00    -0.082 A 
ATOM      4  C2  PXY d   1      -1.762  -0.668   0.691  0.00  0.00     0.003 A 
ATOM      5  C3  PXY d   1      -1.182   0.454   0.158  0.00  0.00     0.003 A 
ATOM      6  C4  PXY d   1       0.125   0.433  -0.248  0.00  0.00    -0.082 A 
ATOM      7  C5  PXY d   1       0.830  -0.715  -0.159  0.00  0.00     0.003 A 
ATOM      8  C6  PXY d   1       0.211  -1.854   0.347  0.00  0.00     0.003 A 
ENDROOT
TORSDOF 0
ENDMDL
