MODEL 1
REMARK minimizedAffinity 0.8276667
REMARK minimizedRMSD -1
REMARK  0 active torsions:
REMARK  status: ('A' for Active; 'I' for Inactive)
ROOT
ATOM      1  C4' PXY d   1      -3.974   0.836   0.773  0.00  0.00     0.077 C 
ATOM      2  C1' PXY d   1       1.252  -1.479  -0.089  0.00  0.00     0.077 C 
ATOM      3  C1  PXY d   1      -0.124  -0.883   0.132  0.00  0.00    -0.082 A 
ATOM      4  C2  PXY d   1      -0.262   0.431   0.213  0.00  0.00     0.003 A 
ATOM      5  C3  PXY d   1      -1.495   0.985   0.444  0.00  0.00     0.003 A 
ATOM      6  C4  PXY d   1      -2.605   0.190   0.541  0.00  0.00    -0.082 A 
ATOM      7  C5  PXY d   1      -2.474  -1.150   0.449  0.00  0.00     0.003 A 
ATOM      8  C6  PXY d   1      -1.208  -1.696   0.255  0.00  0.00     0.003 A 
ENDROOT
TORSDOF 0
ENDMDL
