MODEL 1
REMARK minimizedAffinity -5.95758247
REMARK minimizedRMSD -1
REMARK  0 active torsions:
REMARK  status: ('A' for Active; 'I' for Inactive)
ROOT
ATOM      1  C4' PXY d   1       0.214   0.404  -2.174  0.00  0.00     0.077 C 
ATOM      2  C1' PXY d   1      -1.809  -3.033   2.009  0.00  0.00     0.077 C 
ATOM      3  C1  PXY d   1      -1.287  -2.123   0.916  0.00  0.00    -0.082 A 
ATOM      4  C2  PXY d   1      -0.667  -2.645  -0.130  0.00  0.00     0.003 A 
ATOM      5  C3  PXY d   1      -0.161  -1.834  -1.113  0.00  0.00     0.003 A 
ATOM      6  C4  PXY d   1      -0.338  -0.478  -1.051  0.00  0.00    -0.082 A 
ATOM      7  C5  PXY d   1      -0.978   0.062   0.008  0.00  0.00     0.003 A 
ATOM      8  C6  PXY d   1      -1.449  -0.775   1.015  0.00  0.00     0.003 A 
ENDROOT
TORSDOF 0
ENDMDL
