MODEL 1
REMARK minimizedAffinity -4.97316742
REMARK minimizedRMSD -1
REMARK  0 active torsions:
REMARK  status: ('A' for Active; 'I' for Inactive)
ROOT
ATOM      1  C4' PXY d   1       1.201   2.020  -1.348  0.00  0.00     0.077 C 
ATOM      2  C1' PXY d   1      -1.547  -2.224   1.454  0.00  0.00     0.077 C 
ATOM      3  C1  PXY d   1      -0.838  -1.105   0.718  0.00  0.00    -0.082 A 
ATOM      4  C2  PXY d   1       0.308  -1.349   0.103  0.00  0.00     0.003 A 
ATOM      5  C3  PXY d   1       0.979  -0.341  -0.540  0.00  0.00     0.003 A 
ATOM      6  C4  PXY d   1       0.445   0.918  -0.600  0.00  0.00    -0.082 A 
ATOM      7  C5  PXY d   1      -0.729   1.173   0.015  0.00  0.00     0.003 A 
ATOM      8  C6  PXY d   1      -1.374   0.146   0.698  0.00  0.00     0.003 A 
ENDROOT
TORSDOF 0
ENDMDL
