MODEL 1
REMARK minimizedAffinity -5.30025721
REMARK minimizedRMSD -1
REMARK  0 active torsions:
REMARK  status: ('A' for Active; 'I' for Inactive)
ROOT
ATOM      1  C4' PXY d   1       0.458   2.125  -1.660  0.00  0.00     0.077 C 
ATOM      2  C1' PXY d   1      -0.887  -2.592   1.398  0.00  0.00     0.077 C 
ATOM      3  C1  PXY d   1      -0.547  -1.350   0.598  0.00  0.00    -0.082 A 
ATOM      4  C2  PXY d   1       0.434  -1.392  -0.289  0.00  0.00     0.003 A 
ATOM      5  C3  PXY d   1       0.777  -0.270  -0.998  0.00  0.00     0.003 A 
ATOM      6  C4  PXY d   1       0.073   0.893  -0.837  0.00  0.00    -0.082 A 
ATOM      7  C5  PXY d   1      -0.936   0.941   0.059  0.00  0.00     0.003 A 
ATOM      8  C6  PXY d   1      -1.241  -0.197   0.798  0.00  0.00     0.003 A 
ENDROOT
TORSDOF 0
ENDMDL
