MODEL 1
REMARK minimizedAffinity -4.73184633
REMARK minimizedRMSD -1
REMARK  0 active torsions:
REMARK  status: ('A' for Active; 'I' for Inactive)
ROOT
ATOM      1  C4' PXY d   1      -1.768  -2.938   1.428  0.00  0.00     0.077 C 
ATOM      2  C1' PXY d   1       0.843   1.420  -1.330  0.00  0.00     0.077 C 
ATOM      3  C1  PXY d   1       0.167   0.269  -0.611  0.00  0.00    -0.082 A 
ATOM      4  C2  PXY d   1      -1.119   0.349  -0.313  0.00  0.00     0.003 A 
ATOM      5  C3  PXY d   1      -1.739  -0.669   0.365  0.00  0.00     0.003 A 
ATOM      6  C4  PXY d   1      -1.047  -1.804   0.695  0.00  0.00    -0.082 A 
ATOM      7  C5  PXY d   1       0.264  -1.898   0.384  0.00  0.00     0.003 A 
ATOM      8  C6  PXY d   1       0.884  -0.836  -0.268  0.00  0.00     0.003 A 
ENDROOT
TORSDOF 0
ENDMDL
