MODEL 1
REMARK minimizedAffinity -2.16368747
REMARK minimizedRMSD -1
REMARK  0 active torsions:
REMARK  status: ('A' for Active; 'I' for Inactive)
ROOT
ATOM      1  C4' PXY d   1       0.955   1.572  -0.157  0.00  0.00     0.077 C 
ATOM      2  C1' PXY d   1      -2.232  -3.016   1.330  0.00  0.00     0.077 C 
ATOM      3  C1  PXY d   1      -1.386  -1.818   0.946  0.00  0.00    -0.082 A 
ATOM      4  C2  PXY d   1      -1.975  -0.675   0.634  0.00  0.00     0.003 A 
ATOM      5  C3  PXY d   1      -1.226   0.410   0.254  0.00  0.00     0.003 A 
ATOM      6  C4  PXY d   1       0.141   0.339   0.245  0.00  0.00    -0.082 A 
ATOM      7  C5  PXY d   1       0.749  -0.821   0.573  0.00  0.00     0.003 A 
ATOM      8  C6  PXY d   1      -0.030  -1.922   0.916  0.00  0.00     0.003 A 
ENDROOT
TORSDOF 0
ENDMDL
