MODEL 1
REMARK minimizedAffinity -4.29853868
REMARK minimizedRMSD -1
REMARK  0 active torsions:
REMARK  status: ('A' for Active; 'I' for Inactive)
ROOT
ATOM      1  C4' PXY d   1       1.861   2.016  -1.042  0.00  0.00     0.077 C 
ATOM      2  C1' PXY d   1      -1.421  -2.124   1.306  0.00  0.00     0.077 C 
ATOM      3  C1  PXY d   1      -0.571  -1.032   0.686  0.00  0.00    -0.082 A 
ATOM      4  C2  PXY d   1       0.668  -1.302   0.310  0.00  0.00     0.003 A 
ATOM      5  C3  PXY d   1       1.461  -0.318  -0.222  0.00  0.00     0.003 A 
ATOM      6  C4  PXY d   1       0.963   0.942  -0.420  0.00  0.00    -0.082 A 
ATOM      7  C5  PXY d   1      -0.304   1.222  -0.049  0.00  0.00     0.003 A 
ATOM      8  C6  PXY d   1      -1.079   0.220   0.527  0.00  0.00     0.003 A 
ENDROOT
TORSDOF 0
ENDMDL
