MODEL 1
REMARK minimizedAffinity -6.1486969
REMARK minimizedRMSD -1
REMARK  0 active torsions:
REMARK  status: ('A' for Active; 'I' for Inactive)
ROOT
ATOM      1  C4' PXY d   1       1.524   1.718  -0.865  0.00  0.00     0.077 C 
ATOM      2  C1' PXY d   1      -1.510  -2.739   1.221  0.00  0.00     0.077 C 
ATOM      3  C1  PXY d   1      -0.726  -1.565   0.668  0.00  0.00    -0.082 A 
ATOM      4  C2  PXY d   1       0.578  -1.683   0.475  0.00  0.00     0.003 A 
ATOM      5  C3  PXY d   1       1.309  -0.621   0.007  0.00  0.00     0.003 A 
ATOM      6  C4  PXY d   1       0.690   0.556  -0.318  0.00  0.00    -0.082 A 
ATOM      7  C5  PXY d   1      -0.642   0.681  -0.134  0.00  0.00     0.003 A 
ATOM      8  C6  PXY d   1      -1.359  -0.395   0.382  0.00  0.00     0.003 A 
ENDROOT
TORSDOF 0
ENDMDL
