MODEL 1
REMARK minimizedAffinity -4.65502787
REMARK minimizedRMSD -1
REMARK  0 active torsions:
REMARK  status: ('A' for Active; 'I' for Inactive)
ROOT
ATOM      1  C4' PXY d   1       1.227   1.736  -0.454  0.00  0.00     0.077 C 
ATOM      2  C1' PXY d   1      -2.106  -2.621   1.370  0.00  0.00     0.077 C 
ATOM      3  C1  PXY d   1      -1.243  -1.472   0.888  0.00  0.00    -0.082 A 
ATOM      4  C2  PXY d   1       0.013  -1.699   0.537  0.00  0.00     0.003 A 
ATOM      5  C3  PXY d   1       0.817  -0.666   0.130  0.00  0.00     0.003 A 
ATOM      6  C4  PXY d   1       0.316   0.605   0.030  0.00  0.00    -0.082 A 
ATOM      7  C5  PXY d   1      -0.967   0.843   0.376  0.00  0.00     0.003 A 
ATOM      8  C6  PXY d   1      -1.755  -0.213   0.826  0.00  0.00     0.003 A 
ENDROOT
TORSDOF 0
ENDMDL
