MODEL 1
REMARK minimizedAffinity -1.09572041
REMARK minimizedRMSD -1
REMARK  0 active torsions:
REMARK  status: ('A' for Active; 'I' for Inactive)
ROOT
ATOM      1  C4' PXY d   1      -1.596   1.568   0.933  0.00  0.00     0.077 C 
ATOM      2  C1' PXY d   1       1.762  -3.106   0.391  0.00  0.00     0.077 C 
ATOM      3  C1  PXY d   1       0.892  -1.873   0.532  0.00  0.00    -0.082 A 
ATOM      4  C2  PXY d   1      -0.281  -1.965   1.136  0.00  0.00     0.003 A 
ATOM      5  C3  PXY d   1      -1.095  -0.867   1.244  0.00  0.00     0.003 A 
ATOM      6  C4  PXY d   1      -0.680   0.351   0.776  0.00  0.00    -0.082 A 
ATOM      7  C5  PXY d   1       0.521   0.456   0.168  0.00  0.00     0.003 A 
ATOM      8  C6  PXY d   1       1.314  -0.680   0.032  0.00  0.00     0.003 A 
ENDROOT
TORSDOF 0
ENDMDL
