MODEL 1
REMARK minimizedAffinity 9.21227837
REMARK minimizedRMSD -1
REMARK  1 active torsions:
REMARK  status: ('A' for Active; 'I' for Inactive)
REMARK    1  A    between atoms: C3_4  and  O_7 
ROOT
ATOM      1  C   UNL d   1      -0.383  -2.228  -2.334  0.00  0.00    -0.033 A 
ATOM      2  C1  UNL d   1      -0.780  -3.352  -3.061  0.00  0.00     0.039 A 
ATOM      3  C2  UNL d   1      -0.406  -4.628  -2.637  0.00  0.00    -0.080 A 
ATOM      4  C3  UNL d   1       0.364  -4.767  -1.485  0.00  0.00     0.150 A 
ATOM      5  C4  UNL d   1       0.760  -3.653  -0.754  0.00  0.00    -0.007 A 
ATOM      6  C5  UNL d   1       0.386  -2.379  -1.179  0.00  0.00     0.039 A 
ENDROOT
BRANCH   4   7
ATOM      7  O   UNL d   1       0.757  -5.992  -1.035  0.00  0.00    -0.526 OA
ATOM      8  H5  UNL d   1       0.435  -6.667  -1.656  0.00  0.00     0.418 HD
ENDBRANCH   4   7
TORSDOF 1
ENDMDL
