MODEL 1
REMARK minimizedAffinity -1.29818988
REMARK minimizedRMSD -1
REMARK  1 active torsions:
REMARK  status: ('A' for Active; 'I' for Inactive)
REMARK    1  A    between atoms: C3_4  and  O_7 
ROOT
ATOM      1  C   UNL d   1      -1.036   4.846  -1.986  0.00  0.00    -0.033 A 
ATOM      2  C1  UNL d   1       0.141   4.097  -1.928  0.00  0.00     0.039 A 
ATOM      3  C2  UNL d   1       0.485   3.425  -0.753  0.00  0.00    -0.080 A 
ATOM      4  C3  UNL d   1      -0.355   3.509   0.354  0.00  0.00     0.150 A 
ATOM      5  C4  UNL d   1      -1.531   4.250   0.302  0.00  0.00    -0.007 A 
ATOM      6  C5  UNL d   1      -1.873   4.921  -0.872  0.00  0.00     0.039 A 
ENDROOT
BRANCH   4   7
ATOM      7  O   UNL d   1      -0.058   2.874   1.523  0.00  0.00    -0.526 OA
ATOM      8  H5  UNL d   1       0.798   2.425   1.421  0.00  0.00     0.418 HD
ENDBRANCH   4   7
TORSDOF 1
ENDMDL
