MODEL 1
REMARK minimizedAffinity 4.38031197
REMARK minimizedRMSD -1
REMARK  1 active torsions:
REMARK  status: ('A' for Active; 'I' for Inactive)
REMARK    1  A    between atoms: C3_4  and  O_7 
ROOT
ATOM      1  C   UNL d   1      -1.946   5.998  -1.912  0.00  0.00    -0.033 A 
ATOM      2  C1  UNL d   1      -1.713   5.998  -0.536  0.00  0.00     0.039 A 
ATOM      3  C2  UNL d   1      -0.667   5.242  -0.003  0.00  0.00    -0.080 A 
ATOM      4  C3  UNL d   1       0.139   4.493  -0.857  0.00  0.00     0.150 A 
ATOM      5  C4  UNL d   1      -0.086   4.491  -2.230  0.00  0.00    -0.007 A 
ATOM      6  C5  UNL d   1      -1.131   5.246  -2.760  0.00  0.00     0.039 A 
ENDROOT
BRANCH   4   7
ATOM      7  O   UNL d   1       1.169   3.736  -0.383  0.00  0.00    -0.526 OA
ATOM      8  H5  UNL d   1       1.186   3.811   0.586  0.00  0.00     0.418 HD
ENDBRANCH   4   7
TORSDOF 1
ENDMDL
