MODEL 1
REMARK minimizedAffinity 4.92026186
REMARK minimizedRMSD -1
REMARK  1 active torsions:
REMARK  status: ('A' for Active; 'I' for Inactive)
REMARK    1  A    between atoms: C3_4  and  O_7 
ROOT
ATOM      1  C   UNL d   1       0.822   2.082   3.376  0.00  0.00    -0.033 A 
ATOM      2  C1  UNL d   1       1.903   2.940   3.162  0.00  0.00     0.039 A 
ATOM      3  C2  UNL d   1       1.917   3.785   2.051  0.00  0.00    -0.080 A 
ATOM      4  C3  UNL d   1       0.845   3.763   1.163  0.00  0.00     0.150 A 
ATOM      5  C4  UNL d   1      -0.236   2.913   1.371  0.00  0.00    -0.007 A 
ATOM      6  C5  UNL d   1      -0.248   2.070   2.481  0.00  0.00     0.039 A 
ENDROOT
BRANCH   4   7
ATOM      7  O   UNL d   1       0.816   4.566   0.061  0.00  0.00    -0.526 OA
ATOM      8  H5  UNL d   1       1.642   5.077   0.031  0.00  0.00     0.418 HD
ENDBRANCH   4   7
TORSDOF 1
ENDMDL
