MODEL 1
REMARK minimizedAffinity 11.1718683
REMARK minimizedRMSD -1
REMARK  1 active torsions:
REMARK  status: ('A' for Active; 'I' for Inactive)
REMARK    1  A    between atoms: C3_4  and  O_7 
ROOT
ATOM      1  C   UNL d   1      -5.977   2.989  -3.608  0.00  0.00    -0.033 A 
ATOM      2  C1  UNL d   1      -5.958   3.131  -4.997  0.00  0.00     0.039 A 
ATOM      3  C2  UNL d   1      -5.953   1.999  -5.816  0.00  0.00    -0.080 A 
ATOM      4  C3  UNL d   1      -5.967   0.735  -5.234  0.00  0.00     0.150 A 
ATOM      5  C4  UNL d   1      -5.990   0.587  -3.851  0.00  0.00    -0.007 A 
ATOM      6  C5  UNL d   1      -5.994   1.717  -3.035  0.00  0.00     0.039 A 
ENDROOT
BRANCH   4   7
ATOM      7  O   UNL d   1      -5.958  -0.398  -5.992  0.00  0.00    -0.526 OA
ATOM      8  H5  UNL d   1      -5.913  -0.142  -6.928  0.00  0.00     0.418 HD
ENDBRANCH   4   7
TORSDOF 1
ENDMDL
