MODEL 1
REMARK minimizedAffinity -1.51556623
REMARK minimizedRMSD -1
REMARK  1 active torsions:
REMARK  status: ('A' for Active; 'I' for Inactive)
REMARK    1  A    between atoms: C3_4  and  O_7 
ROOT
ATOM      1  C   UNL d   1      -2.075   5.999  -1.466  0.00  0.00    -0.033 A 
ATOM      2  C1  UNL d   1      -1.821   5.987  -0.093  0.00  0.00     0.039 A 
ATOM      3  C2  UNL d   1      -1.009   4.995   0.459  0.00  0.00    -0.080 A 
ATOM      4  C3  UNL d   1      -0.457   4.023  -0.371  0.00  0.00     0.150 A 
ATOM      5  C4  UNL d   1      -0.703   4.032  -1.740  0.00  0.00    -0.007 A 
ATOM      6  C5  UNL d   1      -1.515   5.023  -2.290  0.00  0.00     0.039 A 
ENDROOT
BRANCH   4   7
ATOM      7  O   UNL d   1       0.338   3.032   0.123  0.00  0.00    -0.526 OA
ATOM      8  H5  UNL d   1       0.397   3.137   1.088  0.00  0.00     0.418 HD
ENDBRANCH   4   7
TORSDOF 1
ENDMDL
