MODEL 1
REMARK minimizedAffinity 6.84835577
REMARK minimizedRMSD -1
REMARK  1 active torsions:
REMARK  status: ('A' for Active; 'I' for Inactive)
REMARK    1  A    between atoms: C3_4  and  O_7 
ROOT
ATOM      1  C   UNL d   1      -5.145   5.622  -5.289  0.00  0.00    -0.033 A 
ATOM      2  C1  UNL d   1      -4.301   4.520  -5.138  0.00  0.00     0.039 A 
ATOM      3  C2  UNL d   1      -4.304   3.795  -3.944  0.00  0.00    -0.080 A 
ATOM      4  C3  UNL d   1      -5.154   4.182  -2.912  0.00  0.00     0.150 A 
ATOM      5  C4  UNL d   1      -6.000   5.276  -3.057  0.00  0.00    -0.007 A 
ATOM      6  C5  UNL d   1      -5.995   5.999  -4.249  0.00  0.00     0.039 A 
ENDROOT
BRANCH   4   7
ATOM      7  O   UNL d   1      -5.188   3.508  -1.727  0.00  0.00    -0.526 OA
ATOM      8  H5  UNL d   1      -4.530   2.794  -1.760  0.00  0.00     0.418 HD
ENDBRANCH   4   7
TORSDOF 1
ENDMDL
