MODEL 1
REMARK minimizedAffinity -1.71621752
REMARK minimizedRMSD -1
REMARK  1 active torsions:
REMARK  status: ('A' for Active; 'I' for Inactive)
REMARK    1  A    between atoms: C3_4  and  O_7 
ROOT
ATOM      1  C   UNL d   1       0.595   2.841   3.383  0.00  0.00    -0.033 A 
ATOM      2  C1  UNL d   1      -0.330   3.230   2.412  0.00  0.00     0.039 A 
ATOM      3  C2  UNL d   1       0.111   3.735   1.187  0.00  0.00    -0.080 A 
ATOM      4  C3  UNL d   1       1.478   3.844   0.946  0.00  0.00     0.150 A 
ATOM      5  C4  UNL d   1       2.405   3.455   1.907  0.00  0.00    -0.007 A 
ATOM      6  C5  UNL d   1       1.962   2.952   3.130  0.00  0.00     0.039 A 
ENDROOT
BRANCH   4   7
ATOM      7  O   UNL d   1       1.957   4.335  -0.233  0.00  0.00    -0.526 OA
ATOM      8  H5  UNL d   1       1.202   4.590  -0.789  0.00  0.00     0.418 HD
ENDBRANCH   4   7
TORSDOF 1
ENDMDL
