MODEL 1
REMARK minimizedAffinity 4.22982645
REMARK minimizedRMSD -1
REMARK  1 active torsions:
REMARK  status: ('A' for Active; 'I' for Inactive)
REMARK    1  A    between atoms: C3_4  and  O_7 
ROOT
ATOM      1  C   UNL d   1      -4.863   4.006  -1.836  0.00  0.00    -0.033 A 
ATOM      2  C1  UNL d   1      -4.466   3.006  -2.726  0.00  0.00     0.039 A 
ATOM      3  C2  UNL d   1      -4.837   3.077  -4.070  0.00  0.00    -0.080 A 
ATOM      4  C3  UNL d   1      -5.603   4.153  -4.511  0.00  0.00     0.150 A 
ATOM      5  C4  UNL d   1      -5.999   5.154  -3.630  0.00  0.00    -0.007 A 
ATOM      6  C5  UNL d   1      -5.628   5.081  -2.288  0.00  0.00     0.039 A 
ENDROOT
BRANCH   4   7
ATOM      7  O   UNL d   1      -5.994   4.263  -5.812  0.00  0.00    -0.526 OA
ATOM      8  H5  UNL d   1      -5.672   3.485  -6.297  0.00  0.00     0.418 HD
ENDBRANCH   4   7
TORSDOF 1
ENDMDL
