MODEL 1
REMARK minimizedAffinity 3.26230884
REMARK minimizedRMSD -1
REMARK  1 active torsions:
REMARK  status: ('A' for Active; 'I' for Inactive)
REMARK    1  A    between atoms: C3_4  and  O_7 
ROOT
ATOM      1  C   UNL d   1       3.761   5.467  -0.511  0.00  0.00    -0.033 A 
ATOM      2  C1  UNL d   1       3.211   4.910   0.645  0.00  0.00     0.039 A 
ATOM      3  C2  UNL d   1       3.951   4.882   1.829  0.00  0.00    -0.080 A 
ATOM      4  C3  UNL d   1       5.237   5.414   1.843  0.00  0.00     0.150 A 
ATOM      5  C4  UNL d   1       5.790   5.974   0.696  0.00  0.00    -0.007 A 
ATOM      6  C5  UNL d   1       5.050   6.000  -0.486  0.00  0.00     0.039 A 
ENDROOT
BRANCH   4   7
ATOM      7  O   UNL d   1       6.000   5.405   2.973  0.00  0.00    -0.526 OA
ATOM      8  H5  UNL d   1       5.499   4.962   3.678  0.00  0.00     0.418 HD
ENDBRANCH   4   7
TORSDOF 1
ENDMDL
