MODEL 1
REMARK minimizedAffinity 5.12563038
REMARK minimizedRMSD -1
REMARK  1 active torsions:
REMARK  status: ('A' for Active; 'I' for Inactive)
REMARK    1  A    between atoms: C3_4  and  O_7 
ROOT
ATOM      1  C   UNL d   1       1.423  -1.575   2.711  0.00  0.00    -0.033 A 
ATOM      2  C1  UNL d   1       0.060  -1.875   2.694  0.00  0.00     0.039 A 
ATOM      3  C2  UNL d   1      -0.852  -0.958   2.168  0.00  0.00    -0.080 A 
ATOM      4  C3  UNL d   1      -0.388   0.253   1.661  0.00  0.00     0.150 A 
ATOM      5  C4  UNL d   1       0.970   0.556   1.671  0.00  0.00    -0.007 A 
ATOM      6  C5  UNL d   1       1.878  -0.360   2.198  0.00  0.00     0.039 A 
ENDROOT
BRANCH   4   7
ATOM      7  O   UNL d   1      -1.240   1.181   1.142  0.00  0.00    -0.526 OA
ATOM      8  H5  UNL d   1      -2.149   0.847   1.227  0.00  0.00     0.418 HD
ENDBRANCH   4   7
TORSDOF 1
ENDMDL
