MODEL 1
REMARK minimizedAffinity 2.5355556
REMARK minimizedRMSD -1
REMARK  1 active torsions:
REMARK  status: ('A' for Active; 'I' for Inactive)
REMARK    1  A    between atoms: C3_4  and  O_7 
ROOT
ATOM      1  C   UNL d   1       0.586   0.476   1.722  0.00  0.00    -0.033 A 
ATOM      2  C1  UNL d   1      -0.502  -0.347   2.020  0.00  0.00     0.039 A 
ATOM      3  C2  UNL d   1      -0.338  -1.443   2.870  0.00  0.00    -0.080 A 
ATOM      4  C3  UNL d   1       0.916  -1.704   3.415  0.00  0.00     0.150 A 
ATOM      5  C4  UNL d   1       2.003  -0.886   3.126  0.00  0.00    -0.007 A 
ATOM      6  C5  UNL d   1       1.838   0.207   2.277  0.00  0.00     0.039 A 
ENDROOT
BRANCH   4   7
ATOM      7  O   UNL d   1       1.125  -2.764   4.246  0.00  0.00    -0.526 OA
ATOM      8  H5  UNL d   1       0.291  -3.257   4.332  0.00  0.00     0.418 HD
ENDBRANCH   4   7
TORSDOF 1
ENDMDL
