MODEL 1
REMARK minimizedAffinity -1.5643388
REMARK minimizedRMSD -1
REMARK  1 active torsions:
REMARK  status: ('A' for Active; 'I' for Inactive)
REMARK    1  A    between atoms: C3_4  and  O_7 
ROOT
ATOM      1  C   UNL d   1      -0.096   0.438   1.227  0.00  0.00    -0.033 A 
ATOM      2  C1  UNL d   1       1.199  -0.079   1.292  0.00  0.00     0.039 A 
ATOM      3  C2  UNL d   1       1.545  -0.976   2.305  0.00  0.00    -0.080 A 
ATOM      4  C3  UNL d   1       0.588  -1.348   3.244  0.00  0.00     0.150 A 
ATOM      5  C4  UNL d   1      -0.706  -0.840   3.183  0.00  0.00    -0.007 A 
ATOM      6  C5  UNL d   1      -1.049   0.057   2.172  0.00  0.00     0.039 A 
ENDROOT
BRANCH   4   7
ATOM      7  O   UNL d   1       0.879  -2.217   4.253  0.00  0.00    -0.526 OA
ATOM      8  H5  UNL d   1       1.817  -2.463   4.186  0.00  0.00     0.418 HD
ENDBRANCH   4   7
TORSDOF 1
ENDMDL
