MODEL 1
REMARK minimizedAffinity 4.47845459
REMARK minimizedRMSD -1
REMARK  1 active torsions:
REMARK  status: ('A' for Active; 'I' for Inactive)
REMARK    1  A    between atoms: C3_4  and  O_7 
ROOT
ATOM      1  C   UNL d   1      -0.274   0.374   1.104  0.00  0.00    -0.033 A 
ATOM      2  C1  UNL d   1       1.069  -0.007   1.129  0.00  0.00     0.039 A 
ATOM      3  C2  UNL d   1       1.572  -0.728   2.214  0.00  0.00    -0.080 A 
ATOM      4  C3  UNL d   1       0.723  -1.061   3.265  0.00  0.00     0.150 A 
ATOM      5  C4  UNL d   1      -0.617  -0.687   3.245  0.00  0.00    -0.007 A 
ATOM      6  C5  UNL d   1      -1.117   0.033   2.161  0.00  0.00     0.039 A 
ENDROOT
BRANCH   4   7
ATOM      7  O   UNL d   1       1.170  -1.758   4.348  0.00  0.00    -0.526 OA
ATOM      8  H5  UNL d   1       2.121  -1.923   4.237  0.00  0.00     0.418 HD
ENDBRANCH   4   7
TORSDOF 1
ENDMDL
