MODEL 1
REMARK minimizedAffinity 2.30044055
REMARK minimizedRMSD -1
REMARK  1 active torsions:
REMARK  status: ('A' for Active; 'I' for Inactive)
REMARK    1  A    between atoms: C3_4  and  O_7 
ROOT
ATOM      1  C   UNL d   1       0.798  -1.557   3.354  0.00  0.00    -0.033 A 
ATOM      2  C1  UNL d   1      -0.527  -1.995   3.296  0.00  0.00     0.039 A 
ATOM      3  C2  UNL d   1      -1.416  -1.416   2.388  0.00  0.00    -0.080 A 
ATOM      4  C3  UNL d   1      -0.969  -0.402   1.546  0.00  0.00     0.150 A 
ATOM      5  C4  UNL d   1       0.350   0.036   1.596  0.00  0.00    -0.007 A 
ATOM      6  C5  UNL d   1       1.236  -0.542   2.503  0.00  0.00     0.039 A 
ENDROOT
BRANCH   4   7
ATOM      7  O   UNL d   1      -1.801   0.196   0.647  0.00  0.00    -0.526 OA
ATOM      8  H5  UNL d   1      -2.688  -0.189   0.745  0.00  0.00     0.418 HD
ENDBRANCH   4   7
TORSDOF 1
ENDMDL
