MODEL 1
REMARK minimizedAffinity -2.28107476
REMARK minimizedRMSD -1
REMARK  1 active torsions:
REMARK  status: ('A' for Active; 'I' for Inactive)
REMARK    1  A    between atoms: C3_4  and  O_7 
ROOT
ATOM      1  C   UNL d   1       1.304  -0.785   2.709  0.00  0.00    -0.033 A 
ATOM      2  C1  UNL d   1       0.663  -0.913   3.943  0.00  0.00     0.039 A 
ATOM      3  C2  UNL d   1      -0.728  -0.826   4.022  0.00  0.00    -0.080 A 
ATOM      4  C3  UNL d   1      -1.466  -0.611   2.862  0.00  0.00     0.150 A 
ATOM      5  C4  UNL d   1      -0.835  -0.486   1.628  0.00  0.00    -0.007 A 
ATOM      6  C5  UNL d   1       0.555  -0.573   1.552  0.00  0.00     0.039 A 
ENDROOT
BRANCH   4   7
ATOM      7  O   UNL d   1      -2.826  -0.514   2.889  0.00  0.00    -0.526 OA
ATOM      8  H5  UNL d   1      -3.121  -0.591   3.812  0.00  0.00     0.418 HD
ENDBRANCH   4   7
TORSDOF 1
ENDMDL
