MODEL 1
REMARK minimizedAffinity 7.86760092
REMARK minimizedRMSD -1
REMARK  1 active torsions:
REMARK  status: ('A' for Active; 'I' for Inactive)
REMARK    1  A    between atoms: C3_4  and  O_7 
ROOT
ATOM      1  C   UNL d   1      -1.121   0.655   1.280  0.00  0.00    -0.033 A 
ATOM      2  C1  UNL d   1      -1.644  -0.604   1.582  0.00  0.00     0.039 A 
ATOM      3  C2  UNL d   1      -0.927  -1.482   2.397  0.00  0.00    -0.080 A 
ATOM      4  C3  UNL d   1       0.309  -1.089   2.904  0.00  0.00     0.150 A 
ATOM      5  C4  UNL d   1       0.833   0.165   2.611  0.00  0.00    -0.007 A 
ATOM      6  C5  UNL d   1       0.116   1.040   1.796  0.00  0.00     0.039 A 
ENDROOT
BRANCH   4   7
ATOM      7  O   UNL d   1       1.047  -1.914   3.700  0.00  0.00    -0.526 OA
ATOM      8  H5  UNL d   1       0.573  -2.757   3.794  0.00  0.00     0.418 HD
ENDBRANCH   4   7
TORSDOF 1
ENDMDL
