MODEL 1
REMARK minimizedAffinity -4.26015329
REMARK minimizedRMSD -1
REMARK  2 active torsions:
REMARK  status: ('A' for Active; 'I' for Inactive)
REMARK    1  A    between atoms: C1_2  and  C2_3 
REMARK    2  A    between atoms: C2_3  and  C3_4 
ROOT
ATOM      1  C3  UNL d   1      -0.509   1.806  -1.490  0.00  0.00    -0.075 A 
ATOM      2  C4  UNL d   1       0.562   2.586  -1.951  0.00  0.00     0.002 A 
ATOM      3  C5  UNL d   1       0.330   3.714  -2.737  0.00  0.00     0.002 A 
ATOM      4  C6  UNL d   1      -0.971   4.072  -3.081  0.00  0.00    -0.004 A 
ATOM      5  C7  UNL d   1      -2.042   3.296  -2.643  0.00  0.00     0.002 A 
ATOM      6  C8  UNL d   1      -1.813   2.168  -1.852  0.00  0.00     0.002 A 
ENDROOT
BRANCH   1   7
ATOM      7  C2  UNL d   1      -0.266   0.601  -0.614  0.00  0.00     0.056 C 
BRANCH   7   8
ATOM      8  C1  UNL d   1       0.787  -0.368  -1.163  0.00  0.00     0.007 C 
ATOM      9  C   UNL d   1       1.718  -0.914  -0.089  0.00  0.00     0.009 C 
ENDBRANCH   7   8
ENDBRANCH   1   7
TORSDOF 2
ENDMDL
