MODEL 1
REMARK minimizedAffinity -5.91586161
REMARK minimizedRMSD -1
REMARK  2 active torsions:
REMARK  status: ('A' for Active; 'I' for Inactive)
REMARK    1  A    between atoms: C1_2  and  C2_3 
REMARK    2  A    between atoms: C2_3  and  C3_4 
ROOT
ATOM      1  C3  UNL d   1       0.055  -0.340   0.242  0.00  0.00    -0.075 A 
ATOM      2  C4  UNL d   1       1.446  -0.503   0.308  0.00  0.00     0.002 A 
ATOM      3  C5  UNL d   1       2.071  -0.773   1.526  0.00  0.00     0.002 A 
ATOM      4  C6  UNL d   1       1.316  -0.874   2.692  0.00  0.00    -0.004 A 
ATOM      5  C7  UNL d   1      -0.065  -0.698   2.641  0.00  0.00     0.002 A 
ATOM      6  C8  UNL d   1      -0.693  -0.432   1.423  0.00  0.00     0.002 A 
ENDROOT
BRANCH   1   7
ATOM      7  C2  UNL d   1      -0.631  -0.077  -1.077  0.00  0.00     0.056 C 
BRANCH   7   8
ATOM      8  C1  UNL d   1       0.000   1.057  -1.892  0.00  0.00     0.007 C 
ATOM      9  C   UNL d   1      -1.009   2.100  -2.351  0.00  0.00     0.009 C 
ENDBRANCH   7   8
ENDBRANCH   1   7
TORSDOF 2
ENDMDL
