MODEL 1
REMARK minimizedAffinity -3.23722577
REMARK minimizedRMSD -1
REMARK  2 active torsions:
REMARK  status: ('A' for Active; 'I' for Inactive)
REMARK    1  A    between atoms: C1_2  and  C2_3 
REMARK    2  A    between atoms: C2_3  and  C3_4 
ROOT
ATOM      1  C3  UNL d   1      -0.501   0.810  -1.085  0.00  0.00    -0.075 A 
ATOM      2  C4  UNL d   1       0.717   1.445  -1.367  0.00  0.00     0.002 A 
ATOM      3  C5  UNL d   1       0.756   2.567  -2.195  0.00  0.00     0.002 A 
ATOM      4  C6  UNL d   1      -0.418   3.061  -2.760  0.00  0.00    -0.004 A 
ATOM      5  C7  UNL d   1      -1.632   2.428  -2.500  0.00  0.00     0.002 A 
ATOM      6  C8  UNL d   1      -1.674   1.308  -1.668  0.00  0.00     0.002 A 
ENDROOT
BRANCH   1   7
ATOM      7  C2  UNL d   1      -0.554  -0.387  -0.166  0.00  0.00     0.056 C 
BRANCH   7   8
ATOM      8  C1  UNL d   1      -1.038  -0.064   1.252  0.00  0.00     0.007 C 
ATOM      9  C   UNL d   1      -0.083  -0.544   2.337  0.00  0.00     0.009 C 
ENDBRANCH   7   8
ENDBRANCH   1   7
TORSDOF 2
ENDMDL
