MODEL 1
REMARK minimizedAffinity -5.9143405
REMARK minimizedRMSD -1
REMARK  2 active torsions:
REMARK  status: ('A' for Active; 'I' for Inactive)
REMARK    1  A    between atoms: C1_2  and  C2_3 
REMARK    2  A    between atoms: C2_3  and  C3_4 
ROOT
ATOM      1  C3  UNL d   1       0.743  -0.462   0.884  0.00  0.00    -0.075 A 
ATOM      2  C4  UNL d   1       1.827  -1.098   0.262  0.00  0.00     0.002 A 
ATOM      3  C5  UNL d   1       2.771  -1.792   1.020  0.00  0.00     0.002 A 
ATOM      4  C6  UNL d   1       2.649  -1.850   2.406  0.00  0.00    -0.004 A 
ATOM      5  C7  UNL d   1       1.585  -1.207   3.036  0.00  0.00     0.002 A 
ATOM      6  C8  UNL d   1       0.637  -0.516   2.280  0.00  0.00     0.002 A 
ENDROOT
BRANCH   1   7
ATOM      7  C2  UNL d   1      -0.298   0.266   0.067  0.00  0.00     0.056 C 
BRANCH   7   8
ATOM      8  C1  UNL d   1       0.172   0.654  -1.339  0.00  0.00     0.007 C 
ATOM      9  C   UNL d   1      -0.646   1.782  -1.955  0.00  0.00     0.009 C 
ENDBRANCH   7   8
ENDBRANCH   1   7
TORSDOF 2
ENDMDL
