MODEL 1
REMARK minimizedAffinity -5.507833
REMARK minimizedRMSD -1
REMARK  2 active torsions:
REMARK  status: ('A' for Active; 'I' for Inactive)
REMARK    1  A    between atoms: C1_2  and  C2_3 
REMARK    2  A    between atoms: C2_3  and  C3_4 
ROOT
ATOM      1  C3  UNL d   1      -0.403   0.219  -0.395  0.00  0.00    -0.075 A 
ATOM      2  C4  UNL d   1      -1.246   0.287   0.724  0.00  0.00     0.002 A 
ATOM      3  C5  UNL d   1      -0.858  -0.279   1.939  0.00  0.00     0.002 A 
ATOM      4  C6  UNL d   1       0.371  -0.926   2.048  0.00  0.00    -0.004 A 
ATOM      5  C7  UNL d   1       1.210  -1.013   0.939  0.00  0.00     0.002 A 
ATOM      6  C8  UNL d   1       0.825  -0.444  -0.277  0.00  0.00     0.002 A 
ENDROOT
BRANCH   1   7
ATOM      7  C2  UNL d   1      -0.805   0.855  -1.705  0.00  0.00     0.056 C 
BRANCH   7   8
ATOM      8  C1  UNL d   1      -0.137   2.207  -1.973  0.00  0.00     0.007 C 
ATOM      9  C   UNL d   1      -1.118   3.371  -1.979  0.00  0.00     0.009 C 
ENDBRANCH   7   8
ENDBRANCH   1   7
TORSDOF 2
ENDMDL
