MODEL 1
REMARK minimizedAffinity -3.45947862
REMARK minimizedRMSD -1
REMARK  2 active torsions:
REMARK  status: ('A' for Active; 'I' for Inactive)
REMARK    1  A    between atoms: C1_2  and  C2_3 
REMARK    2  A    between atoms: C2_3  and  C3_4 
ROOT
ATOM      1  C3  UNL d   1       2.897  -0.780   2.026  0.00  0.00    -0.075 A 
ATOM      2  C4  UNL d   1       2.619   0.264   1.131  0.00  0.00     0.002 A 
ATOM      3  C5  UNL d   1       3.594   0.711   0.239  0.00  0.00     0.002 A 
ATOM      4  C6  UNL d   1       4.860   0.129   0.237  0.00  0.00    -0.004 A 
ATOM      5  C7  UNL d   1       5.152  -0.897   1.133  0.00  0.00     0.002 A 
ATOM      6  C8  UNL d   1       4.177  -1.350   2.023  0.00  0.00     0.002 A 
ENDROOT
BRANCH   1   7
ATOM      7  C2  UNL d   1       1.836  -1.288   2.973  0.00  0.00     0.056 C 
BRANCH   7   8
ATOM      8  C1  UNL d   1       0.711  -2.070   2.288  0.00  0.00     0.007 C 
ATOM      9  C   UNL d   1       1.201  -3.314   1.559  0.00  0.00     0.009 C 
ENDBRANCH   7   8
ENDBRANCH   1   7
TORSDOF 2
ENDMDL
