MODEL 1
REMARK minimizedAffinity 4.21162987
REMARK minimizedRMSD -1
REMARK  3 active torsions:
REMARK  status: ('A' for Active; 'I' for Inactive)
REMARK    1  A    between atoms: C3'_2  and  C2'_3 
REMARK    2  A    between atoms: C2'_3  and  C1'_4 
REMARK    3  A    between atoms: C1'_4  and  C1_5 
ROOT
ATOM      1  C1  N4B d   1       3.382   3.505  -4.855  0.00  0.00    -0.075 A 
ATOM      2  C2  N4B d   1       4.062   4.470  -5.630  0.00  0.00     0.002 A 
ATOM      3  C3  N4B d   1       3.423   5.628  -5.999  0.00  0.00     0.002 A 
ATOM      4  C4  N4B d   1       2.104   5.834  -5.623  0.00  0.00    -0.004 A 
ATOM      5  C5  N4B d   1       1.463   4.909  -4.853  0.00  0.00     0.002 A 
ATOM      6  C6  N4B d   1       2.094   3.742  -4.471  0.00  0.00     0.002 A 
ENDROOT
BRANCH   1   7
ATOM      7  C1' N4B d   1       4.011   2.185  -4.500  0.00  0.00     0.057 C 
BRANCH   7   8
ATOM      8  C2' N4B d   1       3.821   1.925  -3.008  0.00  0.00     0.009 C 
BRANCH   8   9
ATOM      9  C3' N4B d   1       5.140   1.950  -2.255  0.00  0.00     0.004 C 
ATOM     10  C4' N4B d   1       4.973   1.709  -0.784  0.00  0.00     0.003 C 
ENDBRANCH   8   9
ENDBRANCH   7   8
ENDBRANCH   1   7
TORSDOF 3
ENDMDL
