MODEL 1
REMARK minimizedAffinity 15.565052
REMARK minimizedRMSD -1
REMARK  3 active torsions:
REMARK  status: ('A' for Active; 'I' for Inactive)
REMARK    1  A    between atoms: C3'_2  and  C2'_3 
REMARK    2  A    between atoms: C2'_3  and  C1'_4 
REMARK    3  A    between atoms: C1'_4  and  C1_5 
ROOT
ATOM      1  C1  N4B d   1      -1.525  -3.506   1.061  0.00  0.00    -0.075 A 
ATOM      2  C2  N4B d   1      -0.606  -4.452   1.565  0.00  0.00     0.002 A 
ATOM      3  C3  N4B d   1      -1.045  -5.691   1.961  0.00  0.00     0.002 A 
ATOM      4  C4  N4B d   1      -2.395  -5.999   1.881  0.00  0.00    -0.004 A 
ATOM      5  C5  N4B d   1      -3.272  -5.088   1.369  0.00  0.00     0.002 A 
ATOM      6  C6  N4B d   1      -2.844  -3.840   0.963  0.00  0.00     0.002 A 
ENDROOT
BRANCH   1   7
ATOM      7  C1' N4B d   1      -1.105  -2.108   0.695  0.00  0.00     0.057 C 
BRANCH   7   8
ATOM      8  C2' N4B d   1       0.418  -2.021   0.714  0.00  0.00     0.009 C 
BRANCH   8   9
ATOM      9  C3' N4B d   1       0.906  -0.742   1.372  0.00  0.00     0.004 C 
ATOM     10  C4' N4B d   1       2.067  -0.124   0.650  0.00  0.00     0.003 C 
ENDBRANCH   8   9
ENDBRANCH   7   8
ENDBRANCH   1   7
TORSDOF 3
ENDMDL
