MODEL 1
REMARK minimizedAffinity 21.3050251
REMARK minimizedRMSD -1
REMARK  3 active torsions:
REMARK  status: ('A' for Active; 'I' for Inactive)
REMARK    1  A    between atoms: C3'_2  and  C2'_3 
REMARK    2  A    between atoms: C2'_3  and  C1'_4 
REMARK    3  A    between atoms: C1'_4  and  C1_5 
ROOT
ATOM      1  C1  N4B d   1      -4.258   0.526   3.703  0.00  0.00    -0.075 A 
ATOM      2  C2  N4B d   1      -4.902   0.032   4.859  0.00  0.00     0.002 A 
ATOM      3  C3  N4B d   1      -4.965   0.805   5.993  0.00  0.00     0.002 A 
ATOM      4  C4  N4B d   1      -4.378   2.061   6.000  0.00  0.00    -0.004 A 
ATOM      5  C5  N4B d   1      -3.781   2.541   4.871  0.00  0.00     0.002 A 
ATOM      6  C6  N4B d   1      -3.713   1.777   3.724  0.00  0.00     0.002 A 
ENDROOT
BRANCH   1   7
ATOM      7  C1' N4B d   1      -4.088  -0.315   2.468  0.00  0.00     0.057 C 
BRANCH   7   8
ATOM      8  C2' N4B d   1      -2.748  -1.042   2.537  0.00  0.00     0.009 C 
BRANCH   8   9
ATOM      9  C3' N4B d   1      -2.482  -1.862   1.287  0.00  0.00     0.004 C 
ATOM     10  C4' N4B d   1      -1.235  -2.690   1.390  0.00  0.00     0.003 C 
ENDBRANCH   8   9
ENDBRANCH   7   8
ENDBRANCH   1   7
TORSDOF 3
ENDMDL
