MODEL 1
REMARK minimizedAffinity 11.7262001
REMARK minimizedRMSD -1
REMARK  3 active torsions:
REMARK  status: ('A' for Active; 'I' for Inactive)
REMARK    1  A    between atoms: C3'_2  and  C2'_3 
REMARK    2  A    between atoms: C2'_3  and  C1'_4 
REMARK    3  A    between atoms: C1'_4  and  C1_5 
ROOT
ATOM      1  C1  N4B d   1       2.425   4.096  -4.011  0.00  0.00    -0.075 A 
ATOM      2  C2  N4B d   1       3.621   4.837  -4.136  0.00  0.00     0.002 A 
ATOM      3  C3  N4B d   1       3.739   5.787  -5.121  0.00  0.00     0.002 A 
ATOM      4  C4  N4B d   1       2.687   5.999  -5.999  0.00  0.00    -0.004 A 
ATOM      5  C5  N4B d   1       1.527   5.297  -5.855  0.00  0.00     0.002 A 
ATOM      6  C6  N4B d   1       1.392   4.341  -4.868  0.00  0.00     0.002 A 
ENDROOT
BRANCH   1   7
ATOM      7  C1' N4B d   1       2.281   2.987  -3.004  0.00  0.00     0.057 C 
BRANCH   7   8
ATOM      8  C2' N4B d   1       3.582   2.192  -2.945  0.00  0.00     0.009 C 
BRANCH   8   9
ATOM      9  C3' N4B d   1       4.187   2.197  -1.552  0.00  0.00     0.004 C 
ATOM     10  C4' N4B d   1       3.570   1.173  -0.646  0.00  0.00     0.003 C 
ENDBRANCH   8   9
ENDBRANCH   7   8
ENDBRANCH   1   7
TORSDOF 3
ENDMDL
