MODEL 1
REMARK minimizedAffinity 5.56584263
REMARK minimizedRMSD -1
REMARK  3 active torsions:
REMARK  status: ('A' for Active; 'I' for Inactive)
REMARK    1  A    between atoms: C3'_2  and  C2'_3 
REMARK    2  A    between atoms: C2'_3  and  C1'_4 
REMARK    3  A    between atoms: C1'_4  and  C1_5 
ROOT
ATOM      1  C1  N4B d   1      -1.118   3.736  -0.408  0.00  0.00    -0.075 A 
ATOM      2  C2  N4B d   1      -0.725   4.372   0.790  0.00  0.00     0.002 A 
ATOM      3  C3  N4B d   1       0.389   3.937   1.465  0.00  0.00     0.002 A 
ATOM      4  C4  N4B d   1       1.112   2.861   0.973  0.00  0.00    -0.004 A 
ATOM      5  C5  N4B d   1       0.741   2.268  -0.198  0.00  0.00     0.002 A 
ATOM      6  C6  N4B d   1      -0.375   2.697  -0.889  0.00  0.00     0.002 A 
ENDROOT
BRANCH   1   7
ATOM      7  C1' N4B d   1      -2.377   4.121  -1.135  0.00  0.00     0.057 C 
BRANCH   7   8
ATOM      8  C2' N4B d   1      -2.847   5.484  -0.637  0.00  0.00     0.009 C 
BRANCH   8   9
ATOM      9  C3' N4B d   1      -4.209   5.856  -1.198  0.00  0.00     0.004 C 
ATOM     10  C4' N4B d   1      -5.262   5.974  -0.138  0.00  0.00     0.003 C 
ENDBRANCH   8   9
ENDBRANCH   7   8
ENDBRANCH   1   7
TORSDOF 3
ENDMDL
