MODEL 1
REMARK minimizedAffinity 18.9510746
REMARK minimizedRMSD -1
REMARK  3 active torsions:
REMARK  status: ('A' for Active; 'I' for Inactive)
REMARK    1  A    between atoms: C3'_2  and  C2'_3 
REMARK    2  A    between atoms: C2'_3  and  C1'_4 
REMARK    3  A    between atoms: C1'_4  and  C1_5 
ROOT
ATOM      1  C1  N4B d   1      -2.299  -3.040  -0.923  0.00  0.00    -0.075 A 
ATOM      2  C2  N4B d   1      -1.524  -3.707   0.052  0.00  0.00     0.002 A 
ATOM      3  C3  N4B d   1      -1.315  -3.125   1.278  0.00  0.00     0.002 A 
ATOM      4  C4  N4B d   1      -1.852  -1.874   1.545  0.00  0.00    -0.004 A 
ATOM      5  C5  N4B d   1      -2.621  -1.249   0.607  0.00  0.00     0.002 A 
ATOM      6  C6  N4B d   1      -2.843  -1.823  -0.628  0.00  0.00     0.002 A 
ENDROOT
BRANCH   1   7
ATOM      7  C1' N4B d   1      -2.484  -3.597  -2.307  0.00  0.00     0.057 C 
BRANCH   7   8
ATOM      8  C2' N4B d   1      -3.498  -2.741  -3.061  0.00  0.00     0.009 C 
BRANCH   8   9
ATOM      9  C3' N4B d   1      -4.800  -3.483  -3.304  0.00  0.00     0.004 C 
ATOM     10  C4' N4B d   1      -5.669  -2.813  -4.327  0.00  0.00     0.003 C 
ENDBRANCH   8   9
ENDBRANCH   7   8
ENDBRANCH   1   7
TORSDOF 3
ENDMDL
