MODEL 1
REMARK minimizedAffinity 17.3904781
REMARK minimizedRMSD -1
REMARK  3 active torsions:
REMARK  status: ('A' for Active; 'I' for Inactive)
REMARK    1  A    between atoms: C3'_2  and  C2'_3 
REMARK    2  A    between atoms: C2'_3  and  C1'_4 
REMARK    3  A    between atoms: C1'_4  and  C1_5 
ROOT
ATOM      1  C1  N4B d   1      -4.072   2.892   2.388  0.00  0.00    -0.075 A 
ATOM      2  C2  N4B d   1      -4.769   1.669   2.275  0.00  0.00     0.002 A 
ATOM      3  C3  N4B d   1      -4.442   0.614   3.091  0.00  0.00     0.002 A 
ATOM      4  C4  N4B d   1      -3.413   0.752   4.011  0.00  0.00    -0.004 A 
ATOM      5  C5  N4B d   1      -2.762   1.945   4.132  0.00  0.00     0.002 A 
ATOM      6  C6  N4B d   1      -3.083   3.015   3.321  0.00  0.00     0.002 A 
ENDROOT
BRANCH   1   7
ATOM      7  C1' N4B d   1      -4.336   4.046   1.460  0.00  0.00     0.057 C 
BRANCH   7   8
ATOM      8  C2' N4B d   1      -3.006   4.598   0.956  0.00  0.00     0.009 C 
BRANCH   8   9
ATOM      9  C3' N4B d   1      -3.091   5.051  -0.492  0.00  0.00     0.004 C 
ATOM     10  C4' N4B d   1      -2.251   4.216  -1.412  0.00  0.00     0.003 C 
ENDBRANCH   8   9
ENDBRANCH   7   8
ENDBRANCH   1   7
TORSDOF 3
ENDMDL
