MODEL 1
REMARK minimizedAffinity 18.6936436
REMARK minimizedRMSD -1
REMARK  3 active torsions:
REMARK  status: ('A' for Active; 'I' for Inactive)
REMARK    1  A    between atoms: C3'_2  and  C2'_3 
REMARK    2  A    between atoms: C2'_3  and  C1'_4 
REMARK    3  A    between atoms: C1'_4  and  C1_5 
ROOT
ATOM      1  C1  N4B d   1      -2.538  -3.472   1.561  0.00  0.00    -0.075 A 
ATOM      2  C2  N4B d   1      -3.433  -4.564   1.529  0.00  0.00     0.002 A 
ATOM      3  C3  N4B d   1      -3.004  -5.814   1.901  0.00  0.00     0.002 A 
ATOM      4  C4  N4B d   1      -1.686  -6.000   2.290  0.00  0.00    -0.004 A 
ATOM      5  C5  N4B d   1      -0.835  -4.935   2.343  0.00  0.00     0.002 A 
ATOM      6  C6  N4B d   1      -1.253  -3.672   1.975  0.00  0.00     0.002 A 
ENDROOT
BRANCH   1   7
ATOM      7  C1' N4B d   1      -2.938  -2.103   1.081  0.00  0.00     0.057 C 
BRANCH   7   8
ATOM      8  C2' N4B d   1      -2.934  -1.138   2.263  0.00  0.00     0.009 C 
BRANCH   8   9
ATOM      9  C3' N4B d   1      -4.209  -0.313   2.326  0.00  0.00     0.004 C 
ATOM     10  C4' N4B d   1      -4.145   0.776   3.356  0.00  0.00     0.003 C 
ENDBRANCH   8   9
ENDBRANCH   7   8
ENDBRANCH   1   7
TORSDOF 3
ENDMDL
