MODEL 1
REMARK minimizedAffinity 11.8304472
REMARK minimizedRMSD -1
REMARK  3 active torsions:
REMARK  status: ('A' for Active; 'I' for Inactive)
REMARK    1  A    between atoms: C3'_2  and  C2'_3 
REMARK    2  A    between atoms: C2'_3  and  C1'_4 
REMARK    3  A    between atoms: C1'_4  and  C1_5 
ROOT
ATOM      1  C1  N4B d   1      -3.244  -4.810  -2.959  0.00  0.00    -0.075 A 
ATOM      2  C2  N4B d   1      -3.886  -5.979  -2.495  0.00  0.00     0.002 A 
ATOM      3  C3  N4B d   1      -5.248  -5.990  -2.318  0.00  0.00     0.002 A 
ATOM      4  C4  N4B d   1      -5.983  -4.843  -2.578  0.00  0.00    -0.004 A 
ATOM      5  C5  N4B d   1      -5.358  -3.726  -3.050  0.00  0.00     0.002 A 
ATOM      6  C6  N4B d   1      -3.991  -3.702  -3.237  0.00  0.00     0.002 A 
ENDROOT
BRANCH   1   7
ATOM      7  C1' N4B d   1      -1.748  -4.724  -3.087  0.00  0.00     0.057 C 
BRANCH   7   8
ATOM      8  C2' N4B d   1      -1.259  -5.835  -4.010  0.00  0.00     0.009 C 
BRANCH   8   9
ATOM      9  C3' N4B d   1       0.194  -5.644  -4.411  0.00  0.00     0.004 C 
ATOM     10  C4' N4B d   1       0.452  -5.998  -5.845  0.00  0.00     0.003 C 
ENDBRANCH   8   9
ENDBRANCH   7   8
ENDBRANCH   1   7
TORSDOF 3
ENDMDL
