MODEL 1
REMARK minimizedAffinity 22.1891041
REMARK minimizedRMSD -1
REMARK  3 active torsions:
REMARK  status: ('A' for Active; 'I' for Inactive)
REMARK    1  A    between atoms: C3'_2  and  C2'_3 
REMARK    2  A    between atoms: C2'_3  and  C1'_4 
REMARK    3  A    between atoms: C1'_4  and  C1_5 
ROOT
ATOM      1  C1  N4B d   1      -3.089  -4.111  -2.916  0.00  0.00    -0.075 A 
ATOM      2  C2  N4B d   1      -3.878  -3.034  -3.377  0.00  0.00     0.002 A 
ATOM      3  C3  N4B d   1      -5.248  -3.123  -3.344  0.00  0.00     0.002 A 
ATOM      4  C4  N4B d   1      -5.849  -4.282  -2.874  0.00  0.00    -0.004 A 
ATOM      5  C5  N4B d   1      -5.079  -5.308  -2.408  0.00  0.00     0.002 A 
ATOM      6  C6  N4B d   1      -3.701  -5.230  -2.431  0.00  0.00     0.002 A 
ENDROOT
BRANCH   1   7
ATOM      7  C1' N4B d   1      -1.588  -4.093  -3.013  0.00  0.00     0.057 C 
BRANCH   7   8
ATOM      8  C2' N4B d   1      -1.120  -5.337  -3.762  0.00  0.00     0.009 C 
BRANCH   8   9
ATOM      9  C3' N4B d   1      -0.114  -5.000  -4.850  0.00  0.00     0.004 C 
ATOM     10  C4' N4B d   1       1.009  -5.990  -4.929  0.00  0.00     0.003 C 
ENDBRANCH   8   9
ENDBRANCH   7   8
ENDBRANCH   1   7
TORSDOF 3
ENDMDL
