MODEL 1
REMARK minimizedAffinity 16.1893349
REMARK minimizedRMSD -1
REMARK  3 active torsions:
REMARK  status: ('A' for Active; 'I' for Inactive)
REMARK    1  A    between atoms: C3'_2  and  C2'_3 
REMARK    2  A    between atoms: C2'_3  and  C1'_4 
REMARK    3  A    between atoms: C1'_4  and  C1_5 
ROOT
ATOM      1  C1  N4B d   1      -1.462  -4.156   1.854  0.00  0.00    -0.075 A 
ATOM      2  C2  N4B d   1      -1.447  -3.385   3.037  0.00  0.00     0.002 A 
ATOM      3  C3  N4B d   1      -1.209  -2.034   2.972  0.00  0.00     0.002 A 
ATOM      4  C4  N4B d   1      -0.965  -1.438   1.744  0.00  0.00    -0.004 A 
ATOM      5  C5  N4B d   1      -1.006  -2.186   0.603  0.00  0.00     0.002 A 
ATOM      6  C6  N4B d   1      -1.248  -3.544   0.653  0.00  0.00     0.002 A 
ENDROOT
BRANCH   1   7
ATOM      7  C1' N4B d   1      -1.632  -5.651   1.882  0.00  0.00     0.057 C 
BRANCH   7   8
ATOM      8  C2' N4B d   1      -3.057  -5.984   2.314  0.00  0.00     0.009 C 
BRANCH   8   9
ATOM      9  C3' N4B d   1      -4.025  -5.963   1.144  0.00  0.00     0.004 C 
ATOM     10  C4' N4B d   1      -5.461  -5.994   1.577  0.00  0.00     0.003 C 
ENDBRANCH   8   9
ENDBRANCH   7   8
ENDBRANCH   1   7
TORSDOF 3
ENDMDL
