MODEL 1
REMARK minimizedAffinity 17.1181221
REMARK minimizedRMSD -1
REMARK  3 active torsions:
REMARK  status: ('A' for Active; 'I' for Inactive)
REMARK    1  A    between atoms: C3'_2  and  C2'_3 
REMARK    2  A    between atoms: C2'_3  and  C1'_4 
REMARK    3  A    between atoms: C1'_4  and  C1_5 
ROOT
ATOM      1  C1  N4B d   1      -3.619  -2.961  -3.158  0.00  0.00    -0.075 A 
ATOM      2  C2  N4B d   1      -4.823  -3.281  -2.494  0.00  0.00     0.002 A 
ATOM      3  C3  N4B d   1      -6.000  -3.347  -3.200  0.00  0.00     0.002 A 
ATOM      4  C4  N4B d   1      -5.999  -3.079  -4.560  0.00  0.00    -0.004 A 
ATOM      5  C5  N4B d   1      -4.828  -2.795  -5.199  0.00  0.00     0.002 A 
ATOM      6  C6  N4B d   1      -3.637  -2.730  -4.503  0.00  0.00     0.002 A 
ENDROOT
BRANCH   1   7
ATOM      7  C1' N4B d   1      -2.322  -2.793  -2.414  0.00  0.00     0.057 C 
BRANCH   7   8
ATOM      8  C2' N4B d   1      -2.457  -1.638  -1.426  0.00  0.00     0.009 C 
BRANCH   8   9
ATOM      9  C3' N4B d   1      -2.641  -2.128  -0.000  0.00  0.00     0.004 C 
ATOM     10  C4' N4B d   1      -1.357  -2.161   0.773  0.00  0.00     0.003 C 
ENDBRANCH   8   9
ENDBRANCH   7   8
ENDBRANCH   1   7
TORSDOF 3
ENDMDL
