MODEL 1
REMARK minimizedAffinity 9.29929256
REMARK minimizedRMSD -1
REMARK  3 active torsions:
REMARK  status: ('A' for Active; 'I' for Inactive)
REMARK    1  A    between atoms: C3'_2  and  C2'_3 
REMARK    2  A    between atoms: C2'_3  and  C1'_4 
REMARK    3  A    between atoms: C1'_4  and  C1_5 
ROOT
ATOM      1  C1  N4B d   1      -3.594  -3.625  -2.597  0.00  0.00    -0.075 A 
ATOM      2  C2  N4B d   1      -3.713  -4.935  -2.085  0.00  0.00     0.002 A 
ATOM      3  C3  N4B d   1      -4.776  -5.723  -2.453  0.00  0.00     0.002 A 
ATOM      4  C4  N4B d   1      -5.739  -5.217  -3.314  0.00  0.00    -0.004 A 
ATOM      5  C5  N4B d   1      -5.603  -3.959  -3.824  0.00  0.00     0.002 A 
ATOM      6  C6  N4B d   1      -4.538  -3.158  -3.465  0.00  0.00     0.002 A 
ENDROOT
BRANCH   1   7
ATOM      7  C1' N4B d   1      -2.496  -2.696  -2.156  0.00  0.00     0.057 C 
BRANCH   7   8
ATOM      8  C2' N4B d   1      -2.525  -2.572  -0.635  0.00  0.00     0.009 C 
BRANCH   8   9
ATOM      9  C3' N4B d   1      -1.228  -3.045  -0.002  0.00  0.00     0.004 C 
ATOM     10  C4' N4B d   1      -1.447  -3.805   1.273  0.00  0.00     0.003 C 
ENDBRANCH   8   9
ENDBRANCH   7   8
ENDBRANCH   1   7
TORSDOF 3
ENDMDL
