MODEL 1
REMARK minimizedAffinity -2.08100724
REMARK minimizedRMSD -1
REMARK  1 active torsions:
REMARK  status: ('A' for Active; 'I' for Inactive)
REMARK    1  A    between atoms: C1_2  and  C2_3 
ROOT
ATOM      1  C2  UNL d   1       0.555  -1.034  -0.277  0.00  0.00    -0.073 A 
ATOM      2  C3  UNL d   1      -0.020  -1.117   0.997  0.00  0.00    -0.002 A 
ATOM      3  C4  UNL d   1      -0.726  -0.034   1.523  0.00  0.00     0.004 A 
ATOM      4  C5  UNL d   1      -0.870   1.138   0.780  0.00  0.00    -0.004 A 
ATOM      5  C6  UNL d   1      -0.312   1.236  -0.499  0.00  0.00    -0.075 A 
ATOM      6  C7  UNL d   1      -0.456   2.490  -1.309  0.00  0.00     0.076 C 
ATOM      7  C8  UNL d   1       0.397   0.145  -1.019  0.00  0.00     0.001 A 
ENDROOT
BRANCH   1   8
ATOM      8  C1  UNL d   1       1.313  -2.203  -0.852  0.00  0.00     0.053 C 
ATOM      9  C   UNL d   1       0.512  -2.932  -1.919  0.00  0.00     0.018 C 
ENDBRANCH   1   8
TORSDOF 1
ENDMDL
