MODEL 1
REMARK minimizedAffinity -2.88065553
REMARK minimizedRMSD -1
REMARK  1 active torsions:
REMARK  status: ('A' for Active; 'I' for Inactive)
REMARK    1  A    between atoms: C1_2  and  C2_3 
ROOT
ATOM      1  C2  UNL d   1      -0.423   0.401  -0.121  0.00  0.00    -0.073 A 
ATOM      2  C3  UNL d   1      -1.565   1.001  -0.665  0.00  0.00    -0.002 A 
ATOM      3  C4  UNL d   1      -2.412   1.764   0.141  0.00  0.00     0.004 A 
ATOM      4  C5  UNL d   1      -2.123   1.940   1.494  0.00  0.00    -0.004 A 
ATOM      5  C6  UNL d   1      -0.980   1.358   2.053  0.00  0.00    -0.075 A 
ATOM      6  C7  UNL d   1      -0.657   1.535   3.507  0.00  0.00     0.076 C 
ATOM      7  C8  UNL d   1      -0.136   0.591   1.238  0.00  0.00     0.001 A 
ENDROOT
BRANCH   1   8
ATOM      8  C1  UNL d   1       0.497  -0.418  -0.989  0.00  0.00     0.053 C 
ATOM      9  C   UNL d   1      -0.171  -1.689  -1.488  0.00  0.00     0.018 C 
ENDBRANCH   1   8
TORSDOF 1
ENDMDL
