MODEL 1
REMARK minimizedAffinity -2.81136799
REMARK minimizedRMSD -1
REMARK  1 active torsions:
REMARK  status: ('A' for Active; 'I' for Inactive)
REMARK    1  A    between atoms: C1_2  and  C2_3 
ROOT
ATOM      1  C2  UNL d   1       0.752  -0.933  -0.182  0.00  0.00    -0.073 A 
ATOM      2  C3  UNL d   1       0.455  -0.970   1.185  0.00  0.00    -0.002 A 
ATOM      3  C4  UNL d   1      -0.302   0.045   1.770  0.00  0.00     0.004 A 
ATOM      4  C5  UNL d   1      -0.776   1.103   0.995  0.00  0.00    -0.004 A 
ATOM      5  C6  UNL d   1      -0.500   1.152  -0.375  0.00  0.00    -0.075 A 
ATOM      6  C7  UNL d   1      -1.001   2.285  -1.223  0.00  0.00     0.076 C 
ATOM      7  C8  UNL d   1       0.263   0.130  -0.955  0.00  0.00     0.001 A 
ENDROOT
BRANCH   1   8
ATOM      8  C1  UNL d   1       1.564  -2.031  -0.819  0.00  0.00     0.053 C 
ATOM      9  C   UNL d   1       0.706  -2.955  -1.669  0.00  0.00     0.018 C 
ENDBRANCH   1   8
TORSDOF 1
ENDMDL
