MODEL 1
REMARK minimizedAffinity -4.25495386
REMARK minimizedRMSD -1
REMARK  1 active torsions:
REMARK  status: ('A' for Active; 'I' for Inactive)
REMARK    1  A    between atoms: C1_2  and  C2_3 
ROOT
ATOM      1  C2  UNL d   1       0.135   0.166   0.009  0.00  0.00    -0.073 A 
ATOM      2  C3  UNL d   1       0.153  -0.427   1.276  0.00  0.00    -0.002 A 
ATOM      3  C4  UNL d   1      -0.537   0.158   2.338  0.00  0.00     0.004 A 
ATOM      4  C5  UNL d   1      -1.256   1.337   2.144  0.00  0.00    -0.004 A 
ATOM      5  C6  UNL d   1      -1.296   1.939   0.882  0.00  0.00    -0.075 A 
ATOM      6  C7  UNL d   1      -2.063   3.209   0.656  0.00  0.00     0.076 C 
ATOM      7  C8  UNL d   1      -0.599   1.346  -0.179  0.00  0.00     0.001 A 
ENDROOT
BRANCH   1   8
ATOM      8  C1  UNL d   1       0.873  -0.466  -1.143  0.00  0.00     0.053 C 
ATOM      9  C   UNL d   1       0.395  -1.883  -1.417  0.00  0.00     0.018 C 
ENDBRANCH   1   8
TORSDOF 1
ENDMDL
