MODEL 1
REMARK minimizedAffinity 5.76947403
REMARK minimizedRMSD -1
REMARK  1 active torsions:
REMARK  status: ('A' for Active; 'I' for Inactive)
REMARK    1  A    between atoms: C1_2  and  C2_3 
ROOT
ATOM      1  C2  UNL d   1       0.098   0.196  -0.256  0.00  0.00    -0.073 A 
ATOM      2  C3  UNL d   1       0.768   1.424  -0.299  0.00  0.00    -0.002 A 
ATOM      3  C4  UNL d   1       0.140   2.550  -0.833  0.00  0.00     0.004 A 
ATOM      4  C5  UNL d   1      -1.163   2.463  -1.322  0.00  0.00    -0.004 A 
ATOM      5  C6  UNL d   1      -1.853   1.247  -1.276  0.00  0.00    -0.075 A 
ATOM      6  C7  UNL d   1      -3.255   1.135  -1.800  0.00  0.00     0.076 C 
ATOM      7  C8  UNL d   1      -1.215   0.120  -0.741  0.00  0.00     0.001 A 
ENDROOT
BRANCH   1   8
ATOM      8  C1  UNL d   1       0.769  -1.022   0.326  0.00  0.00     0.053 C 
ATOM      9  C   UNL d   1       1.578  -0.688   1.569  0.00  0.00     0.018 C 
ENDBRANCH   1   8
TORSDOF 1
ENDMDL
