MODEL 1
REMARK minimizedAffinity -2.53760576
REMARK minimizedRMSD -1
REMARK  1 active torsions:
REMARK  status: ('A' for Active; 'I' for Inactive)
REMARK    1  A    between atoms: C1_2  and  C2_3 
ROOT
ATOM      1  C2  UNL d   1      -0.421  -0.055   0.957  0.00  0.00    -0.073 A 
ATOM      2  C3  UNL d   1      -1.457   0.793   1.363  0.00  0.00    -0.002 A 
ATOM      3  C4  UNL d   1      -1.576   2.072   0.817  0.00  0.00     0.004 A 
ATOM      4  C5  UNL d   1      -0.666   2.513  -0.143  0.00  0.00    -0.004 A 
ATOM      5  C6  UNL d   1       0.370   1.676  -0.570  0.00  0.00    -0.075 A 
ATOM      6  C7  UNL d   1       1.358   2.136  -1.601  0.00  0.00     0.076 C 
ATOM      7  C8  UNL d   1       0.484   0.394  -0.016  0.00  0.00     0.001 A 
ENDROOT
BRANCH   1   8
ATOM      8  C1  UNL d   1      -0.292  -1.439   1.538  0.00  0.00     0.053 C 
ATOM      9  C   UNL d   1       0.465  -1.436   2.857  0.00  0.00     0.018 C 
ENDBRANCH   1   8
TORSDOF 1
ENDMDL
