MODEL 1
REMARK minimizedAffinity -2.19677424
REMARK minimizedRMSD -1
REMARK  1 active torsions:
REMARK  status: ('A' for Active; 'I' for Inactive)
REMARK    1  A    between atoms: C1_2  and  C2_3 
ROOT
ATOM      1  C2  UNL d   1       0.130  -1.038  -0.069  0.00  0.00    -0.073 A 
ATOM      2  C3  UNL d   1      -0.425  -0.975   1.214  0.00  0.00    -0.002 A 
ATOM      3  C4  UNL d   1      -0.923   0.232   1.708  0.00  0.00     0.004 A 
ATOM      4  C5  UNL d   1      -0.877   1.384   0.924  0.00  0.00    -0.004 A 
ATOM      5  C6  UNL d   1      -0.336   1.339  -0.365  0.00  0.00    -0.075 A 
ATOM      6  C7  UNL d   1      -0.277   2.570  -1.221  0.00  0.00     0.076 C 
ATOM      7  C8  UNL d   1       0.164   0.124  -0.853  0.00  0.00     0.001 A 
ENDROOT
BRANCH   1   8
ATOM      8  C1  UNL d   1       0.663  -2.339  -0.609  0.00  0.00     0.053 C 
ATOM      9  C   UNL d   1       0.007  -2.721  -1.927  0.00  0.00     0.018 C 
ENDBRANCH   1   8
TORSDOF 1
ENDMDL
