MODEL 1
REMARK minimizedAffinity -4.83802462
REMARK minimizedRMSD -1
REMARK  1 active torsions:
REMARK  status: ('A' for Active; 'I' for Inactive)
REMARK    1  A    between atoms: C1_2  and  C2_3 
ROOT
ATOM      1  C2  UNL d   1      -0.355   0.140   0.025  0.00  0.00    -0.073 A 
ATOM      2  C3  UNL d   1       0.520   0.791  -0.852  0.00  0.00    -0.002 A 
ATOM      3  C4  UNL d   1       0.437   2.172  -1.033  0.00  0.00     0.004 A 
ATOM      4  C5  UNL d   1      -0.514   2.917  -0.335  0.00  0.00    -0.004 A 
ATOM      5  C6  UNL d   1      -1.389   2.286   0.555  0.00  0.00    -0.075 A 
ATOM      6  C7  UNL d   1      -2.419   3.072   1.311  0.00  0.00     0.076 C 
ATOM      7  C8  UNL d   1      -1.302   0.898   0.729  0.00  0.00     0.001 A 
ENDROOT
BRANCH   1   8
ATOM      8  C1  UNL d   1      -0.266  -1.350   0.229  0.00  0.00     0.053 C 
ATOM      9  C   UNL d   1      -1.549  -1.924   0.808  0.00  0.00     0.018 C 
ENDBRANCH   1   8
TORSDOF 1
ENDMDL
