MODEL 1
REMARK minimizedAffinity -3.22276759
REMARK minimizedRMSD -1
REMARK  0 active torsions:
REMARK  status: ('A' for Active; 'I' for Inactive)
ROOT
ATOM      1  C2' OXE d   1       2.739   4.044   2.361  0.00  0.00     0.078 C 
ATOM      2  C1' OXE d   1       3.930   1.601   1.659  0.00  0.00     0.078 C 
ATOM      3  C1  OXE d   1       2.470   1.793   1.330  0.00  0.00    -0.078 A 
ATOM      4  C2  OXE d   1       1.884   2.973   1.719  0.00  0.00    -0.078 A 
ATOM      5  C3  OXE d   1       0.555   3.224   1.391  0.00  0.00     0.003 A 
ATOM      6  C4  OXE d   1      -0.231   2.224   0.806  0.00  0.00    -0.002 A 
ATOM      7  C5  OXE d   1       0.336   1.000   0.437  0.00  0.00    -0.002 A 
ATOM      8  C6  OXE d   1       1.693   0.785   0.653  0.00  0.00     0.003 A 
ENDROOT
TORSDOF 0
ENDMDL
