MODEL 1
REMARK minimizedAffinity 0.594976783
REMARK minimizedRMSD -1
REMARK  0 active torsions:
REMARK  status: ('A' for Active; 'I' for Inactive)
ROOT
ATOM      1  C2' OXE d   1       0.351   2.066   2.395  0.00  0.00     0.078 C 
ATOM      2  C1' OXE d   1      -1.750   0.610   1.234  0.00  0.00     0.078 C 
ATOM      3  C1  OXE d   1      -1.090   1.679   0.400  0.00  0.00    -0.078 A 
ATOM      4  C2  OXE d   1      -0.094   2.419   0.992  0.00  0.00    -0.078 A 
ATOM      5  C3  OXE d   1       0.585   3.381   0.249  0.00  0.00     0.003 A 
ATOM      6  C4  OXE d   1       0.160   3.707  -1.045  0.00  0.00    -0.002 A 
ATOM      7  C5  OXE d   1      -0.878   2.993  -1.652  0.00  0.00    -0.002 A 
ATOM      8  C6  OXE d   1      -1.484   1.950  -0.961  0.00  0.00     0.003 A 
ENDROOT
TORSDOF 0
ENDMDL
