MODEL 1
REMARK minimizedAffinity 2.59466958
REMARK minimizedRMSD -1
REMARK  0 active torsions:
REMARK  status: ('A' for Active; 'I' for Inactive)
ROOT
ATOM      1  C2' OXE d   1      -3.508  -0.211   1.184  0.00  0.00     0.078 C 
ATOM      2  C1' OXE d   1      -3.369   2.060  -0.460  0.00  0.00     0.078 C 
ATOM      3  C1  OXE d   1      -2.080   1.526   0.113  0.00  0.00    -0.078 A 
ATOM      4  C2  OXE d   1      -2.163   0.442   0.954  0.00  0.00    -0.078 A 
ATOM      5  C3  OXE d   1      -0.998  -0.123   1.466  0.00  0.00     0.003 A 
ATOM      6  C4  OXE d   1       0.241   0.493   1.256  0.00  0.00    -0.002 A 
ATOM      7  C5  OXE d   1       0.343   1.621   0.435  0.00  0.00    -0.002 A 
ATOM      8  C6  OXE d   1      -0.800   2.124  -0.177  0.00  0.00     0.003 A 
ENDROOT
TORSDOF 0
ENDMDL
