MODEL 1
REMARK minimizedAffinity 9.02914429
REMARK minimizedRMSD -1
REMARK  0 active torsions:
REMARK  status: ('A' for Active; 'I' for Inactive)
ROOT
ATOM      1  C2' OXE d   1       3.946   4.151   2.273  0.00  0.00     0.078 C 
ATOM      2  C1' OXE d   1       4.991   2.487   0.269  0.00  0.00     0.078 C 
ATOM      3  C1  OXE d   1       3.643   2.133   0.844  0.00  0.00    -0.078 A 
ATOM      4  C2  OXE d   1       3.160   2.927   1.857  0.00  0.00    -0.078 A 
ATOM      5  C3  OXE d   1       1.896   2.677   2.385  0.00  0.00     0.003 A 
ATOM      6  C4  OXE d   1       1.180   1.537   2.002  0.00  0.00    -0.002 A 
ATOM      7  C5  OXE d   1       1.672   0.693   1.000  0.00  0.00    -0.002 A 
ATOM      8  C6  OXE d   1       2.879   1.000   0.382  0.00  0.00     0.003 A 
ENDROOT
TORSDOF 0
ENDMDL
