MODEL 1
REMARK minimizedAffinity 7.26784515
REMARK minimizedRMSD -1
REMARK  0 active torsions:
REMARK  status: ('A' for Active; 'I' for Inactive)
ROOT
ATOM      1  C2' OXE d   1      -0.728   3.132  -0.259  0.00  0.00     0.078 C 
ATOM      2  C1' OXE d   1      -2.382   2.281   1.843  0.00  0.00     0.078 C 
ATOM      3  C1  OXE d   1      -0.930   2.545   2.153  0.00  0.00    -0.078 A 
ATOM      4  C2  OXE d   1      -0.117   2.916   1.109  0.00  0.00    -0.078 A 
ATOM      5  C3  OXE d   1       1.218   3.224   1.350  0.00  0.00     0.003 A 
ATOM      6  C4  OXE d   1       1.777   3.012   2.616  0.00  0.00    -0.002 A 
ATOM      7  C5  OXE d   1       0.976   2.596   3.685  0.00  0.00    -0.002 A 
ATOM      8  C6  OXE d   1      -0.385   2.400   3.480  0.00  0.00     0.003 A 
ENDROOT
TORSDOF 0
ENDMDL
