MODEL 1
REMARK minimizedAffinity 5.25792122
REMARK minimizedRMSD -1
REMARK  0 active torsions:
REMARK  status: ('A' for Active; 'I' for Inactive)
ROOT
ATOM      1  C2' OXE d   1      -3.621   1.661  -0.562  0.00  0.00     0.078 C 
ATOM      2  C1' OXE d   1      -2.597  -0.515   0.886  0.00  0.00     0.078 C 
ATOM      3  C1  OXE d   1      -1.691   0.670   0.662  0.00  0.00    -0.078 A 
ATOM      4  C2  OXE d   1      -2.184   1.710  -0.088  0.00  0.00    -0.078 A 
ATOM      5  C3  OXE d   1      -1.409   2.851  -0.279  0.00  0.00     0.003 A 
ATOM      6  C4  OXE d   1      -0.078   2.884   0.155  0.00  0.00    -0.002 A 
ATOM      7  C5  OXE d   1       0.457   1.818   0.886  0.00  0.00    -0.002 A 
ATOM      8  C6  OXE d   1      -0.348   0.724   1.184  0.00  0.00     0.003 A 
ENDROOT
TORSDOF 0
ENDMDL
