MODEL 1
REMARK minimizedAffinity 4.05767536
REMARK minimizedRMSD -1
REMARK  0 active torsions:
REMARK  status: ('A' for Active; 'I' for Inactive)
ROOT
ATOM      1  C2' OXE d   1      -1.599   1.106  -0.078  0.00  0.00     0.078 C 
ATOM      2  C1' OXE d   1      -1.247   2.576   2.288  0.00  0.00     0.078 C 
ATOM      3  C1  OXE d   1      -0.015   2.041   1.603  0.00  0.00    -0.078 A 
ATOM      4  C2  OXE d   1      -0.199   1.283   0.472  0.00  0.00    -0.078 A 
ATOM      5  C3  OXE d   1       0.906   0.810  -0.229  0.00  0.00     0.003 A 
ATOM      6  C4  OXE d   1       2.196   0.969   0.291  0.00  0.00    -0.002 A 
ATOM      7  C5  OXE d   1       2.404   1.704   1.463  0.00  0.00    -0.002 A 
ATOM      8  C6  OXE d   1       1.315   2.281   2.107  0.00  0.00     0.003 A 
ENDROOT
TORSDOF 0
ENDMDL
