MODEL 1
REMARK minimizedAffinity -1.59247422
REMARK minimizedRMSD -1
REMARK  0 active torsions:
REMARK  status: ('A' for Active; 'I' for Inactive)
ROOT
ATOM      1  C2' OXE d   1      -1.125   3.164   3.295  0.00  0.00     0.078 C 
ATOM      2  C1' OXE d   1       1.612   3.360   3.889  0.00  0.00     0.078 C 
ATOM      3  C1  OXE d   1       1.211   2.567   2.670  0.00  0.00    -0.078 A 
ATOM      4  C2  OXE d   1      -0.133   2.438   2.413  0.00  0.00    -0.078 A 
ATOM      5  C3  OXE d   1      -0.554   1.763   1.271  0.00  0.00     0.003 A 
ATOM      6  C4  OXE d   1       0.370   1.085   0.466  0.00  0.00    -0.002 A 
ATOM      7  C5  OXE d   1       1.740   1.171   0.732  0.00  0.00    -0.002 A 
ATOM      8  C6  OXE d   1       2.180   1.942   1.803  0.00  0.00     0.003 A 
ENDROOT
TORSDOF 0
ENDMDL
