MODEL 1
REMARK minimizedAffinity 5.93209982
REMARK minimizedRMSD -1
REMARK  0 active torsions:
REMARK  status: ('A' for Active; 'I' for Inactive)
ROOT
ATOM      1  C2' OXE d   1       5.993   3.376  -0.699  0.00  0.00     0.078 C 
ATOM      2  C1' OXE d   1       5.999   2.497   1.967  0.00  0.00     0.078 C 
ATOM      3  C1  OXE d   1       5.184   3.720   1.632  0.00  0.00    -0.078 A 
ATOM      4  C2  OXE d   1       5.224   4.171   0.334  0.00  0.00    -0.078 A 
ATOM      5  C3  OXE d   1       4.447   5.263  -0.041  0.00  0.00     0.003 A 
ATOM      6  C4  OXE d   1       3.747   5.999   0.923  0.00  0.00    -0.002 A 
ATOM      7  C5  OXE d   1       3.725   5.581   2.258  0.00  0.00    -0.002 A 
ATOM      8  C6  OXE d   1       4.402   4.421   2.620  0.00  0.00     0.003 A 
ENDROOT
TORSDOF 0
ENDMDL
