MODEL 1
REMARK minimizedAffinity 5.21766043
REMARK minimizedRMSD -1
REMARK  0 active torsions:
REMARK  status: ('A' for Active; 'I' for Inactive)
ROOT
ATOM      1  C2' OXE d   1       1.274   0.636   0.156  0.00  0.00     0.078 C 
ATOM      2  C1' OXE d   1      -1.475   0.635   0.720  0.00  0.00     0.078 C 
ATOM      3  C1  OXE d   1      -0.573   1.443   1.619  0.00  0.00    -0.078 A 
ATOM      4  C2  OXE d   1       0.777   1.400   1.364  0.00  0.00    -0.078 A 
ATOM      5  C3  OXE d   1       1.648   2.170   2.129  0.00  0.00     0.003 A 
ATOM      6  C4  OXE d   1       1.180   2.865   3.251  0.00  0.00    -0.002 A 
ATOM      7  C5  OXE d   1      -0.186   2.890   3.552  0.00  0.00    -0.002 A 
ATOM      8  C6  OXE d   1      -1.079   2.220   2.723  0.00  0.00     0.003 A 
ENDROOT
TORSDOF 0
ENDMDL
