MODEL 1
REMARK minimizedAffinity 4.79225016
REMARK minimizedRMSD -1
REMARK  0 active torsions:
REMARK  status: ('A' for Active; 'I' for Inactive)
ROOT
ATOM      1  C2' OXE d   1       3.386   5.998   2.884  0.00  0.00     0.078 C 
ATOM      2  C1' OXE d   1       2.905   3.293   2.309  0.00  0.00     0.078 C 
ATOM      3  C1  OXE d   1       4.008   3.988   1.551  0.00  0.00    -0.078 A 
ATOM      4  C2  OXE d   1       4.205   5.324   1.805  0.00  0.00    -0.078 A 
ATOM      5  C3  OXE d   1       5.245   6.000   1.173  0.00  0.00     0.003 A 
ATOM      6  C4  OXE d   1       5.991   5.372   0.168  0.00  0.00    -0.002 A 
ATOM      7  C5  OXE d   1       5.780   4.022  -0.134  0.00  0.00    -0.002 A 
ATOM      8  C6  OXE d   1       4.823   3.306   0.576  0.00  0.00     0.003 A 
ENDROOT
TORSDOF 0
ENDMDL
