MODEL 1
REMARK minimizedAffinity 5.57117844
REMARK minimizedRMSD -1
REMARK  0 active torsions:
REMARK  status: ('A' for Active; 'I' for Inactive)
ROOT
ATOM      1  C2' OXE d   1      -1.212   2.748   2.948  0.00  0.00     0.078 C 
ATOM      2  C1' OXE d   1      -1.823   0.818   1.003  0.00  0.00     0.078 C 
ATOM      3  C1  OXE d   1      -0.373   1.188   1.195  0.00  0.00    -0.078 A 
ATOM      4  C2  OXE d   1      -0.088   2.167   2.116  0.00  0.00    -0.078 A 
ATOM      5  C3  OXE d   1       1.237   2.508   2.372  0.00  0.00     0.003 A 
ATOM      6  C4  OXE d   1       2.270   1.974   1.592  0.00  0.00    -0.002 A 
ATOM      7  C5  OXE d   1       1.997   1.004   0.621  0.00  0.00    -0.002 A 
ATOM      8  C6  OXE d   1       0.688   0.570   0.440  0.00  0.00     0.003 A 
ENDROOT
TORSDOF 0
ENDMDL
