MODEL 1
REMARK minimizedAffinity 7.89861536
REMARK minimizedRMSD -1
REMARK  0 active torsions:
REMARK  status: ('A' for Active; 'I' for Inactive)
ROOT
ATOM      1  C2' OXE d   1       1.319   3.609   3.236  0.00  0.00     0.078 C 
ATOM      2  C1' OXE d   1      -1.293   2.896   2.494  0.00  0.00     0.078 C 
ATOM      3  C1  OXE d   1      -0.150   2.263   1.741  0.00  0.00    -0.078 A 
ATOM      4  C2  OXE d   1       1.123   2.653   2.079  0.00  0.00    -0.078 A 
ATOM      5  C3  OXE d   1       2.216   2.060   1.453  0.00  0.00     0.003 A 
ATOM      6  C4  OXE d   1       2.026   1.184   0.377  0.00  0.00    -0.002 A 
ATOM      7  C5  OXE d   1       0.737   0.804  -0.010  0.00  0.00    -0.002 A 
ATOM      8  C6  OXE d   1      -0.359   1.300   0.688  0.00  0.00     0.003 A 
ENDROOT
TORSDOF 0
ENDMDL
