MODEL 1
REMARK minimizedAffinity 4.89072227
REMARK minimizedRMSD -1
REMARK  0 active torsions:
REMARK  status: ('A' for Active; 'I' for Inactive)
ROOT
ATOM      1  C2' OXE d   1       1.801   0.423  -0.263  0.00  0.00     0.078 C 
ATOM      2  C1' OXE d   1       3.387   1.916   1.507  0.00  0.00     0.078 C 
ATOM      3  C1  OXE d   1       1.890   1.965   1.691  0.00  0.00    -0.078 A 
ATOM      4  C2  OXE d   1       1.120   1.269   0.791  0.00  0.00    -0.078 A 
ATOM      5  C3  OXE d   1      -0.263   1.236   0.948  0.00  0.00     0.003 A 
ATOM      6  C4  OXE d   1      -0.885   2.029   1.919  0.00  0.00    -0.002 A 
ATOM      7  C5  OXE d   1      -0.121   2.777   2.821  0.00  0.00    -0.002 A 
ATOM      8  C6  OXE d   1       1.266   2.723   2.747  0.00  0.00     0.003 A 
ENDROOT
TORSDOF 0
ENDMDL
