MODEL 1
REMARK minimizedAffinity 2.63678694
REMARK minimizedRMSD -1
REMARK  0 active torsions:
REMARK  status: ('A' for Active; 'I' for Inactive)
ROOT
ATOM      1  C2' OXE d   1      -5.583   3.261  -3.107  0.00  0.00     0.078 C 
ATOM      2  C1' OXE d   1      -3.662   1.758  -4.497  0.00  0.00     0.078 C 
ATOM      3  C1  OXE d   1      -3.969   1.364  -3.074  0.00  0.00    -0.078 A 
ATOM      4  C2  OXE d   1      -4.875   2.134  -2.386  0.00  0.00    -0.078 A 
ATOM      5  C3  OXE d   1      -5.235   1.781  -1.089  0.00  0.00     0.003 A 
ATOM      6  C4  OXE d   1      -4.569   0.743  -0.426  0.00  0.00    -0.002 A 
ATOM      7  C5  OXE d   1      -3.613  -0.029  -1.095  0.00  0.00    -0.002 A 
ATOM      8  C6  OXE d   1      -3.333   0.241  -2.430  0.00  0.00     0.003 A 
ENDROOT
TORSDOF 0
ENDMDL
