MODEL 1
REMARK minimizedAffinity -1.43894756
REMARK minimizedRMSD -1
REMARK  0 active torsions:
REMARK  status: ('A' for Active; 'I' for Inactive)
ROOT
ATOM      1  C2' OXE d   1      -1.626   0.992   0.736  0.00  0.00     0.078 C 
ATOM      2  C1' OXE d   1      -1.245   2.701   2.930  0.00  0.00     0.078 C 
ATOM      3  C1  OXE d   1      -0.022   2.235   2.181  0.00  0.00    -0.078 A 
ATOM      4  C2  OXE d   1      -0.214   1.362   1.138  0.00  0.00    -0.078 A 
ATOM      5  C3  OXE d   1       0.876   0.944   0.379  0.00  0.00     0.003 A 
ATOM      6  C4  OXE d   1       2.179   1.282   0.763  0.00  0.00    -0.002 A 
ATOM      7  C5  OXE d   1       2.399   2.138   1.847  0.00  0.00    -0.002 A 
ATOM      8  C6  OXE d   1       1.310   2.656   2.539  0.00  0.00     0.003 A 
ENDROOT
TORSDOF 0
ENDMDL
