MODEL 1
REMARK minimizedAffinity 1.86053729
REMARK minimizedRMSD -1
REMARK  0 active torsions:
REMARK  status: ('A' for Active; 'I' for Inactive)
ROOT
ATOM      1  C2' OXE d   1      -1.066   3.286   2.952  0.00  0.00     0.078 C 
ATOM      2  C1' OXE d   1       1.692   3.681   3.296  0.00  0.00     0.078 C 
ATOM      3  C1  OXE d   1       1.249   2.669   2.269  0.00  0.00    -0.078 A 
ATOM      4  C2  OXE d   1      -0.101   2.448   2.141  0.00  0.00    -0.078 A 
ATOM      5  C3  OXE d   1      -0.566   1.564   1.171  0.00  0.00     0.003 A 
ATOM      6  C4  OXE d   1       0.334   0.786   0.432  0.00  0.00    -0.002 A 
ATOM      7  C5  OXE d   1       1.713   0.967   0.575  0.00  0.00    -0.002 A 
ATOM      8  C6  OXE d   1       2.186   1.932   1.457  0.00  0.00     0.003 A 
ENDROOT
TORSDOF 0
ENDMDL
