MODEL 1
REMARK minimizedAffinity 3.31870961
REMARK minimizedRMSD -1
REMARK  0 active torsions:
REMARK  status: ('A' for Active; 'I' for Inactive)
ROOT
ATOM      1  C2' OXE d   1       1.909   3.652   3.065  0.00  0.00     0.078 C 
ATOM      2  C1' OXE d   1      -0.793   3.018   2.641  0.00  0.00     0.078 C 
ATOM      3  C1  OXE d   1       0.244   2.206   1.906  0.00  0.00    -0.078 A 
ATOM      4  C2  OXE d   1       1.562   2.554   2.084  0.00  0.00    -0.078 A 
ATOM      5  C3  OXE d   1       2.561   1.802   1.473  0.00  0.00     0.003 A 
ATOM      6  C4  OXE d   1       2.232   0.794   0.559  0.00  0.00    -0.002 A 
ATOM      7  C5  OXE d   1       0.895   0.450   0.333  0.00  0.00    -0.002 A 
ATOM      8  C6  OXE d   1      -0.107   1.116   1.029  0.00  0.00     0.003 A 
ENDROOT
TORSDOF 0
ENDMDL
