MODEL 1
REMARK minimizedAffinity 4.38691616
REMARK minimizedRMSD -1
REMARK  0 active torsions:
REMARK  status: ('A' for Active; 'I' for Inactive)
ROOT
ATOM      1  C2' OXE d   1       1.509   1.206   0.235  0.00  0.00     0.078 C 
ATOM      2  C1' OXE d   1       2.905   2.810   2.067  0.00  0.00     0.078 C 
ATOM      3  C1  OXE d   1       1.430   2.599   2.298  0.00  0.00    -0.078 A 
ATOM      4  C2  OXE d   1       0.745   1.851   1.371  0.00  0.00    -0.078 A 
ATOM      5  C3  OXE d   1      -0.606   1.581   1.565  0.00  0.00     0.003 A 
ATOM      6  C4  OXE d   1      -1.308   2.190   2.613  0.00  0.00    -0.002 A 
ATOM      7  C5  OXE d   1      -0.637   2.987   3.546  0.00  0.00    -0.002 A 
ATOM      8  C6  OXE d   1       0.736   3.167   3.428  0.00  0.00     0.003 A 
ENDROOT
TORSDOF 0
ENDMDL
