MODEL 1
REMARK minimizedAffinity 6.13459396
REMARK minimizedRMSD -1
REMARK  0 active torsions:
REMARK  status: ('A' for Active; 'I' for Inactive)
ROOT
ATOM      1  C2' OXE d   1      -1.510   2.893   2.699  0.00  0.00     0.078 C 
ATOM      2  C1' OXE d   1      -1.447   1.040   0.592  0.00  0.00     0.078 C 
ATOM      3  C1  OXE d   1      -0.134   1.439   1.218  0.00  0.00    -0.078 A 
ATOM      4  C2  OXE d   1      -0.170   2.381   2.217  0.00  0.00    -0.078 A 
ATOM      5  C3  OXE d   1       1.007   2.744   2.866  0.00  0.00     0.003 A 
ATOM      6  C4  OXE d   1       2.243   2.274   2.407  0.00  0.00    -0.002 A 
ATOM      7  C5  OXE d   1       2.306   1.344   1.364  0.00  0.00    -0.002 A 
ATOM      8  C6  OXE d   1       1.126   0.884   0.788  0.00  0.00     0.003 A 
ENDROOT
TORSDOF 0
ENDMDL
