MODEL 1
REMARK minimizedAffinity 10.4391298
REMARK minimizedRMSD -1
REMARK  0 active torsions:
REMARK  status: ('A' for Active; 'I' for Inactive)
ROOT
ATOM      1  C4' PXY d   1       0.008  -0.446   4.998  0.00  0.00     0.077 C 
ATOM      2  C1' PXY d   1      -0.189   3.378   0.667  0.00  0.00     0.077 C 
ATOM      3  C1  PXY d   1      -0.148   2.381   1.808  0.00  0.00    -0.082 A 
ATOM      4  C2  PXY d   1       0.992   1.784   2.114  0.00  0.00     0.003 A 
ATOM      5  C3  PXY d   1       1.040   0.855   3.122  0.00  0.00     0.003 A 
ATOM      6  C4  PXY d   1      -0.079   0.575   3.860  0.00  0.00    -0.082 A 
ATOM      7  C5  PXY d   1      -1.243   1.188   3.561  0.00  0.00     0.003 A 
ATOM      8  C6  PXY d   1      -1.280   2.097   2.507  0.00  0.00     0.003 A 
ENDROOT
TORSDOF 0
ENDMDL
