MODEL 1
REMARK minimizedAffinity 7.49136782
REMARK minimizedRMSD -1
REMARK  0 active torsions:
REMARK  status: ('A' for Active; 'I' for Inactive)
ROOT
ATOM      1  C4' PXY d   1       0.084   3.851   1.501  0.00  0.00     0.077 C 
ATOM      2  C1' PXY d   1       0.892  -0.419   5.311  0.00  0.00     0.077 C 
ATOM      3  C1  PXY d   1       0.693   0.704   4.313  0.00  0.00    -0.082 A 
ATOM      4  C2  PXY d   1      -0.513   1.222   4.143  0.00  0.00     0.003 A 
ATOM      5  C3  PXY d   1      -0.717   2.216   3.221  0.00  0.00     0.003 A 
ATOM      6  C4  PXY d   1       0.333   2.723   2.504  0.00  0.00    -0.082 A 
ATOM      7  C5  PXY d   1       1.569   2.207   2.680  0.00  0.00     0.003 A 
ATOM      8  C6  PXY d   1       1.747   1.170   3.590  0.00  0.00     0.003 A 
ENDROOT
TORSDOF 0
ENDMDL
