MODEL 1
REMARK minimizedAffinity 10.6305456
REMARK minimizedRMSD -1
REMARK  0 active torsions:
REMARK  status: ('A' for Active; 'I' for Inactive)
ROOT
ATOM      1  C4' PXY d   1       0.081   3.732   1.226  0.00  0.00     0.077 C 
ATOM      2  C1' PXY d   1       1.159  -0.751   4.712  0.00  0.00     0.077 C 
ATOM      3  C1  PXY d   1       0.864   0.420   3.796  0.00  0.00    -0.082 A 
ATOM      4  C2  PXY d   1       1.860   1.039   3.183  0.00  0.00     0.003 A 
ATOM      5  C3  PXY d   1       1.615   2.120   2.377  0.00  0.00     0.003 A 
ATOM      6  C4  PXY d   1       0.331   2.539   2.153  0.00  0.00    -0.082 A 
ATOM      7  C5  PXY d   1      -0.692   1.907   2.765  0.00  0.00     0.003 A 
ATOM      8  C6  PXY d   1      -0.418   0.837   3.613  0.00  0.00     0.003 A 
ENDROOT
TORSDOF 0
ENDMDL
