MODEL 1
REMARK minimizedAffinity 13.8906851
REMARK minimizedRMSD -1
REMARK  0 active torsions:
REMARK  status: ('A' for Active; 'I' for Inactive)
ROOT
ATOM      1  C4' PXY d   1       0.657   0.459  -0.708  0.00  0.00     0.077 C 
ATOM      2  C1' PXY d   1      -0.312   5.998   0.633  0.00  0.00     0.077 C 
ATOM      3  C1  PXY d   1      -0.053   4.543   0.294  0.00  0.00    -0.082 A 
ATOM      4  C2  PXY d   1       0.117   4.187  -0.969  0.00  0.00     0.003 A 
ATOM      5  C3  PXY d   1       0.321   2.871  -1.297  0.00  0.00     0.003 A 
ATOM      6  C4  PXY d   1       0.403   1.918  -0.317  0.00  0.00    -0.082 A 
ATOM      7  C5  PXY d   1       0.241   2.275   0.974  0.00  0.00     0.003 A 
ATOM      8  C6  PXY d   1      -0.006   3.610   1.283  0.00  0.00     0.003 A 
ENDROOT
TORSDOF 0
ENDMDL
