MODEL 1
REMARK minimizedAffinity 3.38393188
REMARK minimizedRMSD -1
REMARK  0 active torsions:
REMARK  status: ('A' for Active; 'I' for Inactive)
ROOT
ATOM      1  C4' PXY d   1      -0.086   6.000  -3.059  0.00  0.00     0.077 C 
ATOM      2  C1' PXY d   1      -0.720   3.491   2.110  0.00  0.00     0.077 C 
ATOM      3  C1  PXY d   1      -0.564   4.142   0.750  0.00  0.00    -0.082 A 
ATOM      4  C2  PXY d   1       0.608   4.643   0.395  0.00  0.00     0.003 A 
ATOM      5  C3  PXY d   1       0.759   5.264  -0.818  0.00  0.00     0.003 A 
ATOM      6  C4  PXY d   1      -0.287   5.325  -1.699  0.00  0.00    -0.082 A 
ATOM      7  C5  PXY d   1      -1.483   4.806  -1.349  0.00  0.00     0.003 A 
ATOM      8  C6  PXY d   1      -1.626   4.217  -0.097  0.00  0.00     0.003 A 
ENDROOT
TORSDOF 0
ENDMDL
