MODEL 1
REMARK minimizedAffinity 7.9461894
REMARK minimizedRMSD -1
REMARK  0 active torsions:
REMARK  status: ('A' for Active; 'I' for Inactive)
ROOT
ATOM      1  C4' PXY d   1       0.749   6.000  -2.390  0.00  0.00     0.077 C 
ATOM      2  C1' PXY d   1       0.054   2.988   2.495  0.00  0.00     0.077 C 
ATOM      3  C1  PXY d   1       0.228   3.787   1.218  0.00  0.00    -0.082 A 
ATOM      4  C2  PXY d   1       0.566   3.167   0.099  0.00  0.00     0.003 A 
ATOM      5  C3  PXY d   1       0.759   3.878  -1.057  0.00  0.00     0.003 A 
ATOM      6  C4  PXY d   1       0.553   5.232  -1.080  0.00  0.00    -0.082 A 
ATOM      7  C5  PXY d   1       0.198   5.870   0.055  0.00  0.00     0.003 A 
ATOM      8  C6  PXY d   1       0.047   5.136   1.228  0.00  0.00     0.003 A 
ENDROOT
TORSDOF 0
ENDMDL
