MODEL 1
REMARK minimizedAffinity 15.6225872
REMARK minimizedRMSD -1
REMARK  0 active torsions:
REMARK  status: ('A' for Active; 'I' for Inactive)
ROOT
ATOM      1  C4' PXY d   1      -0.007   5.999  -2.291  0.00  0.00     0.077 C 
ATOM      2  C1' PXY d   1       0.396   2.711   2.446  0.00  0.00     0.077 C 
ATOM      3  C1  PXY d   1       0.285   3.583   1.211  0.00  0.00    -0.082 A 
ATOM      4  C2  PXY d   1       0.264   3.021   0.014  0.00  0.00     0.003 A 
ATOM      5  C3  PXY d   1       0.196   3.796  -1.115  0.00  0.00     0.003 A 
ATOM      6  C4  PXY d   1       0.095   5.158  -1.016  0.00  0.00    -0.082 A 
ATOM      7  C5  PXY d   1       0.104   5.738   0.203  0.00  0.00     0.003 A 
ATOM      8  C6  PXY d   1       0.215   4.936   1.335  0.00  0.00     0.003 A 
ENDROOT
TORSDOF 0
ENDMDL
