MODEL 1
REMARK minimizedAffinity 11.042963
REMARK minimizedRMSD -1
REMARK  0 active torsions:
REMARK  status: ('A' for Active; 'I' for Inactive)
ROOT
ATOM      1  C4' PXY d   1       1.251   2.247   2.978  0.00  0.00     0.077 C 
ATOM      2  C1' PXY d   1       0.064   5.999  -1.257  0.00  0.00     0.077 C 
ATOM      3  C1  PXY d   1       0.363   5.015  -0.142  0.00  0.00    -0.082 A 
ATOM      4  C2  PXY d   1       1.597   4.909   0.322  0.00  0.00     0.003 A 
ATOM      5  C3  PXY d   1       1.891   4.002   1.308  0.00  0.00     0.003 A 
ATOM      6  C4  PXY d   1       0.901   3.233   1.860  0.00  0.00    -0.082 A 
ATOM      7  C5  PXY d   1      -0.363   3.344   1.399  0.00  0.00     0.003 A 
ATOM      8  C6  PXY d   1      -0.633   4.241   0.370  0.00  0.00     0.003 A 
ENDROOT
TORSDOF 0
ENDMDL
