MODEL 1
REMARK minimizedAffinity 11.513792
REMARK minimizedRMSD -1
REMARK  0 active torsions:
REMARK  status: ('A' for Active; 'I' for Inactive)
ROOT
ATOM      1  C4' PXY d   1       0.608   2.609   1.816  0.00  0.00     0.077 C 
ATOM      2  C1' PXY d   1      -0.532  -1.069  -2.495  0.00  0.00     0.077 C 
ATOM      3  C1  PXY d   1      -0.244  -0.098  -1.367  0.00  0.00    -0.082 A 
ATOM      4  C2  PXY d   1       1.007   0.123  -0.997  0.00  0.00     0.003 A 
ATOM      5  C3  PXY d   1       1.283   0.973   0.043  0.00  0.00     0.003 A 
ATOM      6  C4  PXY d   1       0.271   1.644   0.676  0.00  0.00    -0.082 A 
ATOM      7  C5  PXY d   1      -1.007   1.433   0.297  0.00  0.00     0.003 A 
ATOM      8  C6  PXY d   1      -1.269   0.534  -0.733  0.00  0.00     0.003 A 
ENDROOT
TORSDOF 0
ENDMDL
