MODEL 1
REMARK minimizedAffinity 14.4966879
REMARK minimizedRMSD -1
REMARK  0 active torsions:
REMARK  status: ('A' for Active; 'I' for Inactive)
ROOT
ATOM      1  C4' PXY d   1       1.920  -1.997   4.530  0.00  0.00     0.077 C 
ATOM      2  C1' PXY d   1       0.274   2.917   1.969  0.00  0.00     0.077 C 
ATOM      3  C1  PXY d   1       0.696   1.630   2.650  0.00  0.00    -0.082 A 
ATOM      4  C2  PXY d   1       1.929   1.177   2.485  0.00  0.00     0.003 A 
ATOM      5  C3  PXY d   1       2.318  -0.002   3.067  0.00  0.00     0.003 A 
ATOM      6  C4  PXY d   1       1.453  -0.697   3.870  0.00  0.00    -0.082 A 
ATOM      7  C5  PXY d   1       0.197  -0.235   4.051  0.00  0.00     0.003 A 
ATOM      8  C6  PXY d   1      -0.191   0.942   3.418  0.00  0.00     0.003 A 
ENDROOT
TORSDOF 0
ENDMDL
