MODEL 1
REMARK minimizedAffinity 6.2858696
REMARK minimizedRMSD -1
REMARK  0 active torsions:
REMARK  status: ('A' for Active; 'I' for Inactive)
ROOT
ATOM      1  C4' PXY d   1       2.905   4.188   3.708  0.00  0.00     0.077 C 
ATOM      2  C1' PXY d   1      -0.323   4.032  -1.085  0.00  0.00     0.077 C 
ATOM      3  C1  PXY d   1       0.533   4.077   0.165  0.00  0.00    -0.082 A 
ATOM      4  C2  PXY d   1       0.222   3.313   1.200  0.00  0.00     0.003 A 
ATOM      5  C3  PXY d   1       0.967   3.365   2.349  0.00  0.00     0.003 A 
ATOM      6  C4  PXY d   1       2.074   4.168   2.422  0.00  0.00    -0.082 A 
ATOM      7  C5  PXY d   1       2.404   4.943   1.367  0.00  0.00     0.003 A 
ATOM      8  C6  PXY d   1       1.611   4.906   0.224  0.00  0.00     0.003 A 
ENDROOT
TORSDOF 0
ENDMDL
