MODEL 1
REMARK minimizedAffinity 10.5365486
REMARK minimizedRMSD -1
REMARK  0 active torsions:
REMARK  status: ('A' for Active; 'I' for Inactive)
ROOT
ATOM      1  C4' PXY d   1      -1.257  -1.699  -3.104  0.00  0.00     0.077 C 
ATOM      2  C1' PXY d   1      -0.123   2.325   0.888  0.00  0.00     0.077 C 
ATOM      3  C1  PXY d   1      -0.431   1.267  -0.153  0.00  0.00    -0.082 A 
ATOM      4  C2  PXY d   1       0.556   0.727  -0.849  0.00  0.00     0.003 A 
ATOM      5  C3  PXY d   1       0.291  -0.208  -1.817  0.00  0.00     0.003 A 
ATOM      6  C4  PXY d   1      -0.991  -0.634  -2.036  0.00  0.00    -0.082 A 
ATOM      7  C5  PXY d   1      -2.003  -0.096  -1.322  0.00  0.00     0.003 A 
ATOM      8  C6  PXY d   1      -1.717   0.882  -0.374  0.00  0.00     0.003 A 
ENDROOT
TORSDOF 0
ENDMDL
