MODEL 1
REMARK minimizedAffinity 10.6165733
REMARK minimizedRMSD -1
REMARK  0 active torsions:
REMARK  status: ('A' for Active; 'I' for Inactive)
ROOT
ATOM      1  C4' PXY d   1       0.036   2.811   0.840  0.00  0.00     0.077 C 
ATOM      2  C1' PXY d   1      -1.221  -1.651  -2.613  0.00  0.00     0.077 C 
ATOM      3  C1  PXY d   1      -0.880  -0.486  -1.704  0.00  0.00    -0.082 A 
ATOM      4  C2  PXY d   1      -1.852   0.259  -1.204  0.00  0.00     0.003 A 
ATOM      5  C3  PXY d   1      -1.560   1.336  -0.407  0.00  0.00     0.003 A 
ATOM      6  C4  PXY d   1      -0.262   1.620  -0.074  0.00  0.00    -0.082 A 
ATOM      7  C5  PXY d   1       0.734   0.857  -0.572  0.00  0.00     0.003 A 
ATOM      8  C6  PXY d   1       0.419  -0.206  -1.413  0.00  0.00     0.003 A 
ENDROOT
TORSDOF 0
ENDMDL
