MODEL 1
REMARK minimizedAffinity -3.85285354
REMARK minimizedRMSD -1
REMARK  0 active torsions:
REMARK  status: ('A' for Active; 'I' for Inactive)
ROOT
ATOM      1  C   UNL d   1      -1.504  -4.872  -3.393  0.00  0.00     0.077 C 
ATOM      2  C1  UNL d   1      -2.823  -4.814  -4.105  0.00  0.00    -0.074 A 
ATOM      3  C2  UNL d   1      -3.591  -5.968  -4.291  0.00  0.00    -0.005 A 
ATOM      4  C3  UNL d   1      -4.820  -5.897  -4.947  0.00  0.00     0.006 A 
ATOM      5  C4  UNL d   1      -5.294  -4.673  -5.421  0.00  0.00    -0.005 A 
ATOM      6  C5  UNL d   1      -4.540  -3.509  -5.243  0.00  0.00    -0.074 A 
ATOM      7  C6  UNL d   1      -5.039  -2.183  -5.738  0.00  0.00     0.077 C 
ATOM      8  C7  UNL d   1      -3.309  -3.587  -4.577  0.00  0.00    -0.001 A 
ENDROOT
TORSDOF 0
ENDMDL
