MODEL 1
REMARK minimizedAffinity -1.67626393
REMARK minimizedRMSD -1
REMARK  0 active torsions:
REMARK  status: ('A' for Active; 'I' for Inactive)
ROOT
ATOM      1  C   UNL d   1      -2.249  -5.887  -2.876  0.00  0.00     0.077 C 
ATOM      2  C1  UNL d   1      -2.761  -4.878  -3.861  0.00  0.00    -0.074 A 
ATOM      3  C2  UNL d   1      -2.123  -4.686  -5.090  0.00  0.00    -0.005 A 
ATOM      4  C3  UNL d   1      -2.616  -3.751  -6.000  0.00  0.00     0.006 A 
ATOM      5  C4  UNL d   1      -3.750  -2.999  -5.690  0.00  0.00    -0.005 A 
ATOM      6  C5  UNL d   1      -4.402  -3.179  -4.465  0.00  0.00    -0.074 A 
ATOM      7  C6  UNL d   1      -5.628  -2.386  -4.120  0.00  0.00     0.077 C 
ATOM      8  C7  UNL d   1      -3.904  -4.125  -3.560  0.00  0.00    -0.001 A 
ENDROOT
TORSDOF 0
ENDMDL
