MODEL 1
REMARK minimizedAffinity -2.75228763
REMARK minimizedRMSD -1
REMARK  0 active torsions:
REMARK  status: ('A' for Active; 'I' for Inactive)
ROOT
ATOM      1  C   UNL d   1      -6.000  -2.294  -5.382  0.00  0.00     0.077 C 
ATOM      2  C1  UNL d   1      -5.260  -3.587  -5.556  0.00  0.00    -0.074 A 
ATOM      3  C2  UNL d   1      -5.944  -4.806  -5.604  0.00  0.00    -0.005 A 
ATOM      4  C3  UNL d   1      -5.243  -6.000  -5.776  0.00  0.00     0.006 A 
ATOM      5  C4  UNL d   1      -3.854  -5.987  -5.902  0.00  0.00    -0.005 A 
ATOM      6  C5  UNL d   1      -3.152  -4.778  -5.857  0.00  0.00    -0.074 A 
ATOM      7  C6  UNL d   1      -1.660  -4.745  -6.000  0.00  0.00     0.077 C 
ATOM      8  C7  UNL d   1      -3.865  -3.582  -5.691  0.00  0.00    -0.001 A 
ENDROOT
TORSDOF 0
ENDMDL
