MODEL 1
REMARK minimizedAffinity -2.56134319
REMARK minimizedRMSD -1
REMARK  0 active torsions:
REMARK  status: ('A' for Active; 'I' for Inactive)
ROOT
ATOM      1  C   UNL d   1      -4.949  -0.316  -5.242  0.00  0.00     0.077 C 
ATOM      2  C1  UNL d   1      -4.406  -1.645  -4.808  0.00  0.00    -0.074 A 
ATOM      3  C2  UNL d   1      -4.899  -2.285  -3.667  0.00  0.00    -0.005 A 
ATOM      4  C3  UNL d   1      -4.390  -3.526  -3.282  0.00  0.00     0.006 A 
ATOM      5  C4  UNL d   1      -3.385  -4.137  -4.032  0.00  0.00    -0.005 A 
ATOM      6  C5  UNL d   1      -2.880  -3.512  -5.176  0.00  0.00    -0.074 A 
ATOM      7  C6  UNL d   1      -1.807  -4.159  -6.000  0.00  0.00     0.077 C 
ATOM      8  C7  UNL d   1      -3.401  -2.269  -5.561  0.00  0.00    -0.001 A 
ENDROOT
TORSDOF 0
ENDMDL
