MODEL 1
REMARK minimizedAffinity -3.89083481
REMARK minimizedRMSD -1
REMARK  0 active torsions:
REMARK  status: ('A' for Active; 'I' for Inactive)
ROOT
ATOM      1  C   UNL d   1      -2.373  -5.188  -4.235  0.00  0.00     0.077 C 
ATOM      2  C1  UNL d   1      -3.634  -4.426  -4.513  0.00  0.00    -0.074 A 
ATOM      3  C2  UNL d   1      -4.266  -4.512  -5.758  0.00  0.00    -0.005 A 
ATOM      4  C3  UNL d   1      -5.444  -3.805  -5.999  0.00  0.00     0.006 A 
ATOM      5  C4  UNL d   1      -6.000  -3.004  -5.000  0.00  0.00    -0.005 A 
ATOM      6  C5  UNL d   1      -5.382  -2.906  -3.750  0.00  0.00    -0.074 A 
ATOM      7  C6  UNL d   1      -5.972  -2.058  -2.662  0.00  0.00     0.077 C 
ATOM      8  C7  UNL d   1      -4.203  -3.626  -3.512  0.00  0.00    -0.001 A 
ENDROOT
TORSDOF 0
ENDMDL
