MODEL 1
REMARK minimizedAffinity -3.44669604
REMARK minimizedRMSD -1
REMARK  0 active torsions:
REMARK  status: ('A' for Active; 'I' for Inactive)
ROOT
ATOM      1  C   UNL d   1      -1.770  -4.863  -5.948  0.00  0.00     0.077 C 
ATOM      2  C1  UNL d   1      -3.234  -4.766  -5.639  0.00  0.00    -0.074 A 
ATOM      3  C2  UNL d   1      -4.023  -5.915  -5.524  0.00  0.00    -0.005 A 
ATOM      4  C3  UNL d   1      -5.382  -5.809  -5.227  0.00  0.00     0.006 A 
ATOM      5  C4  UNL d   1      -5.965  -4.555  -5.042  0.00  0.00    -0.005 A 
ATOM      6  C5  UNL d   1      -5.192  -3.395  -5.153  0.00  0.00    -0.074 A 
ATOM      7  C6  UNL d   1      -5.801  -2.039  -4.947  0.00  0.00     0.077 C 
ATOM      8  C7  UNL d   1      -3.826  -3.510  -5.444  0.00  0.00    -0.001 A 
ENDROOT
TORSDOF 0
ENDMDL
