MODEL 1
REMARK minimizedAffinity -3.1734879
REMARK minimizedRMSD -1
REMARK  0 active torsions:
REMARK  status: ('A' for Active; 'I' for Inactive)
ROOT
ATOM      1  C   UNL d   1      -5.997  -2.811  -4.124  0.00  0.00     0.077 C 
ATOM      2  C1  UNL d   1      -5.214  -3.921  -4.760  0.00  0.00    -0.074 A 
ATOM      3  C2  UNL d   1      -5.861  -4.979  -5.405  0.00  0.00    -0.005 A 
ATOM      4  C3  UNL d   1      -5.119  -6.000  -6.000  0.00  0.00     0.006 A 
ATOM      5  C4  UNL d   1      -3.725  -5.973  -5.955  0.00  0.00    -0.005 A 
ATOM      6  C5  UNL d   1      -3.060  -4.922  -5.315  0.00  0.00    -0.074 A 
ATOM      7  C6  UNL d   1      -1.562  -4.872  -5.267  0.00  0.00     0.077 C 
ATOM      8  C7  UNL d   1      -3.812  -3.897  -4.726  0.00  0.00    -0.001 A 
ENDROOT
TORSDOF 0
ENDMDL
