MODEL 1
REMARK minimizedAffinity -1.63484454
REMARK minimizedRMSD -1
REMARK  0 active torsions:
REMARK  status: ('A' for Active; 'I' for Inactive)
ROOT
ATOM      1  C   UNL d   1      -5.869  -2.357  -4.689  0.00  0.00     0.077 C 
ATOM      2  C1  UNL d   1      -5.225  -3.633  -5.141  0.00  0.00    -0.074 A 
ATOM      3  C2  UNL d   1      -5.998  -4.717  -5.569  0.00  0.00    -0.005 A 
ATOM      4  C3  UNL d   1      -5.384  -5.894  -5.996  0.00  0.00     0.006 A 
ATOM      5  C4  UNL d   1      -3.993  -6.000  -5.999  0.00  0.00    -0.005 A 
ATOM      6  C5  UNL d   1      -3.203  -4.927  -5.576  0.00  0.00    -0.074 A 
ATOM      7  C6  UNL d   1      -1.706  -5.020  -5.582  0.00  0.00     0.077 C 
ATOM      8  C7  UNL d   1      -3.827  -3.744  -5.155  0.00  0.00    -0.001 A 
ENDROOT
TORSDOF 0
ENDMDL
