MODEL 1
REMARK minimizedAffinity 0.590787709
REMARK minimizedRMSD -1
REMARK  0 active torsions:
REMARK  status: ('A' for Active; 'I' for Inactive)
ROOT
ATOM      1  C   UNL d   1      -4.708  -2.945  -3.123  0.00  0.00     0.077 C 
ATOM      2  C1  UNL d   1      -4.316  -3.990  -4.125  0.00  0.00    -0.074 A 
ATOM      3  C2  UNL d   1      -5.234  -4.462  -5.068  0.00  0.00    -0.005 A 
ATOM      4  C3  UNL d   1      -4.853  -5.428  -6.000  0.00  0.00     0.006 A 
ATOM      5  C4  UNL d   1      -3.550  -5.929  -5.998  0.00  0.00    -0.005 A 
ATOM      6  C5  UNL d   1      -2.618  -5.468  -5.063  0.00  0.00    -0.074 A 
ATOM      7  C6  UNL d   1      -1.212  -5.990  -5.054  0.00  0.00     0.077 C 
ATOM      8  C7  UNL d   1      -3.007  -4.493  -4.135  0.00  0.00    -0.001 A 
ENDROOT
TORSDOF 0
ENDMDL
