MODEL 1
REMARK minimizedAffinity -2.16406965
REMARK minimizedRMSD -1
REMARK  0 active torsions:
REMARK  status: ('A' for Active; 'I' for Inactive)
ROOT
ATOM      1  C   UNL d   1      -1.652  -4.867  -5.507  0.00  0.00     0.077 C 
ATOM      2  C1  UNL d   1      -3.151  -4.865  -5.557  0.00  0.00    -0.074 A 
ATOM      3  C2  UNL d   1      -3.858  -6.000  -5.967  0.00  0.00    -0.005 A 
ATOM      4  C3  UNL d   1      -5.252  -5.986  -5.999  0.00  0.00     0.006 A 
ATOM      5  C4  UNL d   1      -5.952  -4.839  -5.623  0.00  0.00    -0.005 A 
ATOM      6  C5  UNL d   1      -5.262  -3.695  -5.209  0.00  0.00    -0.074 A 
ATOM      7  C6  UNL d   1      -6.000  -2.457  -4.792  0.00  0.00     0.077 C 
ATOM      8  C7  UNL d   1      -3.861  -3.719  -5.173  0.00  0.00    -0.001 A 
ENDROOT
TORSDOF 0
ENDMDL
