MODEL 1
REMARK minimizedAffinity -3.68477726
REMARK minimizedRMSD -1
REMARK  0 active torsions:
REMARK  status: ('A' for Active; 'I' for Inactive)
ROOT
ATOM      1  C   UNL d   1      -1.638  -4.998  -4.870  0.00  0.00     0.077 C 
ATOM      2  C1  UNL d   1      -3.114  -4.938  -5.131  0.00  0.00    -0.074 A 
ATOM      3  C2  UNL d   1      -3.775  -5.993  -5.768  0.00  0.00    -0.005 A 
ATOM      4  C3  UNL d   1      -5.149  -5.927  -5.996  0.00  0.00     0.006 A 
ATOM      5  C4  UNL d   1      -5.876  -4.807  -5.589  0.00  0.00    -0.005 A 
ATOM      6  C5  UNL d   1      -5.232  -3.743  -4.950  0.00  0.00    -0.074 A 
ATOM      7  C6  UNL d   1      -6.000  -2.536  -4.498  0.00  0.00     0.077 C 
ATOM      8  C7  UNL d   1      -3.852  -3.820  -4.719  0.00  0.00    -0.001 A 
ENDROOT
TORSDOF 0
ENDMDL
