MODEL 1
REMARK minimizedAffinity -3.33343196
REMARK minimizedRMSD -1
REMARK  0 active torsions:
REMARK  status: ('A' for Active; 'I' for Inactive)
ROOT
ATOM      1  C   UNL d   1      -5.946  -2.248  -3.752  0.00  0.00     0.077 C 
ATOM      2  C1  UNL d   1      -5.261  -3.418  -4.395  0.00  0.00    -0.074 A 
ATOM      3  C2  UNL d   1      -5.992  -4.526  -4.835  0.00  0.00    -0.005 A 
ATOM      4  C3  UNL d   1      -5.342  -5.602  -5.440  0.00  0.00     0.006 A 
ATOM      5  C4  UNL d   1      -3.957  -5.581  -5.609  0.00  0.00    -0.005 A 
ATOM      6  C5  UNL d   1      -3.210  -4.481  -5.176  0.00  0.00    -0.074 A 
ATOM      7  C6  UNL d   1      -1.722  -4.438  -5.360  0.00  0.00     0.077 C 
ATOM      8  C7  UNL d   1      -3.871  -3.400  -4.576  0.00  0.00    -0.001 A 
ENDROOT
TORSDOF 0
ENDMDL
