MODEL 1
REMARK minimizedAffinity -2.66854978
REMARK minimizedRMSD -1
REMARK  0 active torsions:
REMARK  status: ('A' for Active; 'I' for Inactive)
ROOT
ATOM      1  C   UNL d   1      -1.103  -4.893  -4.153  0.00  0.00     0.077 C 
ATOM      2  C1  UNL d   1      -2.515  -4.949  -4.654  0.00  0.00    -0.074 A 
ATOM      3  C2  UNL d   1      -2.924  -5.951  -5.541  0.00  0.00    -0.005 A 
ATOM      4  C3  UNL d   1      -4.243  -5.996  -5.991  0.00  0.00     0.006 A 
ATOM      5  C4  UNL d   1      -5.166  -5.042  -5.561  0.00  0.00    -0.005 A 
ATOM      6  C5  UNL d   1      -4.776  -4.033  -4.674  0.00  0.00    -0.074 A 
ATOM      7  C6  UNL d   1      -5.757  -3.006  -4.194  0.00  0.00     0.077 C 
ATOM      8  C7  UNL d   1      -3.450  -3.999  -4.220  0.00  0.00    -0.001 A 
ENDROOT
TORSDOF 0
ENDMDL
