MODEL 1
REMARK minimizedAffinity -3.07255864
REMARK minimizedRMSD -1
REMARK  0 active torsions:
REMARK  status: ('A' for Active; 'I' for Inactive)
ROOT
ATOM      1  C   UNL d   1      -5.626  -2.057  -4.126  0.00  0.00     0.077 C 
ATOM      2  C1  UNL d   1      -5.134  -3.338  -4.730  0.00  0.00    -0.074 A 
ATOM      3  C2  UNL d   1      -6.000  -4.180  -5.434  0.00  0.00    -0.005 A 
ATOM      4  C3  UNL d   1      -5.525  -5.364  -5.999  0.00  0.00     0.006 A 
ATOM      5  C4  UNL d   1      -4.182  -5.717  -5.866  0.00  0.00    -0.005 A 
ATOM      6  C5  UNL d   1      -3.300  -4.886  -5.166  0.00  0.00    -0.074 A 
ATOM      7  C6  UNL d   1      -1.851  -5.245  -5.022  0.00  0.00     0.077 C 
ATOM      8  C7  UNL d   1      -3.784  -3.695  -4.607  0.00  0.00    -0.001 A 
ENDROOT
TORSDOF 0
ENDMDL
