MODEL 1
REMARK minimizedAffinity -3.67402434
REMARK minimizedRMSD -1
REMARK  0 active torsions:
REMARK  status: ('A' for Active; 'I' for Inactive)
ROOT
ATOM      1  C   UNL d   1      -2.606  -4.528  -5.999  0.00  0.00     0.077 C 
ATOM      2  C1  UNL d   1      -3.732  -3.888  -5.243  0.00  0.00    -0.074 A 
ATOM      3  C2  UNL d   1      -4.190  -4.432  -4.039  0.00  0.00    -0.005 A 
ATOM      4  C3  UNL d   1      -5.231  -3.820  -3.341  0.00  0.00     0.006 A 
ATOM      5  C4  UNL d   1      -5.824  -2.660  -3.840  0.00  0.00    -0.005 A 
ATOM      6  C5  UNL d   1      -5.378  -2.100  -5.042  0.00  0.00    -0.074 A 
ATOM      7  C6  UNL d   1      -5.998  -0.848  -5.586  0.00  0.00     0.077 C 
ATOM      8  C7  UNL d   1      -4.327  -2.717  -5.733  0.00  0.00    -0.001 A 
ENDROOT
TORSDOF 0
ENDMDL
