MODEL 1
REMARK minimizedAffinity -3.41907358
REMARK minimizedRMSD -1
REMARK  0 active torsions:
REMARK  status: ('A' for Active; 'I' for Inactive)
ROOT
ATOM      1  C   UNL d   1      -5.568  -2.044  -4.835  0.00  0.00     0.077 C 
ATOM      2  C1  UNL d   1      -5.104  -3.428  -5.183  0.00  0.00    -0.074 A 
ATOM      3  C2  UNL d   1      -6.000  -4.384  -5.671  0.00  0.00    -0.005 A 
ATOM      4  C3  UNL d   1      -5.552  -5.664  -6.000  0.00  0.00     0.006 A 
ATOM      5  C4  UNL d   1      -4.207  -5.999  -5.844  0.00  0.00    -0.005 A 
ATOM      6  C5  UNL d   1      -3.296  -5.055  -5.358  0.00  0.00    -0.074 A 
ATOM      7  C6  UNL d   1      -1.845  -5.396  -5.194  0.00  0.00     0.077 C 
ATOM      8  C7  UNL d   1      -3.752  -3.770  -5.037  0.00  0.00    -0.001 A 
ENDROOT
TORSDOF 0
ENDMDL
