MODEL 1
REMARK minimizedAffinity 12.7002516
REMARK minimizedRMSD -1
REMARK  0 active torsions:
REMARK  status: ('A' for Active; 'I' for Inactive)
ROOT
ATOM      1  N1  IND d   1       0.277   0.425   2.793  0.00  0.00    -0.196 N 
ATOM      2  C2  IND d   1       0.045  -0.577   3.695  0.00  0.00     0.054 A 
ATOM      3  C3  IND d   1       0.834  -1.642   3.428  0.00  0.00    -0.031 A 
ATOM      4  C4  IND d   1       2.652  -1.920   1.627  0.00  0.00     0.051 A 
ATOM      5  C5  IND d   1       3.202  -1.291   0.545  0.00  0.00    -0.031 A 
ATOM      6  C6  IND d   1       2.800  -0.031   0.152  0.00  0.00     0.015 A 
ATOM      7  C7  IND d   1       1.835   0.654   0.835  0.00  0.00    -0.016 A 
ATOM      8  C8  IND d   1       1.269   0.015   1.929  0.00  0.00    -0.047 A 
ATOM      9  C9  IND d   1       1.643  -1.280   2.308  0.00  0.00    -0.096 A 
ATOM     10  HN1 IND d   1      -0.128   1.183   2.770  0.00  0.00     0.298 HD
ENDROOT
TORSDOF 0
ENDMDL
