MODEL 1
REMARK minimizedAffinity 7.86092234
REMARK minimizedRMSD -1
REMARK  0 active torsions:
REMARK  status: ('A' for Active; 'I' for Inactive)
ROOT
ATOM      1  N1  IND d   1       0.774  -4.228   0.235  0.00  0.00    -0.196 N 
ATOM      2  C2  IND d   1      -0.458  -4.413  -0.327  0.00  0.00     0.054 A 
ATOM      3  C3  IND d   1      -0.876  -3.277  -0.928  0.00  0.00    -0.031 A 
ATOM      4  C4  IND d   1       0.343  -1.025  -1.199  0.00  0.00     0.051 A 
ATOM      5  C5  IND d   1       1.478  -0.363  -0.823  0.00  0.00    -0.031 A 
ATOM      6  C6  IND d   1       2.457  -0.968  -0.063  0.00  0.00     0.015 A 
ATOM      7  C7  IND d   1       2.343  -2.267   0.343  0.00  0.00    -0.016 A 
ATOM      8  C8  IND d   1       1.188  -2.941  -0.030  0.00  0.00    -0.047 A 
ATOM      9  C9  IND d   1       0.172  -2.319  -0.766  0.00  0.00    -0.096 A 
ATOM     10  HN1 IND d   1       1.216  -4.816   0.680  0.00  0.00     0.298 HD
ENDROOT
TORSDOF 0
ENDMDL
