MODEL 1
REMARK minimizedAffinity 2.99162936
REMARK minimizedRMSD -1
REMARK  0 active torsions:
REMARK  status: ('A' for Active; 'I' for Inactive)
ROOT
ATOM      1  N1  IND d   1      -0.376  -3.836   3.327  0.00  0.00    -0.196 N 
ATOM      2  C2  IND d   1       0.108  -3.366   4.516  0.00  0.00     0.054 A 
ATOM      3  C3  IND d   1       1.333  -2.821   4.342  0.00  0.00    -0.031 A 
ATOM      4  C4  IND d   1       2.688  -2.500   2.177  0.00  0.00     0.051 A 
ATOM      5  C5  IND d   1       2.675  -2.800   0.843  0.00  0.00    -0.031 A 
ATOM      6  C6  IND d   1       1.622  -3.473   0.258  0.00  0.00     0.015 A 
ATOM      7  C7  IND d   1       0.532  -3.861   0.984  0.00  0.00    -0.016 A 
ATOM      8  C8  IND d   1       0.545  -3.564   2.340  0.00  0.00    -0.047 A 
ATOM      9  C9  IND d   1       1.630  -2.920   2.948  0.00  0.00    -0.096 A 
ATOM     10  HN1 IND d   1      -1.130  -4.235   3.215  0.00  0.00     0.298 HD
ENDROOT
TORSDOF 0
ENDMDL
