MODEL 1
REMARK minimizedAffinity 9.42001152
REMARK minimizedRMSD -1
REMARK  0 active torsions:
REMARK  status: ('A' for Active; 'I' for Inactive)
ROOT
ATOM      1  N1  IND d   1       4.333  -0.098   0.768  0.00  0.00    -0.196 N 
ATOM      2  C2  IND d   1       3.730  -1.322   0.851  0.00  0.00     0.054 A 
ATOM      3  C3  IND d   1       2.388  -1.181   0.936  0.00  0.00    -0.031 A 
ATOM      4  C4  IND d   1       0.960   0.959   0.855  0.00  0.00     0.051 A 
ATOM      5  C5  IND d   1       1.062   2.322   0.823  0.00  0.00    -0.031 A 
ATOM      6  C6  IND d   1       2.284   2.960   0.767  0.00  0.00     0.015 A 
ATOM      7  C7  IND d   1       3.455   2.256   0.730  0.00  0.00    -0.016 A 
ATOM      8  C8  IND d   1       3.355   0.873   0.769  0.00  0.00    -0.047 A 
ATOM      9  C9  IND d   1       2.120   0.220   0.869  0.00  0.00    -0.096 A 
ATOM     10  HN1 IND d   1       5.180   0.043   0.723  0.00  0.00     0.298 HD
ENDROOT
TORSDOF 0
ENDMDL
