MODEL 1
REMARK minimizedAffinity 8.26075554
REMARK minimizedRMSD -1
REMARK  0 active torsions:
REMARK  status: ('A' for Active; 'I' for Inactive)
ROOT
ATOM      1  N1  IND d   1      -3.110   1.058  -3.893  0.00  0.00    -0.196 N 
ATOM      2  C2  IND d   1      -3.397   1.943  -4.895  0.00  0.00     0.054 A 
ATOM      3  C3  IND d   1      -4.441   1.498  -5.630  0.00  0.00    -0.031 A 
ATOM      4  C4  IND d   1      -5.892  -0.603  -5.307  0.00  0.00     0.051 A 
ATOM      5  C5  IND d   1      -5.993  -1.736  -4.549  0.00  0.00    -0.031 A 
ATOM      6  C6  IND d   1      -5.122  -2.000  -3.511  0.00  0.00     0.015 A 
ATOM      7  C7  IND d   1      -4.120  -1.130  -3.184  0.00  0.00    -0.016 A 
ATOM      8  C8  IND d   1      -4.010   0.018  -3.956  0.00  0.00    -0.047 A 
ATOM      9  C9  IND d   1      -4.865   0.270  -5.037  0.00  0.00    -0.096 A 
ATOM     10  HN1 IND d   1      -2.473   1.138  -3.321  0.00  0.00     0.298 HD
ENDROOT
TORSDOF 0
ENDMDL
