MODEL 1
REMARK minimizedAffinity 8.87835979
REMARK minimizedRMSD -1
REMARK  0 active torsions:
REMARK  status: ('A' for Active; 'I' for Inactive)
ROOT
ATOM      1  N1  IND d   1       0.712  -2.257  -0.471  0.00  0.00    -0.196 N 
ATOM      2  C2  IND d   1       1.791  -2.844   0.128  0.00  0.00     0.054 A 
ATOM      3  C3  IND d   1       2.635  -1.901   0.605  0.00  0.00    -0.031 A 
ATOM      4  C4  IND d   1       2.394   0.662   0.603  0.00  0.00     0.051 A 
ATOM      5  C5  IND d   1       1.595   1.668   0.137  0.00  0.00    -0.031 A 
ATOM      6  C6  IND d   1       0.436   1.413  -0.567  0.00  0.00     0.015 A 
ATOM      7  C7  IND d   1       0.025   0.135  -0.823  0.00  0.00    -0.016 A 
ATOM      8  C8  IND d   1       0.838  -0.889  -0.358  0.00  0.00    -0.047 A 
ATOM      9  C9  IND d   1       2.037  -0.635   0.320  0.00  0.00    -0.096 A 
ATOM     10  HN1 IND d   1       0.064  -2.671  -0.854  0.00  0.00     0.298 HD
ENDROOT
TORSDOF 0
ENDMDL
