MODEL 1
REMARK minimizedAffinity 7.13798475
REMARK minimizedRMSD -1
REMARK  0 active torsions:
REMARK  status: ('A' for Active; 'I' for Inactive)
ROOT
ATOM      1  N1  IND d   1       0.410   1.357  -0.416  0.00  0.00    -0.196 N 
ATOM      2  C2  IND d   1       0.813   2.537   0.144  0.00  0.00     0.054 A 
ATOM      3  C3  IND d   1       1.986   2.372   0.795  0.00  0.00    -0.031 A 
ATOM      4  C4  IND d   1       3.472   0.278   0.982  0.00  0.00     0.051 A 
ATOM      5  C5  IND d   1       3.505  -1.051   0.666  0.00  0.00    -0.031 A 
ATOM      6  C6  IND d   1       2.489  -1.657  -0.044  0.00  0.00     0.015 A 
ATOM      7  C7  IND d   1       1.402  -0.951  -0.475  0.00  0.00    -0.016 A 
ATOM      8  C8  IND d   1       1.362   0.398  -0.150  0.00  0.00    -0.047 A 
ATOM      9  C9  IND d   1       2.370   1.009   0.607  0.00  0.00    -0.096 A 
ATOM     10  HN1 IND d   1      -0.317   1.235  -0.859  0.00  0.00     0.298 HD
ENDROOT
TORSDOF 0
ENDMDL
