MODEL 1
REMARK minimizedAffinity 1.89346552
REMARK minimizedRMSD -1
REMARK  0 active torsions:
REMARK  status: ('A' for Active; 'I' for Inactive)
ROOT
ATOM      1  N1  IND d   1       0.083   1.338  -0.230  0.00  0.00    -0.196 N 
ATOM      2  C2  IND d   1       0.914   2.327   0.219  0.00  0.00     0.054 A 
ATOM      3  C3  IND d   1       2.164   1.845   0.400  0.00  0.00    -0.031 A 
ATOM      4  C4  IND d   1       3.094  -0.508  -0.074  0.00  0.00     0.051 A 
ATOM      5  C5  IND d   1       2.708  -1.762  -0.459  0.00  0.00    -0.031 A 
ATOM      6  C6  IND d   1       1.402  -2.051  -0.796  0.00  0.00     0.015 A 
ATOM      7  C7  IND d   1       0.430  -1.091  -0.772  0.00  0.00    -0.016 A 
ATOM      8  C8  IND d   1       0.817   0.182  -0.376  0.00  0.00    -0.047 A 
ATOM      9  C9  IND d   1       2.133   0.471   0.009  0.00  0.00    -0.096 A 
ATOM     10  HN1 IND d   1      -0.756   1.424  -0.394  0.00  0.00     0.298 HD
ENDROOT
TORSDOF 0
ENDMDL
