MODEL 1
REMARK minimizedAffinity 1.87324846
REMARK minimizedRMSD -1
REMARK  3 active torsions:
REMARK  status: ('A' for Active; 'I' for Inactive)
REMARK    1  A    between atoms: C3'_2  and  C2'_3 
REMARK    2  A    between atoms: C2'_3  and  C1'_4 
REMARK    3  A    between atoms: C1'_4  and  C1_5 
ROOT
ATOM      1  C1  N4B d   1       2.706   3.426  -5.224  0.00  0.00    -0.075 A 
ATOM      2  C2  N4B d   1       3.789   4.228  -5.646  0.00  0.00     0.002 A 
ATOM      3  C3  N4B d   1       4.981   3.643  -5.998  0.00  0.00     0.002 A 
ATOM      4  C4  N4B d   1       5.118   2.265  -5.918  0.00  0.00    -0.004 A 
ATOM      5  C5  N4B d   1       4.059   1.496  -5.533  0.00  0.00     0.002 A 
ATOM      6  C6  N4B d   1       2.855   2.070  -5.180  0.00  0.00     0.002 A 
ENDROOT
BRANCH   1   7
ATOM      7  C1' N4B d   1       1.412   4.026  -4.747  0.00  0.00     0.057 C 
BRANCH   7   8
ATOM      8  C2' N4B d   1       0.447   4.135  -5.924  0.00  0.00     0.009 C 
BRANCH   8   9
ATOM      9  C3' N4B d   1      -0.249   5.485  -5.965  0.00  0.00     0.004 C 
ATOM     10  C4' N4B d   1      -1.744   5.367  -5.993  0.00  0.00     0.003 C 
ENDBRANCH   8   9
ENDBRANCH   7   8
ENDBRANCH   1   7
TORSDOF 3
ENDMDL
