MODEL 1
REMARK minimizedAffinity 4.72903061
REMARK minimizedRMSD -1
REMARK  3 active torsions:
REMARK  status: ('A' for Active; 'I' for Inactive)
REMARK    1  A    between atoms: C3'_2  and  C2'_3 
REMARK    2  A    between atoms: C2'_3  and  C1'_4 
REMARK    3  A    between atoms: C1'_4  and  C1_5 
ROOT
ATOM      1  C1  N4B d   1       3.285   3.628  -5.900  0.00  0.00    -0.075 A 
ATOM      2  C2  N4B d   1       3.749   4.959  -5.807  0.00  0.00     0.002 A 
ATOM      3  C3  N4B d   1       2.854   6.000  -5.812  0.00  0.00     0.002 A 
ATOM      4  C4  N4B d   1       1.497   5.737  -5.927  0.00  0.00    -0.004 A 
ATOM      5  C5  N4B d   1       1.055   4.448  -5.990  0.00  0.00     0.002 A 
ATOM      6  C6  N4B d   1       1.943   3.392  -5.982  0.00  0.00     0.002 A 
ENDROOT
BRANCH   1   7
ATOM      7  C1' N4B d   1       4.230   2.461  -5.985  0.00  0.00     0.057 C 
BRANCH   7   8
ATOM      8  C2' N4B d   1       4.512   1.941  -4.579  0.00  0.00     0.009 C 
BRANCH   8   9
ATOM      9  C3' N4B d   1       3.948   0.547  -4.365  0.00  0.00     0.004 C 
ATOM     10  C4' N4B d   1       2.879   0.195  -5.355  0.00  0.00     0.003 C 
ENDBRANCH   8   9
ENDBRANCH   7   8
ENDBRANCH   1   7
TORSDOF 3
ENDMDL
