MODEL 1
REMARK minimizedAffinity -2.77503705
REMARK minimizedRMSD -1
REMARK  3 active torsions:
REMARK  status: ('A' for Active; 'I' for Inactive)
REMARK    1  A    between atoms: C3'_2  and  C2'_3 
REMARK    2  A    between atoms: C2'_3  and  C1'_4 
REMARK    3  A    between atoms: C1'_4  and  C1_5 
ROOT
ATOM      1  C1  N4B d   1       2.759   5.032  -5.284  0.00  0.00    -0.075 A 
ATOM      2  C2  N4B d   1       2.066   4.036  -4.561  0.00  0.00     0.002 A 
ATOM      3  C3  N4B d   1       0.692   4.011  -4.571  0.00  0.00     0.002 A 
ATOM      4  C4  N4B d   1      -0.006   4.978  -5.278  0.00  0.00    -0.004 A 
ATOM      5  C5  N4B d   1       0.671   5.921  -5.995  0.00  0.00     0.002 A 
ATOM      6  C6  N4B d   1       2.051   5.956  -5.997  0.00  0.00     0.002 A 
ENDROOT
BRANCH   1   7
ATOM      7  C1' N4B d   1       4.257   5.152  -5.233  0.00  0.00     0.057 C 
BRANCH   7   8
ATOM      8  C2' N4B d   1       4.880   3.807  -5.598  0.00  0.00     0.009 C 
BRANCH   8   9
ATOM      9  C3' N4B d   1       3.921   2.654  -5.358  0.00  0.00     0.004 C 
ATOM     10  C4' N4B d   1       4.332   1.789  -4.204  0.00  0.00     0.003 C 
ENDBRANCH   8   9
ENDBRANCH   7   8
ENDBRANCH   1   7
TORSDOF 3
ENDMDL
