MODEL 1
REMARK minimizedAffinity 0.0673808157
REMARK minimizedRMSD -1
REMARK  3 active torsions:
REMARK  status: ('A' for Active; 'I' for Inactive)
REMARK    1  A    between atoms: C3'_2  and  C2'_3 
REMARK    2  A    between atoms: C2'_3  and  C1'_4 
REMARK    3  A    between atoms: C1'_4  and  C1_5 
ROOT
ATOM      1  C1  N4B d   1       2.829   4.606  -5.936  0.00  0.00    -0.075 A 
ATOM      2  C2  N4B d   1       1.976   5.731  -5.961  0.00  0.00     0.002 A 
ATOM      3  C3  N4B d   1       0.614   5.560  -5.981  0.00  0.00     0.002 A 
ATOM      4  C4  N4B d   1       0.084   4.278  -5.996  0.00  0.00    -0.004 A 
ATOM      5  C5  N4B d   1       0.914   3.197  -5.947  0.00  0.00     0.002 A 
ATOM      6  C6  N4B d   1       2.285   3.354  -5.922  0.00  0.00     0.002 A 
ENDROOT
BRANCH   1   7
ATOM      7  C1' N4B d   1       4.326   4.742  -6.000  0.00  0.00     0.057 C 
BRANCH   7   8
ATOM      8  C2' N4B d   1       4.965   3.386  -5.716  0.00  0.00     0.009 C 
BRANCH   8   9
ATOM      9  C3' N4B d   1       4.896   3.022  -4.243  0.00  0.00     0.004 C 
ATOM     10  C4' N4B d   1       4.254   1.689  -4.003  0.00  0.00     0.003 C 
ENDBRANCH   8   9
ENDBRANCH   7   8
ENDBRANCH   1   7
TORSDOF 3
ENDMDL
