MODEL 1
REMARK minimizedAffinity 5.07725143
REMARK minimizedRMSD -1
REMARK  3 active torsions:
REMARK  status: ('A' for Active; 'I' for Inactive)
REMARK    1  A    between atoms: C3'_2  and  C2'_3 
REMARK    2  A    between atoms: C2'_3  and  C1'_4 
REMARK    3  A    between atoms: C1'_4  and  C1_5 
ROOT
ATOM      1  C1  N4B d   1       3.184   3.477  -4.464  0.00  0.00    -0.075 A 
ATOM      2  C2  N4B d   1       3.818   4.469  -5.245  0.00  0.00     0.002 A 
ATOM      3  C3  N4B d   1       3.065   5.336  -5.997  0.00  0.00     0.002 A 
ATOM      4  C4  N4B d   1       1.683   5.219  -6.000  0.00  0.00    -0.004 A 
ATOM      5  C5  N4B d   1       1.077   4.274  -5.223  0.00  0.00     0.002 A 
ATOM      6  C6  N4B d   1       1.822   3.399  -4.459  0.00  0.00     0.002 A 
ENDROOT
BRANCH   1   7
ATOM      7  C1' N4B d   1       3.969   2.452  -3.692  0.00  0.00     0.057 C 
BRANCH   7   8
ATOM      8  C2' N4B d   1       4.349   1.306  -4.625  0.00  0.00     0.009 C 
BRANCH   8   9
ATOM      9  C3' N4B d   1       3.449   1.245  -5.846  0.00  0.00     0.004 C 
ATOM     10  C4' N4B d   1       2.524   0.064  -5.828  0.00  0.00     0.003 C 
ENDBRANCH   8   9
ENDBRANCH   7   8
ENDBRANCH   1   7
TORSDOF 3
ENDMDL
