MODEL 1
REMARK minimizedAffinity -1.22583222
REMARK minimizedRMSD -1
REMARK  3 active torsions:
REMARK  status: ('A' for Active; 'I' for Inactive)
REMARK    1  A    between atoms: C3'_2  and  C2'_3 
REMARK    2  A    between atoms: C2'_3  and  C1'_4 
REMARK    3  A    between atoms: C1'_4  and  C1_5 
ROOT
ATOM      1  C1  N4B d   1       2.428   3.714  -5.284  0.00  0.00    -0.075 A 
ATOM      2  C2  N4B d   1       2.644   4.913  -4.570  0.00  0.00     0.002 A 
ATOM      3  C3  N4B d   1       1.691   5.902  -4.586  0.00  0.00     0.002 A 
ATOM      4  C4  N4B d   1       0.528   5.723  -5.320  0.00  0.00    -0.004 A 
ATOM      5  C5  N4B d   1       0.317   4.552  -5.986  0.00  0.00     0.002 A 
ATOM      6  C6  N4B d   1       1.264   3.547  -5.976  0.00  0.00     0.002 A 
ENDROOT
BRANCH   1   7
ATOM      7  C1' N4B d   1       3.478   2.640  -5.367  0.00  0.00     0.057 C 
BRANCH   7   8
ATOM      8  C2' N4B d   1       4.805   3.196  -4.860  0.00  0.00     0.009 C 
BRANCH   8   9
ATOM      9  C3' N4B d   1       5.665   3.732  -5.992  0.00  0.00     0.004 C 
ATOM     10  C4' N4B d   1       5.756   5.229  -5.994  0.00  0.00     0.003 C 
ENDBRANCH   8   9
ENDBRANCH   7   8
ENDBRANCH   1   7
TORSDOF 3
ENDMDL
