MODEL 1
REMARK minimizedAffinity -0.420785695
REMARK minimizedRMSD -1
REMARK  3 active torsions:
REMARK  status: ('A' for Active; 'I' for Inactive)
REMARK    1  A    between atoms: C3'_2  and  C2'_3 
REMARK    2  A    between atoms: C2'_3  and  C1'_4 
REMARK    3  A    between atoms: C1'_4  and  C1_5 
ROOT
ATOM      1  C1  N4B d   1       2.953   4.805  -5.909  0.00  0.00    -0.075 A 
ATOM      2  C2  N4B d   1       2.230   3.597  -5.802  0.00  0.00     0.002 A 
ATOM      3  C3  N4B d   1       0.858   3.618  -5.764  0.00  0.00     0.002 A 
ATOM      4  C4  N4B d   1       0.190   4.833  -5.811  0.00  0.00    -0.004 A 
ATOM      5  C5  N4B d   1       0.894   5.994  -5.940  0.00  0.00     0.002 A 
ATOM      6  C6  N4B d   1       2.274   5.987  -5.984  0.00  0.00     0.002 A 
ENDROOT
BRANCH   1   7
ATOM      7  C1' N4B d   1       4.456   4.838  -5.868  0.00  0.00     0.057 C 
BRANCH   7   8
ATOM      8  C2' N4B d   1       4.983   3.417  -5.687  0.00  0.00     0.009 C 
BRANCH   8   9
ATOM      9  C3' N4B d   1       4.467   2.778  -4.409  0.00  0.00     0.004 C 
ATOM     10  C4' N4B d   1       4.165   1.318  -4.571  0.00  0.00     0.003 C 
ENDBRANCH   8   9
ENDBRANCH   7   8
ENDBRANCH   1   7
TORSDOF 3
ENDMDL
