MODEL 1
REMARK minimizedAffinity -2.05325294
REMARK minimizedRMSD -1
REMARK  3 active torsions:
REMARK  status: ('A' for Active; 'I' for Inactive)
REMARK    1  A    between atoms: C3'_2  and  C2'_3 
REMARK    2  A    between atoms: C2'_3  and  C1'_4 
REMARK    3  A    between atoms: C1'_4  and  C1_5 
ROOT
ATOM      1  C1  N4B d   1       3.878   4.094  -4.884  0.00  0.00    -0.075 A 
ATOM      2  C2  N4B d   1       3.105   5.038  -4.172  0.00  0.00     0.002 A 
ATOM      3  C3  N4B d   1       1.753   5.127  -4.395  0.00  0.00     0.002 A 
ATOM      4  C4  N4B d   1       1.157   4.299  -5.334  0.00  0.00    -0.004 A 
ATOM      5  C5  N4B d   1       1.905   3.372  -5.999  0.00  0.00     0.002 A 
ATOM      6  C6  N4B d   1       3.265   3.269  -5.783  0.00  0.00     0.002 A 
ENDROOT
BRANCH   1   7
ATOM      7  C1' N4B d   1       5.373   4.019  -4.738  0.00  0.00     0.057 C 
BRANCH   7   8
ATOM      8  C2' N4B d   1       5.969   3.403  -6.000  0.00  0.00     0.009 C 
BRANCH   8   9
ATOM      9  C3' N4B d   1       5.869   1.887  -5.995  0.00  0.00     0.004 C 
ATOM     10  C4' N4B d   1       5.959   1.304  -4.616  0.00  0.00     0.003 C 
ENDBRANCH   8   9
ENDBRANCH   7   8
ENDBRANCH   1   7
TORSDOF 3
ENDMDL
