MODEL 1
REMARK minimizedAffinity 0.707877994
REMARK minimizedRMSD -1
REMARK  3 active torsions:
REMARK  status: ('A' for Active; 'I' for Inactive)
REMARK    1  A    between atoms: C3'_2  and  C2'_3 
REMARK    2  A    between atoms: C2'_3  and  C1'_4 
REMARK    3  A    between atoms: C1'_4  and  C1_5 
ROOT
ATOM      1  C1  N4B d   1       3.230   4.222  -5.938  0.00  0.00    -0.075 A 
ATOM      2  C2  N4B d   1       3.741   5.538  -5.960  0.00  0.00     0.002 A 
ATOM      3  C3  N4B d   1       5.098   5.747  -5.999  0.00  0.00     0.002 A 
ATOM      4  C4  N4B d   1       5.959   4.660  -5.996  0.00  0.00    -0.004 A 
ATOM      5  C5  N4B d   1       5.457   3.392  -6.000  0.00  0.00     0.002 A 
ATOM      6  C6  N4B d   1       4.095   3.167  -5.965  0.00  0.00     0.002 A 
ENDROOT
BRANCH   1   7
ATOM      7  C1' N4B d   1       1.757   3.944  -5.809  0.00  0.00     0.057 C 
BRANCH   7   8
ATOM      8  C2' N4B d   1       1.397   3.823  -4.331  0.00  0.00     0.009 C 
BRANCH   8   9
ATOM      9  C3' N4B d   1       2.426   4.496  -3.439  0.00  0.00     0.004 C 
ATOM     10  C4' N4B d   1       3.489   3.551  -2.963  0.00  0.00     0.003 C 
ENDBRANCH   8   9
ENDBRANCH   7   8
ENDBRANCH   1   7
TORSDOF 3
ENDMDL
