MODEL 1
REMARK minimizedAffinity -0.0583969727
REMARK minimizedRMSD -1
REMARK  1 active torsions:
REMARK  status: ('A' for Active; 'I' for Inactive)
REMARK    1  A    between atoms: C1_2  and  C2_3 
ROOT
ATOM      1  C2  UNL d   1      -0.571  -0.538   1.555  0.00  0.00    -0.076 A 
ATOM      2  C3  UNL d   1       0.826  -0.690   1.531  0.00  0.00     0.004 A 
ATOM      3  C4  UNL d   1       1.522  -1.112   2.662  0.00  0.00    -0.003 A 
ATOM      4  C5  UNL d   1       0.832  -1.388   3.837  0.00  0.00     0.000 A 
ATOM      5  C6  UNL d   1      -0.556  -1.259   3.875  0.00  0.00     0.000 A 
ATOM      6  C7  UNL d   1      -1.275  -0.851   2.738  0.00  0.00    -0.073 A 
ATOM      7  C8  UNL d   1      -2.770  -0.723   2.837  0.00  0.00     0.078 C 
ENDROOT
BRANCH   1   8
ATOM      8  C1  UNL d   1      -1.269  -0.051   0.305  0.00  0.00     0.053 C 
ATOM      9  C   UNL d   1      -1.900  -1.184  -0.488  0.00  0.00     0.018 C 
ENDBRANCH   1   8
TORSDOF 1
ENDMDL
