MODEL 1
REMARK minimizedAffinity -0.519850314
REMARK minimizedRMSD -1
REMARK  1 active torsions:
REMARK  status: ('A' for Active; 'I' for Inactive)
REMARK    1  A    between atoms: C1_2  and  C2_3 
ROOT
ATOM      1  C2  UNL d   1      -0.950  -0.594   2.176  0.00  0.00    -0.076 A 
ATOM      2  C3  UNL d   1       0.428  -0.468   1.926  0.00  0.00     0.004 A 
ATOM      3  C4  UNL d   1       1.369  -0.936   2.842  0.00  0.00    -0.003 A 
ATOM      4  C5  UNL d   1       0.947  -1.538   4.022  0.00  0.00     0.000 A 
ATOM      5  C6  UNL d   1      -0.415  -1.687   4.278  0.00  0.00     0.000 A 
ATOM      6  C7  UNL d   1      -1.377  -1.236   3.358  0.00  0.00    -0.073 A 
ATOM      7  C8  UNL d   1      -2.833  -1.417   3.689  0.00  0.00     0.078 C 
ENDROOT
BRANCH   1   8
ATOM      8  C1  UNL d   1      -1.924  -0.043   1.159  0.00  0.00     0.053 C 
ATOM      9  C   UNL d   1      -1.941  -0.852  -0.129  0.00  0.00     0.018 C 
ENDBRANCH   1   8
TORSDOF 1
ENDMDL
