MODEL 1
REMARK minimizedAffinity 0.800748229
REMARK minimizedRMSD -1
REMARK  1 active torsions:
REMARK  status: ('A' for Active; 'I' for Inactive)
REMARK    1  A    between atoms: C1_2  and  C2_3 
ROOT
ATOM      1  C2  UNL d   1      -0.353  -0.569   1.042  0.00  0.00    -0.076 A 
ATOM      2  C3  UNL d   1      -1.228   0.018   1.973  0.00  0.00     0.004 A 
ATOM      3  C4  UNL d   1      -2.555   0.285   1.640  0.00  0.00    -0.003 A 
ATOM      4  C5  UNL d   1      -3.028  -0.030   0.371  0.00  0.00     0.000 A 
ATOM      5  C6  UNL d   1      -2.178  -0.628  -0.559  0.00  0.00     0.000 A 
ATOM      6  C7  UNL d   1      -0.842  -0.920  -0.234  0.00  0.00    -0.073 A 
ATOM      7  C8  UNL d   1       0.031  -1.560  -1.277  0.00  0.00     0.078 C 
ENDROOT
BRANCH   1   8
ATOM      8  C1  UNL d   1       1.083  -0.811   1.451  0.00  0.00     0.053 C 
ATOM      9  C   UNL d   1       1.227  -1.077   2.942  0.00  0.00     0.018 C 
ENDBRANCH   1   8
TORSDOF 1
ENDMDL
