MODEL 1
REMARK minimizedAffinity -2.23277354
REMARK minimizedRMSD -1
REMARK  1 active torsions:
REMARK  status: ('A' for Active; 'I' for Inactive)
REMARK    1  A    between atoms: C1_2  and  C2_3 
ROOT
ATOM      1  C2  UNL d   1       0.225  -0.361   2.200  0.00  0.00    -0.076 A 
ATOM      2  C3  UNL d   1      -0.984  -0.023   2.835  0.00  0.00     0.004 A 
ATOM      3  C4  UNL d   1      -2.080   0.424   2.099  0.00  0.00    -0.003 A 
ATOM      4  C5  UNL d   1      -1.986   0.539   0.716  0.00  0.00     0.000 A 
ATOM      5  C6  UNL d   1      -0.801   0.191   0.068  0.00  0.00     0.000 A 
ATOM      6  C7  UNL d   1       0.308  -0.276   0.794  0.00  0.00    -0.073 A 
ATOM      7  C8  UNL d   1       1.564  -0.631   0.045  0.00  0.00     0.078 C 
ENDROOT
BRANCH   1   8
ATOM      8  C1  UNL d   1       1.388  -0.813   3.053  0.00  0.00     0.053 C 
ATOM      9  C   UNL d   1       0.950  -1.308   4.422  0.00  0.00     0.018 C 
ENDBRANCH   1   8
TORSDOF 1
ENDMDL
