MODEL 1
REMARK minimizedAffinity -0.270935297
REMARK minimizedRMSD -1
REMARK  1 active torsions:
REMARK  status: ('A' for Active; 'I' for Inactive)
REMARK    1  A    between atoms: C1_2  and  C2_3 
ROOT
ATOM      1  C2  UNL d   1       0.107  -0.305   0.758  0.00  0.00    -0.076 A 
ATOM      2  C3  UNL d   1      -0.154   0.522   1.864  0.00  0.00     0.004 A 
ATOM      3  C4  UNL d   1      -1.457   0.891   2.193  0.00  0.00    -0.003 A 
ATOM      4  C5  UNL d   1      -2.521   0.438   1.421  0.00  0.00     0.000 A 
ATOM      5  C6  UNL d   1      -2.283  -0.398   0.331  0.00  0.00     0.000 A 
ATOM      6  C7  UNL d   1      -0.976  -0.793  -0.004  0.00  0.00    -0.073 A 
ATOM      7  C8  UNL d   1      -0.776  -1.691  -1.194  0.00  0.00     0.078 C 
ENDROOT
BRANCH   1   8
ATOM      8  C1  UNL d   1       1.543  -0.650   0.434  0.00  0.00     0.053 C 
ATOM      9  C   UNL d   1       2.327   0.546  -0.082  0.00  0.00     0.018 C 
ENDBRANCH   1   8
TORSDOF 1
ENDMDL
