MODEL 1
REMARK minimizedAffinity 0.656807661
REMARK minimizedRMSD -1
REMARK  1 active torsions:
REMARK  status: ('A' for Active; 'I' for Inactive)
REMARK    1  A    between atoms: C1_2  and  C2_3 
ROOT
ATOM      1  C2  UNL d   1      -1.651  -0.541   3.009  0.00  0.00    -0.076 A 
ATOM      2  C3  UNL d   1      -0.252  -0.563   3.139  0.00  0.00     0.004 A 
ATOM      3  C4  UNL d   1       0.371  -1.428   4.038  0.00  0.00    -0.003 A 
ATOM      4  C5  UNL d   1      -0.395  -2.285   4.820  0.00  0.00     0.000 A 
ATOM      5  C6  UNL d   1      -1.784  -2.289   4.690  0.00  0.00     0.000 A 
ATOM      6  C7  UNL d   1      -2.426  -1.435   3.778  0.00  0.00    -0.073 A 
ATOM      7  C8  UNL d   1      -3.927  -1.477   3.684  0.00  0.00     0.078 C 
ENDROOT
BRANCH   1   8
ATOM      8  C1  UNL d   1      -2.272   0.437   2.037  0.00  0.00     0.053 C 
ATOM      9  C   UNL d   1      -1.938   0.112   0.589  0.00  0.00     0.018 C 
ENDBRANCH   1   8
TORSDOF 1
ENDMDL
