MODEL 1
REMARK minimizedAffinity 2.39265609
REMARK minimizedRMSD -1
REMARK  1 active torsions:
REMARK  status: ('A' for Active; 'I' for Inactive)
REMARK    1  A    between atoms: C1_2  and  C2_3 
ROOT
ATOM      1  C2  UNL d   1      -0.569  -0.163   0.644  0.00  0.00    -0.076 A 
ATOM      2  C3  UNL d   1      -0.762  -0.312  -0.740  0.00  0.00     0.004 A 
ATOM      3  C4  UNL d   1      -2.023  -0.145  -1.311  0.00  0.00    -0.003 A 
ATOM      4  C5  UNL d   1      -3.111   0.173  -0.506  0.00  0.00     0.000 A 
ATOM      5  C6  UNL d   1      -2.935   0.342   0.867  0.00  0.00     0.000 A 
ATOM      6  C7  UNL d   1      -1.667   0.194   1.456  0.00  0.00    -0.073 A 
ATOM      7  C8  UNL d   1      -1.535   0.381   2.942  0.00  0.00     0.078 C 
ENDROOT
BRANCH   1   8
ATOM      8  C1  UNL d   1       0.816  -0.383   1.210  0.00  0.00     0.053 C 
ATOM      9  C   UNL d   1       1.815   0.656   0.724  0.00  0.00     0.018 C 
ENDBRANCH   1   8
TORSDOF 1
ENDMDL
