MODEL 1
REMARK minimizedAffinity 1.42022479
REMARK minimizedRMSD -1
REMARK  1 active torsions:
REMARK  status: ('A' for Active; 'I' for Inactive)
REMARK    1  A    between atoms: C1_2  and  C2_3 
ROOT
ATOM      1  C2  UNL d   1      -0.334  -0.696   2.027  0.00  0.00    -0.076 A 
ATOM      2  C3  UNL d   1      -1.636  -0.369   2.443  0.00  0.00     0.004 A 
ATOM      3  C4  UNL d   1      -2.629  -0.059   1.515  0.00  0.00    -0.003 A 
ATOM      4  C5  UNL d   1      -2.336  -0.071   0.156  0.00  0.00     0.000 A 
ATOM      5  C6  UNL d   1      -1.054  -0.411  -0.275  0.00  0.00     0.000 A 
ATOM      6  C7  UNL d   1      -0.046  -0.742   0.646  0.00  0.00    -0.073 A 
ATOM      7  C8  UNL d   1       1.321  -1.094   0.126  0.00  0.00     0.078 C 
ENDROOT
BRANCH   1   8
ATOM      8  C1  UNL d   1       0.708  -0.996   3.080  0.00  0.00     0.053 C 
ATOM      9  C   UNL d   1       0.098  -1.517   4.372  0.00  0.00     0.018 C 
ENDBRANCH   1   8
TORSDOF 1
ENDMDL
