MODEL 1
REMARK minimizedAffinity 3.82771277
REMARK minimizedRMSD -1
REMARK  1 active torsions:
REMARK  status: ('A' for Active; 'I' for Inactive)
REMARK    1  A    between atoms: C1_2  and  C2_3 
ROOT
ATOM      1  C2  UNL d   1      -2.938   0.534  -0.335  0.00  0.00    -0.076 A 
ATOM      2  C3  UNL d   1      -3.098   1.129   0.929  0.00  0.00     0.004 A 
ATOM      3  C4  UNL d   1      -2.243   0.815   1.983  0.00  0.00    -0.003 A 
ATOM      4  C5  UNL d   1      -1.213  -0.099   1.791  0.00  0.00     0.000 A 
ATOM      5  C6  UNL d   1      -1.028  -0.685   0.540  0.00  0.00     0.000 A 
ATOM      6  C7  UNL d   1      -1.872  -0.367  -0.539  0.00  0.00    -0.073 A 
ATOM      7  C8  UNL d   1      -1.631  -1.035  -1.865  0.00  0.00     0.078 C 
ENDROOT
BRANCH   1   8
ATOM      8  C1  UNL d   1      -3.913   0.893  -1.433  0.00  0.00     0.053 C 
ATOM      9  C   UNL d   1      -5.272   0.237  -1.244  0.00  0.00     0.018 C 
ENDBRANCH   1   8
TORSDOF 1
ENDMDL
