MODEL 1
REMARK minimizedAffinity 9.94122601
REMARK minimizedRMSD -1
REMARK  0 active torsions:
REMARK  status: ('A' for Active; 'I' for Inactive)
ROOT
ATOM      1  C2' OXE d   1      -0.126  -5.010  -3.874  0.00  0.00     0.078 C 
ATOM      2  C1' OXE d   1      -0.732  -2.941  -2.077  0.00  0.00     0.078 C 
ATOM      3  C1  OXE d   1       0.602  -3.630  -1.932  0.00  0.00    -0.078 A 
ATOM      4  C2  OXE d   1       0.870  -4.673  -2.786  0.00  0.00    -0.078 A 
ATOM      5  C3  OXE d   1       2.108  -5.308  -2.731  0.00  0.00     0.003 A 
ATOM      6  C4  OXE d   1       3.020  -4.996  -1.715  0.00  0.00    -0.002 A 
ATOM      7  C5  OXE d   1       2.749  -3.964  -0.810  0.00  0.00    -0.002 A 
ATOM      8  C6  OXE d   1       1.566  -3.244  -0.931  0.00  0.00     0.003 A 
ENDROOT
TORSDOF 0
ENDMDL
