MODEL 1
REMARK minimizedAffinity 11.229701
REMARK minimizedRMSD -1
REMARK  0 active torsions:
REMARK  status: ('A' for Active; 'I' for Inactive)
ROOT
ATOM      1  C2' OXE d   1       1.521   1.380  -1.115  0.00  0.00     0.078 C 
ATOM      2  C1' OXE d   1       3.634  -0.202  -0.158  0.00  0.00     0.078 C 
ATOM      3  C1  OXE d   1       2.405  -0.907  -0.676  0.00  0.00    -0.078 A 
ATOM      4  C2  OXE d   1       1.358  -0.124  -1.099  0.00  0.00    -0.078 A 
ATOM      5  C3  OXE d   1       0.223  -0.724  -1.637  0.00  0.00     0.003 A 
ATOM      6  C4  OXE d   1       0.075  -2.116  -1.609  0.00  0.00    -0.002 A 
ATOM      7  C5  OXE d   1       1.114  -2.930  -1.146  0.00  0.00    -0.002 A 
ATOM      8  C6  OXE d   1       2.300  -2.345  -0.716  0.00  0.00     0.003 A 
ENDROOT
TORSDOF 0
ENDMDL
