MODEL 1
REMARK minimizedAffinity 19.6780052
REMARK minimizedRMSD -1
REMARK  0 active torsions:
REMARK  status: ('A' for Active; 'I' for Inactive)
ROOT
ATOM      1  C2' OXE d   1      -2.610  -1.478  -2.785  0.00  0.00     0.078 C 
ATOM      2  C1' OXE d   1      -3.546  -2.242  -5.319  0.00  0.00     0.078 C 
ATOM      3  C1  OXE d   1      -3.443  -0.766  -5.022  0.00  0.00    -0.078 A 
ATOM      4  C2  OXE d   1      -3.028  -0.402  -3.764  0.00  0.00    -0.078 A 
ATOM      5  C3  OXE d   1      -2.863   0.945  -3.456  0.00  0.00     0.003 A 
ATOM      6  C4  OXE d   1      -3.261   1.934  -4.364  0.00  0.00    -0.002 A 
ATOM      7  C5  OXE d   1      -3.724   1.584  -5.637  0.00  0.00    -0.002 A 
ATOM      8  C6  OXE d   1      -3.780   0.242  -5.996  0.00  0.00     0.003 A 
ENDROOT
TORSDOF 0
ENDMDL
