MODEL 1
REMARK minimizedAffinity 2.0239892
REMARK minimizedRMSD -1
REMARK  0 active torsions:
REMARK  status: ('A' for Active; 'I' for Inactive)
ROOT
ATOM      1  C2' OXE d   1      -3.795  -4.928  -5.427  0.00  0.00     0.078 C 
ATOM      2  C1' OXE d   1      -3.147  -3.582  -3.050  0.00  0.00     0.078 C 
ATOM      3  C1  OXE d   1      -4.165  -2.946  -3.964  0.00  0.00    -0.078 A 
ATOM      4  C2  OXE d   1      -4.442  -3.588  -5.147  0.00  0.00    -0.078 A 
ATOM      5  C3  OXE d   1      -5.413  -3.073  -6.000  0.00  0.00     0.003 A 
ATOM      6  C4  OXE d   1      -6.000  -1.829  -5.738  0.00  0.00    -0.002 A 
ATOM      7  C5  OXE d   1      -5.703  -1.139  -4.558  0.00  0.00    -0.002 A 
ATOM      8  C6  OXE d   1      -4.822  -1.703  -3.642  0.00  0.00     0.003 A 
ENDROOT
TORSDOF 0
ENDMDL
