MODEL 1
REMARK minimizedAffinity -0.144073993
REMARK minimizedRMSD -1
REMARK  0 active torsions:
REMARK  status: ('A' for Active; 'I' for Inactive)
ROOT
ATOM      1  C2' OXE d   1       2.599   1.878  -1.497  0.00  0.00     0.078 C 
ATOM      2  C1' OXE d   1       1.806   2.958   0.970  0.00  0.00     0.078 C 
ATOM      3  C1  OXE d   1       1.327   1.571   0.622  0.00  0.00    -0.078 A 
ATOM      4  C2  OXE d   1       1.681   1.069  -0.607  0.00  0.00    -0.078 A 
ATOM      5  C3  OXE d   1       1.311  -0.227  -0.955  0.00  0.00     0.003 A 
ATOM      6  C4  OXE d   1       0.454  -0.966  -0.130  0.00  0.00    -0.002 A 
ATOM      7  C5  OXE d   1       0.049  -0.457   1.109  0.00  0.00    -0.002 A 
ATOM      8  C6  OXE d   1       0.510   0.789   1.518  0.00  0.00     0.003 A 
ENDROOT
TORSDOF 0
ENDMDL
