MODEL 1
REMARK minimizedAffinity 11.1051064
REMARK minimizedRMSD -1
REMARK  0 active torsions:
REMARK  status: ('A' for Active; 'I' for Inactive)
ROOT
ATOM      1  C2' OXE d   1      -0.315  -2.280  -0.969  0.00  0.00     0.078 C 
ATOM      2  C1' OXE d   1       2.141  -3.545  -1.469  0.00  0.00     0.078 C 
ATOM      3  C1  OXE d   1       2.170  -2.110  -1.004  0.00  0.00    -0.078 A 
ATOM      4  C2  OXE d   1       0.963  -1.485  -0.806  0.00  0.00    -0.078 A 
ATOM      5  C3  OXE d   1       0.933  -0.179  -0.325  0.00  0.00     0.003 A 
ATOM      6  C4  OXE d   1       2.119   0.552  -0.186  0.00  0.00    -0.002 A 
ATOM      7  C5  OXE d   1       3.358  -0.054  -0.420  0.00  0.00    -0.002 A 
ATOM      8  C6  OXE d   1       3.403  -1.394  -0.787  0.00  0.00     0.003 A 
ENDROOT
TORSDOF 0
ENDMDL
