MODEL 1
REMARK minimizedAffinity 6.89931059
REMARK minimizedRMSD -1
REMARK  0 active torsions:
REMARK  status: ('A' for Active; 'I' for Inactive)
ROOT
ATOM      1  C2' OXE d   1      -4.014   2.123   1.831  0.00  0.00     0.078 C 
ATOM      2  C1' OXE d   1      -5.713   1.809   4.043  0.00  0.00     0.078 C 
ATOM      3  C1  OXE d   1      -4.225   1.793   4.291  0.00  0.00    -0.078 A 
ATOM      4  C2  OXE d   1      -3.401   1.901   3.197  0.00  0.00    -0.078 A 
ATOM      5  C3  OXE d   1      -2.021   1.947   3.375  0.00  0.00     0.003 A 
ATOM      6  C4  OXE d   1      -1.462   1.731   4.640  0.00  0.00    -0.002 A 
ATOM      7  C5  OXE d   1      -2.283   1.580   5.763  0.00  0.00    -0.002 A 
ATOM      8  C6  OXE d   1      -3.664   1.651   5.612  0.00  0.00     0.003 A 
ENDROOT
TORSDOF 0
ENDMDL
