MODEL 1
REMARK minimizedAffinity -2.52723551
REMARK minimizedRMSD -1
REMARK  0 active torsions:
REMARK  status: ('A' for Active; 'I' for Inactive)
ROOT
ATOM      1  C2' OXE d   1       0.396   1.462   0.854  0.00  0.00     0.078 C 
ATOM      2  C1' OXE d   1       2.519   1.160  -0.957  0.00  0.00     0.078 C 
ATOM      3  C1  OXE d   1       1.226   0.448  -1.264  0.00  0.00    -0.078 A 
ATOM      4  C2  OXE d   1       0.207   0.563  -0.349  0.00  0.00    -0.078 A 
ATOM      5  C3  OXE d   1      -1.025  -0.029  -0.610  0.00  0.00     0.003 A 
ATOM      6  C4  OXE d   1      -1.188  -0.867  -1.720  0.00  0.00    -0.002 A 
ATOM      7  C5  OXE d   1      -0.150  -1.030  -2.645  0.00  0.00    -0.002 A 
ATOM      8  C6  OXE d   1       1.046  -0.347  -2.454  0.00  0.00     0.003 A 
ENDROOT
TORSDOF 0
ENDMDL
