MODEL 1
REMARK minimizedAffinity 0.449367344
REMARK minimizedRMSD -1
REMARK  0 active torsions:
REMARK  status: ('A' for Active; 'I' for Inactive)
ROOT
ATOM      1  C2' OXE d   1       1.653   1.568  -1.069  0.00  0.00     0.078 C 
ATOM      2  C1' OXE d   1       0.434   0.309  -3.262  0.00  0.00     0.078 C 
ATOM      3  C1  OXE d   1       0.768  -0.539  -2.060  0.00  0.00    -0.078 A 
ATOM      4  C2  OXE d   1       1.406   0.076  -1.010  0.00  0.00    -0.078 A 
ATOM      5  C3  OXE d   1       1.687  -0.648   0.145  0.00  0.00     0.003 A 
ATOM      6  C4  OXE d   1       1.464  -2.029   0.188  0.00  0.00    -0.002 A 
ATOM      7  C5  OXE d   1       0.851  -2.683  -0.887  0.00  0.00    -0.002 A 
ATOM      8  C6  OXE d   1       0.459  -1.946  -1.998  0.00  0.00     0.003 A 
ENDROOT
TORSDOF 0
ENDMDL
