MODEL 1
REMARK minimizedAffinity 4.77757645
REMARK minimizedRMSD -1
REMARK  0 active torsions:
REMARK  status: ('A' for Active; 'I' for Inactive)
ROOT
ATOM      1  C2' OXE d   1       0.090   0.628  -3.028  0.00  0.00     0.078 C 
ATOM      2  C1' OXE d   1      -1.757   2.654  -2.424  0.00  0.00     0.078 C 
ATOM      3  C1  OXE d   1      -0.466   2.623  -1.644  0.00  0.00    -0.078 A 
ATOM      4  C2  OXE d   1       0.411   1.600  -1.913  0.00  0.00    -0.078 A 
ATOM      5  C3  OXE d   1       1.640   1.556  -1.261  0.00  0.00     0.003 A 
ATOM      6  C4  OXE d   1       1.925   2.454  -0.225  0.00  0.00    -0.002 A 
ATOM      7  C5  OXE d   1       1.028   3.479   0.093  0.00  0.00    -0.002 A 
ATOM      8  C6  OXE d   1      -0.150   3.603  -0.634  0.00  0.00     0.003 A 
ENDROOT
TORSDOF 0
ENDMDL
