MODEL 1
REMARK minimizedAffinity 6.03986359
REMARK minimizedRMSD -1
REMARK  0 active torsions:
REMARK  status: ('A' for Active; 'I' for Inactive)
ROOT
ATOM      1  C2' OXE d   1      -0.541   3.303   1.482  0.00  0.00     0.078 C 
ATOM      2  C1' OXE d   1      -2.655   3.395  -0.364  0.00  0.00     0.078 C 
ATOM      3  C1  OXE d   1      -2.977   3.002   1.056  0.00  0.00    -0.078 A 
ATOM      4  C2  OXE d   1      -1.930   2.914   1.942  0.00  0.00    -0.078 A 
ATOM      5  C3  OXE d   1      -2.179   2.609   3.277  0.00  0.00     0.003 A 
ATOM      6  C4  OXE d   1      -3.465   2.241   3.691  0.00  0.00    -0.002 A 
ATOM      7  C5  OXE d   1      -4.539   2.285   2.797  0.00  0.00    -0.002 A 
ATOM      8  C6  OXE d   1      -4.320   2.704   1.489  0.00  0.00     0.003 A 
ENDROOT
TORSDOF 0
ENDMDL
