MODEL 1
REMARK minimizedAffinity 1.65706515
REMARK minimizedRMSD -1
REMARK  0 active torsions:
REMARK  status: ('A' for Active; 'I' for Inactive)
ROOT
ATOM      1  C2' OXE d   1       0.802   1.299  -3.819  0.00  0.00     0.078 C 
ATOM      2  C1' OXE d   1       1.738   2.438  -1.430  0.00  0.00     0.078 C 
ATOM      3  C1  OXE d   1       1.343   0.983  -1.408  0.00  0.00    -0.078 A 
ATOM      4  C2  OXE d   1       0.842   0.446  -2.570  0.00  0.00    -0.078 A 
ATOM      5  C3  OXE d   1       0.515  -0.906  -2.619  0.00  0.00     0.003 A 
ATOM      6  C4  OXE d   1       0.546  -1.686  -1.456  0.00  0.00    -0.002 A 
ATOM      7  C5  OXE d   1       1.015  -1.148  -0.253  0.00  0.00    -0.002 A 
ATOM      8  C6  OXE d   1       1.457   0.170  -0.222  0.00  0.00     0.003 A 
ENDROOT
TORSDOF 0
ENDMDL
