MODEL 1
REMARK minimizedAffinity 3.02627611
REMARK minimizedRMSD -1
REMARK  0 active torsions:
REMARK  status: ('A' for Active; 'I' for Inactive)
ROOT
ATOM      1  C2' OXE d   1      -5.376   1.506  -6.000  0.00  0.00     0.078 C 
ATOM      2  C1' OXE d   1      -4.120  -0.916  -5.337  0.00  0.00     0.078 C 
ATOM      3  C1  OXE d   1      -3.674   0.330  -4.613  0.00  0.00    -0.078 A 
ATOM      4  C2  OXE d   1      -4.261   1.518  -4.977  0.00  0.00    -0.078 A 
ATOM      5  C3  OXE d   1      -3.925   2.688  -4.302  0.00  0.00     0.003 A 
ATOM      6  C4  OXE d   1      -2.886   2.692  -3.364  0.00  0.00    -0.002 A 
ATOM      7  C5  OXE d   1      -2.247   1.499  -3.007  0.00  0.00    -0.002 A 
ATOM      8  C6  OXE d   1      -2.657   0.305  -3.590  0.00  0.00     0.003 A 
ENDROOT
TORSDOF 0
ENDMDL
