MODEL 1
REMARK minimizedAffinity 4.57406759
REMARK minimizedRMSD -1
REMARK  0 active torsions:
REMARK  status: ('A' for Active; 'I' for Inactive)
ROOT
ATOM      1  C2' OXE d   1       1.726   3.289   1.111  0.00  0.00     0.078 C 
ATOM      2  C1' OXE d   1      -0.087   1.908   2.751  0.00  0.00     0.078 C 
ATOM      3  C1  OXE d   1       0.455   1.190   1.541  0.00  0.00    -0.078 A 
ATOM      4  C2  OXE d   1       1.305   1.889   0.718  0.00  0.00    -0.078 A 
ATOM      5  C3  OXE d   1       1.877   1.256  -0.382  0.00  0.00     0.003 A 
ATOM      6  C4  OXE d   1       1.475  -0.036  -0.744  0.00  0.00    -0.002 A 
ATOM      7  C5  OXE d   1       0.579  -0.751   0.058  0.00  0.00    -0.002 A 
ATOM      8  C6  OXE d   1       0.094  -0.170   1.224  0.00  0.00     0.003 A 
ENDROOT
TORSDOF 0
ENDMDL
