MODEL 1
REMARK minimizedAffinity 8.01249695
REMARK minimizedRMSD -1
REMARK  0 active torsions:
REMARK  status: ('A' for Active; 'I' for Inactive)
ROOT
ATOM      1  C2' OXE d   1       1.125  -0.070  -0.483  0.00  0.00     0.078 C 
ATOM      2  C1' OXE d   1      -0.289  -0.301  -2.898  0.00  0.00     0.078 C 
ATOM      3  C1  OXE d   1       0.553  -1.473  -2.460  0.00  0.00    -0.078 A 
ATOM      4  C2  OXE d   1       1.278  -1.334  -1.302  0.00  0.00    -0.078 A 
ATOM      5  C3  OXE d   1       2.029  -2.405  -0.825  0.00  0.00     0.003 A 
ATOM      6  C4  OXE d   1       2.173  -3.567  -1.592  0.00  0.00    -0.002 A 
ATOM      7  C5  OXE d   1       1.475  -3.714  -2.796  0.00  0.00    -0.002 A 
ATOM      8  C6  OXE d   1       0.629  -2.696  -3.222  0.00  0.00     0.003 A 
ENDROOT
TORSDOF 0
ENDMDL
