MODEL 1
REMARK minimizedAffinity 5.44931841
REMARK minimizedRMSD -1
REMARK  0 active torsions:
REMARK  status: ('A' for Active; 'I' for Inactive)
ROOT
ATOM      1  C2' OXE d   1       0.090  -2.439  -1.131  0.00  0.00     0.078 C 
ATOM      2  C1' OXE d   1       2.311  -4.072  -1.660  0.00  0.00     0.078 C 
ATOM      3  C1  OXE d   1       2.571  -2.663  -1.190  0.00  0.00    -0.078 A 
ATOM      4  C2  OXE d   1       1.479  -1.856  -0.978  0.00  0.00    -0.078 A 
ATOM      5  C3  OXE d   1       1.660  -0.564  -0.492  0.00  0.00     0.003 A 
ATOM      6  C4  OXE d   1       2.947  -0.029  -0.363  0.00  0.00    -0.002 A 
ATOM      7  C5  OXE d   1       4.073  -0.822  -0.612  0.00  0.00    -0.002 A 
ATOM      8  C6  OXE d   1       3.903  -2.150  -0.984  0.00  0.00     0.003 A 
ENDROOT
TORSDOF 0
ENDMDL
