MODEL 1
REMARK minimizedAffinity 14.3673649
REMARK minimizedRMSD -1
REMARK  0 active torsions:
REMARK  status: ('A' for Active; 'I' for Inactive)
ROOT
ATOM      1  C2' OXE d   1       1.310  -5.545  -3.280  0.00  0.00     0.078 C 
ATOM      2  C1' OXE d   1       3.591  -5.231  -1.674  0.00  0.00     0.078 C 
ATOM      3  C1  OXE d   1       2.495  -4.203  -1.548  0.00  0.00    -0.078 A 
ATOM      4  C2  OXE d   1       1.403  -4.338  -2.372  0.00  0.00    -0.078 A 
ATOM      5  C3  OXE d   1       0.339  -3.448  -2.258  0.00  0.00     0.003 A 
ATOM      6  C4  OXE d   1       0.437  -2.329  -1.422  0.00  0.00    -0.002 A 
ATOM      7  C5  OXE d   1       1.558  -2.150  -0.604  0.00  0.00    -0.002 A 
ATOM      8  C6  OXE d   1       2.574  -3.099  -0.624  0.00  0.00     0.003 A 
ENDROOT
TORSDOF 0
ENDMDL
