MODEL 1
REMARK minimizedAffinity 1.96980596
REMARK minimizedRMSD -1
REMARK  0 active torsions:
REMARK  status: ('A' for Active; 'I' for Inactive)
ROOT
ATOM      1  C2' OXE d   1       1.717   2.238  -1.403  0.00  0.00     0.078 C 
ATOM      2  C1' OXE d   1       0.652   0.978  -3.674  0.00  0.00     0.078 C 
ATOM      3  C1  OXE d   1       0.979   0.116  -2.480  0.00  0.00    -0.078 A 
ATOM      4  C2  OXE d   1       1.544   0.734  -1.390  0.00  0.00    -0.078 A 
ATOM      5  C3  OXE d   1       1.815  -0.004  -0.242  0.00  0.00     0.003 A 
ATOM      6  C4  OXE d   1       1.660  -1.396  -0.242  0.00  0.00    -0.002 A 
ATOM      7  C5  OXE d   1       1.124  -2.051  -1.356  0.00  0.00    -0.002 A 
ATOM      8  C6  OXE d   1       0.740  -1.306  -2.465  0.00  0.00     0.003 A 
ENDROOT
TORSDOF 0
ENDMDL
