MODEL 1
REMARK minimizedAffinity -3.60079885
REMARK minimizedRMSD -1
REMARK  1 active torsions:
REMARK  status: ('A' for Active; 'I' for Inactive)
REMARK    1  A    between atoms: C1_2  and  C2_3 
ROOT
ATOM      1  C2  UNL d   1      -0.183  -1.163  -0.295  0.00  0.00    -0.076 A 
ATOM      2  C3  UNL d   1      -0.707  -1.261   1.006  0.00  0.00     0.004 A 
ATOM      3  C4  UNL d   1      -0.771  -0.147   1.840  0.00  0.00    -0.003 A 
ATOM      4  C5  UNL d   1      -0.312   1.085   1.387  0.00  0.00     0.000 A 
ATOM      5  C6  UNL d   1       0.194   1.205   0.093  0.00  0.00     0.000 A 
ATOM      6  C7  UNL d   1       0.251   0.095  -0.766  0.00  0.00    -0.073 A 
ATOM      7  C8  UNL d   1       0.812   0.280  -2.149  0.00  0.00     0.078 C 
ENDROOT
BRANCH   1   8
ATOM      8  C1  UNL d   1      -0.114  -2.412  -1.144  0.00  0.00     0.053 C 
ATOM      9  C   UNL d   1      -1.426  -3.180  -1.158  0.00  0.00     0.018 C 
ENDBRANCH   1   8
TORSDOF 1
ENDMDL
