MODEL 1
REMARK minimizedAffinity -0.427908838
REMARK minimizedRMSD -1
REMARK  1 active torsions:
REMARK  status: ('A' for Active; 'I' for Inactive)
REMARK    1  A    between atoms: C1_2  and  C2_3 
ROOT
ATOM      1  C2  UNL d   1       0.103  -0.374   0.012  0.00  0.00    -0.076 A 
ATOM      2  C3  UNL d   1       0.116  -0.416   1.417  0.00  0.00     0.004 A 
ATOM      3  C4  UNL d   1       0.031   0.753   2.171  0.00  0.00    -0.003 A 
ATOM      4  C5  UNL d   1      -0.068   1.984   1.532  0.00  0.00     0.000 A 
ATOM      5  C6  UNL d   1      -0.100   2.044   0.140  0.00  0.00     0.000 A 
ATOM      6  C7  UNL d   1      -0.032   0.873  -0.635  0.00  0.00    -0.073 A 
ATOM      7  C8  UNL d   1      -0.064   0.996  -2.134  0.00  0.00     0.078 C 
ENDROOT
BRANCH   1   8
ATOM      8  C1  UNL d   1       0.225  -1.672  -0.753  0.00  0.00     0.053 C 
ATOM      9  C   UNL d   1      -1.120  -2.347  -0.975  0.00  0.00     0.018 C 
ENDBRANCH   1   8
TORSDOF 1
ENDMDL
