MODEL 1
REMARK minimizedAffinity -1.81212485
REMARK minimizedRMSD -1
REMARK  1 active torsions:
REMARK  status: ('A' for Active; 'I' for Inactive)
REMARK    1  A    between atoms: C1_2  and  C2_3 
ROOT
ATOM      1  C2  UNL d   1      -0.249   1.463   0.355  0.00  0.00    -0.076 A 
ATOM      2  C3  UNL d   1       0.664   0.663   1.064  0.00  0.00     0.004 A 
ATOM      3  C4  UNL d   1       1.378  -0.349   0.425  0.00  0.00    -0.003 A 
ATOM      4  C5  UNL d   1       1.191  -0.578  -0.934  0.00  0.00     0.000 A 
ATOM      5  C6  UNL d   1       0.303   0.218  -1.657  0.00  0.00     0.000 A 
ATOM      6  C7  UNL d   1      -0.413   1.253  -1.031  0.00  0.00    -0.073 A 
ATOM      7  C8  UNL d   1      -1.362   2.077  -1.858  0.00  0.00     0.078 C 
ENDROOT
BRANCH   1   8
ATOM      8  C1  UNL d   1      -1.015   2.528   1.107  0.00  0.00     0.053 C 
ATOM      9  C   UNL d   1      -0.678   3.933   0.632  0.00  0.00     0.018 C 
ENDBRANCH   1   8
TORSDOF 1
ENDMDL
