MODEL 1
REMARK minimizedAffinity -1.6993922
REMARK minimizedRMSD -1
REMARK  1 active torsions:
REMARK  status: ('A' for Active; 'I' for Inactive)
REMARK    1  A    between atoms: C1_2  and  C2_3 
ROOT
ATOM      1  C2  UNL d   1       0.516  -0.698  -0.220  0.00  0.00    -0.076 A 
ATOM      2  C3  UNL d   1       0.658  -0.949   1.156  0.00  0.00     0.004 A 
ATOM      3  C4  UNL d   1       0.517   0.075   2.091  0.00  0.00    -0.003 A 
ATOM      4  C5  UNL d   1       0.231   1.367   1.664  0.00  0.00     0.000 A 
ATOM      5  C6  UNL d   1       0.070   1.631   0.305  0.00  0.00     0.000 A 
ATOM      6  C7  UNL d   1       0.193   0.606  -0.649  0.00  0.00    -0.073 A 
ATOM      7  C8  UNL d   1       0.015   0.949  -2.103  0.00  0.00     0.078 C 
ENDROOT
BRANCH   1   8
ATOM      8  C1  UNL d   1       0.707  -1.844  -1.188  0.00  0.00     0.053 C 
ATOM      9  C   UNL d   1      -0.084  -3.081  -0.791  0.00  0.00     0.018 C 
ENDBRANCH   1   8
TORSDOF 1
ENDMDL
