MODEL 1
REMARK minimizedAffinity -5.62100887
REMARK minimizedRMSD -1
REMARK  1 active torsions:
REMARK  status: ('A' for Active; 'I' for Inactive)
REMARK    1  A    between atoms: C1_2  and  C2_3 
ROOT
ATOM      1  C2  UNL d   1      -0.090   0.822   0.100  0.00  0.00    -0.076 A 
ATOM      2  C3  UNL d   1      -1.052   1.700  -0.428  0.00  0.00     0.004 A 
ATOM      3  C4  UNL d   1      -1.577   2.736   0.342  0.00  0.00    -0.003 A 
ATOM      4  C5  UNL d   1      -1.148   2.913   1.652  0.00  0.00     0.000 A 
ATOM      5  C6  UNL d   1      -0.181   2.062   2.187  0.00  0.00     0.000 A 
ATOM      6  C7  UNL d   1       0.371   1.022   1.419  0.00  0.00    -0.073 A 
ATOM      7  C8  UNL d   1       1.406   0.131   2.048  0.00  0.00     0.078 C 
ENDROOT
BRANCH   1   8
ATOM      8  C1  UNL d   1       0.424  -0.300  -0.773  0.00  0.00     0.053 C 
ATOM      9  C   UNL d   1       1.070   0.206  -2.053  0.00  0.00     0.018 C 
ENDBRANCH   1   8
TORSDOF 1
ENDMDL
