MODEL 1
REMARK minimizedAffinity -4.94378376
REMARK minimizedRMSD -1
REMARK  1 active torsions:
REMARK  status: ('A' for Active; 'I' for Inactive)
REMARK    1  A    between atoms: C1_2  and  C2_3 
ROOT
ATOM      1  C2  UNL d   1      -0.587   0.634   0.301  0.00  0.00    -0.076 A 
ATOM      2  C3  UNL d   1      -1.051   1.691  -0.501  0.00  0.00     0.004 A 
ATOM      3  C4  UNL d   1      -1.004   3.009  -0.049  0.00  0.00    -0.003 A 
ATOM      4  C5  UNL d   1      -0.492   3.291   1.213  0.00  0.00     0.000 A 
ATOM      5  C6  UNL d   1      -0.011   2.256   2.015  0.00  0.00     0.000 A 
ATOM      6  C7  UNL d   1      -0.036   0.924   1.567  0.00  0.00    -0.073 A 
ATOM      7  C8  UNL d   1       0.491  -0.153   2.476  0.00  0.00     0.078 C 
ENDROOT
BRANCH   1   8
ATOM      8  C1  UNL d   1      -0.688  -0.778  -0.232  0.00  0.00     0.053 C 
ATOM      9  C   UNL d   1       0.586  -1.231  -0.926  0.00  0.00     0.018 C 
ENDBRANCH   1   8
TORSDOF 1
ENDMDL
