MODEL 1
REMARK minimizedAffinity -3.22058368
REMARK minimizedRMSD -1
REMARK  1 active torsions:
REMARK  status: ('A' for Active; 'I' for Inactive)
REMARK    1  A    between atoms: C1_2  and  C2_3 
ROOT
ATOM      1  C2  UNL d   1      -0.014   0.827   0.106  0.00  0.00    -0.076 A 
ATOM      2  C3  UNL d   1       0.005   0.755   1.510  0.00  0.00     0.004 A 
ATOM      3  C4  UNL d   1      -0.376   1.845   2.290  0.00  0.00    -0.003 A 
ATOM      4  C5  UNL d   1      -0.781   3.027   1.679  0.00  0.00     0.000 A 
ATOM      5  C6  UNL d   1      -0.823   3.111   0.288  0.00  0.00     0.000 A 
ATOM      6  C7  UNL d   1      -0.459   2.015  -0.513  0.00  0.00    -0.073 A 
ATOM      7  C8  UNL d   1      -0.517   2.163  -2.009  0.00  0.00     0.078 C 
ENDROOT
BRANCH   1   8
ATOM      8  C1  UNL d   1       0.435  -0.378  -0.687  0.00  0.00     0.053 C 
ATOM      9  C   UNL d   1      -0.689  -1.378  -0.915  0.00  0.00     0.018 C 
ENDBRANCH   1   8
TORSDOF 1
ENDMDL
