MODEL 1
REMARK minimizedAffinity 4.49521637
REMARK minimizedRMSD -1
REMARK  0 active torsions:
REMARK  status: ('A' for Active; 'I' for Inactive)
ROOT
ATOM      1  C   UNL d   1       2.095  -2.800   0.214  0.00  0.00     0.077 C 
ATOM      2  C1  UNL d   1       1.849  -1.518   0.952  0.00  0.00    -0.074 A 
ATOM      3  C2  UNL d   1       0.998  -1.478   2.061  0.00  0.00    -0.005 A 
ATOM      4  C3  UNL d   1       0.787  -0.280   2.743  0.00  0.00     0.006 A 
ATOM      5  C4  UNL d   1       1.424   0.889   2.324  0.00  0.00    -0.005 A 
ATOM      6  C5  UNL d   1       2.279   0.868   1.217  0.00  0.00    -0.074 A 
ATOM      7  C6  UNL d   1       2.978   2.113   0.759  0.00  0.00     0.077 C 
ATOM      8  C7  UNL d   1       2.491  -0.341   0.542  0.00  0.00    -0.001 A 
ENDROOT
TORSDOF 0
ENDMDL
