MODEL 1
REMARK minimizedAffinity -6.10981226
REMARK minimizedRMSD -1
REMARK  0 active torsions:
REMARK  status: ('A' for Active; 'I' for Inactive)
ROOT
ATOM      1  C   UNL d   1      -4.094   2.861  -3.200  0.00  0.00     0.077 C 
ATOM      2  C1  UNL d   1      -3.713   1.414  -3.311  0.00  0.00    -0.074 A 
ATOM      3  C2  UNL d   1      -2.777   0.849  -2.440  0.00  0.00    -0.005 A 
ATOM      4  C3  UNL d   1      -2.440  -0.500  -2.549  0.00  0.00     0.006 A 
ATOM      5  C4  UNL d   1      -3.034  -1.296  -3.530  0.00  0.00    -0.005 A 
ATOM      6  C5  UNL d   1      -3.973  -0.748  -4.410  0.00  0.00    -0.074 A 
ATOM      7  C6  UNL d   1      -4.628  -1.591  -5.463  0.00  0.00     0.077 C 
ATOM      8  C7  UNL d   1      -4.311   0.607  -4.289  0.00  0.00    -0.001 A 
ENDROOT
TORSDOF 0
ENDMDL
