MODEL 1
REMARK minimizedAffinity 6.70885181
REMARK minimizedRMSD -1
REMARK  0 active torsions:
REMARK  status: ('A' for Active; 'I' for Inactive)
ROOT
ATOM      1  C   UNL d   1       3.769   0.485   0.038  0.00  0.00     0.077 C 
ATOM      2  C1  UNL d   1       2.888  -0.656   0.452  0.00  0.00    -0.074 A 
ATOM      3  C2  UNL d   1       1.501  -0.499   0.537  0.00  0.00    -0.005 A 
ATOM      4  C3  UNL d   1       0.694  -1.572   0.914  0.00  0.00     0.006 A 
ATOM      5  C4  UNL d   1       1.264  -2.811   1.210  0.00  0.00    -0.005 A 
ATOM      6  C5  UNL d   1       2.649  -2.987   1.129  0.00  0.00    -0.074 A 
ATOM      7  C6  UNL d   1       3.277  -4.315   1.433  0.00  0.00     0.077 C 
ATOM      8  C7  UNL d   1       3.453  -1.906   0.742  0.00  0.00    -0.001 A 
ENDROOT
TORSDOF 0
ENDMDL
