MODEL 1
REMARK minimizedAffinity 2.74631095
REMARK minimizedRMSD -1
REMARK  0 active torsions:
REMARK  status: ('A' for Active; 'I' for Inactive)
ROOT
ATOM      1  C   UNL d   1      -2.243  -1.782  -5.699  0.00  0.00     0.077 C 
ATOM      2  C1  UNL d   1      -3.108  -0.940  -4.808  0.00  0.00    -0.074 A 
ATOM      3  C2  UNL d   1      -3.677  -1.473  -3.647  0.00  0.00    -0.005 A 
ATOM      4  C3  UNL d   1      -4.472  -0.675  -2.824  0.00  0.00     0.006 A 
ATOM      5  C4  UNL d   1      -4.705   0.661  -3.153  0.00  0.00    -0.005 A 
ATOM      6  C5  UNL d   1      -4.143   1.211  -4.309  0.00  0.00    -0.074 A 
ATOM      7  C6  UNL d   1      -4.376   2.647  -4.672  0.00  0.00     0.077 C 
ATOM      8  C7  UNL d   1      -3.340   0.405  -5.128  0.00  0.00    -0.001 A 
ENDROOT
TORSDOF 0
ENDMDL
