MODEL 1
REMARK minimizedAffinity 0.758660376
REMARK minimizedRMSD -1
REMARK  0 active torsions:
REMARK  status: ('A' for Active; 'I' for Inactive)
ROOT
ATOM      1  C   UNL d   1      -5.440   0.406  -5.998  0.00  0.00     0.077 C 
ATOM      2  C1  UNL d   1      -4.600   0.392  -4.756  0.00  0.00    -0.074 A 
ATOM      3  C2  UNL d   1      -4.439  -0.780  -4.010  0.00  0.00    -0.005 A 
ATOM      4  C3  UNL d   1      -3.647  -0.779  -2.862  0.00  0.00     0.006 A 
ATOM      5  C4  UNL d   1      -3.008   0.391  -2.450  0.00  0.00    -0.005 A 
ATOM      6  C5  UNL d   1      -3.156   1.572  -3.184  0.00  0.00    -0.074 A 
ATOM      7  C6  UNL d   1      -2.468   2.835  -2.760  0.00  0.00     0.077 C 
ATOM      8  C7  UNL d   1      -3.948   1.562  -4.340  0.00  0.00    -0.001 A 
ENDROOT
TORSDOF 0
ENDMDL
