MODEL 1
REMARK minimizedAffinity -4.98047733
REMARK minimizedRMSD -1
REMARK  0 active torsions:
REMARK  status: ('A' for Active; 'I' for Inactive)
ROOT
ATOM      1  C   UNL d   1      -1.498   2.257  -3.875  0.00  0.00     0.077 C 
ATOM      2  C1  UNL d   1      -2.381   1.044  -3.850  0.00  0.00    -0.074 A 
ATOM      3  C2  UNL d   1      -2.262   0.090  -2.834  0.00  0.00    -0.005 A 
ATOM      4  C3  UNL d   1      -3.096  -1.027  -2.818  0.00  0.00     0.006 A 
ATOM      5  C4  UNL d   1      -4.056  -1.202  -3.816  0.00  0.00    -0.005 A 
ATOM      6  C5  UNL d   1      -4.189  -0.258  -4.840  0.00  0.00    -0.074 A 
ATOM      7  C6  UNL d   1      -5.222  -0.426  -5.914  0.00  0.00     0.077 C 
ATOM      8  C7  UNL d   1      -3.352   0.866  -4.845  0.00  0.00    -0.001 A 
ENDROOT
TORSDOF 0
ENDMDL
