MODEL 1
REMARK minimizedAffinity 3.39296937
REMARK minimizedRMSD -1
REMARK  0 active torsions:
REMARK  status: ('A' for Active; 'I' for Inactive)
ROOT
ATOM      1  C   UNL d   1      -3.388   1.493  -2.057  0.00  0.00     0.077 C 
ATOM      2  C1  UNL d   1      -3.662   0.953  -3.429  0.00  0.00    -0.074 A 
ATOM      3  C2  UNL d   1      -4.802   1.341  -4.140  0.00  0.00    -0.005 A 
ATOM      4  C3  UNL d   1      -5.038   0.837  -5.419  0.00  0.00     0.006 A 
ATOM      5  C4  UNL d   1      -4.139  -0.058  -5.999  0.00  0.00    -0.005 A 
ATOM      6  C5  UNL d   1      -2.993  -0.457  -5.303  0.00  0.00    -0.074 A 
ATOM      7  C6  UNL d   1      -2.011  -1.411  -5.916  0.00  0.00     0.077 C 
ATOM      8  C7  UNL d   1      -2.759   0.059  -4.021  0.00  0.00    -0.001 A 
ENDROOT
TORSDOF 0
ENDMDL
