MODEL 1
REMARK minimizedAffinity -1.66226649
REMARK minimizedRMSD -1
REMARK  0 active torsions:
REMARK  status: ('A' for Active; 'I' for Inactive)
ROOT
ATOM      1  C   UNL d   1      -1.375  -1.056  -2.386  0.00  0.00     0.077 C 
ATOM      2  C1  UNL d   1      -1.287  -0.789  -0.912  0.00  0.00    -0.074 A 
ATOM      3  C2  UNL d   1      -0.074  -0.919  -0.229  0.00  0.00    -0.005 A 
ATOM      4  C3  UNL d   1      -0.005  -0.658   1.139  0.00  0.00     0.006 A 
ATOM      5  C4  UNL d   1      -1.148  -0.264   1.837  0.00  0.00    -0.005 A 
ATOM      6  C5  UNL d   1      -2.369  -0.127   1.171  0.00  0.00    -0.074 A 
ATOM      7  C6  UNL d   1      -3.604   0.305   1.904  0.00  0.00     0.077 C 
ATOM      8  C7  UNL d   1      -2.428  -0.385  -0.206  0.00  0.00    -0.001 A 
ENDROOT
TORSDOF 0
ENDMDL
