MODEL 1
REMARK minimizedAffinity -3.21413231
REMARK minimizedRMSD -1
REMARK  0 active torsions:
REMARK  status: ('A' for Active; 'I' for Inactive)
ROOT
ATOM      1  C   UNL d   1      -0.774  -0.985  -1.228  0.00  0.00     0.077 C 
ATOM      2  C1  UNL d   1      -0.490   0.028  -0.159  0.00  0.00    -0.074 A 
ATOM      3  C2  UNL d   1      -1.262   0.080   1.006  0.00  0.00    -0.005 A 
ATOM      4  C3  UNL d   1      -0.979   1.021   1.996  0.00  0.00     0.006 A 
ATOM      5  C4  UNL d   1       0.076   1.919   1.831  0.00  0.00    -0.005 A 
ATOM      6  C5  UNL d   1       0.859   1.882   0.673  0.00  0.00    -0.074 A 
ATOM      7  C6  UNL d   1       2.003   2.833   0.485  0.00  0.00     0.077 C 
ATOM      8  C7  UNL d   1       0.574   0.928  -0.314  0.00  0.00    -0.001 A 
ENDROOT
TORSDOF 0
ENDMDL
