MODEL 1
REMARK minimizedAffinity -3.2963953
REMARK minimizedRMSD -1
REMARK  0 active torsions:
REMARK  status: ('A' for Active; 'I' for Inactive)
ROOT
ATOM      1  C   UNL d   1       0.248  -1.108  -0.807  0.00  0.00     0.077 C 
ATOM      2  C1  UNL d   1       0.040  -0.076   0.262  0.00  0.00    -0.074 A 
ATOM      3  C2  UNL d   1      -0.959  -0.233   1.227  0.00  0.00    -0.005 A 
ATOM      4  C3  UNL d   1      -1.134   0.731   2.221  0.00  0.00     0.006 A 
ATOM      5  C4  UNL d   1      -0.313   1.858   2.258  0.00  0.00    -0.005 A 
ATOM      6  C5  UNL d   1       0.692   2.031   1.302  0.00  0.00    -0.074 A 
ATOM      7  C6  UNL d   1       1.590   3.232   1.334  0.00  0.00     0.077 C 
ATOM      8  C7  UNL d   1       0.866   1.055   0.311  0.00  0.00    -0.001 A 
ENDROOT
TORSDOF 0
ENDMDL
