MODEL 1
REMARK minimizedAffinity -3.06598759
REMARK minimizedRMSD -1
REMARK  0 active torsions:
REMARK  status: ('A' for Active; 'I' for Inactive)
ROOT
ATOM      1  C   UNL d   1       1.564  -1.030  -1.509  0.00  0.00     0.077 C 
ATOM      2  C1  UNL d   1       0.789  -0.261  -0.481  0.00  0.00    -0.074 A 
ATOM      3  C2  UNL d   1      -0.321  -0.826   0.154  0.00  0.00    -0.005 A 
ATOM      4  C3  UNL d   1      -1.026  -0.102   1.116  0.00  0.00     0.006 A 
ATOM      5  C4  UNL d   1      -0.629   1.193   1.451  0.00  0.00    -0.005 A 
ATOM      6  C5  UNL d   1       0.479   1.775   0.827  0.00  0.00    -0.074 A 
ATOM      7  C6  UNL d   1       0.925   3.162   1.183  0.00  0.00     0.077 C 
ATOM      8  C7  UNL d   1       1.187   1.038  -0.133  0.00  0.00    -0.001 A 
ENDROOT
TORSDOF 0
ENDMDL
