MODEL 1
REMARK minimizedAffinity -3.30855846
REMARK minimizedRMSD -1
REMARK  0 active torsions:
REMARK  status: ('A' for Active; 'I' for Inactive)
ROOT
ATOM      1  C   UNL d   1       1.374   3.272   0.590  0.00  0.00     0.077 C 
ATOM      2  C1  UNL d   1       0.639   1.983   0.808  0.00  0.00    -0.074 A 
ATOM      3  C2  UNL d   1       0.106   1.661   2.060  0.00  0.00    -0.005 A 
ATOM      4  C3  UNL d   1      -0.583   0.463   2.245  0.00  0.00     0.006 A 
ATOM      5  C4  UNL d   1      -0.746  -0.425   1.180  0.00  0.00    -0.005 A 
ATOM      6  C5  UNL d   1      -0.221  -0.120  -0.080  0.00  0.00    -0.074 A 
ATOM      7  C6  UNL d   1      -0.397  -1.058  -1.237  0.00  0.00     0.077 C 
ATOM      8  C7  UNL d   1       0.464   1.089  -0.259  0.00  0.00    -0.001 A 
ENDROOT
TORSDOF 0
ENDMDL
