MODEL 1
REMARK minimizedAffinity -1.16829455
REMARK minimizedRMSD -1
REMARK  0 active torsions:
REMARK  status: ('A' for Active; 'I' for Inactive)
ROOT
ATOM      1  C   UNL d   1       0.965   3.284   1.128  0.00  0.00     0.077 C 
ATOM      2  C1  UNL d   1       0.559   1.872   0.829  0.00  0.00    -0.074 A 
ATOM      3  C2  UNL d   1       1.088   1.189  -0.271  0.00  0.00    -0.005 A 
ATOM      4  C3  UNL d   1       0.708  -0.127  -0.532  0.00  0.00     0.006 A 
ATOM      5  C4  UNL d   1      -0.203  -0.774   0.304  0.00  0.00    -0.005 A 
ATOM      6  C5  UNL d   1      -0.742  -0.108   1.409  0.00  0.00    -0.074 A 
ATOM      7  C6  UNL d   1      -1.715  -0.792   2.323  0.00  0.00     0.077 C 
ATOM      8  C7  UNL d   1      -0.350   1.212   1.668  0.00  0.00    -0.001 A 
ENDROOT
TORSDOF 0
ENDMDL
