MODEL 1
REMARK minimizedAffinity -4.4045639
REMARK minimizedRMSD -1
REMARK  0 active torsions:
REMARK  status: ('A' for Active; 'I' for Inactive)
ROOT
ATOM      1  C   UNL d   1      -1.482   1.037   2.563  0.00  0.00     0.077 C 
ATOM      2  C1  UNL d   1      -0.435   1.193   1.500  0.00  0.00    -0.074 A 
ATOM      3  C2  UNL d   1      -0.079   2.459   1.022  0.00  0.00    -0.005 A 
ATOM      4  C3  UNL d   1       0.903   2.588   0.039  0.00  0.00     0.006 A 
ATOM      5  C4  UNL d   1       1.537   1.457  -0.474  0.00  0.00    -0.005 A 
ATOM      6  C5  UNL d   1       1.195   0.183  -0.007  0.00  0.00    -0.074 A 
ATOM      7  C6  UNL d   1       1.874  -1.043  -0.541  0.00  0.00     0.077 C 
ATOM      8  C7  UNL d   1       0.212   0.062   0.985  0.00  0.00    -0.001 A 
ENDROOT
TORSDOF 0
ENDMDL
