MODEL 1
REMARK minimizedAffinity -4.13845396
REMARK minimizedRMSD -1
REMARK  0 active torsions:
REMARK  status: ('A' for Active; 'I' for Inactive)
ROOT
ATOM      1  C   UNL d   1       2.520  -1.505  -0.921  0.00  0.00     0.077 C 
ATOM      2  C1  UNL d   1       1.408  -0.685  -0.338  0.00  0.00    -0.074 A 
ATOM      3  C2  UNL d   1       0.156  -1.252  -0.080  0.00  0.00    -0.005 A 
ATOM      4  C3  UNL d   1      -0.866  -0.479   0.472  0.00  0.00     0.006 A 
ATOM      5  C4  UNL d   1      -0.647   0.866   0.770  0.00  0.00    -0.005 A 
ATOM      6  C5  UNL d   1       0.599   1.450   0.519  0.00  0.00    -0.074 A 
ATOM      7  C6  UNL d   1       0.855   2.893   0.842  0.00  0.00     0.077 C 
ATOM      8  C7  UNL d   1       1.623   0.665  -0.029  0.00  0.00    -0.001 A 
ENDROOT
TORSDOF 0
ENDMDL
