MODEL 1
REMARK minimizedAffinity -4.5137372
REMARK minimizedRMSD -1
REMARK  0 active torsions:
REMARK  status: ('A' for Active; 'I' for Inactive)
ROOT
ATOM      1  C   UNL d   1       0.759   2.925   1.447  0.00  0.00     0.077 C 
ATOM      2  C1  UNL d   1       0.381   1.689   0.688  0.00  0.00    -0.074 A 
ATOM      3  C2  UNL d   1      -0.954   1.422   0.367  0.00  0.00    -0.005 A 
ATOM      4  C3  UNL d   1      -1.289   0.272  -0.348  0.00  0.00     0.006 A 
ATOM      5  C4  UNL d   1      -0.295  -0.621  -0.750  0.00  0.00    -0.005 A 
ATOM      6  C5  UNL d   1       1.046  -0.370  -0.439  0.00  0.00    -0.074 A 
ATOM      7  C6  UNL d   1       2.128  -1.314  -0.871  0.00  0.00     0.077 C 
ATOM      8  C7  UNL d   1       1.375   0.791   0.274  0.00  0.00    -0.001 A 
ENDROOT
TORSDOF 0
ENDMDL
