MODEL 1
REMARK minimizedAffinity -0.985654056
REMARK minimizedRMSD -1
REMARK  0 active torsions:
REMARK  status: ('A' for Active; 'I' for Inactive)
ROOT
ATOM      1  C   UNL d   1       2.762  -0.033  -0.689  0.00  0.00     0.077 C 
ATOM      2  C1  UNL d   1       1.360  -0.106  -0.162  0.00  0.00    -0.074 A 
ATOM      3  C2  UNL d   1       0.451  -1.043  -0.663  0.00  0.00    -0.005 A 
ATOM      4  C3  UNL d   1      -0.847  -1.106  -0.156  0.00  0.00     0.006 A 
ATOM      5  C4  UNL d   1      -1.248  -0.233   0.857  0.00  0.00    -0.005 A 
ATOM      6  C5  UNL d   1      -0.353   0.710   1.371  0.00  0.00    -0.074 A 
ATOM      7  C6  UNL d   1      -0.765   1.648   2.466  0.00  0.00     0.077 C 
ATOM      8  C7  UNL d   1       0.951   0.762   0.861  0.00  0.00    -0.001 A 
ENDROOT
TORSDOF 0
ENDMDL
