MODEL 1
REMARK minimizedAffinity -3.37055087
REMARK minimizedRMSD -1
REMARK  0 active torsions:
REMARK  status: ('A' for Active; 'I' for Inactive)
ROOT
ATOM      1  C   UNL d   1       0.988   2.052   1.437  0.00  0.00     0.077 C 
ATOM      2  C1  UNL d   1       0.962   0.853   0.536  0.00  0.00    -0.074 A 
ATOM      3  C2  UNL d   1       2.102   0.463  -0.175  0.00  0.00    -0.005 A 
ATOM      4  C3  UNL d   1       2.065  -0.659  -1.002  0.00  0.00     0.006 A 
ATOM      5  C4  UNL d   1       0.891  -1.402  -1.126  0.00  0.00    -0.005 A 
ATOM      6  C5  UNL d   1      -0.259  -1.028  -0.423  0.00  0.00    -0.074 A 
ATOM      7  C6  UNL d   1      -1.526  -1.822  -0.538  0.00  0.00     0.077 C 
ATOM      8  C7  UNL d   1      -0.212   0.097   0.411  0.00  0.00    -0.001 A 
ENDROOT
TORSDOF 0
ENDMDL
