MODEL 1
REMARK minimizedAffinity -4.94586754
REMARK minimizedRMSD -1
REMARK  0 active torsions:
REMARK  status: ('A' for Active; 'I' for Inactive)
ROOT
ATOM      1  C   UNL d   1       1.277   3.238   0.513  0.00  0.00     0.077 C 
ATOM      2  C1  UNL d   1       0.562   1.938   0.732  0.00  0.00    -0.074 A 
ATOM      3  C2  UNL d   1       0.229   1.508   2.020  0.00  0.00    -0.005 A 
ATOM      4  C3  UNL d   1      -0.444   0.301   2.207  0.00  0.00     0.006 A 
ATOM      5  C4  UNL d   1      -0.791  -0.488   1.109  0.00  0.00    -0.005 A 
ATOM      6  C5  UNL d   1      -0.468  -0.074  -0.187  0.00  0.00    -0.074 A 
ATOM      7  C6  UNL d   1      -0.843  -0.904  -1.378  0.00  0.00     0.077 C 
ATOM      8  C7  UNL d   1       0.202   1.144  -0.367  0.00  0.00    -0.001 A 
ENDROOT
TORSDOF 0
ENDMDL
