MODEL 1
REMARK minimizedAffinity -3.89068413
REMARK minimizedRMSD -1
REMARK  0 active torsions:
REMARK  status: ('A' for Active; 'I' for Inactive)
ROOT
ATOM      1  C   UNL d   1      -0.720   0.778   1.138  0.00  0.00     0.077 C 
ATOM      2  C1  UNL d   1      -0.784  -0.073  -0.095  0.00  0.00    -0.074 A 
ATOM      3  C2  UNL d   1       0.280  -0.912  -0.445  0.00  0.00    -0.005 A 
ATOM      4  C3  UNL d   1       0.202  -1.705  -1.590  0.00  0.00     0.006 A 
ATOM      5  C4  UNL d   1      -0.937  -1.668  -2.394  0.00  0.00    -0.005 A 
ATOM      6  C5  UNL d   1      -2.010  -0.837  -2.060  0.00  0.00    -0.074 A 
ATOM      7  C6  UNL d   1      -3.246  -0.792  -2.908  0.00  0.00     0.077 C 
ATOM      8  C7  UNL d   1      -1.928  -0.048  -0.904  0.00  0.00    -0.001 A 
ENDROOT
TORSDOF 0
ENDMDL
