MODEL 1
REMARK minimizedAffinity -2.10711241
REMARK minimizedRMSD -1
REMARK  0 active torsions:
REMARK  status: ('A' for Active; 'I' for Inactive)
ROOT
ATOM      1  C   UNL d   1      -0.379  -1.112  -1.491  0.00  0.00     0.077 C 
ATOM      2  C1  UNL d   1      -0.392  -0.312  -0.223  0.00  0.00    -0.074 A 
ATOM      3  C2  UNL d   1      -1.205  -0.684   0.853  0.00  0.00    -0.005 A 
ATOM      4  C3  UNL d   1      -1.200   0.065   2.030  0.00  0.00     0.006 A 
ATOM      5  C4  UNL d   1      -0.383   1.191   2.143  0.00  0.00    -0.005 A 
ATOM      6  C5  UNL d   1       0.437   1.577   1.079  0.00  0.00    -0.074 A 
ATOM      7  C6  UNL d   1       1.329   2.778   1.187  0.00  0.00     0.077 C 
ATOM      8  C7  UNL d   1       0.431   0.816  -0.098  0.00  0.00    -0.001 A 
ENDROOT
TORSDOF 0
ENDMDL
