MODEL 1
REMARK minimizedAffinity -3.6656332
REMARK minimizedRMSD -1
REMARK  0 active torsions:
REMARK  status: ('A' for Active; 'I' for Inactive)
ROOT
ATOM      1  C   UNL d   1       2.217  -1.089  -1.060  0.00  0.00     0.077 C 
ATOM      2  C1  UNL d   1       1.227  -0.319  -0.238  0.00  0.00    -0.074 A 
ATOM      3  C2  UNL d   1       0.025  -0.903   0.174  0.00  0.00    -0.005 A 
ATOM      4  C3  UNL d   1      -0.882  -0.178   0.946  0.00  0.00     0.006 A 
ATOM      5  C4  UNL d   1      -0.596   1.138   1.314  0.00  0.00    -0.005 A 
ATOM      6  C5  UNL d   1       0.601   1.739   0.913  0.00  0.00    -0.074 A 
ATOM      7  C6  UNL d   1       0.928   3.148   1.309  0.00  0.00     0.077 C 
ATOM      8  C7  UNL d   1       1.510   1.001   0.143  0.00  0.00    -0.001 A 
ENDROOT
TORSDOF 0
ENDMDL
