MODEL 1
REMARK minimizedAffinity -3.51934719
REMARK minimizedRMSD -1
REMARK  0 active torsions:
REMARK  status: ('A' for Active; 'I' for Inactive)
ROOT
ATOM      1  C   UNL d   1       2.932  -0.822  -1.334  0.00  0.00     0.077 C 
ATOM      2  C1  UNL d   1       1.825  -0.246  -0.503  0.00  0.00    -0.074 A 
ATOM      3  C2  UNL d   1       0.708  -1.014  -0.160  0.00  0.00    -0.005 A 
ATOM      4  C3  UNL d   1      -0.309  -0.467   0.622  0.00  0.00     0.006 A 
ATOM      5  C4  UNL d   1      -0.220   0.852   1.068  0.00  0.00    -0.005 A 
ATOM      6  C5  UNL d   1       0.890   1.636   0.736  0.00  0.00    -0.074 A 
ATOM      7  C6  UNL d   1       1.006   3.052   1.216  0.00  0.00     0.077 C 
ATOM      8  C7  UNL d   1       1.911   1.076  -0.044  0.00  0.00    -0.001 A 
ENDROOT
TORSDOF 0
ENDMDL
