MODEL 1
REMARK minimizedAffinity 9.5803442
REMARK minimizedRMSD -1
REMARK  3 active torsions:
REMARK  status: ('A' for Active; 'I' for Inactive)
REMARK    1  A    between atoms: C3'_2  and  C2'_3 
REMARK    2  A    between atoms: C2'_3  and  C1'_4 
REMARK    3  A    between atoms: C1'_4  and  C1_5 
ROOT
ATOM      1  C1  N4B d   1       3.511   0.394   0.597  0.00  0.00    -0.075 A 
ATOM      2  C2  N4B d   1       2.441   0.788   1.430  0.00  0.00     0.002 A 
ATOM      3  C3  N4B d   1       2.661   1.673   2.457  0.00  0.00     0.002 A 
ATOM      4  C4  N4B d   1       3.939   2.161   2.681  0.00  0.00    -0.004 A 
ATOM      5  C5  N4B d   1       4.962   1.795   1.856  0.00  0.00     0.002 A 
ATOM      6  C6  N4B d   1       4.756   0.910   0.817  0.00  0.00     0.002 A 
ENDROOT
BRANCH   1   7
ATOM      7  C1' N4B d   1       3.338  -0.636  -0.485  0.00  0.00     0.057 C 
BRANCH   7   8
ATOM      8  C2' N4B d   1       3.345   0.058  -1.844  0.00  0.00     0.009 C 
BRANCH   8   9
ATOM      9  C3' N4B d   1       4.236   1.288  -1.848  0.00  0.00     0.004 C 
ATOM     10  C4' N4B d   1       5.509   1.080  -2.614  0.00  0.00     0.003 C 
ENDBRANCH   8   9
ENDBRANCH   7   8
ENDBRANCH   1   7
TORSDOF 3
ENDMDL
