MODEL 1
REMARK minimizedAffinity 7.67878199
REMARK minimizedRMSD -1
REMARK  1 active torsions:
REMARK  status: ('A' for Active; 'I' for Inactive)
REMARK    1  A    between atoms: C1_2  and  C2_3 
ROOT
ATOM      1  C2  UNL d   1      -0.597   4.250  -0.864  0.00  0.00    -0.081 A 
ATOM      2  C3  UNL d   1       0.786   4.041  -0.920  0.00  0.00     0.006 A 
ATOM      3  C4  UNL d   1       1.443   3.368   0.113  0.00  0.00     0.002 A 
ATOM      4  C5  UNL d   1       0.727   2.887   1.214  0.00  0.00    -0.080 A 
ATOM      5  C6  UNL d   1       1.415   2.136   2.315  0.00  0.00     0.076 C 
ATOM      6  C7  UNL d   1      -0.653   3.111   1.278  0.00  0.00     0.002 A 
ATOM      7  C8  UNL d   1      -1.310   3.784   0.246  0.00  0.00     0.006 A 
ENDROOT
BRANCH   1   8
ATOM      8  C1  UNL d   1      -1.318   4.919  -2.007  0.00  0.00     0.054 C 
ATOM      9  C   UNL d   1      -2.741   4.397  -2.144  0.00  0.00     0.018 C 
ENDBRANCH   1   8
TORSDOF 1
ENDMDL
