MODEL 1
REMARK minimizedAffinity 9.21031857
REMARK minimizedRMSD -1
REMARK  1 active torsions:
REMARK  status: ('A' for Active; 'I' for Inactive)
REMARK    1  A    between atoms: C1_2  and  C2_3 
ROOT
ATOM      1  C2  UNL d   1      -0.023   3.520   0.719  0.00  0.00    -0.081 A 
ATOM      2  C3  UNL d   1      -0.971   4.523   0.956  0.00  0.00     0.006 A 
ATOM      3  C4  UNL d   1      -1.418   5.336  -0.088  0.00  0.00     0.002 A 
ATOM      4  C5  UNL d   1      -0.932   5.154  -1.387  0.00  0.00    -0.080 A 
ATOM      5  C6  UNL d   1      -1.427   5.999  -2.523  0.00  0.00     0.076 C 
ATOM      6  C7  UNL d   1       0.028   4.163  -1.621  0.00  0.00     0.002 A 
ATOM      7  C8  UNL d   1       0.476   3.351  -0.577  0.00  0.00     0.006 A 
ENDROOT
BRANCH   1   8
ATOM      8  C1  UNL d   1       0.414   2.600   1.831  0.00  0.00     0.054 C 
ATOM      9  C   UNL d   1       1.859   2.861   2.229  0.00  0.00     0.018 C 
ENDBRANCH   1   8
TORSDOF 1
ENDMDL
