MODEL 1
REMARK minimizedAffinity 11.4662161
REMARK minimizedRMSD -1
REMARK  1 active torsions:
REMARK  status: ('A' for Active; 'I' for Inactive)
REMARK    1  A    between atoms: C1_2  and  C2_3 
ROOT
ATOM      1  C2  UNL d   1      -5.671   3.275  -5.048  0.00  0.00    -0.081 A 
ATOM      2  C3  UNL d   1      -5.852   3.380  -3.664  0.00  0.00     0.006 A 
ATOM      3  C4  UNL d   1      -5.971   2.232  -2.876  0.00  0.00     0.002 A 
ATOM      4  C5  UNL d   1      -5.904   0.962  -3.458  0.00  0.00    -0.080 A 
ATOM      5  C6  UNL d   1      -6.000  -0.279  -2.621  0.00  0.00     0.076 C 
ATOM      6  C7  UNL d   1      -5.741   0.857  -4.844  0.00  0.00     0.002 A 
ATOM      7  C8  UNL d   1      -5.622   2.004  -5.632  0.00  0.00     0.006 A 
ENDROOT
BRANCH   1   8
ATOM      8  C1  UNL d   1      -5.477   4.509  -5.891  0.00  0.00     0.054 C 
ATOM      9  C   UNL d   1      -4.006   4.885  -5.993  0.00  0.00     0.018 C 
ENDBRANCH   1   8
TORSDOF 1
ENDMDL
