MODEL 1
REMARK minimizedAffinity -0.0490139462
REMARK minimizedRMSD -1
REMARK  1 active torsions:
REMARK  status: ('A' for Active; 'I' for Inactive)
REMARK    1  A    between atoms: C1_2  and  C2_3 
ROOT
ATOM      1  C2  UNL d   1      -1.337   1.805  -1.707  0.00  0.00    -0.081 A 
ATOM      2  C3  UNL d   1      -0.228   2.128  -0.916  0.00  0.00     0.006 A 
ATOM      3  C4  UNL d   1      -0.072   3.420  -0.409  0.00  0.00     0.002 A 
ATOM      4  C5  UNL d   1      -1.026   4.408  -0.678  0.00  0.00    -0.080 A 
ATOM      5  C6  UNL d   1      -0.886   5.791  -0.115  0.00  0.00     0.076 C 
ATOM      6  C7  UNL d   1      -2.125   4.090  -1.483  0.00  0.00     0.002 A 
ATOM      7  C8  UNL d   1      -2.281   2.798  -1.990  0.00  0.00     0.006 A 
ENDROOT
BRANCH   1   8
ATOM      8  C1  UNL d   1      -1.542   0.395  -2.201  0.00  0.00     0.054 C 
ATOM      9  C   UNL d   1      -0.229  -0.229  -2.651  0.00  0.00     0.018 C 
ENDBRANCH   1   8
TORSDOF 1
ENDMDL
