MODEL 1
REMARK minimizedAffinity 3.97992086
REMARK minimizedRMSD -1
REMARK  1 active torsions:
REMARK  status: ('A' for Active; 'I' for Inactive)
REMARK    1  A    between atoms: C1_2  and  C2_3 
ROOT
ATOM      1  C2  UNL d   1      -0.190   5.364  -2.904  0.00  0.00    -0.081 A 
ATOM      2  C3  UNL d   1       1.022   5.146  -2.238  0.00  0.00     0.006 A 
ATOM      3  C4  UNL d   1       1.043   4.504  -0.998  0.00  0.00     0.002 A 
ATOM      4  C5  UNL d   1      -0.146   4.061  -0.408  0.00  0.00    -0.080 A 
ATOM      5  C6  UNL d   1      -0.134   3.343   0.909  0.00  0.00     0.076 C 
ATOM      6  C7  UNL d   1      -1.358   4.294  -1.065  0.00  0.00     0.002 A 
ATOM      7  C8  UNL d   1      -1.380   4.938  -2.305  0.00  0.00     0.006 A 
ENDROOT
BRANCH   1   8
ATOM      8  C1  UNL d   1      -0.210   5.999  -4.271  0.00  0.00     0.054 C 
ATOM      9  C   UNL d   1       1.176   5.998  -4.902  0.00  0.00     0.018 C 
ENDBRANCH   1   8
TORSDOF 1
ENDMDL
