MODEL 1
REMARK minimizedAffinity 14.3819885
REMARK minimizedRMSD -1
REMARK  1 active torsions:
REMARK  status: ('A' for Active; 'I' for Inactive)
REMARK    1  A    between atoms: C1_2  and  C2_3 
ROOT
ATOM      1  C2  UNL d   1      -0.128   3.508  -0.368  0.00  0.00    -0.081 A 
ATOM      2  C3  UNL d   1       0.573   4.675  -0.040  0.00  0.00     0.006 A 
ATOM      3  C4  UNL d   1       1.199   4.799   1.203  0.00  0.00     0.002 A 
ATOM      4  C5  UNL d   1       1.142   3.757   2.134  0.00  0.00    -0.080 A 
ATOM      5  C6  UNL d   1       1.835   3.865   3.459  0.00  0.00     0.076 C 
ATOM      6  C7  UNL d   1       0.427   2.598   1.813  0.00  0.00     0.002 A 
ATOM      7  C8  UNL d   1      -0.200   2.473   0.571  0.00  0.00     0.006 A 
ENDROOT
BRANCH   1   8
ATOM      8  C1  UNL d   1      -0.749   3.345  -1.732  0.00  0.00     0.054 C 
ATOM      9  C   UNL d   1      -0.803   4.671  -2.477  0.00  0.00     0.018 C 
ENDBRANCH   1   8
TORSDOF 1
ENDMDL
