MODEL 1
REMARK minimizedAffinity 1.83486485
REMARK minimizedRMSD -1
REMARK  1 active torsions:
REMARK  status: ('A' for Active; 'I' for Inactive)
REMARK    1  A    between atoms: C1_2  and  C2_3 
ROOT
ATOM      1  C2  UNL d   1      -0.013   2.864   1.637  0.00  0.00    -0.081 A 
ATOM      2  C3  UNL d   1       1.259   2.418   2.017  0.00  0.00     0.006 A 
ATOM      3  C4  UNL d   1       1.399   1.398   2.961  0.00  0.00     0.002 A 
ATOM      4  C5  UNL d   1       0.271   0.802   3.534  0.00  0.00    -0.080 A 
ATOM      5  C6  UNL d   1       0.407  -0.315   4.526  0.00  0.00     0.076 C 
ATOM      6  C7  UNL d   1      -0.999   1.259   3.168  0.00  0.00     0.002 A 
ATOM      7  C8  UNL d   1      -1.140   2.279   2.225  0.00  0.00     0.006 A 
ENDROOT
BRANCH   1   8
ATOM      8  C1  UNL d   1      -0.168   3.919   0.572  0.00  0.00     0.054 C 
ATOM      9  C   UNL d   1      -0.381   3.293  -0.799  0.00  0.00     0.018 C 
ENDBRANCH   1   8
TORSDOF 1
ENDMDL
