MODEL 1
REMARK minimizedAffinity -3.08823991
REMARK minimizedRMSD -1
REMARK  0 active torsions:
REMARK  status: ('A' for Active; 'I' for Inactive)
ROOT
ATOM      1  C   UNL d   1      -0.448   2.080   2.243  0.00  0.00     0.023 A 
ATOM      2  C1  UNL d   1      -1.251   1.980   1.107  0.00  0.00     0.003 A 
ATOM      3  C2  UNL d   1      -0.997   0.991   0.154  0.00  0.00     0.048 A 
ATOM      4  C3  UNL d   1       0.062   0.104   0.345  0.00  0.00     0.023 A 
ATOM      5  C4  UNL d   1       0.868   0.199   1.481  0.00  0.00     0.048 A 
ATOM      6  C5  UNL d   1       0.610   1.190   2.430  0.00  0.00     0.003 A 
ATOM      7  I   UNL d   1       0.443  -1.370  -1.070  0.00  0.00    -0.146 I 
ENDROOT
TORSDOF 0
ENDMDL
