MODEL 1
REMARK minimizedAffinity -4.9560957
REMARK minimizedRMSD -1
REMARK  0 active torsions:
REMARK  status: ('A' for Active; 'I' for Inactive)
ROOT
ATOM      1  C   UNL d   1      -0.806   2.119   1.903  0.00  0.00     0.023 A 
ATOM      2  C1  UNL d   1      -1.149   2.063   0.552  0.00  0.00     0.003 A 
ATOM      3  C2  UNL d   1      -0.795   0.950  -0.214  0.00  0.00     0.048 A 
ATOM      4  C3  UNL d   1      -0.099  -0.103   0.378  0.00  0.00     0.023 A 
ATOM      5  C4  UNL d   1       0.246  -0.052   1.729  0.00  0.00     0.048 A 
ATOM      6  C5  UNL d   1      -0.110   1.063   2.491  0.00  0.00     0.003 A 
ATOM      7  I   UNL d   1       0.429  -1.760  -0.760  0.00  0.00    -0.146 I 
ENDROOT
TORSDOF 0
ENDMDL
