MODEL 1
REMARK minimizedAffinity -2.90007758
REMARK minimizedRMSD -1
REMARK  0 active torsions:
REMARK  status: ('A' for Active; 'I' for Inactive)
ROOT
ATOM      1  C   UNL d   1      -1.320   2.931   0.647  0.00  0.00     0.023 A 
ATOM      2  C1  UNL d   1      -0.540   3.040   1.798  0.00  0.00     0.003 A 
ATOM      3  C2  UNL d   1       0.348   2.018   2.140  0.00  0.00     0.048 A 
ATOM      4  C3  UNL d   1       0.453   0.891   1.326  0.00  0.00     0.023 A 
ATOM      5  C4  UNL d   1      -0.325   0.778   0.172  0.00  0.00     0.048 A 
ATOM      6  C5  UNL d   1      -1.212   1.802  -0.165  0.00  0.00     0.003 A 
ATOM      7  I   UNL d   1       1.774  -0.631   1.833  0.00  0.00    -0.146 I 
ENDROOT
TORSDOF 0
ENDMDL
