MODEL 1
REMARK minimizedAffinity -5.40820312
REMARK minimizedRMSD -1
REMARK  0 active torsions:
REMARK  status: ('A' for Active; 'I' for Inactive)
ROOT
ATOM      1  C   UNL d   1      -0.861   2.984   1.339  0.00  0.00     0.023 A 
ATOM      2  C1  UNL d   1      -0.880   2.936  -0.055  0.00  0.00     0.003 A 
ATOM      3  C2  UNL d   1      -0.492   1.770  -0.719  0.00  0.00     0.048 A 
ATOM      4  C3  UNL d   1      -0.088   0.657   0.016  0.00  0.00     0.023 A 
ATOM      5  C4  UNL d   1      -0.069   0.701   1.411  0.00  0.00     0.048 A 
ATOM      6  C5  UNL d   1      -0.457   1.868   2.071  0.00  0.00     0.003 A 
ATOM      7  I   UNL d   1       0.489  -1.079  -0.970  0.00  0.00    -0.146 I 
ENDROOT
TORSDOF 0
ENDMDL
