MODEL 1
REMARK minimizedAffinity -3.20405197
REMARK minimizedRMSD -1
REMARK  0 active torsions:
REMARK  status: ('A' for Active; 'I' for Inactive)
ROOT
ATOM      1  C   UNL d   1      -0.145   2.133   1.922  0.00  0.00     0.023 A 
ATOM      2  C1  UNL d   1      -1.316   2.056   1.168  0.00  0.00     0.003 A 
ATOM      3  C2  UNL d   1      -1.569   0.930   0.382  0.00  0.00     0.048 A 
ATOM      4  C3  UNL d   1      -0.647  -0.116   0.355  0.00  0.00     0.023 A 
ATOM      5  C4  UNL d   1       0.526  -0.043   1.108  0.00  0.00     0.048 A 
ATOM      6  C5  UNL d   1       0.775   1.085   1.892  0.00  0.00     0.003 A 
ATOM      7  I   UNL d   1      -1.021  -1.793  -0.814  0.00  0.00    -0.146 I 
ENDROOT
TORSDOF 0
ENDMDL
