MODEL 1
REMARK minimizedAffinity 5.84134245
REMARK minimizedRMSD -1
REMARK  0 active torsions:
REMARK  status: ('A' for Active; 'I' for Inactive)
ROOT
ATOM      1  C   UNL d   1       5.458  -3.045  -2.014  0.00  0.00     0.023 A 
ATOM      2  C1  UNL d   1       5.580  -1.665  -1.855  0.00  0.00     0.003 A 
ATOM      3  C2  UNL d   1       4.509  -0.921  -1.356  0.00  0.00     0.048 A 
ATOM      4  C3  UNL d   1       3.319  -1.564  -1.016  0.00  0.00     0.023 A 
ATOM      5  C4  UNL d   1       3.193  -2.945  -1.172  0.00  0.00     0.048 A 
ATOM      6  C5  UNL d   1       4.266  -3.685  -1.673  0.00  0.00     0.003 A 
ATOM      7  I   UNL d   1       1.724  -0.459  -0.272  0.00  0.00    -0.146 I 
ENDROOT
TORSDOF 0
ENDMDL
