MODEL 1
REMARK minimizedAffinity -4.9635334
REMARK minimizedRMSD -1
REMARK  0 active torsions:
REMARK  status: ('A' for Active; 'I' for Inactive)
ROOT
ATOM      1  C   UNL d   1      -2.710  -1.506  -0.174  0.00  0.00     0.124 A 
ATOM      2  C1  UNL d   1      -2.161  -0.735  -1.188  0.00  0.00     0.062 A 
ATOM      3  C2  UNL d   1      -0.835  -0.320  -1.112  0.00  0.00     0.162 A 
ATOM      4  C3  UNL d   1      -0.047  -0.676  -0.017  0.00  0.00    -0.034 A 
ATOM      5  C4  UNL d   1      -0.607  -1.452   1.000  0.00  0.00     0.162 A 
ATOM      6  C5  UNL d   1      -1.933  -1.864   0.919  0.00  0.00     0.062 A 
ATOM      7  F   UNL d   1      -2.462  -2.609   1.900  0.00  0.00    -0.097 F 
ATOM      8  F1  UNL d   1       0.122  -1.813   2.066  0.00  0.00    -0.096 F 
ATOM      9  I   UNL d   1       1.936  -0.058   0.100  0.00  0.00    -0.060 I 
ATOM     10  F2  UNL d   1      -0.330   0.425  -2.107  0.00  0.00    -0.096 F 
ATOM     11  F3  UNL d   1      -2.910  -0.387  -2.244  0.00  0.00    -0.097 F 
ATOM     12  F4  UNL d   1      -3.987  -1.903  -0.249  0.00  0.00    -0.092 F 
ENDROOT
TORSDOF 0
ENDMDL
