MODEL 1
REMARK minimizedAffinity -2.62683964
REMARK minimizedRMSD -1
REMARK  0 active torsions:
REMARK  status: ('A' for Active; 'I' for Inactive)
ROOT
ATOM      1  C   UNL d   1      -2.698  -1.741  -0.142  0.00  0.00     0.124 A 
ATOM      2  C1  UNL d   1      -2.052  -1.080  -1.177  0.00  0.00     0.062 A 
ATOM      3  C2  UNL d   1      -0.807  -0.496  -0.965  0.00  0.00     0.162 A 
ATOM      4  C3  UNL d   1      -0.198  -0.572   0.288  0.00  0.00    -0.034 A 
ATOM      5  C4  UNL d   1      -0.854  -1.238   1.324  0.00  0.00     0.162 A 
ATOM      6  C5  UNL d   1      -2.099  -1.820   1.107  0.00  0.00     0.062 A 
ATOM      7  F   UNL d   1      -2.722  -2.458   2.108  0.00  0.00    -0.097 F 
ATOM      8  F1  UNL d   1      -0.298  -1.330   2.541  0.00  0.00    -0.096 F 
ATOM      9  I   UNL d   1       1.665   0.300   0.609  0.00  0.00    -0.060 I 
ATOM     10  F2  UNL d   1      -0.205   0.137  -1.984  0.00  0.00    -0.096 F 
ATOM     11  F3  UNL d   1      -2.630  -1.002  -2.385  0.00  0.00    -0.097 F 
ATOM     12  F4  UNL d   1      -3.897  -2.301  -0.349  0.00  0.00    -0.092 F 
ENDROOT
TORSDOF 0
ENDMDL
