MODEL 1
REMARK minimizedAffinity -1.54690027
REMARK minimizedRMSD -1
REMARK  0 active torsions:
REMARK  status: ('A' for Active; 'I' for Inactive)
ROOT
ATOM      1  C   UNL d   1      -0.544   0.198  -1.617  0.00  0.00     0.124 A 
ATOM      2  C1  UNL d   1       0.295   0.224  -0.512  0.00  0.00     0.062 A 
ATOM      3  C2  UNL d   1      -0.019  -0.518   0.623  0.00  0.00     0.162 A 
ATOM      4  C3  UNL d   1      -1.178  -1.293   0.659  0.00  0.00    -0.034 A 
ATOM      5  C4  UNL d   1      -2.017  -1.314  -0.457  0.00  0.00     0.162 A 
ATOM      6  C5  UNL d   1      -1.699  -0.571  -1.589  0.00  0.00     0.062 A 
ATOM      7  F   UNL d   1      -2.511  -0.597  -2.656  0.00  0.00    -0.097 F 
ATOM      8  F1  UNL d   1      -3.139  -2.049  -0.456  0.00  0.00    -0.096 F 
ATOM      9  I   UNL d   1      -1.651  -2.404   2.354  0.00  0.00    -0.060 I 
ATOM     10  F2  UNL d   1       0.810  -0.473   1.676  0.00  0.00    -0.096 F 
ATOM     11  F3  UNL d   1       1.411   0.967  -0.537  0.00  0.00    -0.097 F 
ATOM     12  F4  UNL d   1      -0.240   0.913  -2.708  0.00  0.00    -0.092 F 
ENDROOT
TORSDOF 0
ENDMDL
