MODEL 1
REMARK minimizedAffinity -3.82483506
REMARK minimizedRMSD -1
REMARK  0 active torsions:
REMARK  status: ('A' for Active; 'I' for Inactive)
ROOT
ATOM      1  C   UNL d   1      -2.258  -2.519   1.380  0.00  0.00     0.124 A 
ATOM      2  C1  UNL d   1      -2.978  -1.957   0.334  0.00  0.00     0.062 A 
ATOM      3  C2  UNL d   1      -2.390  -0.995  -0.482  0.00  0.00     0.162 A 
ATOM      4  C3  UNL d   1      -1.075  -0.589  -0.257  0.00  0.00    -0.034 A 
ATOM      5  C4  UNL d   1      -0.358  -1.158   0.797  0.00  0.00     0.162 A 
ATOM      6  C5  UNL d   1      -0.949  -2.119   1.610  0.00  0.00     0.062 A 
ATOM      7  F   UNL d   1      -0.253  -2.661   2.620  0.00  0.00    -0.097 F 
ATOM      8  F1  UNL d   1       0.909  -0.791   1.042  0.00  0.00    -0.096 F 
ATOM      9  I   UNL d   1      -0.193   0.849  -1.475  0.00  0.00    -0.060 I 
ATOM     10  F2  UNL d   1      -3.109  -0.469  -1.485  0.00  0.00    -0.096 F 
ATOM     11  F3  UNL d   1      -4.242  -2.341   0.110  0.00  0.00    -0.097 F 
ATOM     12  F4  UNL d   1      -2.826  -3.444   2.164  0.00  0.00    -0.092 F 
ENDROOT
TORSDOF 0
ENDMDL
