MODEL 1
REMARK minimizedAffinity -2.83565259
REMARK minimizedRMSD -1
REMARK  0 active torsions:
REMARK  status: ('A' for Active; 'I' for Inactive)
ROOT
ATOM      1  C   UNL d   1      -1.890  -0.714  -0.419  0.00  0.00     0.124 A 
ATOM      2  C1  UNL d   1      -0.946  -0.906   0.580  0.00  0.00     0.062 A 
ATOM      3  C2  UNL d   1       0.237  -0.173   0.576  0.00  0.00     0.162 A 
ATOM      4  C3  UNL d   1       0.483   0.760  -0.431  0.00  0.00    -0.034 A 
ATOM      5  C4  UNL d   1      -0.470   0.946  -1.434  0.00  0.00     0.162 A 
ATOM      6  C5  UNL d   1      -1.651   0.211  -1.425  0.00  0.00     0.062 A 
ATOM      7  F   UNL d   1      -2.561   0.398  -2.392  0.00  0.00    -0.097 F 
ATOM      8  F1  UNL d   1      -0.265   1.835  -2.417  0.00  0.00    -0.096 F 
ATOM      9  I   UNL d   1       2.252   1.857  -0.441  0.00  0.00    -0.060 I 
ATOM     10  F2  UNL d   1       1.131  -0.379   1.555  0.00  0.00    -0.096 F 
ATOM     11  F3  UNL d   1      -1.175  -1.801   1.553  0.00  0.00    -0.097 F 
ATOM     12  F4  UNL d   1      -3.027  -1.421  -0.414  0.00  0.00    -0.092 F 
ENDROOT
TORSDOF 0
ENDMDL
