MODEL 1
REMARK minimizedAffinity -4.44107676
REMARK minimizedRMSD -1
REMARK  0 active torsions:
REMARK  status: ('A' for Active; 'I' for Inactive)
ROOT
ATOM      1  C   UNL d   1      -1.528  -2.251   1.554  0.00  0.00     0.124 A 
ATOM      2  C1  UNL d   1      -2.574  -1.647   0.870  0.00  0.00     0.062 A 
ATOM      3  C2  UNL d   1      -2.313  -0.823  -0.221  0.00  0.00     0.162 A 
ATOM      4  C3  UNL d   1      -1.000  -0.600  -0.637  0.00  0.00    -0.034 A 
ATOM      5  C4  UNL d   1       0.046  -1.210   0.057  0.00  0.00     0.162 A 
ATOM      6  C5  UNL d   1      -0.219  -2.032   1.147  0.00  0.00     0.062 A 
ATOM      7  F   UNL d   1       0.792  -2.615   1.807  0.00  0.00    -0.097 F 
ATOM      8  F1  UNL d   1       1.320  -1.016  -0.316  0.00  0.00    -0.096 F 
ATOM      9  I   UNL d   1      -0.606   0.631  -2.268  0.00  0.00    -0.060 I 
ATOM     10  F2  UNL d   1      -3.343  -0.253  -0.864  0.00  0.00    -0.096 F 
ATOM     11  F3  UNL d   1      -3.839  -1.856   1.262  0.00  0.00    -0.097 F 
ATOM     12  F4  UNL d   1      -1.781  -3.042   2.605  0.00  0.00    -0.092 F 
ENDROOT
TORSDOF 0
ENDMDL
