MODEL 1
REMARK minimizedAffinity -2.38145971
REMARK minimizedRMSD -1
REMARK  0 active torsions:
REMARK  status: ('A' for Active; 'I' for Inactive)
ROOT
ATOM      1  C   UNL d   1      -2.379  -1.548   0.114  0.00  0.00     0.124 A 
ATOM      2  C1  UNL d   1      -1.465  -1.995   1.059  0.00  0.00     0.062 A 
ATOM      3  C2  UNL d   1      -0.231  -1.364   1.192  0.00  0.00     0.162 A 
ATOM      4  C3  UNL d   1       0.096  -0.278   0.379  0.00  0.00    -0.034 A 
ATOM      5  C4  UNL d   1      -0.828   0.164  -0.569  0.00  0.00     0.162 A 
ATOM      6  C5  UNL d   1      -2.060  -0.470  -0.699  0.00  0.00     0.062 A 
ATOM      7  F   UNL d   1      -2.941  -0.037  -1.612  0.00  0.00    -0.097 F 
ATOM      8  F1  UNL d   1      -0.546   1.205  -1.367  0.00  0.00    -0.096 F 
ATOM      9  I   UNL d   1       1.939   0.668   0.576  0.00  0.00    -0.060 I 
ATOM     10  F2  UNL d   1       0.632  -1.816   2.113  0.00  0.00    -0.096 F 
ATOM     11  F3  UNL d   1      -1.770  -3.037   1.845  0.00  0.00    -0.097 F 
ATOM     12  F4  UNL d   1      -3.564  -2.158  -0.013  0.00  0.00    -0.092 F 
ENDROOT
TORSDOF 0
ENDMDL
