MODEL 1
REMARK minimizedAffinity -4.5538044
REMARK minimizedRMSD -1
REMARK  0 active torsions:
REMARK  status: ('A' for Active; 'I' for Inactive)
ROOT
ATOM      1  C   UNL d   1      -2.904  -1.494   0.761  0.00  0.00     0.124 A 
ATOM      2  C1  UNL d   1      -1.849  -2.037   1.482  0.00  0.00     0.062 A 
ATOM      3  C2  UNL d   1      -0.566  -1.518   1.344  0.00  0.00     0.162 A 
ATOM      4  C3  UNL d   1      -0.329  -0.447   0.482  0.00  0.00    -0.034 A 
ATOM      5  C4  UNL d   1      -1.394   0.094  -0.240  0.00  0.00     0.162 A 
ATOM      6  C5  UNL d   1      -2.675  -0.429  -0.099  0.00  0.00     0.062 A 
ATOM      7  F   UNL d   1      -3.692   0.097  -0.796  0.00  0.00    -0.097 F 
ATOM      8  F1  UNL d   1      -1.201   1.124  -1.078  0.00  0.00    -0.096 F 
ATOM      9  I   UNL d   1       1.590   0.333   0.273  0.00  0.00    -0.060 I 
ATOM     10  F2  UNL d   1       0.434  -2.062   2.053  0.00  0.00    -0.096 F 
ATOM     11  F3  UNL d   1      -2.067  -3.067   2.313  0.00  0.00    -0.097 F 
ATOM     12  F4  UNL d   1      -4.138  -1.997   0.895  0.00  0.00    -0.092 F 
ENDROOT
TORSDOF 0
ENDMDL
