MODEL 1
REMARK minimizedAffinity -4.75017786
REMARK minimizedRMSD -1
REMARK  0 active torsions:
REMARK  status: ('A' for Active; 'I' for Inactive)
ROOT
ATOM      1  C   UNL d   1      -2.834  -1.600   0.385  0.00  0.00     0.124 A 
ATOM      2  C1  UNL d   1      -1.731  -2.180   0.995  0.00  0.00     0.062 A 
ATOM      3  C2  UNL d   1      -0.484  -1.567   0.917  0.00  0.00     0.162 A 
ATOM      4  C3  UNL d   1      -0.333  -0.365   0.226  0.00  0.00    -0.034 A 
ATOM      5  C4  UNL d   1      -1.447   0.212  -0.386  0.00  0.00     0.162 A 
ATOM      6  C5  UNL d   1      -2.691  -0.404  -0.305  0.00  0.00     0.062 A 
ATOM      7  F   UNL d   1      -3.756   0.158  -0.895  0.00  0.00    -0.097 F 
ATOM      8  F1  UNL d   1      -1.338   1.368  -1.059  0.00  0.00    -0.096 F 
ATOM      9  I   UNL d   1       1.530   0.555   0.106  0.00  0.00    -0.060 I 
ATOM     10  F2  UNL d   1       0.565  -2.151   1.516  0.00  0.00    -0.096 F 
ATOM     11  F3  UNL d   1      -1.866  -3.336   1.662  0.00  0.00    -0.097 F 
ATOM     12  F4  UNL d   1      -4.033  -2.192   0.462  0.00  0.00    -0.092 F 
ENDROOT
TORSDOF 0
ENDMDL
