MODEL 1
REMARK minimizedAffinity -3.77125216
REMARK minimizedRMSD -1
REMARK  0 active torsions:
REMARK  status: ('A' for Active; 'I' for Inactive)
ROOT
ATOM      1  C   UNL d   1      -2.486  -1.718   0.339  0.00  0.00     0.124 A 
ATOM      2  C1  UNL d   1      -1.440  -2.081   1.176  0.00  0.00     0.062 A 
ATOM      3  C2  UNL d   1      -0.240  -1.376   1.142  0.00  0.00     0.162 A 
ATOM      4  C3  UNL d   1      -0.080  -0.300   0.269  0.00  0.00    -0.034 A 
ATOM      5  C4  UNL d   1      -1.136   0.058  -0.570  0.00  0.00     0.162 A 
ATOM      6  C5  UNL d   1      -2.333  -0.649  -0.533  0.00  0.00     0.062 A 
ATOM      7  F   UNL d   1      -3.343  -0.298  -1.343  0.00  0.00    -0.097 F 
ATOM      8  F1  UNL d   1      -1.016   1.087  -1.422  0.00  0.00    -0.096 F 
ATOM      9  I   UNL d   1       1.712   0.757   0.216  0.00  0.00    -0.060 I 
ATOM     10  F2  UNL d   1       0.754  -1.748   1.963  0.00  0.00    -0.096 F 
ATOM     11  F3  UNL d   1      -1.584  -3.113   2.019  0.00  0.00    -0.097 F 
ATOM     12  F4  UNL d   1      -3.639  -2.399   0.372  0.00  0.00    -0.092 F 
ENDROOT
TORSDOF 0
ENDMDL
