MODEL 1
REMARK minimizedAffinity -1.37019849
REMARK minimizedRMSD -1
REMARK  0 active torsions:
REMARK  status: ('A' for Active; 'I' for Inactive)
ROOT
ATOM      1  C   UNL d   1      -1.286  -1.088  -0.153  0.00  0.00     0.124 A 
ATOM      2  C1  UNL d   1      -0.202  -1.578   0.562  0.00  0.00     0.062 A 
ATOM      3  C2  UNL d   1       0.944  -0.804   0.715  0.00  0.00     0.162 A 
ATOM      4  C3  UNL d   1       1.012   0.471   0.152  0.00  0.00    -0.034 A 
ATOM      5  C4  UNL d   1      -0.082   0.957  -0.566  0.00  0.00     0.162 A 
ATOM      6  C5  UNL d   1      -1.225   0.179  -0.716  0.00  0.00     0.062 A 
ATOM      7  F   UNL d   1      -2.271   0.655  -1.407  0.00  0.00    -0.097 F 
ATOM      8  F1  UNL d   1      -0.050   2.179  -1.119  0.00  0.00    -0.096 F 
ATOM      9  I   UNL d   1       2.724   1.632   0.379  0.00  0.00    -0.060 I 
ATOM     10  F2  UNL d   1       1.976  -1.303   1.410  0.00  0.00    -0.096 F 
ATOM     11  F3  UNL d   1      -0.259  -2.803   1.106  0.00  0.00    -0.097 F 
ATOM     12  F4  UNL d   1      -2.387  -1.835  -0.300  0.00  0.00    -0.092 F 
ENDROOT
TORSDOF 0
ENDMDL
