MODEL 1
REMARK minimizedAffinity -5.25515747
REMARK minimizedRMSD -1
REMARK  0 active torsions:
REMARK  status: ('A' for Active; 'I' for Inactive)
ROOT
ATOM      1  C   UNL d   1      -2.697  -1.491   0.297  0.00  0.00     0.124 A 
ATOM      2  C1  UNL d   1      -2.332  -0.506  -0.610  0.00  0.00     0.062 A 
ATOM      3  C2  UNL d   1      -1.006  -0.092  -0.698  0.00  0.00     0.162 A 
ATOM      4  C3  UNL d   1      -0.034  -0.664   0.123  0.00  0.00    -0.034 A 
ATOM      5  C4  UNL d   1      -0.409  -1.653   1.034  0.00  0.00     0.162 A 
ATOM      6  C5  UNL d   1      -1.735  -2.064   1.118  0.00  0.00     0.062 A 
ATOM      7  F   UNL d   1      -2.086  -3.016   1.995  0.00  0.00    -0.097 F 
ATOM      8  F1  UNL d   1       0.500  -2.224   1.838  0.00  0.00    -0.096 F 
ATOM      9  I   UNL d   1       1.949  -0.047  -0.006  0.00  0.00    -0.060 I 
ATOM     10  F2  UNL d   1      -0.683   0.862  -1.583  0.00  0.00    -0.096 F 
ATOM     11  F3  UNL d   1      -3.260   0.049  -1.403  0.00  0.00    -0.097 F 
ATOM     12  F4  UNL d   1      -3.973  -1.887   0.381  0.00  0.00    -0.092 F 
ENDROOT
TORSDOF 0
ENDMDL
