MODEL 1
REMARK minimizedAffinity -3.28202915
REMARK minimizedRMSD -1
REMARK  0 active torsions:
REMARK  status: ('A' for Active; 'I' for Inactive)
ROOT
ATOM      1  C   UNL d   1      -1.870  -1.887   0.233  0.00  0.00     0.124 A 
ATOM      2  C1  UNL d   1      -1.923  -0.889  -0.731  0.00  0.00     0.062 A 
ATOM      3  C2  UNL d   1      -0.858  -0.005  -0.882  0.00  0.00     0.162 A 
ATOM      4  C3  UNL d   1       0.269  -0.115  -0.068  0.00  0.00    -0.034 A 
ATOM      5  C4  UNL d   1       0.314  -1.120   0.899  0.00  0.00     0.162 A 
ATOM      6  C5  UNL d   1      -0.752  -2.001   1.047  0.00  0.00     0.062 A 
ATOM      7  F   UNL d   1      -0.699  -2.964   1.978  0.00  0.00    -0.097 F 
ATOM      8  F1  UNL d   1       1.383  -1.254   1.699  0.00  0.00    -0.096 F 
ATOM      9  I   UNL d   1       1.863   1.204  -0.292  0.00  0.00    -0.060 I 
ATOM     10  F2  UNL d   1      -0.937   0.949  -1.822  0.00  0.00    -0.096 F 
ATOM     11  F3  UNL d   1      -3.002  -0.776  -1.518  0.00  0.00    -0.097 F 
ATOM     12  F4  UNL d   1      -2.896  -2.735   0.377  0.00  0.00    -0.092 F 
ENDROOT
TORSDOF 0
ENDMDL
