MODEL 1
REMARK minimizedAffinity -2.52370667
REMARK minimizedRMSD -1
REMARK  0 active torsions:
REMARK  status: ('A' for Active; 'I' for Inactive)
ROOT
ATOM      1  C   UNL d   1      -2.568  -1.223   0.086  0.00  0.00     0.124 A 
ATOM      2  C1  UNL d   1      -2.247  -0.322  -0.920  0.00  0.00     0.062 A 
ATOM      3  C2  UNL d   1      -0.947   0.161  -1.038  0.00  0.00     0.162 A 
ATOM      4  C3  UNL d   1       0.043  -0.256  -0.148  0.00  0.00    -0.034 A 
ATOM      5  C4  UNL d   1      -0.288  -1.162   0.862  0.00  0.00     0.162 A 
ATOM      6  C5  UNL d   1      -1.589  -1.642   0.976  0.00  0.00     0.062 A 
ATOM      7  F   UNL d   1      -1.898  -2.512   1.948  0.00  0.00    -0.097 F 
ATOM      8  F1  UNL d   1       0.638  -1.584   1.735  0.00  0.00    -0.096 F 
ATOM      9  I   UNL d   1       1.988   0.464  -0.320  0.00  0.00    -0.060 I 
ATOM     10  F2  UNL d   1      -0.665   1.031  -2.019  0.00  0.00    -0.096 F 
ATOM     11  F3  UNL d   1      -3.191   0.085  -1.780  0.00  0.00    -0.097 F 
ATOM     12  F4  UNL d   1      -3.820  -1.685   0.198  0.00  0.00    -0.092 F 
ENDROOT
TORSDOF 0
ENDMDL
