MODEL 1
REMARK minimizedAffinity -2.38864732
REMARK minimizedRMSD -1
REMARK  0 active torsions:
REMARK  status: ('A' for Active; 'I' for Inactive)
ROOT
ATOM      1  C1  DEN d   1       0.971   5.061  -5.950  0.00  0.00     0.130 A 
ATOM      2  C2  DEN d   1       1.598   3.742  -5.975  0.00  0.00    -0.031 A 
ATOM      3  C3  DEN d   1       0.525   2.728  -5.992  0.00  0.00     0.027 A 
ATOM      4  C4  DEN d   1      -2.032   3.069  -5.989  0.00  0.00     0.027 A 
ATOM      5  C5  DEN d   1      -3.039   4.009  -5.960  0.00  0.00    -0.003 A 
ATOM      6  C6  DEN d   1      -2.782   5.352  -5.892  0.00  0.00     0.001 A 
ATOM      7  C7  DEN d   1      -1.486   5.797  -5.897  0.00  0.00     0.017 A 
ATOM      8  C8  DEN d   1      -0.466   4.855  -5.918  0.00  0.00    -0.094 A 
ATOM      9  C9  DEN d   1      -0.746   3.502  -5.999  0.00  0.00    -0.072 A 
ENDROOT
TORSDOF 0
ENDMDL
