MODEL 1
REMARK minimizedAffinity -1.43192899
REMARK minimizedRMSD -1
REMARK  0 active torsions:
REMARK  status: ('A' for Active; 'I' for Inactive)
ROOT
ATOM      1  C1  DEN d   1       2.035   3.520  -5.996  0.00  0.00     0.130 A 
ATOM      2  C2  DEN d   1       2.878   4.712  -5.999  0.00  0.00    -0.031 A 
ATOM      3  C3  DEN d   1       1.995   5.896  -5.968  0.00  0.00     0.027 A 
ATOM      4  C4  DEN d   1      -0.582   5.996  -5.911  0.00  0.00     0.027 A 
ATOM      5  C5  DEN d   1      -1.735   5.243  -5.908  0.00  0.00    -0.003 A 
ATOM      6  C6  DEN d   1      -1.713   3.875  -5.967  0.00  0.00     0.001 A 
ATOM      7  C7  DEN d   1      -0.513   3.215  -5.987  0.00  0.00     0.017 A 
ATOM      8  C8  DEN d   1       0.654   3.968  -5.999  0.00  0.00    -0.094 A 
ATOM      9  C9  DEN d   1       0.611   5.350  -5.926  0.00  0.00    -0.072 A 
ENDROOT
TORSDOF 0
ENDMDL
