MODEL 1
REMARK minimizedAffinity -1.82292891
REMARK minimizedRMSD -1
REMARK  0 active torsions:
REMARK  status: ('A' for Active; 'I' for Inactive)
ROOT
ATOM      1  C1  DEN d   1      -1.820   5.324  -5.965  0.00  0.00     0.130 A 
ATOM      2  C2  DEN d   1      -2.903   4.345  -5.987  0.00  0.00    -0.031 A 
ATOM      3  C3  DEN d   1      -2.300   2.997  -6.000  0.00  0.00     0.027 A 
ATOM      4  C4  DEN d   1       0.192   2.334  -5.982  0.00  0.00     0.027 A 
ATOM      5  C5  DEN d   1       1.482   2.818  -5.976  0.00  0.00    -0.003 A 
ATOM      6  C6  DEN d   1       1.760   4.159  -5.999  0.00  0.00     0.001 A 
ATOM      7  C7  DEN d   1       0.733   5.065  -5.985  0.00  0.00     0.017 A 
ATOM      8  C8  DEN d   1      -0.571   4.585  -5.999  0.00  0.00    -0.094 A 
ATOM      9  C9  DEN d   1      -0.831   3.226  -5.963  0.00  0.00    -0.072 A 
ENDROOT
TORSDOF 0
ENDMDL
