MODEL 1
REMARK minimizedAffinity -1.52549589
REMARK minimizedRMSD -1
REMARK  0 active torsions:
REMARK  status: ('A' for Active; 'I' for Inactive)
ROOT
ATOM      1  C1  DEN d   1       1.141   2.867  -5.967  0.00  0.00     0.130 A 
ATOM      2  C2  DEN d   1       1.913   4.107  -5.989  0.00  0.00    -0.031 A 
ATOM      3  C3  DEN d   1       0.962   5.237  -6.000  0.00  0.00     0.027 A 
ATOM      4  C4  DEN d   1      -1.616   5.188  -5.981  0.00  0.00     0.027 A 
ATOM      5  C5  DEN d   1      -2.724   4.368  -5.974  0.00  0.00    -0.003 A 
ATOM      6  C6  DEN d   1      -2.621   3.003  -5.999  0.00  0.00     0.001 A 
ATOM      7  C7  DEN d   1      -1.384   2.414  -5.986  0.00  0.00     0.017 A 
ATOM      8  C8  DEN d   1      -0.263   3.234  -6.000  0.00  0.00    -0.094 A 
ATOM      9  C9  DEN d   1      -0.388   4.612  -5.962  0.00  0.00    -0.072 A 
ENDROOT
TORSDOF 0
ENDMDL
