MODEL 1
REMARK minimizedAffinity -3.13173485
REMARK minimizedRMSD -1
REMARK  0 active torsions:
REMARK  status: ('A' for Active; 'I' for Inactive)
ROOT
ATOM      1  C1  DEN d   1       1.439   2.876  -5.960  0.00  0.00     0.130 A 
ATOM      2  C2  DEN d   1       2.327   4.036  -5.984  0.00  0.00    -0.031 A 
ATOM      3  C3  DEN d   1       1.489   5.252  -6.000  0.00  0.00     0.027 A 
ATOM      4  C4  DEN d   1      -1.082   5.451  -5.985  0.00  0.00     0.027 A 
ATOM      5  C5  DEN d   1      -2.263   4.742  -5.979  0.00  0.00    -0.003 A 
ATOM      6  C6  DEN d   1      -2.293   3.373  -6.000  0.00  0.00     0.001 A 
ATOM      7  C7  DEN d   1      -1.118   2.668  -5.983  0.00  0.00     0.017 A 
ATOM      8  C8  DEN d   1       0.076   3.376  -5.997  0.00  0.00    -0.094 A 
ATOM      9  C9  DEN d   1       0.085   4.760  -5.963  0.00  0.00    -0.072 A 
ENDROOT
TORSDOF 0
ENDMDL
