MODEL 1
REMARK minimizedAffinity 2.0536685
REMARK minimizedRMSD -1
REMARK  0 active torsions:
REMARK  status: ('A' for Active; 'I' for Inactive)
ROOT
ATOM      1  C1  DEN d   1      -2.055   3.026  -6.000  0.00  0.00     0.130 A 
ATOM      2  C2  DEN d   1      -2.944   4.184  -5.966  0.00  0.00    -0.031 A 
ATOM      3  C3  DEN d   1      -2.107   5.401  -5.951  0.00  0.00     0.027 A 
ATOM      4  C4  DEN d   1       0.464   5.604  -5.983  0.00  0.00     0.027 A 
ATOM      5  C5  DEN d   1       1.645   4.896  -6.000  0.00  0.00    -0.003 A 
ATOM      6  C6  DEN d   1       1.677   3.527  -5.984  0.00  0.00     0.001 A 
ATOM      7  C7  DEN d   1       0.503   2.821  -5.996  0.00  0.00     0.017 A 
ATOM      8  C8  DEN d   1      -0.692   3.527  -5.971  0.00  0.00    -0.094 A 
ATOM      9  C9  DEN d   1      -0.703   4.912  -6.000  0.00  0.00    -0.072 A 
ENDROOT
TORSDOF 0
ENDMDL
