MODEL 1
REMARK minimizedAffinity -0.197315156
REMARK minimizedRMSD -1
REMARK  0 active torsions:
REMARK  status: ('A' for Active; 'I' for Inactive)
ROOT
ATOM      1  C1  DEN d   1       0.586   3.542  -5.936  0.00  0.00     0.130 A 
ATOM      2  C2  DEN d   1       1.420   4.740  -5.969  0.00  0.00    -0.031 A 
ATOM      3  C3  DEN d   1       0.528   5.917  -5.999  0.00  0.00     0.027 A 
ATOM      4  C4  DEN d   1      -2.049   5.999  -5.993  0.00  0.00     0.027 A 
ATOM      5  C5  DEN d   1      -3.197   5.238  -5.983  0.00  0.00    -0.003 A 
ATOM      6  C6  DEN d   1      -3.165   3.868  -5.990  0.00  0.00     0.001 A 
ATOM      7  C7  DEN d   1      -1.959   3.218  -5.962  0.00  0.00     0.017 A 
ATOM      8  C8  DEN d   1      -0.798   3.979  -5.981  0.00  0.00    -0.094 A 
ATOM      9  C9  DEN d   1      -0.852   5.362  -5.961  0.00  0.00    -0.072 A 
ENDROOT
TORSDOF 0
ENDMDL
