MODEL 1
REMARK minimizedAffinity -1.06124282
REMARK minimizedRMSD -1
REMARK  0 active torsions:
REMARK  status: ('A' for Active; 'I' for Inactive)
ROOT
ATOM      1  C1  DEN d   1      -0.007   1.844  -5.994  0.00  0.00     0.130 A 
ATOM      2  C2  DEN d   1      -1.410   1.437  -5.999  0.00  0.00    -0.031 A 
ATOM      3  C3  DEN d   1      -2.239   2.659  -5.988  0.00  0.00     0.027 A 
ATOM      4  C4  DEN d   1      -1.491   5.127  -5.967  0.00  0.00     0.027 A 
ATOM      5  C5  DEN d   1      -0.402   5.970  -5.947  0.00  0.00    -0.003 A 
ATOM      6  C6  DEN d   1       0.884   5.501  -5.906  0.00  0.00     0.001 A 
ATOM      7  C7  DEN d   1       1.114   4.150  -5.931  0.00  0.00     0.017 A 
ATOM      8  C8  DEN d   1       0.021   3.294  -5.944  0.00  0.00    -0.094 A 
ATOM      9  C9  DEN d   1      -1.271   3.789  -5.997  0.00  0.00    -0.072 A 
ENDROOT
TORSDOF 0
ENDMDL
