MODEL 1
REMARK minimizedAffinity -1.56383061
REMARK minimizedRMSD -1
REMARK  0 active torsions:
REMARK  status: ('A' for Active; 'I' for Inactive)
ROOT
ATOM      1  C1  DEN d   1      -2.065   2.275  -5.988  0.00  0.00     0.130 A 
ATOM      2  C2  DEN d   1      -3.132   3.271  -5.963  0.00  0.00    -0.031 A 
ATOM      3  C3  DEN d   1      -2.507   4.609  -5.957  0.00  0.00     0.027 A 
ATOM      4  C4  DEN d   1      -0.004   5.231  -5.987  0.00  0.00     0.027 A 
ATOM      5  C5  DEN d   1       1.278   4.727  -5.998  0.00  0.00    -0.003 A 
ATOM      6  C6  DEN d   1       1.534   3.382  -5.972  0.00  0.00     0.001 A 
ATOM      7  C7  DEN d   1       0.492   2.492  -5.980  0.00  0.00     0.017 A 
ATOM      8  C8  DEN d   1      -0.803   2.993  -5.961  0.00  0.00    -0.094 A 
ATOM      9  C9  DEN d   1      -1.041   4.356  -6.000  0.00  0.00    -0.072 A 
ENDROOT
TORSDOF 0
ENDMDL
