MODEL 1
REMARK minimizedAffinity -0.685622096
REMARK minimizedRMSD -1
REMARK  0 active torsions:
REMARK  status: ('A' for Active; 'I' for Inactive)
ROOT
ATOM      1  C1  DEN d   1      -2.646   4.693  -5.938  0.00  0.00     0.130 A 
ATOM      2  C2  DEN d   1      -3.151   3.323  -5.968  0.00  0.00    -0.031 A 
ATOM      3  C3  DEN d   1      -1.991   2.409  -6.000  0.00  0.00     0.027 A 
ATOM      4  C4  DEN d   1       0.524   2.980  -6.000  0.00  0.00     0.027 A 
ATOM      5  C5  DEN d   1       1.442   4.006  -5.992  0.00  0.00    -0.003 A 
ATOM      6  C6  DEN d   1       1.066   5.323  -6.000  0.00  0.00     0.001 A 
ATOM      7  C7  DEN d   1      -0.265   5.648  -5.970  0.00  0.00     0.017 A 
ATOM      8  C8  DEN d   1      -1.197   4.619  -5.985  0.00  0.00    -0.094 A 
ATOM      9  C9  DEN d   1      -0.795   3.294  -5.965  0.00  0.00    -0.072 A 
ENDROOT
TORSDOF 0
ENDMDL
