MODEL 1
REMARK minimizedAffinity -2.66364646
REMARK minimizedRMSD -1
REMARK  0 active torsions:
REMARK  status: ('A' for Active; 'I' for Inactive)
ROOT
ATOM      1  C1  DEN d   1      -0.215   5.341  -5.976  0.00  0.00     0.130 A 
ATOM      2  C2  DEN d   1       0.453   4.042  -5.956  0.00  0.00    -0.031 A 
ATOM      3  C3  DEN d   1      -0.588   2.994  -5.956  0.00  0.00     0.027 A 
ATOM      4  C4  DEN d   1      -3.154   3.255  -5.991  0.00  0.00     0.027 A 
ATOM      5  C5  DEN d   1      -4.190   4.163  -5.999  0.00  0.00    -0.003 A 
ATOM      6  C6  DEN d   1      -3.976   5.515  -5.967  0.00  0.00     0.001 A 
ATOM      7  C7  DEN d   1      -2.694   6.000  -5.970  0.00  0.00     0.017 A 
ATOM      8  C8  DEN d   1      -1.645   5.091  -5.953  0.00  0.00    -0.094 A 
ATOM      9  C9  DEN d   1      -1.882   3.728  -5.999  0.00  0.00    -0.072 A 
ENDROOT
TORSDOF 0
ENDMDL
