MODEL 1
REMARK minimizedAffinity -1.06305993
REMARK minimizedRMSD -1
REMARK  0 active torsions:
REMARK  status: ('A' for Active; 'I' for Inactive)
ROOT
ATOM      1  C1  DEN d   1       0.520   5.344  -5.999  0.00  0.00     0.130 A 
ATOM      2  C2  DEN d   1       1.375   4.160  -5.970  0.00  0.00    -0.031 A 
ATOM      3  C3  DEN d   1       0.503   2.968  -5.956  0.00  0.00     0.027 A 
ATOM      4  C4  DEN d   1      -2.073   2.841  -5.981  0.00  0.00     0.027 A 
ATOM      5  C5  DEN d   1      -3.233   3.583  -5.994  0.00  0.00    -0.003 A 
ATOM      6  C6  DEN d   1      -3.224   4.953  -5.975  0.00  0.00     0.001 A 
ATOM      7  C7  DEN d   1      -2.030   5.624  -5.988  0.00  0.00     0.017 A 
ATOM      8  C8  DEN d   1      -0.856   4.883  -5.968  0.00  0.00    -0.094 A 
ATOM      9  C9  DEN d   1      -0.886   3.499  -5.999  0.00  0.00    -0.072 A 
ENDROOT
TORSDOF 0
ENDMDL
