MODEL 1
REMARK minimizedAffinity -1.77539945
REMARK minimizedRMSD -1
REMARK  0 active torsions:
REMARK  status: ('A' for Active; 'I' for Inactive)
ROOT
ATOM      1  C1  DEN d   1      -1.753   5.542  -5.963  0.00  0.00     0.130 A 
ATOM      2  C2  DEN d   1      -2.926   4.672  -5.985  0.00  0.00    -0.031 A 
ATOM      3  C3  DEN d   1      -2.456   3.272  -6.000  0.00  0.00     0.027 A 
ATOM      4  C4  DEN d   1      -0.039   2.372  -5.984  0.00  0.00     0.027 A 
ATOM      5  C5  DEN d   1       1.291   2.727  -5.978  0.00  0.00    -0.003 A 
ATOM      6  C6  DEN d   1       1.698   4.035  -6.000  0.00  0.00     0.001 A 
ATOM      7  C7  DEN d   1       0.763   5.037  -5.984  0.00  0.00     0.017 A 
ATOM      8  C8  DEN d   1      -0.581   4.686  -5.998  0.00  0.00    -0.094 A 
ATOM      9  C9  DEN d   1      -0.971   3.358  -5.963  0.00  0.00    -0.072 A 
ENDROOT
TORSDOF 0
ENDMDL
