MODEL 1
REMARK minimizedAffinity -3.99279094
REMARK minimizedRMSD -1
REMARK  0 active torsions:
REMARK  status: ('A' for Active; 'I' for Inactive)
ROOT
ATOM      1  C1  DEN d   1       1.376   2.881  -5.977  0.00  0.00     0.130 A 
ATOM      2  C2  DEN d   1       2.265   4.039  -5.999  0.00  0.00    -0.031 A 
ATOM      3  C3  DEN d   1       1.429   5.257  -6.000  0.00  0.00     0.027 A 
ATOM      4  C4  DEN d   1      -1.142   5.459  -5.966  0.00  0.00     0.027 A 
ATOM      5  C5  DEN d   1      -2.324   4.751  -5.955  0.00  0.00    -0.003 A 
ATOM      6  C6  DEN d   1      -2.355   3.382  -5.986  0.00  0.00     0.001 A 
ATOM      7  C7  DEN d   1      -1.181   2.676  -5.982  0.00  0.00     0.017 A 
ATOM      8  C8  DEN d   1       0.014   3.383  -6.000  0.00  0.00    -0.094 A 
ATOM      9  C9  DEN d   1       0.025   4.766  -5.957  0.00  0.00    -0.072 A 
ENDROOT
TORSDOF 0
ENDMDL
