MODEL 1
REMARK minimizedAffinity -2.71487761
REMARK minimizedRMSD -1
REMARK  0 active torsions:
REMARK  status: ('A' for Active; 'I' for Inactive)
ROOT
ATOM      1  C1  DEN d   1       0.435   1.953  -5.934  0.00  0.00     0.130 A 
ATOM      2  C2  DEN d   1       1.781   2.520  -5.966  0.00  0.00    -0.031 A 
ATOM      3  C3  DEN d   1       1.656   3.991  -5.999  0.00  0.00     0.027 A 
ATOM      4  C4  DEN d   1      -0.480   5.438  -6.000  0.00  0.00     0.027 A 
ATOM      5  C5  DEN d   1      -1.857   5.407  -5.992  0.00  0.00    -0.003 A 
ATOM      6  C6  DEN d   1      -2.561   4.232  -5.998  0.00  0.00     0.001 A 
ATOM      7  C7  DEN d   1      -1.889   3.038  -5.967  0.00  0.00     0.017 A 
ATOM      8  C8  DEN d   1      -0.501   3.061  -5.983  0.00  0.00    -0.094 A 
ATOM      9  C9  DEN d   1       0.193   4.260  -5.964  0.00  0.00    -0.072 A 
ENDROOT
TORSDOF 0
ENDMDL
