MODEL 1
REMARK minimizedAffinity 5.13056946
REMARK minimizedRMSD -1
REMARK  0 active torsions:
REMARK  status: ('A' for Active; 'I' for Inactive)
ROOT
ATOM      1  C1  DEN d   1       3.584   3.436  -5.974  0.00  0.00     0.130 A 
ATOM      2  C2  DEN d   1       3.803   4.879  -5.996  0.00  0.00    -0.031 A 
ATOM      3  C3  DEN d   1       2.483   5.542  -6.000  0.00  0.00     0.027 A 
ATOM      4  C4  DEN d   1       0.134   4.477  -5.969  0.00  0.00     0.027 A 
ATOM      5  C5  DEN d   1      -0.559   3.287  -5.959  0.00  0.00    -0.003 A 
ATOM      6  C6  DEN d   1       0.074   2.073  -5.988  0.00  0.00     0.001 A 
ATOM      7  C7  DEN d   1       1.443   2.021  -5.982  0.00  0.00     0.017 A 
ATOM      8  C8  DEN d   1       2.149   3.217  -5.999  0.00  0.00    -0.094 A 
ATOM      9  C9  DEN d   1       1.490   4.434  -5.957  0.00  0.00    -0.072 A 
ENDROOT
TORSDOF 0
ENDMDL
