MODEL 1
REMARK minimizedAffinity 1.80055606
REMARK minimizedRMSD -1
REMARK  0 active torsions:
REMARK  status: ('A' for Active; 'I' for Inactive)
ROOT
ATOM      1  C1  DEN d   1       3.509   3.628  -5.910  0.00  0.00     0.130 A 
ATOM      2  C2  DEN d   1       4.305   4.851  -5.963  0.00  0.00    -0.031 A 
ATOM      3  C3  DEN d   1       3.375   5.998  -6.000  0.00  0.00     0.027 A 
ATOM      4  C4  DEN d   1       0.796   5.999  -5.974  0.00  0.00     0.027 A 
ATOM      5  C5  DEN d   1      -0.326   5.201  -5.946  0.00  0.00    -0.003 A 
ATOM      6  C6  DEN d   1      -0.250   3.834  -5.937  0.00  0.00     0.001 A 
ATOM      7  C7  DEN d   1       0.976   3.222  -5.912  0.00  0.00     0.017 A 
ATOM      8  C8  DEN d   1       2.112   4.020  -5.949  0.00  0.00    -0.094 A 
ATOM      9  C9  DEN d   1       2.014   5.401  -5.944  0.00  0.00    -0.072 A 
ENDROOT
TORSDOF 0
ENDMDL
