MODEL 1
REMARK minimizedAffinity -5.61206532
REMARK minimizedRMSD -1
REMARK  3 active torsions:
REMARK  status: ('A' for Active; 'I' for Inactive)
REMARK    1  A    between atoms: C3'_2  and  C2'_3 
REMARK    2  A    between atoms: C2'_3  and  C1'_4 
REMARK    3  A    between atoms: C1'_4  and  C1_5 
ROOT
ATOM      1  C1  N4B d   1       0.320  -0.148   0.167  0.00  0.00    -0.075 A 
ATOM      2  C2  N4B d   1      -0.468   1.014   0.016  0.00  0.00     0.002 A 
ATOM      3  C3  N4B d   1      -1.465   1.289   0.919  0.00  0.00     0.002 A 
ATOM      4  C4  N4B d   1      -1.704   0.412   1.966  0.00  0.00    -0.004 A 
ATOM      5  C5  N4B d   1      -0.921  -0.695   2.120  0.00  0.00     0.002 A 
ATOM      6  C6  N4B d   1       0.087  -0.983   1.221  0.00  0.00     0.002 A 
ENDROOT
BRANCH   1   7
ATOM      7  C1' N4B d   1       1.365  -0.536  -0.844  0.00  0.00     0.057 C 
BRANCH   7   8
ATOM      8  C2' N4B d   1       1.384  -2.055  -0.986  0.00  0.00     0.009 C 
BRANCH   8   9
ATOM      9  C3' N4B d   1       0.629  -2.519  -2.220  0.00  0.00     0.004 C 
ATOM     10  C4' N4B d   1      -0.159  -3.773  -1.982  0.00  0.00     0.003 C 
ENDBRANCH   8   9
ENDBRANCH   7   8
ENDBRANCH   1   7
TORSDOF 3
ENDMDL
