MODEL 1
REMARK minimizedAffinity -4.02983952
REMARK minimizedRMSD -1
REMARK  3 active torsions:
REMARK  status: ('A' for Active; 'I' for Inactive)
REMARK    1  A    between atoms: C3'_2  and  C2'_3 
REMARK    2  A    between atoms: C2'_3  and  C1'_4 
REMARK    3  A    between atoms: C1'_4  and  C1_5 
ROOT
ATOM      1  C1  N4B d   1       0.054  -0.236   0.211  0.00  0.00    -0.075 A 
ATOM      2  C2  N4B d   1      -0.445   0.880  -0.496  0.00  0.00     0.002 A 
ATOM      3  C3  N4B d   1      -1.335   1.734   0.107  0.00  0.00     0.002 A 
ATOM      4  C4  N4B d   1      -1.755   1.482   1.405  0.00  0.00    -0.004 A 
ATOM      5  C5  N4B d   1      -1.249   0.416   2.090  0.00  0.00     0.002 A 
ATOM      6  C6  N4B d   1      -0.350  -0.448   1.497  0.00  0.00     0.002 A 
ENDROOT
BRANCH   1   7
ATOM      7  C1' N4B d   1       0.963  -1.245  -0.436  0.00  0.00     0.057 C 
BRANCH   7   8
ATOM      8  C2' N4B d   1       0.349  -1.697  -1.758  0.00  0.00     0.009 C 
BRANCH   8   9
ATOM      9  C3' N4B d   1       0.622  -3.164  -2.038  0.00  0.00     0.004 C 
ATOM     10  C4' N4B d   1      -0.074  -3.659  -3.271  0.00  0.00     0.003 C 
ENDBRANCH   8   9
ENDBRANCH   7   8
ENDBRANCH   1   7
TORSDOF 3
ENDMDL
