MODEL 1
REMARK minimizedAffinity -4.86029577
REMARK minimizedRMSD -1
REMARK  3 active torsions:
REMARK  status: ('A' for Active; 'I' for Inactive)
REMARK    1  A    between atoms: C3'_2  and  C2'_3 
REMARK    2  A    between atoms: C2'_3  and  C1'_4 
REMARK    3  A    between atoms: C1'_4  and  C1_5 
ROOT
ATOM      1  C1  N4B d   1      -0.091  -0.024   0.275  0.00  0.00    -0.075 A 
ATOM      2  C2  N4B d   1      -0.177   0.085   1.680  0.00  0.00     0.002 A 
ATOM      3  C3  N4B d   1      -0.856   1.136   2.247  0.00  0.00     0.002 A 
ATOM      4  C4  N4B d   1      -1.437   2.096   1.432  0.00  0.00    -0.004 A 
ATOM      5  C5  N4B d   1      -1.372   1.970   0.076  0.00  0.00     0.002 A 
ATOM      6  C6  N4B d   1      -0.697   0.916  -0.508  0.00  0.00     0.002 A 
ENDROOT
BRANCH   1   7
ATOM      7  C1' N4B d   1       0.712  -1.108  -0.390  0.00  0.00     0.057 C 
BRANCH   7   8
ATOM      8  C2' N4B d   1      -0.012  -1.566  -1.652  0.00  0.00     0.009 C 
BRANCH   8   9
ATOM      9  C3' N4B d   1       0.557  -2.866  -2.194  0.00  0.00     0.004 C 
ATOM     10  C4' N4B d   1      -0.506  -3.827  -2.635  0.00  0.00     0.003 C 
ENDBRANCH   8   9
ENDBRANCH   7   8
ENDBRANCH   1   7
TORSDOF 3
ENDMDL
