MODEL 1
REMARK minimizedAffinity -5.93251085
REMARK minimizedRMSD -1
REMARK  3 active torsions:
REMARK  status: ('A' for Active; 'I' for Inactive)
REMARK    1  A    between atoms: C3'_2  and  C2'_3 
REMARK    2  A    between atoms: C2'_3  and  C1'_4 
REMARK    3  A    between atoms: C1'_4  and  C1_5 
ROOT
ATOM      1  C1  N4B d   1       0.229   0.299   0.075  0.00  0.00    -0.075 A 
ATOM      2  C2  N4B d   1      -0.422   1.482  -0.337  0.00  0.00     0.002 A 
ATOM      3  C3  N4B d   1      -1.476   1.975   0.393  0.00  0.00     0.002 A 
ATOM      4  C4  N4B d   1      -1.905   1.296   1.523  0.00  0.00    -0.004 A 
ATOM      5  C5  N4B d   1      -1.254   0.168   1.928  0.00  0.00     0.002 A 
ATOM      6  C6  N4B d   1      -0.192  -0.338   1.207  0.00  0.00     0.002 A 
ENDROOT
BRANCH   1   7
ATOM      7  C1' N4B d   1       1.330  -0.326  -0.738  0.00  0.00     0.057 C 
BRANCH   7   8
ATOM      8  C2' N4B d   1       0.722  -1.320  -1.724  0.00  0.00     0.009 C 
BRANCH   8   9
ATOM      9  C3' N4B d   1       1.503  -2.622  -1.772  0.00  0.00     0.004 C 
ATOM     10  C4' N4B d   1       0.651  -3.796  -2.154  0.00  0.00     0.003 C 
ENDBRANCH   8   9
ENDBRANCH   7   8
ENDBRANCH   1   7
TORSDOF 3
ENDMDL
