MODEL 1
REMARK minimizedAffinity -5.67020988
REMARK minimizedRMSD -1
REMARK  3 active torsions:
REMARK  status: ('A' for Active; 'I' for Inactive)
REMARK    1  A    between atoms: C3'_2  and  C2'_3 
REMARK    2  A    between atoms: C2'_3  and  C1'_4 
REMARK    3  A    between atoms: C1'_4  and  C1_5 
ROOT
ATOM      1  C1  N4B d   1      -0.192   0.396   0.103  0.00  0.00    -0.075 A 
ATOM      2  C2  N4B d   1      -1.031   1.529   0.021  0.00  0.00     0.002 A 
ATOM      3  C3  N4B d   1      -1.925   1.795   1.030  0.00  0.00     0.002 A 
ATOM      4  C4  N4B d   1      -2.010   0.936   2.115  0.00  0.00    -0.004 A 
ATOM      5  C5  N4B d   1      -1.177  -0.142   2.198  0.00  0.00     0.002 A 
ATOM      6  C6  N4B d   1      -0.272  -0.419   1.194  0.00  0.00     0.002 A 
ENDROOT
BRANCH   1   7
ATOM      7  C1' N4B d   1       0.741   0.017  -1.015  0.00  0.00     0.057 C 
BRANCH   7   8
ATOM      8  C2' N4B d   1       0.858  -1.503  -1.076  0.00  0.00     0.009 C 
BRANCH   8   9
ATOM      9  C3' N4B d   1      -0.000  -2.095  -2.180  0.00  0.00     0.004 C 
ATOM     10  C4' N4B d   1       0.379  -3.507  -2.517  0.00  0.00     0.003 C 
ENDBRANCH   8   9
ENDBRANCH   7   8
ENDBRANCH   1   7
TORSDOF 3
ENDMDL
