MODEL 1
REMARK minimizedAffinity 1.42360544
REMARK minimizedRMSD -1
REMARK  1 active torsions:
REMARK  status: ('A' for Active; 'I' for Inactive)
REMARK    1  A    between atoms: C1_2  and  C2_3 
ROOT
ATOM      1  C2  UNL d   1       5.443   5.318  -3.531  0.00  0.00    -0.077 A 
ATOM      2  C3  UNL d   1       4.338   6.000  -4.060  0.00  0.00     0.002 A 
ATOM      3  C4  UNL d   1       3.797   5.619  -5.290  0.00  0.00     0.002 A 
ATOM      4  C5  UNL d   1       4.351   4.554  -5.997  0.00  0.00    -0.004 A 
ATOM      5  C6  UNL d   1       5.451   3.872  -5.480  0.00  0.00     0.002 A 
ATOM      6  C7  UNL d   1       5.994   4.251  -4.252  0.00  0.00     0.002 A 
ENDROOT
BRANCH   1   7
ATOM      7  C1  UNL d   1       5.998   5.695  -2.182  0.00  0.00     0.055 C 
ATOM      8  C   UNL d   1       4.932   5.607  -1.100  0.00  0.00     0.019 C 
ENDBRANCH   1   7
TORSDOF 1
ENDMDL
