MODEL 1
REMARK minimizedAffinity -1.4692142
REMARK minimizedRMSD -1
REMARK  1 active torsions:
REMARK  status: ('A' for Active; 'I' for Inactive)
REMARK    1  A    between atoms: C1_2  and  C2_3 
ROOT
ATOM      1  C2  UNL d   1       1.670  -1.807  -2.034  0.00  0.00    -0.077 A 
ATOM      2  C3  UNL d   1       0.613  -1.572  -1.144  0.00  0.00     0.002 A 
ATOM      3  C4  UNL d   1      -0.689  -1.949  -1.479  0.00  0.00     0.002 A 
ATOM      4  C5  UNL d   1      -0.945  -2.567  -2.702  0.00  0.00    -0.004 A 
ATOM      5  C6  UNL d   1       0.100  -2.803  -3.594  0.00  0.00     0.002 A 
ATOM      6  C7  UNL d   1       1.402  -2.426  -3.262  0.00  0.00     0.002 A 
ENDROOT
BRANCH   1   7
ATOM      7  C1  UNL d   1       3.082  -1.446  -1.654  0.00  0.00     0.055 C 
ATOM      8  C   UNL d   1       3.313  -1.612  -0.159  0.00  0.00     0.019 C 
ENDBRANCH   1   7
TORSDOF 1
ENDMDL
