MODEL 1
REMARK minimizedAffinity -1.48430645
REMARK minimizedRMSD -1
REMARK  1 active torsions:
REMARK  status: ('A' for Active; 'I' for Inactive)
REMARK    1  A    between atoms: C1_2  and  C2_3 
ROOT
ATOM      1  C2  UNL d   1      -0.616  -1.817  -2.444  0.00  0.00    -0.077 A 
ATOM      2  C3  UNL d   1      -1.787  -2.344  -3.008  0.00  0.00     0.002 A 
ATOM      3  C4  UNL d   1      -2.752  -2.945  -2.198  0.00  0.00     0.002 A 
ATOM      4  C5  UNL d   1      -2.559  -3.022  -0.820  0.00  0.00    -0.004 A 
ATOM      5  C6  UNL d   1      -1.397  -2.503  -0.250  0.00  0.00     0.002 A 
ATOM      6  C7  UNL d   1      -0.430  -1.902  -1.058  0.00  0.00     0.002 A 
ENDROOT
BRANCH   1   7
ATOM      7  C1  UNL d   1       0.403  -1.124  -3.310  0.00  0.00     0.055 C 
ATOM      8  C   UNL d   1       1.820  -1.519  -2.920  0.00  0.00     0.019 C 
ENDBRANCH   1   7
TORSDOF 1
ENDMDL
