MODEL 1
REMARK minimizedAffinity -1.1867373
REMARK minimizedRMSD -1
REMARK  1 active torsions:
REMARK  status: ('A' for Active; 'I' for Inactive)
REMARK    1  A    between atoms: C1_2  and  C2_3 
ROOT
ATOM      1  C2  UNL d   1       4.795   5.560  -2.975  0.00  0.00    -0.077 A 
ATOM      2  C3  UNL d   1       5.869   4.763  -3.397  0.00  0.00     0.002 A 
ATOM      3  C4  UNL d   1       5.999   4.407  -4.740  0.00  0.00     0.002 A 
ATOM      4  C5  UNL d   1       5.062   4.846  -5.673  0.00  0.00    -0.004 A 
ATOM      5  C6  UNL d   1       3.990   5.637  -5.264  0.00  0.00     0.002 A 
ATOM      6  C7  UNL d   1       3.857   5.993  -3.921  0.00  0.00     0.002 A 
ENDROOT
BRANCH   1   7
ATOM      7  C1  UNL d   1       4.680   5.986  -1.535  0.00  0.00     0.055 C 
ATOM      8  C   UNL d   1       6.000   5.811  -0.799  0.00  0.00     0.019 C 
ENDBRANCH   1   7
TORSDOF 1
ENDMDL
