MODEL 1
REMARK minimizedAffinity -0.703234017
REMARK minimizedRMSD -1
REMARK  1 active torsions:
REMARK  status: ('A' for Active; 'I' for Inactive)
REMARK    1  A    between atoms: C1_2  and  C2_3 
ROOT
ATOM      1  C2  UNL d   1       5.496   4.402  -2.684  0.00  0.00    -0.077 A 
ATOM      2  C3  UNL d   1       5.537   5.493  -3.564  0.00  0.00     0.002 A 
ATOM      3  C4  UNL d   1       5.031   5.375  -4.860  0.00  0.00     0.002 A 
ATOM      4  C5  UNL d   1       4.478   4.169  -5.286  0.00  0.00    -0.004 A 
ATOM      5  C6  UNL d   1       4.435   3.078  -4.420  0.00  0.00     0.002 A 
ATOM      6  C7  UNL d   1       4.941   3.194  -3.124  0.00  0.00     0.002 A 
ENDROOT
BRANCH   1   7
ATOM      7  C1  UNL d   1       5.996   4.543  -1.270  0.00  0.00     0.055 C 
ATOM      8  C   UNL d   1       6.000   5.999  -0.826  0.00  0.00     0.019 C 
ENDBRANCH   1   7
TORSDOF 1
ENDMDL
