MODEL 1
REMARK minimizedAffinity 4.6523962
REMARK minimizedRMSD -1
REMARK  1 active torsions:
REMARK  status: ('A' for Active; 'I' for Inactive)
REMARK    1  A    between atoms: C1_2  and  C2_3 
ROOT
ATOM      1  C2  UNL d   1       1.825  -1.775  -2.796  0.00  0.00    -0.077 A 
ATOM      2  C3  UNL d   1       1.232  -2.193  -3.996  0.00  0.00     0.002 A 
ATOM      3  C4  UNL d   1      -0.142  -2.431  -4.060  0.00  0.00     0.002 A 
ATOM      4  C5  UNL d   1      -0.935  -2.250  -2.929  0.00  0.00    -0.004 A 
ATOM      5  C6  UNL d   1      -0.355  -1.836  -1.730  0.00  0.00     0.002 A 
ATOM      6  C7  UNL d   1       1.019  -1.599  -1.665  0.00  0.00     0.002 A 
ENDROOT
BRANCH   1   7
ATOM      7  C1  UNL d   1       3.299  -1.470  -2.739  0.00  0.00     0.055 C 
ATOM      8  C   UNL d   1       3.814  -1.496  -1.307  0.00  0.00     0.019 C 
ENDBRANCH   1   7
TORSDOF 1
ENDMDL
