MODEL 1
REMARK minimizedAffinity -2.60743356
REMARK minimizedRMSD -1
REMARK  1 active torsions:
REMARK  status: ('A' for Active; 'I' for Inactive)
REMARK    1  A    between atoms: C1_2  and  C2_3 
ROOT
ATOM      1  C2  UNL d   1       5.877   4.791  -3.798  0.00  0.00    -0.077 A 
ATOM      2  C3  UNL d   1       5.968   5.995  -3.087  0.00  0.00     0.002 A 
ATOM      3  C4  UNL d   1       5.999   5.990  -1.691  0.00  0.00     0.002 A 
ATOM      4  C5  UNL d   1       5.944   4.784  -0.995  0.00  0.00    -0.004 A 
ATOM      5  C6  UNL d   1       5.851   3.581  -1.694  0.00  0.00     0.002 A 
ATOM      6  C7  UNL d   1       5.819   3.584  -3.089  0.00  0.00     0.002 A 
ENDROOT
BRANCH   1   7
ATOM      7  C1  UNL d   1       5.893   4.791  -5.305  0.00  0.00     0.055 C 
ATOM      8  C   UNL d   1       4.901   3.785  -5.869  0.00  0.00     0.019 C 
ENDBRANCH   1   7
TORSDOF 1
ENDMDL
