MODEL 1
REMARK minimizedAffinity 0.397116482
REMARK minimizedRMSD -1
REMARK  1 active torsions:
REMARK  status: ('A' for Active; 'I' for Inactive)
REMARK    1  A    between atoms: C1_2  and  C2_3 
ROOT
ATOM      1  C2  UNL d   1       3.962   5.045  -3.596  0.00  0.00    -0.077 A 
ATOM      2  C3  UNL d   1       4.292   4.034  -4.510  0.00  0.00     0.002 A 
ATOM      3  C4  UNL d   1       5.307   3.122  -4.218  0.00  0.00     0.002 A 
ATOM      4  C5  UNL d   1       5.999   3.209  -3.011  0.00  0.00    -0.004 A 
ATOM      5  C6  UNL d   1       5.680   4.212  -2.097  0.00  0.00     0.002 A 
ATOM      6  C7  UNL d   1       4.666   5.125  -2.388  0.00  0.00     0.002 A 
ENDROOT
BRANCH   1   7
ATOM      7  C1  UNL d   1       2.834   6.000  -3.888  0.00  0.00     0.055 C 
ATOM      8  C   UNL d   1       1.805   6.000  -2.767  0.00  0.00     0.019 C 
ENDBRANCH   1   7
TORSDOF 1
ENDMDL
