MODEL 1
REMARK minimizedAffinity 1.32806468
REMARK minimizedRMSD -1
REMARK  1 active torsions:
REMARK  status: ('A' for Active; 'I' for Inactive)
REMARK    1  A    between atoms: C1_2  and  C2_3 
ROOT
ATOM      1  C2  UNL d   1      -1.479  -3.053  -1.276  0.00  0.00    -0.077 A 
ATOM      2  C3  UNL d   1      -0.530  -3.132  -0.248  0.00  0.00     0.002 A 
ATOM      3  C4  UNL d   1      -0.924  -3.027   1.088  0.00  0.00     0.002 A 
ATOM      4  C5  UNL d   1      -2.269  -2.847   1.406  0.00  0.00    -0.004 A 
ATOM      5  C6  UNL d   1      -3.220  -2.766   0.391  0.00  0.00     0.002 A 
ATOM      6  C7  UNL d   1      -2.828  -2.869  -0.945  0.00  0.00     0.002 A 
ENDROOT
BRANCH   1   7
ATOM      7  C1  UNL d   1      -1.062  -3.215  -2.714  0.00  0.00     0.055 C 
ATOM      8  C   UNL d   1      -1.263  -4.646  -3.191  0.00  0.00     0.019 C 
ENDBRANCH   1   7
TORSDOF 1
ENDMDL
