MODEL 1
REMARK minimizedAffinity 4.52309418
REMARK minimizedRMSD -1
REMARK  1 active torsions:
REMARK  status: ('A' for Active; 'I' for Inactive)
REMARK    1  A    between atoms: C1_2  and  C2_3 
ROOT
ATOM      1  C2  UNL d   1      -1.032  -2.438  -0.167  0.00  0.00    -0.077 A 
ATOM      2  C3  UNL d   1      -2.268  -2.665  -0.790  0.00  0.00     0.002 A 
ATOM      3  C4  UNL d   1      -3.311  -3.275  -0.090  0.00  0.00     0.002 A 
ATOM      4  C5  UNL d   1      -3.130  -3.658   1.238  0.00  0.00    -0.004 A 
ATOM      5  C6  UNL d   1      -1.905  -3.438   1.866  0.00  0.00     0.002 A 
ATOM      6  C7  UNL d   1      -0.861  -2.830   1.167  0.00  0.00     0.002 A 
ENDROOT
BRANCH   1   7
ATOM      7  C1  UNL d   1       0.078  -1.737  -0.905  0.00  0.00     0.055 C 
ATOM      8  C   UNL d   1       0.129  -2.166  -2.364  0.00  0.00     0.019 C 
ENDBRANCH   1   7
TORSDOF 1
ENDMDL
