MODEL 1
REMARK minimizedAffinity -2.80320311
REMARK minimizedRMSD -1
REMARK  1 active torsions:
REMARK  status: ('A' for Active; 'I' for Inactive)
REMARK    1  A    between atoms: C1_2  and  C2_3 
ROOT
ATOM      1  C2  UNL d   1       5.398   4.907  -3.318  0.00  0.00    -0.077 A 
ATOM      2  C3  UNL d   1       5.959   4.273  -4.435  0.00  0.00     0.002 A 
ATOM      3  C4  UNL d   1       5.429   4.488  -5.709  0.00  0.00     0.002 A 
ATOM      4  C5  UNL d   1       4.339   5.340  -5.877  0.00  0.00    -0.004 A 
ATOM      5  C6  UNL d   1       3.774   5.974  -4.772  0.00  0.00     0.002 A 
ATOM      6  C7  UNL d   1       4.301   5.760  -3.498  0.00  0.00     0.002 A 
ENDROOT
BRANCH   1   7
ATOM      7  C1  UNL d   1       5.999   4.715  -1.950  0.00  0.00     0.055 C 
ATOM      8  C   UNL d   1       5.945   6.000  -1.136  0.00  0.00     0.019 C 
ENDBRANCH   1   7
TORSDOF 1
ENDMDL
