MODEL 1
REMARK minimizedAffinity -2.0742228
REMARK minimizedRMSD -1
REMARK  1 active torsions:
REMARK  status: ('A' for Active; 'I' for Inactive)
REMARK    1  A    between atoms: C1_2  and  C2_3 
ROOT
ATOM      1  C2  UNL d   1      -2.255  -1.171   3.617  0.00  0.00    -0.077 A 
ATOM      2  C3  UNL d   1      -2.705  -1.616   4.868  0.00  0.00     0.002 A 
ATOM      3  C4  UNL d   1      -2.605  -0.789   5.989  0.00  0.00     0.002 A 
ATOM      4  C5  UNL d   1      -2.060   0.488   5.869  0.00  0.00    -0.004 A 
ATOM      5  C6  UNL d   1      -1.608   0.938   4.629  0.00  0.00     0.002 A 
ATOM      6  C7  UNL d   1      -1.706   0.113   3.508  0.00  0.00     0.002 A 
ENDROOT
BRANCH   1   7
ATOM      7  C1  UNL d   1      -2.408  -2.042   2.397  0.00  0.00     0.055 C 
ATOM      8  C   UNL d   1      -1.078  -2.229   1.681  0.00  0.00     0.019 C 
ENDBRANCH   1   7
TORSDOF 1
ENDMDL
