MODEL 1
REMARK minimizedAffinity -2.09954643
REMARK minimizedRMSD -1
REMARK  1 active torsions:
REMARK  status: ('A' for Active; 'I' for Inactive)
REMARK    1  A    between atoms: C1_2  and  C2_3 
ROOT
ATOM      1  C2  UNL d   1       5.035   5.050  -3.555  0.00  0.00    -0.077 A 
ATOM      2  C3  UNL d   1       4.301   4.145  -2.776  0.00  0.00     0.002 A 
ATOM      3  C4  UNL d   1       4.418   4.155  -1.384  0.00  0.00     0.002 A 
ATOM      4  C5  UNL d   1       5.264   5.070  -0.761  0.00  0.00    -0.004 A 
ATOM      5  C6  UNL d   1       6.000   5.973  -1.528  0.00  0.00     0.002 A 
ATOM      6  C7  UNL d   1       5.885   5.963  -2.919  0.00  0.00     0.002 A 
ENDROOT
BRANCH   1   7
ATOM      7  C1  UNL d   1       4.873   5.074  -5.053  0.00  0.00     0.055 C 
ATOM      8  C   UNL d   1       3.740   5.998  -5.473  0.00  0.00     0.019 C 
ENDBRANCH   1   7
TORSDOF 1
ENDMDL
