MODEL 1
REMARK minimizedAffinity -1.36768651
REMARK minimizedRMSD -1
REMARK  1 active torsions:
REMARK  status: ('A' for Active; 'I' for Inactive)
REMARK    1  A    between atoms: C1_2  and  C2_3 
ROOT
ATOM      1  C2  UNL d   1      -1.031  -2.942  -1.144  0.00  0.00    -0.077 A 
ATOM      2  C3  UNL d   1      -0.357  -1.853  -1.714  0.00  0.00     0.002 A 
ATOM      3  C4  UNL d   1       0.141  -1.932  -3.016  0.00  0.00     0.002 A 
ATOM      4  C5  UNL d   1      -0.033  -3.097  -3.760  0.00  0.00    -0.004 A 
ATOM      5  C6  UNL d   1      -0.700  -4.187  -3.201  0.00  0.00     0.002 A 
ATOM      6  C7  UNL d   1      -1.197  -4.110  -1.900  0.00  0.00     0.002 A 
ENDROOT
BRANCH   1   7
ATOM      7  C1  UNL d   1      -1.611  -2.841   0.242  0.00  0.00     0.055 C 
ATOM      8  C   UNL d   1      -0.527  -2.593   1.280  0.00  0.00     0.019 C 
ENDBRANCH   1   7
TORSDOF 1
ENDMDL
