MODEL 1
REMARK minimizedAffinity 1.16346717
REMARK minimizedRMSD -1
REMARK  0 active torsions:
REMARK  status: ('A' for Active; 'I' for Inactive)
ROOT
ATOM      1  C2' OXE d   1       0.549   2.896   1.592  0.00  0.00     0.078 C 
ATOM      2  C1' OXE d   1       1.534   0.637   0.249  0.00  0.00     0.078 C 
ATOM      3  C1  OXE d   1       0.065   0.667   0.590  0.00  0.00    -0.078 A 
ATOM      4  C2  OXE d   1      -0.399   1.756   1.289  0.00  0.00    -0.078 A 
ATOM      5  C3  OXE d   1      -1.756   1.860   1.581  0.00  0.00     0.003 A 
ATOM      6  C4  OXE d   1      -2.624   0.796   1.306  0.00  0.00    -0.002 A 
ATOM      7  C5  OXE d   1      -2.164  -0.339   0.631  0.00  0.00    -0.002 A 
ATOM      8  C6  OXE d   1      -0.834  -0.401   0.229  0.00  0.00     0.003 A 
ENDROOT
TORSDOF 0
ENDMDL
