MODEL 1
REMARK minimizedAffinity -0.130837813
REMARK minimizedRMSD -1
REMARK  0 active torsions:
REMARK  status: ('A' for Active; 'I' for Inactive)
ROOT
ATOM      1  C2' OXE d   1      -1.271  -0.479   0.437  0.00  0.00     0.078 C 
ATOM      2  C1' OXE d   1      -2.155   2.134   0.957  0.00  0.00     0.078 C 
ATOM      3  C1  OXE d   1      -0.670   1.875   0.983  0.00  0.00    -0.078 A 
ATOM      4  C2  OXE d   1      -0.248   0.584   0.774  0.00  0.00    -0.078 A 
ATOM      5  C3  OXE d   1       1.114   0.301   0.733  0.00  0.00     0.003 A 
ATOM      6  C4  OXE d   1       2.053   1.289   1.056  0.00  0.00    -0.002 A 
ATOM      7  C5  OXE d   1       1.643   2.602   1.311  0.00  0.00    -0.002 A 
ATOM      8  C6  OXE d   1       0.291   2.920   1.237  0.00  0.00     0.003 A 
ENDROOT
TORSDOF 0
ENDMDL
