MODEL 1
REMARK minimizedAffinity 1.6422323
REMARK minimizedRMSD -1
REMARK  0 active torsions:
REMARK  status: ('A' for Active; 'I' for Inactive)
ROOT
ATOM      1  C2' OXE d   1      -0.489   3.281   0.717  0.00  0.00     0.078 C 
ATOM      2  C1' OXE d   1       1.278   1.099   0.672  0.00  0.00     0.078 C 
ATOM      3  C1  OXE d   1      -0.202   0.806   0.686  0.00  0.00    -0.078 A 
ATOM      4  C2  OXE d   1      -1.058   1.879   0.755  0.00  0.00    -0.078 A 
ATOM      5  C3  OXE d   1      -2.433   1.667   0.715  0.00  0.00     0.003 A 
ATOM      6  C4  OXE d   1      -2.952   0.367   0.760  0.00  0.00    -0.002 A 
ATOM      7  C5  OXE d   1      -2.096  -0.740   0.730  0.00  0.00    -0.002 A 
ATOM      8  C6  OXE d   1      -0.723  -0.538   0.650  0.00  0.00     0.003 A 
ENDROOT
TORSDOF 0
ENDMDL
