MODEL 1
REMARK minimizedAffinity 9.13645744
REMARK minimizedRMSD -1
REMARK  0 active torsions:
REMARK  status: ('A' for Active; 'I' for Inactive)
ROOT
ATOM      1  C2' OXE d   1       1.757   0.010  -0.304  0.00  0.00     0.078 C 
ATOM      2  C1' OXE d   1      -1.005   0.060   0.198  0.00  0.00     0.078 C 
ATOM      3  C1  OXE d   1      -0.148   1.102   0.872  0.00  0.00    -0.078 A 
ATOM      4  C2  OXE d   1       1.208   1.042   0.658  0.00  0.00    -0.078 A 
ATOM      5  C3  OXE d   1       2.037   2.013   1.211  0.00  0.00     0.003 A 
ATOM      6  C4  OXE d   1       1.523   2.957   2.108  0.00  0.00    -0.002 A 
ATOM      7  C5  OXE d   1       0.150   3.012   2.372  0.00  0.00    -0.002 A 
ATOM      8  C6  OXE d   1      -0.703   2.120   1.730  0.00  0.00     0.003 A 
ENDROOT
TORSDOF 0
ENDMDL
