MODEL 1
REMARK minimizedAffinity -1.11648571
REMARK minimizedRMSD -1
REMARK  0 active torsions:
REMARK  status: ('A' for Active; 'I' for Inactive)
ROOT
ATOM      1  C2' OXE d   1      -1.917   6.000  -5.993  0.00  0.00     0.078 C 
ATOM      2  C1' OXE d   1      -1.837   3.194  -5.974  0.00  0.00     0.078 C 
ATOM      3  C1  OXE d   1      -3.190   3.859  -5.978  0.00  0.00    -0.078 A 
ATOM      4  C2  OXE d   1      -3.220   5.232  -5.940  0.00  0.00    -0.078 A 
ATOM      5  C3  OXE d   1      -4.442   5.897  -5.998  0.00  0.00     0.003 A 
ATOM      6  C4  OXE d   1      -5.643   5.180  -5.939  0.00  0.00    -0.002 A 
ATOM      7  C5  OXE d   1      -5.635   3.781  -5.937  0.00  0.00    -0.002 A 
ATOM      8  C6  OXE d   1      -4.420   3.107  -5.999  0.00  0.00     0.003 A 
ENDROOT
TORSDOF 0
ENDMDL
