MODEL 1
REMARK minimizedAffinity 9.35707951
REMARK minimizedRMSD -1
REMARK  0 active torsions:
REMARK  status: ('A' for Active; 'I' for Inactive)
ROOT
ATOM      1  C2' OXE d   1      -1.956  -1.395   0.635  0.00  0.00     0.078 C 
ATOM      2  C1' OXE d   1      -4.021   0.500   0.789  0.00  0.00     0.078 C 
ATOM      3  C1  OXE d   1      -2.605   1.009   0.687  0.00  0.00    -0.078 A 
ATOM      4  C2  OXE d   1      -1.598   0.075   0.660  0.00  0.00    -0.078 A 
ATOM      5  C3  OXE d   1      -0.277   0.489   0.512  0.00  0.00     0.003 A 
ATOM      6  C4  OXE d   1       0.047   1.851   0.545  0.00  0.00    -0.002 A 
ATOM      7  C5  OXE d   1      -0.961   2.819   0.613  0.00  0.00    -0.002 A 
ATOM      8  C6  OXE d   1      -2.292   2.416   0.641  0.00  0.00     0.003 A 
ENDROOT
TORSDOF 0
ENDMDL
