MODEL 1
REMARK minimizedAffinity 9.92349815
REMARK minimizedRMSD -1
REMARK  0 active torsions:
REMARK  status: ('A' for Active; 'I' for Inactive)
ROOT
ATOM      1  C2' OXE d   1      -0.570   1.101   0.060  0.00  0.00     0.078 C 
ATOM      2  C1' OXE d   1       2.144   0.812  -0.599  0.00  0.00     0.078 C 
ATOM      3  C1  OXE d   1       1.787   1.774   0.507  0.00  0.00    -0.078 A 
ATOM      4  C2  OXE d   1       0.453   1.944   0.791  0.00  0.00    -0.078 A 
ATOM      5  C3  OXE d   1       0.073   2.778   1.839  0.00  0.00     0.003 A 
ATOM      6  C4  OXE d   1       1.025   3.561   2.503  0.00  0.00    -0.002 A 
ATOM      7  C5  OXE d   1       2.385   3.433   2.201  0.00  0.00    -0.002 A 
ATOM      8  C6  OXE d   1       2.786   2.515   1.237  0.00  0.00     0.003 A 
ENDROOT
TORSDOF 0
ENDMDL
