MODEL 1
REMARK minimizedAffinity 0.975443006
REMARK minimizedRMSD -1
REMARK  0 active torsions:
REMARK  status: ('A' for Active; 'I' for Inactive)
ROOT
ATOM      1  C2' OXE d   1       1.118   0.003   0.551  0.00  0.00     0.078 C 
ATOM      2  C1' OXE d   1      -1.225  -1.531   0.745  0.00  0.00     0.078 C 
ATOM      3  C1  OXE d   1      -1.353  -0.033   0.866  0.00  0.00    -0.078 A 
ATOM      4  C2  OXE d   1      -0.196   0.707   0.816  0.00  0.00    -0.078 A 
ATOM      5  C3  OXE d   1      -0.263   2.096   0.868  0.00  0.00     0.003 A 
ATOM      6  C4  OXE d   1      -1.480   2.738   1.123  0.00  0.00    -0.002 A 
ATOM      7  C5  OXE d   1      -2.666   2.001   1.217  0.00  0.00    -0.002 A 
ATOM      8  C6  OXE d   1      -2.625   0.621   1.048  0.00  0.00     0.003 A 
ENDROOT
TORSDOF 0
ENDMDL
