MODEL 1
REMARK minimizedAffinity 6.79602528
REMARK minimizedRMSD -1
REMARK  0 active torsions:
REMARK  status: ('A' for Active; 'I' for Inactive)
ROOT
ATOM      1  C2' OXE d   1      -2.017   2.868   3.804  0.00  0.00     0.078 C 
ATOM      2  C1' OXE d   1      -2.805   0.197   3.451  0.00  0.00     0.078 C 
ATOM      3  C1  OXE d   1      -2.246   0.929   2.257  0.00  0.00    -0.078 A 
ATOM      4  C2  OXE d   1      -1.906   2.249   2.427  0.00  0.00    -0.078 A 
ATOM      5  C3  OXE d   1      -1.335   2.956   1.373  0.00  0.00     0.003 A 
ATOM      6  C4  OXE d   1      -1.245   2.379   0.100  0.00  0.00    -0.002 A 
ATOM      7  C5  OXE d   1      -1.622   1.048  -0.105  0.00  0.00    -0.002 A 
ATOM      8  C6  OXE d   1      -2.083   0.297   0.971  0.00  0.00     0.003 A 
ENDROOT
TORSDOF 0
ENDMDL
