MODEL 1
REMARK minimizedAffinity 4.81891012
REMARK minimizedRMSD -1
REMARK  0 active torsions:
REMARK  status: ('A' for Active; 'I' for Inactive)
ROOT
ATOM      1  C2' OXE d   1       1.916   1.237   0.410  0.00  0.00     0.078 C 
ATOM      2  C1' OXE d   1      -0.168   2.985   1.103  0.00  0.00     0.078 C 
ATOM      3  C1  OXE d   1      -0.504   1.525   0.926  0.00  0.00    -0.078 A 
ATOM      4  C2  OXE d   1       0.514   0.685   0.542  0.00  0.00    -0.078 A 
ATOM      5  C3  OXE d   1       0.271  -0.680   0.418  0.00  0.00     0.003 A 
ATOM      6  C4  OXE d   1      -1.032  -1.181   0.531  0.00  0.00    -0.002 A 
ATOM      7  C5  OXE d   1      -2.090  -0.337   0.883  0.00  0.00    -0.002 A 
ATOM      8  C6  OXE d   1      -1.835   1.009   1.126  0.00  0.00     0.003 A 
ENDROOT
TORSDOF 0
ENDMDL
