MODEL 1
REMARK minimizedAffinity 3.80490947
REMARK minimizedRMSD -1
REMARK  0 active torsions:
REMARK  status: ('A' for Active; 'I' for Inactive)
ROOT
ATOM      1  C2' OXE d   1      -0.782   2.375  -5.896  0.00  0.00     0.078 C 
ATOM      2  C1' OXE d   1      -3.564   2.011  -5.983  0.00  0.00     0.078 C 
ATOM      3  C1  OXE d   1      -3.040   3.425  -5.953  0.00  0.00    -0.078 A 
ATOM      4  C2  OXE d   1      -1.679   3.593  -5.864  0.00  0.00    -0.078 A 
ATOM      5  C3  OXE d   1      -1.140   4.876  -5.889  0.00  0.00     0.003 A 
ATOM      6  C4  OXE d   1      -1.977   5.998  -5.849  0.00  0.00    -0.002 A 
ATOM      7  C5  OXE d   1      -3.367   5.848  -5.899  0.00  0.00    -0.002 A 
ATOM      8  C6  OXE d   1      -3.912   4.573  -5.995  0.00  0.00     0.003 A 
ENDROOT
TORSDOF 0
ENDMDL
