MODEL 1
REMARK minimizedAffinity 5.26430464
REMARK minimizedRMSD -1
REMARK  0 active torsions:
REMARK  status: ('A' for Active; 'I' for Inactive)
ROOT
ATOM      1  C2' OXE d   1      -3.664   5.976  -5.999  0.00  0.00     0.078 C 
ATOM      2  C1' OXE d   1      -4.535   3.308  -6.000  0.00  0.00     0.078 C 
ATOM      3  C1  OXE d   1      -3.260   3.631  -5.262  0.00  0.00    -0.078 A 
ATOM      4  C2  OXE d   1      -2.816   4.931  -5.306  0.00  0.00    -0.078 A 
ATOM      5  C3  OXE d   1      -1.675   5.294  -4.596  0.00  0.00     0.003 A 
ATOM      6  C4  OXE d   1      -0.892   4.320  -3.966  0.00  0.00    -0.002 A 
ATOM      7  C5  OXE d   1      -1.305   2.983  -3.943  0.00  0.00    -0.002 A 
ATOM      8  C6  OXE d   1      -2.506   2.631  -4.548  0.00  0.00     0.003 A 
ENDROOT
TORSDOF 0
ENDMDL
