MODEL 1
REMARK minimizedAffinity -1.95511711
REMARK minimizedRMSD -1
REMARK  0 active torsions:
REMARK  status: ('A' for Active; 'I' for Inactive)
ROOT
ATOM      1  C2' OXE d   1      -2.314   1.109   0.698  0.00  0.00     0.078 C 
ATOM      2  C1' OXE d   1      -0.157  -0.677   0.518  0.00  0.00     0.078 C 
ATOM      3  C1  OXE d   1       0.137   0.739   0.945  0.00  0.00    -0.078 A 
ATOM      4  C2  OXE d   1      -0.918   1.619   0.985  0.00  0.00    -0.078 A 
ATOM      5  C3  OXE d   1      -0.712   2.923   1.425  0.00  0.00     0.003 A 
ATOM      6  C4  OXE d   1       0.584   3.389   1.678  0.00  0.00    -0.002 A 
ATOM      7  C5  OXE d   1       1.678   2.520   1.604  0.00  0.00    -0.002 A 
ATOM      8  C6  OXE d   1       1.466   1.185   1.281  0.00  0.00     0.003 A 
ENDROOT
TORSDOF 0
ENDMDL
