MODEL 1
REMARK minimizedAffinity 0.574421406
REMARK minimizedRMSD -1
REMARK  0 active torsions:
REMARK  status: ('A' for Active; 'I' for Inactive)
ROOT
ATOM      1  C2' OXE d   1       2.332   2.334   1.893  0.00  0.00     0.078 C 
ATOM      2  C1' OXE d   1       1.953  -0.104   0.555  0.00  0.00     0.078 C 
ATOM      3  C1  OXE d   1       0.750   0.784   0.754  0.00  0.00    -0.078 A 
ATOM      4  C2  OXE d   1       0.936   1.953   1.451  0.00  0.00    -0.078 A 
ATOM      5  C3  OXE d   1      -0.129   2.835   1.615  0.00  0.00     0.003 A 
ATOM      6  C4  OXE d   1      -1.419   2.470   1.211  0.00  0.00    -0.002 A 
ATOM      7  C5  OXE d   1      -1.638   1.266   0.534  0.00  0.00    -0.002 A 
ATOM      8  C6  OXE d   1      -0.559   0.432   0.260  0.00  0.00     0.003 A 
ENDROOT
TORSDOF 0
ENDMDL
