MODEL 1
REMARK minimizedAffinity 6.5128684
REMARK minimizedRMSD -1
REMARK  0 active torsions:
REMARK  status: ('A' for Active; 'I' for Inactive)
ROOT
ATOM      1  C2' OXE d   1       1.584   2.497   1.985  0.00  0.00     0.078 C 
ATOM      2  C1' OXE d   1       1.606  -0.006   0.715  0.00  0.00     0.078 C 
ATOM      3  C1  OXE d   1       0.280   0.699   0.857  0.00  0.00    -0.078 A 
ATOM      4  C2  OXE d   1       0.272   1.902   1.521  0.00  0.00    -0.078 A 
ATOM      5  C3  OXE d   1      -0.916   2.620   1.632  0.00  0.00     0.003 A 
ATOM      6  C4  OXE d   1      -2.126   2.058   1.209  0.00  0.00    -0.002 A 
ATOM      7  C5  OXE d   1      -2.146   0.816   0.565  0.00  0.00    -0.002 A 
ATOM      8  C6  OXE d   1      -0.948   0.144   0.344  0.00  0.00     0.003 A 
ENDROOT
TORSDOF 0
ENDMDL
