MODEL 1
REMARK minimizedAffinity 7.18575191
REMARK minimizedRMSD -1
REMARK  0 active torsions:
REMARK  status: ('A' for Active; 'I' for Inactive)
ROOT
ATOM      1  C2' OXE d   1       2.185  -0.439   0.255  0.00  0.00     0.078 C 
ATOM      2  C1' OXE d   1       2.462   1.948   1.706  0.00  0.00     0.078 C 
ATOM      3  C1  OXE d   1       1.074   1.544   1.274  0.00  0.00    -0.078 A 
ATOM      4  C2  OXE d   1       0.954   0.399   0.524  0.00  0.00    -0.078 A 
ATOM      5  C3  OXE d   1      -0.309  -0.047   0.146  0.00  0.00     0.003 A 
ATOM      6  C4  OXE d   1      -1.442   0.739   0.391  0.00  0.00    -0.002 A 
ATOM      7  C5  OXE d   1      -1.336   1.929   1.119  0.00  0.00    -0.002 A 
ATOM      8  C6  OXE d   1      -0.094   2.323   1.603  0.00  0.00     0.003 A 
ENDROOT
TORSDOF 0
ENDMDL
