MODEL 1
REMARK minimizedAffinity 3.39739609
REMARK minimizedRMSD -1
REMARK  0 active torsions:
REMARK  status: ('A' for Active; 'I' for Inactive)
ROOT
ATOM      1  C2' OXE d   1       2.694   3.203   2.757  0.00  0.00     0.078 C 
ATOM      2  C1' OXE d   1       5.325   3.123   1.781  0.00  0.00     0.078 C 
ATOM      3  C1  OXE d   1       4.254   2.431   0.975  0.00  0.00    -0.078 A 
ATOM      4  C2  OXE d   1       2.978   2.436   1.484  0.00  0.00    -0.078 A 
ATOM      5  C3  OXE d   1       1.943   1.859   0.753  0.00  0.00     0.003 A 
ATOM      6  C4  OXE d   1       2.215   1.143  -0.419  0.00  0.00    -0.002 A 
ATOM      7  C5  OXE d   1       3.515   1.092  -0.933  0.00  0.00    -0.002 A 
ATOM      8  C6  OXE d   1       4.536   1.766  -0.273  0.00  0.00     0.003 A 
ENDROOT
TORSDOF 0
ENDMDL
