MODEL 1
REMARK minimizedAffinity 0.629196525
REMARK minimizedRMSD -1
REMARK  0 active torsions:
REMARK  status: ('A' for Active; 'I' for Inactive)
ROOT
ATOM      1  C2' OXE d   1      -1.071  -1.179   0.748  0.00  0.00     0.078 C 
ATOM      2  C1' OXE d   1      -2.907   0.922   1.059  0.00  0.00     0.078 C 
ATOM      3  C1  OXE d   1      -1.440   1.270   1.023  0.00  0.00    -0.078 A 
ATOM      4  C2  OXE d   1      -0.546   0.231   0.918  0.00  0.00    -0.078 A 
ATOM      5  C3  OXE d   1       0.816   0.500   0.825  0.00  0.00     0.003 A 
ATOM      6  C4  OXE d   1       1.294   1.806   0.993  0.00  0.00    -0.002 A 
ATOM      7  C5  OXE d   1       0.403   2.874   1.141  0.00  0.00    -0.002 A 
ATOM      8  C6  OXE d   1      -0.966   2.628   1.116  0.00  0.00     0.003 A 
ENDROOT
TORSDOF 0
ENDMDL
