MODEL 1
REMARK minimizedAffinity 7.01062632
REMARK minimizedRMSD -1
REMARK  0 active torsions:
REMARK  status: ('A' for Active; 'I' for Inactive)
ROOT
ATOM      1  C2' OXE d   1      -0.502   3.120   0.722  0.00  0.00     0.078 C 
ATOM      2  C1' OXE d   1       1.314   1.080   0.071  0.00  0.00     0.078 C 
ATOM      3  C1  OXE d   1      -0.120   0.690   0.329  0.00  0.00    -0.078 A 
ATOM      4  C2  OXE d   1      -0.992   1.688   0.692  0.00  0.00    -0.078 A 
ATOM      5  C3  OXE d   1      -2.337   1.391   0.888  0.00  0.00     0.003 A 
ATOM      6  C4  OXE d   1      -2.780   0.063   0.869  0.00  0.00    -0.002 A 
ATOM      7  C5  OXE d   1      -1.900  -0.974   0.540  0.00  0.00    -0.002 A 
ATOM      8  C6  OXE d   1      -0.580  -0.673   0.226  0.00  0.00     0.003 A 
ENDROOT
TORSDOF 0
ENDMDL
