MODEL 1
REMARK minimizedAffinity -4.86857986
REMARK minimizedRMSD -1
REMARK  1 active torsions:
REMARK  status: ('A' for Active; 'I' for Inactive)
REMARK    1  A    between atoms: C3_4  and  O_7 
ROOT
ATOM      1  C   UNL d   1       1.430  -4.611   1.230  0.00  0.00    -0.033 A 
ATOM      2  C1  UNL d   1       0.787  -3.419   0.891  0.00  0.00     0.039 A 
ATOM      3  C2  UNL d   1       0.723  -2.371   1.812  0.00  0.00    -0.080 A 
ATOM      4  C3  UNL d   1       1.306  -2.528   3.066  0.00  0.00     0.150 A 
ATOM      5  C4  UNL d   1       1.951  -3.712   3.410  0.00  0.00    -0.007 A 
ATOM      6  C5  UNL d   1       2.013  -4.757   2.489  0.00  0.00     0.039 A 
ENDROOT
BRANCH   4   7
ATOM      7  O   UNL d   1       1.265  -1.535   4.000  0.00  0.00    -0.526 OA
ATOM      8  H5  UNL d   1       0.763  -0.789   3.633  0.00  0.00     0.418 HD
ENDBRANCH   4   7
TORSDOF 1
ENDMDL
