MODEL 1
REMARK minimizedAffinity 3.00132346
REMARK minimizedRMSD -1
REMARK  1 active torsions:
REMARK  status: ('A' for Active; 'I' for Inactive)
REMARK    1  A    between atoms: C3_4  and  O_7 
ROOT
ATOM      1  C   UNL d   1       2.517  -4.681   4.501  0.00  0.00    -0.033 A 
ATOM      2  C1  UNL d   1       1.368  -4.547   3.720  0.00  0.00     0.039 A 
ATOM      3  C2  UNL d   1       1.107  -3.344   3.060  0.00  0.00    -0.080 A 
ATOM      4  C3  UNL d   1       2.003  -2.287   3.187  0.00  0.00     0.150 A 
ATOM      5  C4  UNL d   1       3.152  -2.415   3.961  0.00  0.00    -0.007 A 
ATOM      6  C5  UNL d   1       3.410  -3.616   4.621  0.00  0.00     0.039 A 
ENDROOT
BRANCH   4   7
ATOM      7  O   UNL d   1       1.789  -1.092   2.566  0.00  0.00    -0.526 OA
ATOM      8  H5  UNL d   1       0.943  -1.140   2.090  0.00  0.00     0.418 HD
ENDBRANCH   4   7
TORSDOF 1
ENDMDL
