MODEL 1
REMARK minimizedAffinity 2.38349581
REMARK minimizedRMSD -1
REMARK  1 active torsions:
REMARK  status: ('A' for Active; 'I' for Inactive)
REMARK    1  A    between atoms: C3_4  and  O_7 
ROOT
ATOM      1  C   UNL d   1       2.748  -3.653   3.658  0.00  0.00    -0.033 A 
ATOM      2  C1  UNL d   1       2.424  -2.311   3.869  0.00  0.00     0.039 A 
ATOM      3  C2  UNL d   1       1.499  -1.676   3.039  0.00  0.00    -0.080 A 
ATOM      4  C3  UNL d   1       0.904  -2.392   2.004  0.00  0.00     0.150 A 
ATOM      5  C4  UNL d   1       1.219  -3.730   1.791  0.00  0.00    -0.007 A 
ATOM      6  C5  UNL d   1       2.145  -4.363   2.620  0.00  0.00     0.039 A 
ENDROOT
BRANCH   4   7
ATOM      7  O   UNL d   1      -0.002  -1.814   1.165  0.00  0.00    -0.526 OA
ATOM      8  H5  UNL d   1      -0.099  -0.880   1.414  0.00  0.00     0.418 HD
ENDBRANCH   4   7
TORSDOF 1
ENDMDL
