MODEL 1
REMARK minimizedAffinity 5.55308199
REMARK minimizedRMSD -1
REMARK  1 active torsions:
REMARK  status: ('A' for Active; 'I' for Inactive)
REMARK    1  A    between atoms: C3_4  and  O_7 
ROOT
ATOM      1  C   UNL d   1       3.021   2.643   1.668  0.00  0.00    -0.033 A 
ATOM      2  C1  UNL d   1       2.461   2.449   2.933  0.00  0.00     0.039 A 
ATOM      3  C2  UNL d   1       1.982   1.190   3.300  0.00  0.00    -0.080 A 
ATOM      4  C3  UNL d   1       2.068   0.135   2.396  0.00  0.00     0.150 A 
ATOM      5  C4  UNL d   1       2.628   0.320   1.136  0.00  0.00    -0.007 A 
ATOM      6  C5  UNL d   1       3.105   1.578   0.771  0.00  0.00     0.039 A 
ENDROOT
BRANCH   4   7
ATOM      7  O   UNL d   1       1.609  -1.110   2.708  0.00  0.00    -0.526 OA
ATOM      8  H5  UNL d   1       1.223  -1.081   3.599  0.00  0.00     0.418 HD
ENDBRANCH   4   7
TORSDOF 1
ENDMDL
