MODEL 1
REMARK minimizedAffinity 8.67641163
REMARK minimizedRMSD -1
REMARK  1 active torsions:
REMARK  status: ('A' for Active; 'I' for Inactive)
REMARK    1  A    between atoms: C3_4  and  O_7 
ROOT
ATOM      1  C   UNL d   1      -5.740   2.034  -0.739  0.00  0.00    -0.033 A 
ATOM      2  C1  UNL d   1      -4.424   2.278  -0.339  0.00  0.00     0.039 A 
ATOM      3  C2  UNL d   1      -3.366   1.992  -1.204  0.00  0.00    -0.080 A 
ATOM      4  C3  UNL d   1      -3.636   1.464  -2.463  0.00  0.00     0.150 A 
ATOM      5  C4  UNL d   1      -4.944   1.221  -2.869  0.00  0.00    -0.007 A 
ATOM      6  C5  UNL d   1      -6.000   1.507  -2.004  0.00  0.00     0.039 A 
ENDROOT
BRANCH   4   7
ATOM      7  O   UNL d   1      -2.636   1.164  -3.340  0.00  0.00    -0.526 OA
ATOM      8  H5  UNL d   1      -1.785   1.357  -2.913  0.00  0.00     0.418 HD
ENDBRANCH   4   7
TORSDOF 1
ENDMDL
