MODEL 1
REMARK minimizedAffinity 1.67092371
REMARK minimizedRMSD -1
REMARK  1 active torsions:
REMARK  status: ('A' for Active; 'I' for Inactive)
REMARK    1  A    between atoms: C3_4  and  O_7 
ROOT
ATOM      1  C   UNL d   1      -1.547  -3.038  -0.551  0.00  0.00    -0.033 A 
ATOM      2  C1  UNL d   1      -0.796  -1.907  -0.879  0.00  0.00     0.039 A 
ATOM      3  C2  UNL d   1      -1.293  -0.980  -1.797  0.00  0.00    -0.080 A 
ATOM      4  C3  UNL d   1      -2.540  -1.195  -2.378  0.00  0.00     0.150 A 
ATOM      5  C4  UNL d   1      -3.294  -2.317  -2.053  0.00  0.00    -0.007 A 
ATOM      6  C5  UNL d   1      -2.796  -3.242  -1.136  0.00  0.00     0.039 A 
ENDROOT
BRANCH   4   7
ATOM      7  O   UNL d   1      -3.064  -0.320  -3.284  0.00  0.00    -0.526 OA
ATOM      8  H5  UNL d   1      -2.420   0.392  -3.432  0.00  0.00     0.418 HD
ENDBRANCH   4   7
TORSDOF 1
ENDMDL
