MODEL 1
REMARK minimizedAffinity 7.6222806
REMARK minimizedRMSD -1
REMARK  1 active torsions:
REMARK  status: ('A' for Active; 'I' for Inactive)
REMARK    1  A    between atoms: C3_4  and  O_7 
ROOT
ATOM      1  C   UNL d   1      -5.970   3.380   1.124  0.00  0.00    -0.033 A 
ATOM      2  C1  UNL d   1      -4.765   2.998   1.716  0.00  0.00     0.039 A 
ATOM      3  C2  UNL d   1      -3.587   2.991   0.966  0.00  0.00    -0.080 A 
ATOM      4  C3  UNL d   1      -3.629   3.368  -0.374  0.00  0.00     0.150 A 
ATOM      5  C4  UNL d   1      -4.825   3.753  -0.969  0.00  0.00    -0.007 A 
ATOM      6  C5  UNL d   1      -6.000   3.759  -0.218  0.00  0.00     0.039 A 
ENDROOT
BRANCH   4   7
ATOM      7  O   UNL d   1      -2.506   3.372  -1.148  0.00  0.00    -0.526 OA
ATOM      8  H5  UNL d   1      -1.761   3.055  -0.611  0.00  0.00     0.418 HD
ENDBRANCH   4   7
TORSDOF 1
ENDMDL
