MODEL 1
REMARK minimizedAffinity 4.65010881
REMARK minimizedRMSD -1
REMARK  1 active torsions:
REMARK  status: ('A' for Active; 'I' for Inactive)
REMARK    1  A    between atoms: C3_4  and  O_7 
ROOT
ATOM      1  C   UNL d   1       1.165  -1.347   3.631  0.00  0.00    -0.033 A 
ATOM      2  C1  UNL d   1       2.174  -1.094   2.699  0.00  0.00     0.039 A 
ATOM      3  C2  UNL d   1       3.500  -1.410   3.000  0.00  0.00    -0.080 A 
ATOM      4  C3  UNL d   1       3.804  -1.980   4.234  0.00  0.00     0.150 A 
ATOM      5  C4  UNL d   1       2.803  -2.239   5.165  0.00  0.00    -0.007 A 
ATOM      6  C5  UNL d   1       1.480  -1.921   4.863  0.00  0.00     0.039 A 
ENDROOT
BRANCH   4   7
ATOM      7  O   UNL d   1       5.084  -2.302   4.574  0.00  0.00    -0.526 OA
ATOM      8  H5  UNL d   1       5.671  -2.040   3.845  0.00  0.00     0.418 HD
ENDBRANCH   4   7
TORSDOF 1
ENDMDL
