MODEL 1
REMARK minimizedAffinity 8.20996094
REMARK minimizedRMSD -1
REMARK  1 active torsions:
REMARK  status: ('A' for Active; 'I' for Inactive)
REMARK    1  A    between atoms: C3_4  and  O_7 
ROOT
ATOM      1  C   UNL d   1      -3.257   1.553  -2.510  0.00  0.00    -0.033 A 
ATOM      2  C1  UNL d   1      -2.306   0.583  -2.185  0.00  0.00     0.039 A 
ATOM      3  C2  UNL d   1      -2.439  -0.718  -2.673  0.00  0.00    -0.080 A 
ATOM      4  C3  UNL d   1      -3.525  -1.037  -3.484  0.00  0.00     0.150 A 
ATOM      5  C4  UNL d   1      -4.474  -0.075  -3.814  0.00  0.00    -0.007 A 
ATOM      6  C5  UNL d   1      -4.341   1.224  -3.325  0.00  0.00     0.039 A 
ENDROOT
BRANCH   4   7
ATOM      7  O   UNL d   1      -3.700  -2.295  -3.980  0.00  0.00    -0.526 OA
ATOM      8  H5  UNL d   1      -2.983  -2.859  -3.645  0.00  0.00     0.418 HD
ENDBRANCH   4   7
TORSDOF 1
ENDMDL
