MODEL 1
REMARK minimizedAffinity 2.75983334
REMARK minimizedRMSD -1
REMARK  1 active torsions:
REMARK  status: ('A' for Active; 'I' for Inactive)
REMARK    1  A    between atoms: C1_2  and  C2_3 
ROOT
ATOM      1  C2  UNL d   1       0.579   0.426   0.656  0.00  0.00    -0.076 A 
ATOM      2  C3  UNL d   1       0.631   1.421  -0.336  0.00  0.00     0.004 A 
ATOM      3  C4  UNL d   1       1.746   2.246  -0.467  0.00  0.00    -0.003 A 
ATOM      4  C5  UNL d   1       2.829   2.090   0.391  0.00  0.00     0.000 A 
ATOM      5  C6  UNL d   1       2.802   1.096   1.369  0.00  0.00     0.000 A 
ATOM      6  C7  UNL d   1       1.692   0.245   1.504  0.00  0.00    -0.073 A 
ATOM      7  C8  UNL d   1       1.715  -0.805   2.581  0.00  0.00     0.078 C 
ENDROOT
BRANCH   1   8
ATOM      8  C1  UNL d   1      -0.668  -0.421   0.768  0.00  0.00     0.053 C 
ATOM      9  C   UNL d   1      -0.370  -1.910   0.688  0.00  0.00     0.018 C 
ENDBRANCH   1   8
TORSDOF 1
ENDMDL
