MODEL 1
REMARK minimizedAffinity 6.8387928
REMARK minimizedRMSD -1
REMARK  1 active torsions:
REMARK  status: ('A' for Active; 'I' for Inactive)
REMARK    1  A    between atoms: C1_2  and  C2_3 
ROOT
ATOM      1  C2  UNL d   1       1.366   0.557   1.156  0.00  0.00    -0.076 A 
ATOM      2  C3  UNL d   1       0.720   1.627   0.514  0.00  0.00     0.004 A 
ATOM      3  C4  UNL d   1       1.452   2.645  -0.096  0.00  0.00    -0.003 A 
ATOM      4  C5  UNL d   1       2.842   2.607  -0.076  0.00  0.00     0.000 A 
ATOM      5  C6  UNL d   1       3.499   1.543   0.541  0.00  0.00     0.000 A 
ATOM      6  C7  UNL d   1       2.777   0.501   1.147  0.00  0.00    -0.073 A 
ATOM      7  C8  UNL d   1       3.537  -0.618   1.803  0.00  0.00     0.078 C 
ENDROOT
BRANCH   1   8
ATOM      8  C1  UNL d   1       0.521  -0.504   1.824  0.00  0.00     0.053 C 
ATOM      9  C   UNL d   1       0.479  -1.801   1.032  0.00  0.00     0.018 C 
ENDBRANCH   1   8
TORSDOF 1
ENDMDL
