MODEL 1
REMARK minimizedAffinity 2.55761027
REMARK minimizedRMSD -1
REMARK  1 active torsions:
REMARK  status: ('A' for Active; 'I' for Inactive)
REMARK    1  A    between atoms: C1_2  and  C2_3 
ROOT
ATOM      1  C2  UNL d   1       2.339   1.732   1.524  0.00  0.00    -0.076 A 
ATOM      2  C3  UNL d   1       2.981   0.534   1.883  0.00  0.00     0.004 A 
ATOM      3  C4  UNL d   1       3.746  -0.175   0.958  0.00  0.00    -0.003 A 
ATOM      4  C5  UNL d   1       3.881   0.303  -0.341  0.00  0.00     0.000 A 
ATOM      5  C6  UNL d   1       3.265   1.499  -0.709  0.00  0.00     0.000 A 
ATOM      6  C7  UNL d   1       2.504   2.234   0.216  0.00  0.00    -0.073 A 
ATOM      7  C8  UNL d   1       1.857   3.514  -0.237  0.00  0.00     0.078 C 
ENDROOT
BRANCH   1   8
ATOM      8  C1  UNL d   1       1.500   2.442   2.562  0.00  0.00     0.053 C 
ATOM      9  C   UNL d   1       2.155   2.450   3.935  0.00  0.00     0.018 C 
ENDBRANCH   1   8
TORSDOF 1
ENDMDL
