MODEL 1
REMARK minimizedAffinity 9.21132469
REMARK minimizedRMSD -1
REMARK  1 active torsions:
REMARK  status: ('A' for Active; 'I' for Inactive)
REMARK    1  A    between atoms: C1_2  and  C2_3 
ROOT
ATOM      1  C2  UNL d   1      -0.976  -2.388  -1.323  0.00  0.00    -0.076 A 
ATOM      2  C3  UNL d   1      -1.635  -2.228  -0.091  0.00  0.00     0.004 A 
ATOM      3  C4  UNL d   1      -0.973  -2.463   1.113  0.00  0.00    -0.003 A 
ATOM      4  C5  UNL d   1       0.359  -2.861   1.105  0.00  0.00     0.000 A 
ATOM      5  C6  UNL d   1       1.034  -3.007  -0.106  0.00  0.00     0.000 A 
ATOM      6  C7  UNL d   1       0.386  -2.759  -1.329  0.00  0.00    -0.073 A 
ATOM      7  C8  UNL d   1       1.160  -2.939  -2.606  0.00  0.00     0.078 C 
ENDROOT
BRANCH   1   8
ATOM      8  C1  UNL d   1      -1.753  -2.146  -2.597  0.00  0.00     0.053 C 
ATOM      9  C   UNL d   1      -3.091  -2.869  -2.610  0.00  0.00     0.018 C 
ENDBRANCH   1   8
TORSDOF 1
ENDMDL
