MODEL 1
REMARK minimizedAffinity 3.33341098
REMARK minimizedRMSD -1
REMARK  1 active torsions:
REMARK  status: ('A' for Active; 'I' for Inactive)
REMARK    1  A    between atoms: C1_2  and  C2_3 
ROOT
ATOM      1  C2  UNL d   1       2.865  -2.076   2.852  0.00  0.00    -0.076 A 
ATOM      2  C3  UNL d   1       1.688  -2.278   3.593  0.00  0.00     0.004 A 
ATOM      3  C4  UNL d   1       1.696  -3.048   4.755  0.00  0.00    -0.003 A 
ATOM      4  C5  UNL d   1       2.881  -3.628   5.195  0.00  0.00     0.000 A 
ATOM      5  C6  UNL d   1       4.061  -3.423   4.481  0.00  0.00     0.000 A 
ATOM      6  C7  UNL d   1       4.074  -2.636   3.317  0.00  0.00    -0.073 A 
ATOM      7  C8  UNL d   1       5.375  -2.454   2.583  0.00  0.00     0.078 C 
ENDROOT
BRANCH   1   8
ATOM      8  C1  UNL d   1       2.791  -1.254   1.585  0.00  0.00     0.053 C 
ATOM      9  C   UNL d   1       1.532  -0.403   1.516  0.00  0.00     0.018 C 
ENDBRANCH   1   8
TORSDOF 1
ENDMDL
