MODEL 1
REMARK minimizedAffinity -3.87584805
REMARK minimizedRMSD -1
REMARK  1 active torsions:
REMARK  status: ('A' for Active; 'I' for Inactive)
REMARK    1  A    between atoms: C1_2  and  C2_3 
ROOT
ATOM      1  C2  UNL d   1       1.663  -0.044   2.663  0.00  0.00    -0.076 A 
ATOM      2  C3  UNL d   1       1.192  -1.346   2.905  0.00  0.00     0.004 A 
ATOM      3  C4  UNL d   1       1.129  -1.858   4.200  0.00  0.00    -0.003 A 
ATOM      4  C5  UNL d   1       1.535  -1.075   5.275  0.00  0.00     0.000 A 
ATOM      5  C6  UNL d   1       1.989   0.226   5.055  0.00  0.00     0.000 A 
ATOM      6  C7  UNL d   1       2.044   0.762   3.757  0.00  0.00    -0.073 A 
ATOM      7  C8  UNL d   1       2.547   2.168   3.578  0.00  0.00     0.078 C 
ENDROOT
BRANCH   1   8
ATOM      8  C1  UNL d   1       1.735   0.446   1.235  0.00  0.00     0.053 C 
ATOM      9  C   UNL d   1       0.414   0.288   0.497  0.00  0.00     0.018 C 
ENDBRANCH   1   8
TORSDOF 1
ENDMDL
