MODEL 1
REMARK minimizedAffinity 5.29975653
REMARK minimizedRMSD -1
REMARK  1 active torsions:
REMARK  status: ('A' for Active; 'I' for Inactive)
REMARK    1  A    between atoms: C3_4  and  O_7 
ROOT
ATOM      1  C   UNL d   1      -2.362   3.189  -2.595  0.00  0.00    -0.033 A 
ATOM      2  C1  UNL d   1      -2.549   4.473  -3.111  0.00  0.00     0.039 A 
ATOM      3  C2  UNL d   1      -1.448   5.244  -3.488  0.00  0.00    -0.080 A 
ATOM      4  C3  UNL d   1      -0.166   4.719  -3.345  0.00  0.00     0.150 A 
ATOM      5  C4  UNL d   1       0.028   3.440  -2.836  0.00  0.00    -0.007 A 
ATOM      6  C5  UNL d   1      -1.073   2.672  -2.458  0.00  0.00     0.039 A 
ENDROOT
BRANCH   4   7
ATOM      7  O   UNL d   1       0.940   5.435  -3.695  0.00  0.00    -0.526 OA
ATOM      8  H5  UNL d   1       0.654   6.311  -4.005  0.00  0.00     0.418 HD
ENDBRANCH   4   7
TORSDOF 1
ENDMDL
