MODEL 1
REMARK minimizedAffinity -0.0102168741
REMARK minimizedRMSD -1
REMARK  1 active torsions:
REMARK  status: ('A' for Active; 'I' for Inactive)
REMARK    1  A    between atoms: C3_4  and  O_7 
ROOT
ATOM      1  C   UNL d   1      -2.637   2.457  -2.463  0.00  0.00    -0.033 A 
ATOM      2  C1  UNL d   1      -2.557   3.744  -2.998  0.00  0.00     0.039 A 
ATOM      3  C2  UNL d   1      -1.312   4.340  -3.205  0.00  0.00    -0.080 A 
ATOM      4  C3  UNL d   1      -0.155   3.639  -2.875  0.00  0.00     0.150 A 
ATOM      5  C4  UNL d   1      -0.227   2.355  -2.346  0.00  0.00    -0.007 A 
ATOM      6  C5  UNL d   1      -1.472   1.762  -2.138  0.00  0.00     0.039 A 
ENDROOT
BRANCH   4   7
ATOM      7  O   UNL d   1       1.082   4.182  -3.055  0.00  0.00    -0.526 OA
ATOM      8  H5  UNL d   1       0.976   5.084  -3.401  0.00  0.00     0.418 HD
ENDBRANCH   4   7
TORSDOF 1
ENDMDL
