MODEL 1
REMARK minimizedAffinity 4.17269707
REMARK minimizedRMSD -1
REMARK  1 active torsions:
REMARK  status: ('A' for Active; 'I' for Inactive)
REMARK    1  A    between atoms: C3_4  and  O_7 
ROOT
ATOM      1  C   UNL d   1       2.164   0.567  -2.536  0.00  0.00    -0.033 A 
ATOM      2  C1  UNL d   1       1.969   1.292  -3.714  0.00  0.00     0.039 A 
ATOM      3  C2  UNL d   1       0.880   2.158  -3.829  0.00  0.00    -0.080 A 
ATOM      4  C3  UNL d   1      -0.003   2.292  -2.761  0.00  0.00     0.150 A 
ATOM      5  C4  UNL d   1       0.188   1.576  -1.584  0.00  0.00    -0.007 A 
ATOM      6  C5  UNL d   1       1.275   0.710  -1.471  0.00  0.00     0.039 A 
ENDROOT
BRANCH   4   7
ATOM      7  O   UNL d   1      -1.083   3.122  -2.829  0.00  0.00    -0.526 OA
ATOM      8  H5  UNL d   1      -1.103   3.529  -3.711  0.00  0.00     0.418 HD
ENDBRANCH   4   7
TORSDOF 1
ENDMDL
