MODEL 1
REMARK minimizedAffinity 1.52800465
REMARK minimizedRMSD -1
REMARK  1 active torsions:
REMARK  status: ('A' for Active; 'I' for Inactive)
REMARK    1  A    between atoms: C3_4  and  O_7 
ROOT
ATOM      1  C   UNL d   1       5.998  -1.534  -4.321  0.00  0.00    -0.033 A 
ATOM      2  C1  UNL d   1       5.997  -0.768  -5.489  0.00  0.00     0.039 A 
ATOM      3  C2  UNL d   1       5.994   0.626  -5.411  0.00  0.00    -0.080 A 
ATOM      4  C3  UNL d   1       5.992   1.241  -4.162  0.00  0.00     0.150 A 
ATOM      5  C4  UNL d   1       5.996   0.484  -2.995  0.00  0.00    -0.007 A 
ATOM      6  C5  UNL d   1       5.999  -0.908  -3.074  0.00  0.00     0.039 A 
ENDROOT
BRANCH   4   7
ATOM      7  O   UNL d   1       5.983   2.598  -4.036  0.00  0.00    -0.526 OA
ATOM      8  H5  UNL d   1       5.952   2.990  -4.925  0.00  0.00     0.418 HD
ENDBRANCH   4   7
TORSDOF 1
ENDMDL
