MODEL 1
REMARK minimizedAffinity 0.428984046
REMARK minimizedRMSD -1
REMARK  1 active torsions:
REMARK  status: ('A' for Active; 'I' for Inactive)
REMARK    1  A    between atoms: C3_4  and  O_7 
ROOT
ATOM      1  C   UNL d   1       5.911  -1.072  -4.812  0.00  0.00    -0.033 A 
ATOM      2  C1  UNL d   1       5.823  -0.146  -5.853  0.00  0.00     0.039 A 
ATOM      3  C2  UNL d   1       5.818   1.222  -5.574  0.00  0.00    -0.080 A 
ATOM      4  C3  UNL d   1       5.902   1.650  -4.252  0.00  0.00     0.150 A 
ATOM      5  C4  UNL d   1       5.994   0.733  -3.210  0.00  0.00    -0.007 A 
ATOM      6  C5  UNL d   1       5.998  -0.633  -3.491  0.00  0.00     0.039 A 
ENDROOT
BRANCH   4   7
ATOM      7  O   UNL d   1       5.895   2.975  -3.930  0.00  0.00    -0.526 OA
ATOM      8  H5  UNL d   1       5.798   3.490  -4.748  0.00  0.00     0.418 HD
ENDBRANCH   4   7
TORSDOF 1
ENDMDL
