MODEL 1
REMARK minimizedAffinity 1.57586026
REMARK minimizedRMSD -1
REMARK  1 active torsions:
REMARK  status: ('A' for Active; 'I' for Inactive)
REMARK    1  A    between atoms: C3_4  and  O_7 
ROOT
ATOM      1  C   UNL d   1      -1.027  -1.063   3.229  0.00  0.00    -0.033 A 
ATOM      2  C1  UNL d   1      -1.396  -0.962   1.886  0.00  0.00     0.039 A 
ATOM      3  C2  UNL d   1      -0.501  -1.341   0.884  0.00  0.00    -0.080 A 
ATOM      4  C3  UNL d   1       0.757  -1.820   1.237  0.00  0.00     0.150 A 
ATOM      5  C4  UNL d   1       1.130  -1.926   2.573  0.00  0.00    -0.007 A 
ATOM      6  C5  UNL d   1       0.235  -1.546   3.572  0.00  0.00     0.039 A 
ENDROOT
BRANCH   4   7
ATOM      7  O   UNL d   1       1.667  -2.197   0.294  0.00  0.00    -0.526 OA
ATOM      8  H5  UNL d   1       1.282  -2.042  -0.584  0.00  0.00     0.418 HD
ENDBRANCH   4   7
TORSDOF 1
ENDMDL
