MODEL 1
REMARK minimizedAffinity 1.54827785
REMARK minimizedRMSD -1
REMARK  1 active torsions:
REMARK  status: ('A' for Active; 'I' for Inactive)
REMARK    1  A    between atoms: C3_4  and  O_7 
ROOT
ATOM      1  C   UNL d   1       5.733   2.555  -5.799  0.00  0.00    -0.033 A 
ATOM      2  C1  UNL d   1       5.634   1.167  -5.904  0.00  0.00     0.039 A 
ATOM      3  C2  UNL d   1       5.718   0.370  -4.761  0.00  0.00    -0.080 A 
ATOM      4  C3  UNL d   1       5.899   0.974  -3.519  0.00  0.00     0.150 A 
ATOM      5  C4  UNL d   1       5.994   2.357  -3.407  0.00  0.00    -0.007 A 
ATOM      6  C5  UNL d   1       5.911   3.151  -4.550  0.00  0.00     0.039 A 
ENDROOT
BRANCH   4   7
ATOM      7  O   UNL d   1       5.991   0.238  -2.376  0.00  0.00    -0.526 OA
ATOM      8  H5  UNL d   1       5.937  -0.704  -2.610  0.00  0.00     0.418 HD
ENDBRANCH   4   7
TORSDOF 1
ENDMDL
