MODEL 1
REMARK minimizedAffinity -2.19898272
REMARK minimizedRMSD -1
REMARK  1 active torsions:
REMARK  status: ('A' for Active; 'I' for Inactive)
REMARK    1  A    between atoms: C3_4  and  O_7 
ROOT
ATOM      1  C   UNL d   1       1.670   1.384  -2.277  0.00  0.00    -0.033 A 
ATOM      2  C1  UNL d   1       1.005   0.288  -2.829  0.00  0.00     0.039 A 
ATOM      3  C2  UNL d   1       0.711  -0.824  -2.038  0.00  0.00    -0.080 A 
ATOM      4  C3  UNL d   1       1.086  -0.826  -0.697  0.00  0.00     0.150 A 
ATOM      5  C4  UNL d   1       1.745   0.264  -0.139  0.00  0.00    -0.007 A 
ATOM      6  C5  UNL d   1       2.039   1.373  -0.932  0.00  0.00     0.039 A 
ENDROOT
BRANCH   4   7
ATOM      7  O   UNL d   1       0.825  -1.890   0.114  0.00  0.00    -0.526 OA
ATOM      8  H5  UNL d   1       0.391  -2.581  -0.414  0.00  0.00     0.418 HD
ENDBRANCH   4   7
TORSDOF 1
ENDMDL
