MODEL 1
REMARK minimizedAffinity 4.0760417
REMARK minimizedRMSD -1
REMARK  0 active torsions:
REMARK  status: ('A' for Active; 'I' for Inactive)
ROOT
ATOM      1  C   UNL d   1       1.851  -3.836   0.741  0.00  0.00     0.020 A 
ATOM      2  C1  UNL d   1       2.097  -2.497   1.043  0.00  0.00     0.020 A 
ATOM      3  C2  UNL d   1       3.382  -1.972   0.890  0.00  0.00     0.034 A 
ATOM      4  C3  UNL d   1       4.426  -2.787   0.435  0.00  0.00     0.017 A 
ATOM      5  C4  UNL d   1       4.177  -4.131   0.133  0.00  0.00     0.017 A 
ATOM      6  C5  UNL d   1       2.889  -4.651   0.288  0.00  0.00     0.034 A 
ATOM      7 Cl   UNL d   1       5.414  -5.197  -0.433  0.00  0.00    -0.070 Cl
ATOM      8 Cl1  UNL d   1       5.990  -2.071   0.270  0.00  0.00    -0.070 Cl
ENDROOT
TORSDOF 0
ENDMDL
