MODEL 1
REMARK minimizedAffinity -2.36159229
REMARK minimizedRMSD -1
REMARK  0 active torsions:
REMARK  status: ('A' for Active; 'I' for Inactive)
ROOT
ATOM      1  C   UNL d   1      -5.250  -1.129  -4.017  0.00  0.00     0.020 A 
ATOM      2  C1  UNL d   1      -5.497  -0.070  -4.888  0.00  0.00     0.020 A 
ATOM      3  C2  UNL d   1      -4.431   0.603  -5.489  0.00  0.00     0.034 A 
ATOM      4  C3  UNL d   1      -3.113   0.217  -5.220  0.00  0.00     0.017 A 
ATOM      5  C4  UNL d   1      -2.866  -0.847  -4.345  0.00  0.00     0.017 A 
ATOM      6  C5  UNL d   1      -3.937  -1.517  -3.746  0.00  0.00     0.034 A 
ATOM      7 Cl   UNL d   1      -1.267  -1.381  -3.964  0.00  0.00    -0.070 Cl
ATOM      8 Cl1  UNL d   1      -1.844   1.094  -5.999  0.00  0.00    -0.070 Cl
ENDROOT
TORSDOF 0
ENDMDL
