MODEL 1
REMARK minimizedAffinity 10.7546644
REMARK minimizedRMSD -1
REMARK  0 active torsions:
REMARK  status: ('A' for Active; 'I' for Inactive)
ROOT
ATOM      1  C   UNL d   1       1.143   4.478  -5.288  0.00  0.00     0.020 A 
ATOM      2  C1  UNL d   1       1.591   5.724  -5.723  0.00  0.00     0.020 A 
ATOM      3  C2  UNL d   1       2.959   5.956  -5.885  0.00  0.00     0.034 A 
ATOM      4  C3  UNL d   1       3.882   4.941  -5.610  0.00  0.00     0.017 A 
ATOM      5  C4  UNL d   1       3.431   3.691  -5.173  0.00  0.00     0.017 A 
ATOM      6  C5  UNL d   1       2.061   3.464  -5.013  0.00  0.00     0.034 A 
ATOM      7 Cl   UNL d   1       4.511   2.389  -4.814  0.00  0.00    -0.070 Cl
ATOM      8 Cl1  UNL d   1       5.558   5.299  -5.832  0.00  0.00    -0.070 Cl
ENDROOT
TORSDOF 0
ENDMDL
