MODEL 1
REMARK minimizedAffinity 12.2063704
REMARK minimizedRMSD -1
REMARK  0 active torsions:
REMARK  status: ('A' for Active; 'I' for Inactive)
ROOT
ATOM      1  C   UNL d   1       4.959  -5.364  -1.177  0.00  0.00     0.020 A 
ATOM      2  C1  UNL d   1       5.820  -6.000  -0.284  0.00  0.00     0.020 A 
ATOM      3  C2  UNL d   1       5.700  -5.767   1.088  0.00  0.00     0.034 A 
ATOM      4  C3  UNL d   1       4.717  -4.896   1.571  0.00  0.00     0.017 A 
ATOM      5  C4  UNL d   1       3.853  -4.258   0.674  0.00  0.00     0.017 A 
ATOM      6  C5  UNL d   1       3.977  -4.495  -0.699  0.00  0.00     0.034 A 
ATOM      7 Cl   UNL d   1       2.615  -3.169   1.194  0.00  0.00    -0.070 Cl
ATOM      8 Cl1  UNL d   1       4.626  -4.655   3.279  0.00  0.00    -0.070 Cl
ENDROOT
TORSDOF 0
ENDMDL
