MODEL 1
REMARK minimizedAffinity 11.9818439
REMARK minimizedRMSD -1
REMARK  0 active torsions:
REMARK  status: ('A' for Active; 'I' for Inactive)
ROOT
ATOM      1  C   UNL d   1       4.772   1.173  -0.113  0.00  0.00     0.020 A 
ATOM      2  C1  UNL d   1       4.784   2.349   0.635  0.00  0.00     0.020 A 
ATOM      3  C2  UNL d   1       3.769   2.599   1.561  0.00  0.00     0.034 A 
ATOM      4  C3  UNL d   1       2.736   1.671   1.740  0.00  0.00     0.017 A 
ATOM      5  C4  UNL d   1       2.724   0.491   0.987  0.00  0.00     0.017 A 
ATOM      6  C5  UNL d   1       3.743   0.246   0.062  0.00  0.00     0.034 A 
ATOM      7 Cl   UNL d   1       1.483  -0.700   1.152  0.00  0.00    -0.070 Cl
ATOM      8 Cl1  UNL d   1       1.513   2.045   2.902  0.00  0.00    -0.070 Cl
ENDROOT
TORSDOF 0
ENDMDL
