MODEL 1
REMARK minimizedAffinity 14.7418633
REMARK minimizedRMSD -1
REMARK  0 active torsions:
REMARK  status: ('A' for Active; 'I' for Inactive)
ROOT
ATOM      1  C   UNL d   1       1.893   5.504  -5.064  0.00  0.00     0.020 A 
ATOM      2  C1  UNL d   1       1.704   4.168  -4.710  0.00  0.00     0.020 A 
ATOM      3  C2  UNL d   1       2.786   3.286  -4.712  0.00  0.00     0.034 A 
ATOM      4  C3  UNL d   1       4.062   3.737  -5.069  0.00  0.00     0.017 A 
ATOM      5  C4  UNL d   1       4.250   5.078  -5.425  0.00  0.00     0.017 A 
ATOM      6  C5  UNL d   1       3.163   5.957  -5.421  0.00  0.00     0.034 A 
ATOM      7 Cl   UNL d   1       5.795   5.708  -5.877  0.00  0.00    -0.070 Cl
ATOM      8 Cl1  UNL d   1       5.355   2.591  -5.050  0.00  0.00    -0.070 Cl
ENDROOT
TORSDOF 0
ENDMDL
