MODEL 1
REMARK minimizedAffinity 10.4430676
REMARK minimizedRMSD -1
REMARK  0 active torsions:
REMARK  status: ('A' for Active; 'I' for Inactive)
ROOT
ATOM      1  C   UNL d   1       4.376   4.079  -5.518  0.00  0.00     0.020 A 
ATOM      2  C1  UNL d   1       4.224   5.452  -5.707  0.00  0.00     0.020 A 
ATOM      3  C2  UNL d   1       2.948   6.000  -5.853  0.00  0.00     0.034 A 
ATOM      4  C3  UNL d   1       1.819   5.174  -5.810  0.00  0.00     0.017 A 
ATOM      5  C4  UNL d   1       1.972   3.796  -5.620  0.00  0.00     0.017 A 
ATOM      6  C5  UNL d   1       3.253   3.253  -5.475  0.00  0.00     0.034 A 
ATOM      7 Cl   UNL d   1       0.626   2.714  -5.556  0.00  0.00    -0.070 Cl
ATOM      8 Cl1  UNL d   1       0.271   5.920  -5.997  0.00  0.00    -0.070 Cl
ENDROOT
TORSDOF 0
ENDMDL
