MODEL 1
REMARK minimizedAffinity 15.5551157
REMARK minimizedRMSD -1
REMARK  0 active torsions:
REMARK  status: ('A' for Active; 'I' for Inactive)
ROOT
ATOM      1  C   UNL d   1      -2.637   2.468  -2.999  0.00  0.00     0.020 A 
ATOM      2  C1  UNL d   1      -2.955   1.372  -2.199  0.00  0.00     0.020 A 
ATOM      3  C2  UNL d   1      -3.996   0.517  -2.566  0.00  0.00     0.034 A 
ATOM      4  C3  UNL d   1      -4.724   0.758  -3.737  0.00  0.00     0.017 A 
ATOM      5  C4  UNL d   1      -4.405   1.860  -4.540  0.00  0.00     0.017 A 
ATOM      6  C5  UNL d   1      -3.361   2.712  -4.167  0.00  0.00     0.034 A 
ATOM      7 Cl   UNL d   1      -5.257   2.222  -5.999  0.00  0.00    -0.070 Cl
ATOM      8 Cl1  UNL d   1      -5.999  -0.339  -4.131  0.00  0.00    -0.070 Cl
ENDROOT
TORSDOF 0
ENDMDL
