MODEL 1
REMARK minimizedAffinity 9.98239326
REMARK minimizedRMSD -1
REMARK  0 active torsions:
REMARK  status: ('A' for Active; 'I' for Inactive)
ROOT
ATOM      1  C   UNL d   1       1.831  -2.207   0.833  0.00  0.00     0.020 A 
ATOM      2  C1  UNL d   1       2.807  -1.699  -0.023  0.00  0.00     0.020 A 
ATOM      3  C2  UNL d   1       3.987  -2.415  -0.239  0.00  0.00     0.034 A 
ATOM      4  C3  UNL d   1       4.193  -3.642   0.401  0.00  0.00     0.017 A 
ATOM      5  C4  UNL d   1       3.212  -4.151   1.261  0.00  0.00     0.017 A 
ATOM      6  C5  UNL d   1       2.033  -3.430   1.473  0.00  0.00     0.034 A 
ATOM      7 Cl   UNL d   1       3.395  -5.658   2.087  0.00  0.00    -0.070 Cl
ATOM      8 Cl1  UNL d   1       5.675  -4.473   0.088  0.00  0.00    -0.070 Cl
ENDROOT
TORSDOF 0
ENDMDL
