MODEL 1
REMARK minimizedAffinity 6.93741322
REMARK minimizedRMSD -1
REMARK  0 active torsions:
REMARK  status: ('A' for Active; 'I' for Inactive)
ROOT
ATOM      1  C   UNL d   1       2.096   5.944  -5.661  0.00  0.00     0.020 A 
ATOM      2  C1  UNL d   1       1.508   4.753  -5.237  0.00  0.00     0.020 A 
ATOM      3  C2  UNL d   1       2.296   3.616  -5.043  0.00  0.00     0.034 A 
ATOM      4  C3  UNL d   1       3.676   3.669  -5.271  0.00  0.00     0.017 A 
ATOM      5  C4  UNL d   1       4.265   4.865  -5.696  0.00  0.00     0.017 A 
ATOM      6  C5  UNL d   1       3.472   6.000  -5.890  0.00  0.00     0.034 A 
ATOM      7 Cl   UNL d   1       5.961   5.007  -5.999  0.00  0.00    -0.070 Cl
ATOM      8 Cl1  UNL d   1       4.589   2.225  -5.010  0.00  0.00    -0.070 Cl
ENDROOT
TORSDOF 0
ENDMDL
