MODEL 1
REMARK minimizedAffinity 9.44613457
REMARK minimizedRMSD -1
REMARK  0 active torsions:
REMARK  status: ('A' for Active; 'I' for Inactive)
ROOT
ATOM      1  C   UNL d   1      -2.749   3.318  -3.672  0.00  0.00     0.020 A 
ATOM      2  C1  UNL d   1      -1.767   3.064  -2.716  0.00  0.00     0.020 A 
ATOM      3  C2  UNL d   1      -1.752   1.843  -2.038  0.00  0.00     0.034 A 
ATOM      4  C3  UNL d   1      -2.720   0.872  -2.315  0.00  0.00     0.017 A 
ATOM      5  C4  UNL d   1      -3.706   1.128  -3.275  0.00  0.00     0.017 A 
ATOM      6  C5  UNL d   1      -3.717   2.352  -3.951  0.00  0.00     0.034 A 
ATOM      7 Cl   UNL d   1      -4.934  -0.022  -3.672  0.00  0.00    -0.070 Cl
ATOM      8 Cl1  UNL d   1      -2.641  -0.615  -1.439  0.00  0.00    -0.070 Cl
ENDROOT
TORSDOF 0
ENDMDL
