MODEL 1
REMARK minimizedAffinity -3.15263391
REMARK minimizedRMSD -1
REMARK  1 active torsions:
REMARK  status: ('A' for Active; 'I' for Inactive)
REMARK    1  A    between atoms: C1_2  and  C2_3 
ROOT
ATOM      1  C2  UNL d   1       0.209   0.958  -0.208  0.00  0.00    -0.081 A 
ATOM      2  C3  UNL d   1      -0.365   0.598   1.017  0.00  0.00     0.006 A 
ATOM      3  C4  UNL d   1      -0.872  -0.689   1.212  0.00  0.00     0.002 A 
ATOM      4  C5  UNL d   1      -0.806  -1.640   0.188  0.00  0.00    -0.080 A 
ATOM      5  C6  UNL d   1      -1.319  -3.034   0.394  0.00  0.00     0.076 C 
ATOM      6  C7  UNL d   1      -0.248  -1.276  -1.043  0.00  0.00     0.002 A 
ATOM      7  C8  UNL d   1       0.258   0.011  -1.238  0.00  0.00     0.006 A 
ENDROOT
BRANCH   1   8
ATOM      8  C1  UNL d   1       0.815   2.325  -0.399  0.00  0.00     0.054 C 
ATOM      9  C   UNL d   1       1.771   2.669   0.733  0.00  0.00     0.018 C 
ENDBRANCH   1   8
TORSDOF 1
ENDMDL
