MODEL 1
REMARK minimizedAffinity -2.35801101
REMARK minimizedRMSD -1
REMARK  1 active torsions:
REMARK  status: ('A' for Active; 'I' for Inactive)
REMARK    1  A    between atoms: C1_2  and  C2_3 
ROOT
ATOM      1  C2  UNL d   1      -1.115  -2.925   0.011  0.00  0.00    -0.081 A 
ATOM      2  C3  UNL d   1      -0.827  -1.585   0.296  0.00  0.00     0.006 A 
ATOM      3  C4  UNL d   1       0.417  -1.042  -0.032  0.00  0.00     0.002 A 
ATOM      4  C5  UNL d   1       1.391  -1.828  -0.657  0.00  0.00    -0.080 A 
ATOM      5  C6  UNL d   1       2.721  -1.250  -1.042  0.00  0.00     0.076 C 
ATOM      6  C7  UNL d   1       1.110  -3.172  -0.927  0.00  0.00     0.002 A 
ATOM      7  C8  UNL d   1      -0.134  -3.715  -0.599  0.00  0.00     0.006 A 
ENDROOT
BRANCH   1   8
ATOM      8  C1  UNL d   1      -2.479  -3.495   0.304  0.00  0.00     0.054 C 
ATOM      9  C   UNL d   1      -3.215  -3.859  -0.977  0.00  0.00     0.018 C 
ENDBRANCH   1   8
TORSDOF 1
ENDMDL
