MODEL 1
REMARK minimizedAffinity -0.343312204
REMARK minimizedRMSD -1
REMARK  1 active torsions:
REMARK  status: ('A' for Active; 'I' for Inactive)
REMARK    1  A    between atoms: C1_2  and  C2_3 
ROOT
ATOM      1  C2  UNL d   1       0.702  -1.349  -0.899  0.00  0.00    -0.081 A 
ATOM      2  C3  UNL d   1       0.715  -0.813   0.395  0.00  0.00     0.006 A 
ATOM      3  C4  UNL d   1       0.329   0.510   0.617  0.00  0.00     0.002 A 
ATOM      4  C5  UNL d   1      -0.084   1.318  -0.448  0.00  0.00    -0.080 A 
ATOM      5  C6  UNL d   1      -0.531   2.731  -0.219  0.00  0.00     0.076 C 
ATOM      6  C7  UNL d   1      -0.081   0.788  -1.743  0.00  0.00     0.002 A 
ATOM      7  C8  UNL d   1       0.305  -0.535  -1.966  0.00  0.00     0.006 A 
ENDROOT
BRANCH   1   8
ATOM      8  C1  UNL d   1       1.056  -2.795  -1.133  0.00  0.00     0.054 C 
ATOM      9  C   UNL d   1       0.275  -3.714  -0.204  0.00  0.00     0.018 C 
ENDBRANCH   1   8
TORSDOF 1
ENDMDL
