MODEL 1
REMARK minimizedAffinity -2.57022238
REMARK minimizedRMSD -1
REMARK  1 active torsions:
REMARK  status: ('A' for Active; 'I' for Inactive)
REMARK    1  A    between atoms: C1_2  and  C2_3 
ROOT
ATOM      1  C2  UNL d   1       0.073   0.799   0.160  0.00  0.00    -0.081 A 
ATOM      2  C3  UNL d   1      -0.636   0.100   1.144  0.00  0.00     0.006 A 
ATOM      3  C4  UNL d   1      -0.627  -1.296   1.167  0.00  0.00     0.002 A 
ATOM      4  C5  UNL d   1       0.098  -2.017   0.211  0.00  0.00    -0.080 A 
ATOM      5  C6  UNL d   1       0.141  -3.516   0.242  0.00  0.00     0.076 C 
ATOM      6  C7  UNL d   1       0.792  -1.319  -0.783  0.00  0.00     0.002 A 
ATOM      7  C8  UNL d   1       0.783   0.077  -0.806  0.00  0.00     0.006 A 
ENDROOT
BRANCH   1   8
ATOM      8  C1  UNL d   1       0.118   2.306   0.172  0.00  0.00     0.054 C 
ATOM      9  C   UNL d   1       1.356   2.817   0.894  0.00  0.00     0.018 C 
ENDBRANCH   1   8
TORSDOF 1
ENDMDL
