MODEL 1
REMARK minimizedAffinity -3.3128233
REMARK minimizedRMSD -1
REMARK  1 active torsions:
REMARK  status: ('A' for Active; 'I' for Inactive)
REMARK    1  A    between atoms: C1_2  and  C2_3 
ROOT
ATOM      1  C2  UNL d   1       0.359   1.314   0.384  0.00  0.00    -0.081 A 
ATOM      2  C3  UNL d   1      -0.443   0.745   1.381  0.00  0.00     0.006 A 
ATOM      3  C4  UNL d   1      -0.574  -0.642   1.478  0.00  0.00     0.002 A 
ATOM      4  C5  UNL d   1       0.101  -1.483   0.586  0.00  0.00    -0.080 A 
ATOM      5  C6  UNL d   1      -0.007  -2.975   0.698  0.00  0.00     0.076 C 
ATOM      6  C7  UNL d   1       0.888  -0.914  -0.421  0.00  0.00     0.002 A 
ATOM      7  C8  UNL d   1       1.019   0.473  -0.519  0.00  0.00     0.006 A 
ENDROOT
BRANCH   1   8
ATOM      8  C1  UNL d   1       0.554   2.808   0.317  0.00  0.00     0.054 C 
ATOM      9  C   UNL d   1       1.992   3.193   0.636  0.00  0.00     0.018 C 
ENDBRANCH   1   8
TORSDOF 1
ENDMDL
