MODEL 1
REMARK minimizedAffinity -1.26117587
REMARK minimizedRMSD -1
REMARK  1 active torsions:
REMARK  status: ('A' for Active; 'I' for Inactive)
REMARK    1  A    between atoms: C1_2  and  C2_3 
ROOT
ATOM      1  C2  UNL d   1       0.019   0.471   0.758  0.00  0.00    -0.081 A 
ATOM      2  C3  UNL d   1       0.956  -0.036  -0.150  0.00  0.00     0.006 A 
ATOM      3  C4  UNL d   1       1.037  -1.410  -0.391  0.00  0.00     0.002 A 
ATOM      4  C5  UNL d   1       0.179  -2.298   0.267  0.00  0.00    -0.080 A 
ATOM      5  C6  UNL d   1       0.236  -3.772  -0.005  0.00  0.00     0.076 C 
ATOM      6  C7  UNL d   1      -0.745  -1.793   1.187  0.00  0.00     0.002 A 
ATOM      7  C8  UNL d   1      -0.827  -0.419   1.429  0.00  0.00     0.006 A 
ENDROOT
BRANCH   1   8
ATOM      8  C1  UNL d   1      -0.115   1.957   0.972  0.00  0.00     0.054 C 
ATOM      9  C   UNL d   1       1.247   2.621   1.116  0.00  0.00     0.018 C 
ENDBRANCH   1   8
TORSDOF 1
ENDMDL
