MODEL 1
REMARK minimizedAffinity -3.56824207
REMARK minimizedRMSD -1
REMARK  1 active torsions:
REMARK  status: ('A' for Active; 'I' for Inactive)
REMARK    1  A    between atoms: C1_2  and  C2_3 
ROOT
ATOM      1  C2  UNL d   1      -0.270  -0.566  -0.352  0.00  0.00    -0.081 A 
ATOM      2  C3  UNL d   1      -0.706  -1.651   0.418  0.00  0.00     0.006 A 
ATOM      3  C4  UNL d   1      -1.306  -1.441   1.663  0.00  0.00     0.002 A 
ATOM      4  C5  UNL d   1      -1.486  -0.144   2.154  0.00  0.00    -0.080 A 
ATOM      5  C6  UNL d   1      -2.156   0.096   3.474  0.00  0.00     0.076 C 
ATOM      6  C7  UNL d   1      -1.035   0.939   1.393  0.00  0.00     0.002 A 
ATOM      7  C8  UNL d   1      -0.435   0.730   0.149  0.00  0.00     0.006 A 
ENDROOT
BRANCH   1   8
ATOM      8  C1  UNL d   1       0.317  -0.785  -1.722  0.00  0.00     0.054 C 
ATOM      9  C   UNL d   1       0.132   0.440  -2.606  0.00  0.00     0.018 C 
ENDBRANCH   1   8
TORSDOF 1
ENDMDL
