MODEL 1
REMARK minimizedAffinity -1.47151911
REMARK minimizedRMSD -1
REMARK  1 active torsions:
REMARK  status: ('A' for Active; 'I' for Inactive)
REMARK    1  A    between atoms: C1_2  and  C2_3 
ROOT
ATOM      1  C2  UNL d   1      -0.217   0.406   0.225  0.00  0.00    -0.081 A 
ATOM      2  C3  UNL d   1      -0.906  -0.295   1.221  0.00  0.00     0.006 A 
ATOM      3  C4  UNL d   1      -0.771  -1.681   1.335  0.00  0.00     0.002 A 
ATOM      4  C5  UNL d   1       0.062  -2.387   0.460  0.00  0.00    -0.080 A 
ATOM      5  C6  UNL d   1       0.240  -3.870   0.590  0.00  0.00     0.076 C 
ATOM      6  C7  UNL d   1       0.737  -1.688  -0.547  0.00  0.00     0.002 A 
ATOM      7  C8  UNL d   1       0.601  -0.303  -0.661  0.00  0.00     0.006 A 
ENDROOT
BRANCH   1   8
ATOM      8  C1  UNL d   1      -0.311   1.908   0.140  0.00  0.00     0.054 C 
ATOM      9  C   UNL d   1       0.912   2.574   0.755  0.00  0.00     0.018 C 
ENDBRANCH   1   8
TORSDOF 1
ENDMDL
