MODEL 1
REMARK minimizedAffinity -6.05953646
REMARK minimizedRMSD -1
REMARK  1 active torsions:
REMARK  status: ('A' for Active; 'I' for Inactive)
REMARK    1  A    between atoms: C1_2  and  C2_3 
ROOT
ATOM      1  C2  UNL d   1       0.110   0.684  -0.504  0.00  0.00    -0.081 A 
ATOM      2  C3  UNL d   1       0.519  -0.262  -1.452  0.00  0.00     0.006 A 
ATOM      3  C4  UNL d   1       0.379  -1.628  -1.196  0.00  0.00     0.002 A 
ATOM      4  C5  UNL d   1      -0.179  -2.071   0.008  0.00  0.00    -0.080 A 
ATOM      5  C6  UNL d   1      -0.363  -3.534   0.283  0.00  0.00     0.076 C 
ATOM      6  C7  UNL d   1      -0.571  -1.127   0.963  0.00  0.00     0.002 A 
ATOM      7  C8  UNL d   1      -0.431   0.239   0.708  0.00  0.00     0.006 A 
ENDROOT
BRANCH   1   8
ATOM      8  C1  UNL d   1       0.200   2.158  -0.803  0.00  0.00     0.054 C 
ATOM      9  C   UNL d   1       0.889   2.911   0.326  0.00  0.00     0.018 C 
ENDBRANCH   1   8
TORSDOF 1
ENDMDL
