MODEL 1
REMARK minimizedAffinity -3.56397843
REMARK minimizedRMSD -1
REMARK  1 active torsions:
REMARK  status: ('A' for Active; 'I' for Inactive)
REMARK    1  A    between atoms: C1_2  and  C2_3 
ROOT
ATOM      1  C2  UNL d   1       0.006   0.662  -0.088  0.00  0.00    -0.081 A 
ATOM      2  C3  UNL d   1      -0.611   0.014   0.989  0.00  0.00     0.006 A 
ATOM      3  C4  UNL d   1      -0.661  -1.381   1.041  0.00  0.00     0.002 A 
ATOM      4  C5  UNL d   1      -0.088  -2.151   0.023  0.00  0.00    -0.080 A 
ATOM      5  C6  UNL d   1      -0.108  -3.650   0.083  0.00  0.00     0.076 C 
ATOM      6  C7  UNL d   1       0.514  -1.503  -1.061  0.00  0.00     0.002 A 
ATOM      7  C8  UNL d   1       0.563  -0.109  -1.114  0.00  0.00     0.006 A 
ENDROOT
BRANCH   1   8
ATOM      8  C1  UNL d   1       0.119   2.165  -0.115  0.00  0.00     0.054 C 
ATOM      9  C   UNL d   1       1.277   2.649   0.745  0.00  0.00     0.018 C 
ENDBRANCH   1   8
TORSDOF 1
ENDMDL
