MODEL 1
REMARK minimizedAffinity -3.45021558
REMARK minimizedRMSD -1
REMARK  1 active torsions:
REMARK  status: ('A' for Active; 'I' for Inactive)
REMARK    1  A    between atoms: C1_2  and  C2_3 
ROOT
ATOM      1  C2  UNL d   1      -0.414  -1.593   0.139  0.00  0.00    -0.081 A 
ATOM      2  C3  UNL d   1       0.453  -1.072  -0.828  0.00  0.00     0.006 A 
ATOM      3  C4  UNL d   1       0.686   0.303  -0.905  0.00  0.00     0.002 A 
ATOM      4  C5  UNL d   1       0.061   1.179  -0.012  0.00  0.00    -0.080 A 
ATOM      5  C6  UNL d   1       0.325   2.655  -0.064  0.00  0.00     0.076 C 
ATOM      6  C7  UNL d   1      -0.820   0.661   0.944  0.00  0.00     0.002 A 
ATOM      7  C8  UNL d   1      -1.053  -0.714   1.021  0.00  0.00     0.006 A 
ENDROOT
BRANCH   1   8
ATOM      8  C1  UNL d   1      -0.617  -3.081   0.266  0.00  0.00     0.054 C 
ATOM      9  C   UNL d   1      -0.515  -3.771  -1.087  0.00  0.00     0.018 C 
ENDBRANCH   1   8
TORSDOF 1
ENDMDL
