MODEL 1
REMARK minimizedAffinity -3.70812368
REMARK minimizedRMSD -1
REMARK  1 active torsions:
REMARK  status: ('A' for Active; 'I' for Inactive)
REMARK    1  A    between atoms: C1_2  and  C2_3 
ROOT
ATOM      1  C2  UNL d   1       0.132   0.295   0.224  0.00  0.00    -0.081 A 
ATOM      2  C3  UNL d   1      -0.836  -0.424   0.935  0.00  0.00     0.006 A 
ATOM      3  C4  UNL d   1      -0.807  -1.821   0.956  0.00  0.00     0.002 A 
ATOM      4  C5  UNL d   1       0.193  -2.520   0.273  0.00  0.00    -0.080 A 
ATOM      5  C6  UNL d   1       0.253  -4.019   0.311  0.00  0.00     0.076 C 
ATOM      6  C7  UNL d   1       1.151  -1.802  -0.452  0.00  0.00     0.002 A 
ATOM      7  C8  UNL d   1       1.122  -0.406  -0.473  0.00  0.00     0.006 A 
ENDROOT
BRANCH   1   8
ATOM      8  C1  UNL d   1       0.142   1.802   0.254  0.00  0.00     0.054 C 
ATOM      9  C   UNL d   1       1.560   2.344   0.369  0.00  0.00     0.018 C 
ENDBRANCH   1   8
TORSDOF 1
ENDMDL
