MODEL 1
REMARK minimizedAffinity -4.4085331
REMARK minimizedRMSD -1
REMARK  1 active torsions:
REMARK  status: ('A' for Active; 'I' for Inactive)
REMARK    1  A    between atoms: C1_2  and  C2_3 
ROOT
ATOM      1  C2  UNL d   1      -0.199   1.396   0.542  0.00  0.00    -0.081 A 
ATOM      2  C3  UNL d   1      -1.021   0.599   1.348  0.00  0.00     0.006 A 
ATOM      3  C4  UNL d   1      -0.976  -0.793   1.248  0.00  0.00     0.002 A 
ATOM      4  C5  UNL d   1      -0.103  -1.413   0.347  0.00  0.00    -0.080 A 
ATOM      5  C6  UNL d   1      -0.024  -2.907   0.251  0.00  0.00     0.076 C 
ATOM      6  C7  UNL d   1       0.706  -0.617  -0.471  0.00  0.00     0.002 A 
ATOM      7  C8  UNL d   1       0.661   0.776  -0.372  0.00  0.00     0.006 A 
ENDROOT
BRANCH   1   8
ATOM      8  C1  UNL d   1      -0.198   2.896   0.692  0.00  0.00     0.054 C 
ATOM      9  C   UNL d   1       0.972   3.365   1.545  0.00  0.00     0.018 C 
ENDBRANCH   1   8
TORSDOF 1
ENDMDL
