MODEL 1
REMARK minimizedAffinity -4.95645142
REMARK minimizedRMSD -1
REMARK  1 active torsions:
REMARK  status: ('A' for Active; 'I' for Inactive)
REMARK    1  A    between atoms: C1_2  and  C2_3 
ROOT
ATOM      1  C2  UNL d   1       0.304   1.100  -0.190  0.00  0.00    -0.081 A 
ATOM      2  C3  UNL d   1      -0.699   0.759   0.726  0.00  0.00     0.006 A 
ATOM      3  C4  UNL d   1      -1.026  -0.580   0.953  0.00  0.00     0.002 A 
ATOM      4  C5  UNL d   1      -0.349  -1.600   0.275  0.00  0.00    -0.080 A 
ATOM      5  C6  UNL d   1      -0.669  -3.043   0.532  0.00  0.00     0.076 C 
ATOM      6  C7  UNL d   1       0.641  -1.259  -0.653  0.00  0.00     0.002 A 
ATOM      7  C8  UNL d   1       0.967   0.080  -0.880  0.00  0.00     0.006 A 
ENDROOT
BRANCH   1   8
ATOM      8  C1  UNL d   1       0.702   2.540  -0.389  0.00  0.00     0.054 C 
ATOM      9  C   UNL d   1       2.094   2.810   0.164  0.00  0.00     0.018 C 
ENDBRANCH   1   8
TORSDOF 1
ENDMDL
