MODEL 1
REMARK minimizedAffinity 6.83182812
REMARK minimizedRMSD -1
REMARK  1 active torsions:
REMARK  status: ('A' for Active; 'I' for Inactive)
REMARK    1  A    between atoms: C1_2  and  C2_3 
ROOT
ATOM      1  C2  UNL d   1      -3.943  -0.984   1.555  0.00  0.00    -0.077 A 
ATOM      2  C3  UNL d   1      -3.183  -1.100   0.383  0.00  0.00     0.002 A 
ATOM      3  C4  UNL d   1      -3.681  -1.807  -0.714  0.00  0.00     0.002 A 
ATOM      4  C5  UNL d   1      -4.941  -2.398  -0.651  0.00  0.00    -0.004 A 
ATOM      5  C6  UNL d   1      -5.703  -2.290   0.512  0.00  0.00     0.002 A 
ATOM      6  C7  UNL d   1      -5.207  -1.585   1.609  0.00  0.00     0.002 A 
ENDROOT
BRANCH   1   7
ATOM      7  C1  UNL d   1      -3.430  -0.180   2.721  0.00  0.00     0.055 C 
ATOM      8  C   UNL d   1      -2.322   0.771   2.293  0.00  0.00     0.019 C 
ENDBRANCH   1   7
TORSDOF 1
ENDMDL
