MODEL 1
REMARK minimizedAffinity 1.45960701
REMARK minimizedRMSD -1
REMARK  1 active torsions:
REMARK  status: ('A' for Active; 'I' for Inactive)
REMARK    1  A    between atoms: C1_2  and  C2_3 
ROOT
ATOM      1  C2  UNL d   1       5.357   5.453   3.564  0.00  0.00    -0.077 A 
ATOM      2  C3  UNL d   1       5.998   4.520   2.736  0.00  0.00     0.002 A 
ATOM      3  C4  UNL d   1       5.423   4.143   1.520  0.00  0.00     0.002 A 
ATOM      4  C5  UNL d   1       4.208   4.695   1.121  0.00  0.00    -0.004 A 
ATOM      5  C6  UNL d   1       3.562   5.622   1.938  0.00  0.00     0.002 A 
ATOM      6  C7  UNL d   1       4.135   6.000   3.154  0.00  0.00     0.002 A 
ENDROOT
BRANCH   1   7
ATOM      7  C1  UNL d   1       6.000   5.898   4.851  0.00  0.00     0.055 C 
ATOM      8  C   UNL d   1       5.659   4.954   5.995  0.00  0.00     0.019 C 
ENDBRANCH   1   7
TORSDOF 1
ENDMDL
