MODEL 1
REMARK minimizedAffinity 0.352282822
REMARK minimizedRMSD -1
REMARK  1 active torsions:
REMARK  status: ('A' for Active; 'I' for Inactive)
REMARK    1  A    between atoms: C1_2  and  C2_3 
ROOT
ATOM      1  C2  UNL d   1       4.859   5.603   3.598  0.00  0.00    -0.077 A 
ATOM      2  C3  UNL d   1       6.000   5.224   2.877  0.00  0.00     0.002 A 
ATOM      3  C4  UNL d   1       5.988   5.231   1.481  0.00  0.00     0.002 A 
ATOM      4  C5  UNL d   1       4.840   5.622   0.794  0.00  0.00    -0.004 A 
ATOM      5  C6  UNL d   1       3.700   5.999   1.502  0.00  0.00     0.002 A 
ATOM      6  C7  UNL d   1       3.709   5.991   2.897  0.00  0.00     0.002 A 
ENDROOT
BRANCH   1   7
ATOM      7  C1  UNL d   1       4.885   5.643   5.103  0.00  0.00     0.055 C 
ATOM      8  C   UNL d   1       5.984   4.750   5.661  0.00  0.00     0.019 C 
ENDBRANCH   1   7
TORSDOF 1
ENDMDL
