MODEL 1
REMARK minimizedAffinity 9.63628006
REMARK minimizedRMSD -1
REMARK  1 active torsions:
REMARK  status: ('A' for Active; 'I' for Inactive)
REMARK    1  A    between atoms: C1_2  and  C2_3 
ROOT
ATOM      1  C2  UNL d   1      -2.216   5.251   1.164  0.00  0.00    -0.077 A 
ATOM      2  C3  UNL d   1      -2.631   4.502   0.053  0.00  0.00     0.002 A 
ATOM      3  C4  UNL d   1      -1.877   4.505  -1.121  0.00  0.00     0.002 A 
ATOM      4  C5  UNL d   1      -0.702   5.250  -1.196  0.00  0.00    -0.004 A 
ATOM      5  C6  UNL d   1      -0.282   6.000  -0.098  0.00  0.00     0.002 A 
ATOM      6  C7  UNL d   1      -1.036   6.000   1.077  0.00  0.00     0.002 A 
ENDROOT
BRANCH   1   7
ATOM      7  C1  UNL d   1      -3.002   5.211   2.448  0.00  0.00     0.055 C 
ATOM      8  C   UNL d   1      -4.500   5.243   2.182  0.00  0.00     0.019 C 
ENDBRANCH   1   7
TORSDOF 1
ENDMDL
