MODEL 1
REMARK minimizedAffinity 0.0725151151
REMARK minimizedRMSD -1
REMARK  1 active torsions:
REMARK  status: ('A' for Active; 'I' for Inactive)
REMARK    1  A    between atoms: C1_2  and  C2_3 
ROOT
ATOM      1  C2  UNL d   1       5.438   5.112   3.959  0.00  0.00    -0.077 A 
ATOM      2  C3  UNL d   1       4.481   5.998   3.445  0.00  0.00     0.002 A 
ATOM      3  C4  UNL d   1       4.095   5.923   2.106  0.00  0.00     0.002 A 
ATOM      4  C5  UNL d   1       4.658   4.961   1.270  0.00  0.00    -0.004 A 
ATOM      5  C6  UNL d   1       5.612   4.076   1.771  0.00  0.00     0.002 A 
ATOM      6  C7  UNL d   1       6.000   4.151   3.109  0.00  0.00     0.002 A 
ENDROOT
BRANCH   1   7
ATOM      7  C1  UNL d   1       5.819   5.160   5.415  0.00  0.00     0.055 C 
ATOM      8  C   UNL d   1       5.951   3.761   5.999  0.00  0.00     0.019 C 
ENDBRANCH   1   7
TORSDOF 1
ENDMDL
