MODEL 1
REMARK minimizedAffinity 1.34862888
REMARK minimizedRMSD -1
REMARK  1 active torsions:
REMARK  status: ('A' for Active; 'I' for Inactive)
REMARK    1  A    between atoms: C1_2  and  C2_3 
ROOT
ATOM      1  C2  UNL d   1      -2.281   1.012   1.466  0.00  0.00    -0.077 A 
ATOM      2  C3  UNL d   1      -2.976   2.219   1.309  0.00  0.00     0.002 A 
ATOM      3  C4  UNL d   1      -3.078   3.119   2.371  0.00  0.00     0.002 A 
ATOM      4  C5  UNL d   1      -2.485   2.824   3.596  0.00  0.00    -0.004 A 
ATOM      5  C6  UNL d   1      -1.793   1.625   3.764  0.00  0.00     0.002 A 
ATOM      6  C7  UNL d   1      -1.691   0.723   2.704  0.00  0.00     0.002 A 
ENDROOT
BRANCH   1   7
ATOM      7  C1  UNL d   1      -2.128   0.062   0.307  0.00  0.00     0.055 C 
ATOM      8  C   UNL d   1      -1.981   0.813  -1.008  0.00  0.00     0.019 C 
ENDBRANCH   1   7
TORSDOF 1
ENDMDL
