MODEL 1
REMARK minimizedAffinity 5.26002169
REMARK minimizedRMSD -1
REMARK  1 active torsions:
REMARK  status: ('A' for Active; 'I' for Inactive)
REMARK    1  A    between atoms: C1_2  and  C2_3 
ROOT
ATOM      1  C2  UNL d   1      -2.028   1.180  -0.322  0.00  0.00    -0.077 A 
ATOM      2  C3  UNL d   1      -2.855   2.155   0.252  0.00  0.00     0.002 A 
ATOM      3  C4  UNL d   1      -3.265   2.040   1.582  0.00  0.00     0.002 A 
ATOM      4  C5  UNL d   1      -2.850   0.954   2.349  0.00  0.00    -0.004 A 
ATOM      5  C6  UNL d   1      -2.029  -0.022   1.787  0.00  0.00     0.002 A 
ATOM      6  C7  UNL d   1      -1.619   0.090   0.458  0.00  0.00     0.002 A 
ENDROOT
BRANCH   1   7
ATOM      7  C1  UNL d   1      -1.544   1.327  -1.740  0.00  0.00     0.055 C 
ATOM      8  C   UNL d   1      -0.099   0.870  -1.883  0.00  0.00     0.019 C 
ENDBRANCH   1   7
TORSDOF 1
ENDMDL
