MODEL 1
REMARK minimizedAffinity 7.28181839
REMARK minimizedRMSD -1
REMARK  1 active torsions:
REMARK  status: ('A' for Active; 'I' for Inactive)
REMARK    1  A    between atoms: C1_2  and  C2_3 
ROOT
ATOM      1  C2  UNL d   1      -0.877  -0.931  -1.058  0.00  0.00    -0.077 A 
ATOM      2  C3  UNL d   1       0.099   0.049  -1.284  0.00  0.00     0.002 A 
ATOM      3  C4  UNL d   1       1.232  -0.245  -2.045  0.00  0.00     0.002 A 
ATOM      4  C5  UNL d   1       1.398  -1.517  -2.589  0.00  0.00    -0.004 A 
ATOM      5  C6  UNL d   1       0.433  -2.499  -2.368  0.00  0.00     0.002 A 
ATOM      6  C7  UNL d   1      -0.699  -2.207  -1.606  0.00  0.00     0.002 A 
ENDROOT
BRANCH   1   7
ATOM      7  C1  UNL d   1      -2.124  -0.602  -0.279  0.00  0.00     0.055 C 
ATOM      8  C   UNL d   1      -1.833  -0.493   1.211  0.00  0.00     0.019 C 
ENDBRANCH   1   7
TORSDOF 1
ENDMDL
