MODEL 1
REMARK minimizedAffinity 12.6485357
REMARK minimizedRMSD -1
REMARK  1 active torsions:
REMARK  status: ('A' for Active; 'I' for Inactive)
REMARK    1  A    between atoms: C1_2  and  C2_3 
ROOT
ATOM      1  C2  UNL d   1       3.152  -0.294  -1.900  0.00  0.00    -0.077 A 
ATOM      2  C3  UNL d   1       2.205  -1.133  -2.505  0.00  0.00     0.002 A 
ATOM      3  C4  UNL d   1       0.975  -0.623  -2.924  0.00  0.00     0.002 A 
ATOM      4  C5  UNL d   1       0.681   0.727  -2.746  0.00  0.00    -0.004 A 
ATOM      5  C6  UNL d   1       1.615   1.570  -2.143  0.00  0.00     0.002 A 
ATOM      6  C7  UNL d   1       2.845   1.062  -1.723  0.00  0.00     0.002 A 
ENDROOT
BRANCH   1   7
ATOM      7  C1  UNL d   1       4.499  -0.831  -1.492  0.00  0.00     0.055 C 
ATOM      8  C   UNL d   1       5.572  -0.462  -2.506  0.00  0.00     0.019 C 
ENDBRANCH   1   7
TORSDOF 1
ENDMDL
