MODEL 1
REMARK minimizedAffinity 5.96153593
REMARK minimizedRMSD -1
REMARK  1 active torsions:
REMARK  status: ('A' for Active; 'I' for Inactive)
REMARK    1  A    between atoms: C1_2  and  C2_3 
ROOT
ATOM      1  C2  UNL d   1      -1.909   0.111   1.529  0.00  0.00    -0.077 A 
ATOM      2  C3  UNL d   1      -0.865   0.185   0.597  0.00  0.00     0.002 A 
ATOM      3  C4  UNL d   1      -0.981  -0.439  -0.646  0.00  0.00     0.002 A 
ATOM      4  C5  UNL d   1      -2.142  -1.139  -0.970  0.00  0.00    -0.004 A 
ATOM      5  C6  UNL d   1      -3.185  -1.220  -0.050  0.00  0.00     0.002 A 
ATOM      6  C7  UNL d   1      -3.070  -0.598   1.194  0.00  0.00     0.002 A 
ENDROOT
BRANCH   1   7
ATOM      7  C1  UNL d   1      -1.805   0.825   2.851  0.00  0.00     0.055 C 
ATOM      8  C   UNL d   1      -2.842   0.312   3.840  0.00  0.00     0.019 C 
ENDBRANCH   1   7
TORSDOF 1
ENDMDL
