MODEL 1
REMARK minimizedAffinity 8.55196857
REMARK minimizedRMSD -1
REMARK  1 active torsions:
REMARK  status: ('A' for Active; 'I' for Inactive)
REMARK    1  A    between atoms: C1_2  and  C2_3 
ROOT
ATOM      1  C2  UNL d   1       1.717  -1.154  -2.344  0.00  0.00    -0.077 A 
ATOM      2  C3  UNL d   1       2.864  -0.636  -2.960  0.00  0.00     0.002 A 
ATOM      3  C4  UNL d   1       3.008   0.741  -3.141  0.00  0.00     0.002 A 
ATOM      4  C5  UNL d   1       2.011   1.610  -2.706  0.00  0.00    -0.004 A 
ATOM      5  C6  UNL d   1       0.865   1.105  -2.094  0.00  0.00     0.002 A 
ATOM      6  C7  UNL d   1       0.718  -0.271  -1.913  0.00  0.00     0.002 A 
ENDROOT
BRANCH   1   7
ATOM      7  C1  UNL d   1       1.582  -2.635  -2.104  0.00  0.00     0.055 C 
ATOM      8  C   UNL d   1       0.766  -3.302  -3.202  0.00  0.00     0.019 C 
ENDBRANCH   1   7
TORSDOF 1
ENDMDL
