MODEL 1
REMARK minimizedAffinity 6.72066402
REMARK minimizedRMSD -1
REMARK  1 active torsions:
REMARK  status: ('A' for Active; 'I' for Inactive)
REMARK    1  A    between atoms: C1_2  and  C2_3 
ROOT
ATOM      1  C2  UNL d   1       3.900   5.430  -0.106  0.00  0.00    -0.077 A 
ATOM      2  C3  UNL d   1       5.197   4.897  -0.069  0.00  0.00     0.002 A 
ATOM      3  C4  UNL d   1       5.935   4.918   1.116  0.00  0.00     0.002 A 
ATOM      4  C5  UNL d   1       5.385   5.465   2.273  0.00  0.00    -0.004 A 
ATOM      5  C6  UNL d   1       4.097   5.999   2.246  0.00  0.00     0.002 A 
ATOM      6  C7  UNL d   1       3.358   5.981   1.062  0.00  0.00     0.002 A 
ENDROOT
BRANCH   1   7
ATOM      7  C1  UNL d   1       3.084   5.365  -1.370  0.00  0.00     0.055 C 
ATOM      8  C   UNL d   1       3.422   4.124  -2.184  0.00  0.00     0.019 C 
ENDBRANCH   1   7
TORSDOF 1
ENDMDL
