MODEL 1
REMARK minimizedAffinity -1.03869772
REMARK minimizedRMSD -1
REMARK  1 active torsions:
REMARK  status: ('A' for Active; 'I' for Inactive)
REMARK    1  A    between atoms: C3_4  and  O_7 
ROOT
ATOM      1  C   UNL d   1       3.400   3.669   5.995  0.00  0.00    -0.033 A 
ATOM      2  C1  UNL d   1       4.776   3.435   5.998  0.00  0.00     0.039 A 
ATOM      3  C2  UNL d   1       5.596   4.070   5.063  0.00  0.00    -0.080 A 
ATOM      4  C3  UNL d   1       5.028   4.936   4.132  0.00  0.00     0.150 A 
ATOM      5  C4  UNL d   1       3.658   5.176   4.126  0.00  0.00    -0.007 A 
ATOM      6  C5  UNL d   1       2.841   4.541   5.060  0.00  0.00     0.039 A 
ENDROOT
BRANCH   4   7
ATOM      7  O   UNL d   1       5.788   5.574   3.198  0.00  0.00    -0.526 OA
ATOM      8  H5  UNL d   1       6.711   5.290   3.304  0.00  0.00     0.418 HD
ENDBRANCH   4   7
TORSDOF 1
ENDMDL
