MODEL 1
REMARK minimizedAffinity 3.63099623
REMARK minimizedRMSD -1
REMARK  1 active torsions:
REMARK  status: ('A' for Active; 'I' for Inactive)
REMARK    1  A    between atoms: C3_4  and  O_7 
ROOT
ATOM      1  C   UNL d   1      -4.682  -0.099  -0.579  0.00  0.00    -0.033 A 
ATOM      2  C1  UNL d   1      -3.384   0.070  -0.094  0.00  0.00     0.039 A 
ATOM      3  C2  UNL d   1      -3.130   0.998   0.918  0.00  0.00    -0.080 A 
ATOM      4  C3  UNL d   1      -4.182   1.749   1.436  0.00  0.00     0.150 A 
ATOM      5  C4  UNL d   1      -5.478   1.582   0.960  0.00  0.00    -0.007 A 
ATOM      6  C5  UNL d   1      -5.730   0.656  -0.050  0.00  0.00     0.039 A 
ENDROOT
BRANCH   4   7
ATOM      7  O   UNL d   1      -3.982   2.670   2.421  0.00  0.00    -0.526 OA
ATOM      8  H5  UNL d   1      -3.034   2.697   2.630  0.00  0.00     0.418 HD
ENDBRANCH   4   7
TORSDOF 1
ENDMDL
