MODEL 1
REMARK minimizedAffinity 3.30391765
REMARK minimizedRMSD -1
REMARK  1 active torsions:
REMARK  status: ('A' for Active; 'I' for Inactive)
REMARK    1  A    between atoms: C3_4  and  O_7 
ROOT
ATOM      1  C   UNL d   1      -3.711  -0.222  -1.098  0.00  0.00    -0.033 A 
ATOM      2  C1  UNL d   1      -2.499   0.260  -0.599  0.00  0.00     0.039 A 
ATOM      3  C2  UNL d   1      -2.489   1.146   0.480  0.00  0.00    -0.080 A 
ATOM      4  C3  UNL d   1      -3.696   1.542   1.050  0.00  0.00     0.150 A 
ATOM      5  C4  UNL d   1      -4.906   1.064   0.560  0.00  0.00    -0.007 A 
ATOM      6  C5  UNL d   1      -4.914   0.179  -0.518  0.00  0.00     0.039 A 
ENDROOT
BRANCH   4   7
ATOM      7  O   UNL d   1      -3.737   2.410   2.101  0.00  0.00    -0.526 OA
ATOM      8  H5  UNL d   1      -2.828   2.679   2.313  0.00  0.00     0.418 HD
ENDBRANCH   4   7
TORSDOF 1
ENDMDL
