MODEL 1
REMARK minimizedAffinity 1.85093701
REMARK minimizedRMSD -1
REMARK  1 active torsions:
REMARK  status: ('A' for Active; 'I' for Inactive)
REMARK    1  A    between atoms: C3_4  and  O_7 
ROOT
ATOM      1  C   UNL d   1       2.749  -3.528  -1.789  0.00  0.00    -0.033 A 
ATOM      2  C1  UNL d   1       2.684  -3.298  -0.413  0.00  0.00     0.039 A 
ATOM      3  C2  UNL d   1       2.986  -2.035   0.100  0.00  0.00    -0.080 A 
ATOM      4  C3  UNL d   1       3.349  -1.012  -0.772  0.00  0.00     0.150 A 
ATOM      5  C4  UNL d   1       3.412  -1.234  -2.144  0.00  0.00    -0.007 A 
ATOM      6  C5  UNL d   1       3.111  -2.496  -2.654  0.00  0.00     0.039 A 
ENDROOT
BRANCH   4   7
ATOM      7  O   UNL d   1       3.657   0.236  -0.318  0.00  0.00    -0.526 OA
ATOM      8  H5  UNL d   1       3.599   0.233   0.652  0.00  0.00     0.418 HD
ENDBRANCH   4   7
TORSDOF 1
ENDMDL
