MODEL 1
REMARK minimizedAffinity 6.48858213
REMARK minimizedRMSD -1
REMARK  1 active torsions:
REMARK  status: ('A' for Active; 'I' for Inactive)
REMARK    1  A    between atoms: C3_4  and  O_7 
ROOT
ATOM      1  C   UNL d   1       6.000   2.544   0.378  0.00  0.00    -0.033 A 
ATOM      2  C1  UNL d   1       5.208   2.822   1.494  0.00  0.00     0.039 A 
ATOM      3  C2  UNL d   1       3.877   2.400   1.531  0.00  0.00    -0.080 A 
ATOM      4  C3  UNL d   1       3.352   1.701   0.447  0.00  0.00     0.150 A 
ATOM      5  C4  UNL d   1       4.136   1.417  -0.666  0.00  0.00    -0.007 A 
ATOM      6  C5  UNL d   1       5.465   1.840  -0.701  0.00  0.00     0.039 A 
ENDROOT
BRANCH   4   7
ATOM      7  O   UNL d   1       2.058   1.273   0.435  0.00  0.00    -0.526 OA
ATOM      8  H5  UNL d   1       1.629   1.566   1.257  0.00  0.00     0.418 HD
ENDBRANCH   4   7
TORSDOF 1
ENDMDL
