MODEL 1
REMARK minimizedAffinity -1.3598243
REMARK minimizedRMSD -1
REMARK  1 active torsions:
REMARK  status: ('A' for Active; 'I' for Inactive)
REMARK    1  A    between atoms: C3_4  and  O_7 
ROOT
ATOM      1  C   UNL d   1       5.270   2.711   1.346  0.00  0.00    -0.033 A 
ATOM      2  C1  UNL d   1       5.999   1.687   0.738  0.00  0.00     0.039 A 
ATOM      3  C2  UNL d   1       5.380   0.841  -0.184  0.00  0.00    -0.080 A 
ATOM      4  C3  UNL d   1       4.035   1.030  -0.490  0.00  0.00     0.150 A 
ATOM      5  C4  UNL d   1       3.304   2.051   0.110  0.00  0.00    -0.007 A 
ATOM      6  C5  UNL d   1       3.924   2.894   1.031  0.00  0.00     0.039 A 
ENDROOT
BRANCH   4   7
ATOM      7  O   UNL d   1       3.387   0.226  -1.380  0.00  0.00    -0.526 OA
ATOM      8  H5  UNL d   1       4.009  -0.452  -1.692  0.00  0.00     0.418 HD
ENDBRANCH   4   7
TORSDOF 1
ENDMDL
