MODEL 1
REMARK minimizedAffinity -2.58946896
REMARK minimizedRMSD -1
REMARK  1 active torsions:
REMARK  status: ('A' for Active; 'I' for Inactive)
REMARK    1  A    between atoms: C3_4  and  O_7 
ROOT
ATOM      1  C   UNL d   1       5.199   2.688   0.610  0.00  0.00    -0.033 A 
ATOM      2  C1  UNL d   1       4.130   1.792   0.677  0.00  0.00     0.039 A 
ATOM      3  C2  UNL d   1       3.752   1.068  -0.455  0.00  0.00    -0.080 A 
ATOM      4  C3  UNL d   1       4.450   1.248  -1.646  0.00  0.00     0.150 A 
ATOM      5  C4  UNL d   1       5.518   2.137  -1.719  0.00  0.00    -0.007 A 
ATOM      6  C5  UNL d   1       5.893   2.860  -0.588  0.00  0.00     0.039 A 
ENDROOT
BRANCH   4   7
ATOM      7  O   UNL d   1       4.114   0.567  -2.779  0.00  0.00    -0.526 OA
ATOM      8  H5  UNL d   1       3.341   0.012  -2.586  0.00  0.00     0.418 HD
ENDBRANCH   4   7
TORSDOF 1
ENDMDL
