MODEL 1
REMARK minimizedAffinity 1.94184983
REMARK minimizedRMSD -1
REMARK  1 active torsions:
REMARK  status: ('A' for Active; 'I' for Inactive)
REMARK    1  A    between atoms: C3_4  and  O_7 
ROOT
ATOM      1  C   UNL d   1       5.657   2.682   0.380  0.00  0.00    -0.033 A 
ATOM      2  C1  UNL d   1       4.393   3.042  -0.092  0.00  0.00     0.039 A 
ATOM      3  C2  UNL d   1       3.467   2.055  -0.435  0.00  0.00    -0.080 A 
ATOM      4  C3  UNL d   1       3.817   0.714  -0.302  0.00  0.00     0.150 A 
ATOM      5  C4  UNL d   1       5.073   0.349   0.171  0.00  0.00    -0.007 A 
ATOM      6  C5  UNL d   1       5.997   1.336   0.513  0.00  0.00     0.039 A 
ENDROOT
BRANCH   4   7
ATOM      7  O   UNL d   1       2.949  -0.285  -0.628  0.00  0.00    -0.526 OA
ATOM      8  H5  UNL d   1       2.131   0.117  -0.967  0.00  0.00     0.418 HD
ENDBRANCH   4   7
TORSDOF 1
ENDMDL
