MODEL 1
REMARK minimizedAffinity 2.88732719
REMARK minimizedRMSD -1
REMARK  1 active torsions:
REMARK  status: ('A' for Active; 'I' for Inactive)
REMARK    1  A    between atoms: C3_4  and  O_7 
ROOT
ATOM      1  C   UNL d   1       1.307   6.000   5.919  0.00  0.00    -0.033 A 
ATOM      2  C1  UNL d   1       2.702   5.973   5.882  0.00  0.00     0.039 A 
ATOM      3  C2  UNL d   1       3.380   4.753   5.907  0.00  0.00    -0.080 A 
ATOM      4  C3  UNL d   1       2.651   3.568   5.967  0.00  0.00     0.150 A 
ATOM      5  C4  UNL d   1       1.261   3.587   6.000  0.00  0.00    -0.007 A 
ATOM      6  C5  UNL d   1       0.586   4.807   5.976  0.00  0.00     0.039 A 
ENDROOT
BRANCH   4   7
ATOM      7  O   UNL d   1       3.268   2.353   5.998  0.00  0.00    -0.526 OA
ATOM      8  H5  UNL d   1       4.229   2.495   5.999  0.00  0.00     0.418 HD
ENDBRANCH   4   7
TORSDOF 1
ENDMDL
