MODEL 1
REMARK minimizedAffinity -2.31323171
REMARK minimizedRMSD -1
REMARK  1 active torsions:
REMARK  status: ('A' for Active; 'I' for Inactive)
REMARK    1  A    between atoms: C1_2  and  C2_3 
ROOT
ATOM      1  C2  UNL d   1      -0.089   3.435   3.073  0.00  0.00    -0.077 A 
ATOM      2  C3  UNL d   1      -0.808   2.964   1.965  0.00  0.00     0.002 A 
ATOM      3  C4  UNL d   1      -0.241   2.023   1.104  0.00  0.00     0.002 A 
ATOM      4  C5  UNL d   1       1.044   1.541   1.344  0.00  0.00    -0.004 A 
ATOM      5  C6  UNL d   1       1.768   2.005   2.442  0.00  0.00     0.002 A 
ATOM      6  C7  UNL d   1       1.203   2.947   3.303  0.00  0.00     0.002 A 
ENDROOT
BRANCH   1   7
ATOM      7  C1  UNL d   1      -0.718   4.414   4.031  0.00  0.00     0.055 C 
ATOM      8  C   UNL d   1      -2.145   4.014   4.373  0.00  0.00     0.019 C 
ENDBRANCH   1   7
TORSDOF 1
ENDMDL
