MODEL 1
REMARK minimizedAffinity -0.254267663
REMARK minimizedRMSD -1
REMARK  1 active torsions:
REMARK  status: ('A' for Active; 'I' for Inactive)
REMARK    1  A    between atoms: C1_2  and  C2_3 
ROOT
ATOM      1  C2  UNL d   1      -0.531   3.180   2.846  0.00  0.00    -0.077 A 
ATOM      2  C3  UNL d   1      -0.951   2.099   2.060  0.00  0.00     0.002 A 
ATOM      3  C4  UNL d   1      -0.082   1.520   1.133  0.00  0.00     0.002 A 
ATOM      4  C5  UNL d   1       1.213   2.013   0.987  0.00  0.00    -0.004 A 
ATOM      5  C6  UNL d   1       1.639   3.089   1.763  0.00  0.00     0.002 A 
ATOM      6  C7  UNL d   1       0.772   3.670   2.689  0.00  0.00     0.002 A 
ENDROOT
BRANCH   1   7
ATOM      7  C1  UNL d   1      -1.450   3.774   3.882  0.00  0.00     0.055 C 
ATOM      8  C   UNL d   1      -0.812   3.759   5.263  0.00  0.00     0.019 C 
ENDBRANCH   1   7
TORSDOF 1
ENDMDL
