MODEL 1
REMARK minimizedAffinity 4.65598679
REMARK minimizedRMSD -1
REMARK  1 active torsions:
REMARK  status: ('A' for Active; 'I' for Inactive)
REMARK    1  A    between atoms: C1_2  and  C2_3 
ROOT
ATOM      1  C2  UNL d   1       0.648   1.835   2.092  0.00  0.00    -0.077 A 
ATOM      2  C3  UNL d   1       2.018   2.089   2.243  0.00  0.00     0.002 A 
ATOM      3  C4  UNL d   1       2.471   2.939   3.254  0.00  0.00     0.002 A 
ATOM      4  C5  UNL d   1       1.562   3.537   4.124  0.00  0.00    -0.004 A 
ATOM      5  C6  UNL d   1       0.197   3.292   3.980  0.00  0.00     0.002 A 
ATOM      6  C7  UNL d   1      -0.258   2.444   2.969  0.00  0.00     0.002 A 
ENDROOT
BRANCH   1   7
ATOM      7  C1  UNL d   1       0.161   0.880   1.033  0.00  0.00     0.055 C 
ATOM      8  C   UNL d   1      -0.388  -0.398   1.650  0.00  0.00     0.019 C 
ENDBRANCH   1   7
TORSDOF 1
ENDMDL
