MODEL 1
REMARK minimizedAffinity -3.071594
REMARK minimizedRMSD -1
REMARK  1 active torsions:
REMARK  status: ('A' for Active; 'I' for Inactive)
REMARK    1  A    between atoms: C1_2  and  C2_3 
ROOT
ATOM      1  C2  UNL d   1      -0.282   2.681   2.493  0.00  0.00    -0.077 A 
ATOM      2  C3  UNL d   1       0.326   3.245   3.623  0.00  0.00     0.002 A 
ATOM      3  C4  UNL d   1      -0.431   3.543   4.758  0.00  0.00     0.002 A 
ATOM      4  C5  UNL d   1      -1.798   3.277   4.775  0.00  0.00    -0.004 A 
ATOM      5  C6  UNL d   1      -2.413   2.718   3.655  0.00  0.00     0.002 A 
ATOM      6  C7  UNL d   1      -1.658   2.421   2.519  0.00  0.00     0.002 A 
ENDROOT
BRANCH   1   7
ATOM      7  C1  UNL d   1       0.542   2.313   1.287  0.00  0.00     0.055 C 
ATOM      8  C   UNL d   1       1.603   1.280   1.635  0.00  0.00     0.019 C 
ENDBRANCH   1   7
TORSDOF 1
ENDMDL
