MODEL 1
REMARK minimizedAffinity -3.53230858
REMARK minimizedRMSD -1
REMARK  1 active torsions:
REMARK  status: ('A' for Active; 'I' for Inactive)
REMARK    1  A    between atoms: C1_2  and  C2_3 
ROOT
ATOM      1  C2  UNL d   1       0.258   2.702   1.936  0.00  0.00    -0.077 A 
ATOM      2  C3  UNL d   1      -0.734   2.491   2.903  0.00  0.00     0.002 A 
ATOM      3  C4  UNL d   1      -0.888   3.387   3.964  0.00  0.00     0.002 A 
ATOM      4  C5  UNL d   1      -0.056   4.499   4.064  0.00  0.00    -0.004 A 
ATOM      5  C6  UNL d   1       0.936   4.716   3.108  0.00  0.00     0.002 A 
ATOM      6  C7  UNL d   1       1.091   3.822   2.048  0.00  0.00     0.002 A 
ENDROOT
BRANCH   1   7
ATOM      7  C1  UNL d   1       0.393   1.765   0.764  0.00  0.00     0.055 C 
ATOM      8  C   UNL d   1      -0.658   0.666   0.811  0.00  0.00     0.019 C 
ENDBRANCH   1   7
TORSDOF 1
ENDMDL
