MODEL 1
REMARK minimizedAffinity -0.661190033
REMARK minimizedRMSD -1
REMARK  1 active torsions:
REMARK  status: ('A' for Active; 'I' for Inactive)
REMARK    1  A    between atoms: C1_2  and  C2_3 
ROOT
ATOM      1  C2  UNL d   1      -4.321  -1.208   2.542  0.00  0.00    -0.077 A 
ATOM      2  C3  UNL d   1      -3.852  -0.064   1.881  0.00  0.00     0.002 A 
ATOM      3  C4  UNL d   1      -2.512   0.031   1.499  0.00  0.00     0.002 A 
ATOM      4  C5  UNL d   1      -1.633  -1.015   1.770  0.00  0.00    -0.004 A 
ATOM      5  C6  UNL d   1      -2.089  -2.156   2.429  0.00  0.00     0.002 A 
ATOM      6  C7  UNL d   1      -3.428  -2.252   2.813  0.00  0.00     0.002 A 
ENDROOT
BRANCH   1   7
ATOM      7  C1  UNL d   1      -5.776  -1.333   2.911  0.00  0.00     0.055 C 
ATOM      8  C   UNL d   1      -5.948  -1.609   4.398  0.00  0.00     0.019 C 
ENDBRANCH   1   7
TORSDOF 1
ENDMDL
