MODEL 1
REMARK minimizedAffinity -0.879025042
REMARK minimizedRMSD -1
REMARK  1 active torsions:
REMARK  status: ('A' for Active; 'I' for Inactive)
REMARK    1  A    between atoms: C1_2  and  C2_3 
ROOT
ATOM      1  C2  UNL d   1      -0.535   2.121   1.957  0.00  0.00    -0.077 A 
ATOM      2  C3  UNL d   1       0.755   2.508   1.569  0.00  0.00     0.002 A 
ATOM      3  C4  UNL d   1       1.129   2.475   0.224  0.00  0.00     0.002 A 
ATOM      4  C5  UNL d   1       0.217   2.060  -0.743  0.00  0.00    -0.004 A 
ATOM      5  C6  UNL d   1      -1.068   1.670  -0.368  0.00  0.00     0.002 A 
ATOM      6  C7  UNL d   1      -1.443   1.701   0.976  0.00  0.00     0.002 A 
ENDROOT
BRANCH   1   7
ATOM      7  C1  UNL d   1      -0.955   2.202   3.401  0.00  0.00     0.055 C 
ATOM      8  C   UNL d   1      -1.538   3.569   3.732  0.00  0.00     0.019 C 
ENDBRANCH   1   7
TORSDOF 1
ENDMDL
