MODEL 1
REMARK minimizedAffinity -3.38551521
REMARK minimizedRMSD -1
REMARK  1 active torsions:
REMARK  status: ('A' for Active; 'I' for Inactive)
REMARK    1  A    between atoms: C1_2  and  C2_3 
ROOT
ATOM      1  C2  UNL d   1      -0.612   2.562   3.193  0.00  0.00    -0.077 A 
ATOM      2  C3  UNL d   1       0.599   3.215   2.927  0.00  0.00     0.002 A 
ATOM      3  C4  UNL d   1       1.258   3.015   1.713  0.00  0.00     0.002 A 
ATOM      4  C5  UNL d   1       0.712   2.166   0.753  0.00  0.00    -0.004 A 
ATOM      5  C6  UNL d   1      -0.492   1.510   1.008  0.00  0.00     0.002 A 
ATOM      6  C7  UNL d   1      -1.151   1.707   2.222  0.00  0.00     0.002 A 
ENDROOT
BRANCH   1   7
ATOM      7  C1  UNL d   1      -1.349   2.814   4.482  0.00  0.00     0.055 C 
ATOM      8  C   UNL d   1      -1.324   4.289   4.854  0.00  0.00     0.019 C 
ENDBRANCH   1   7
TORSDOF 1
ENDMDL
