MODEL 1
REMARK minimizedAffinity 6.11193752
REMARK minimizedRMSD -1
REMARK  1 active torsions:
REMARK  status: ('A' for Active; 'I' for Inactive)
REMARK    1  A    between atoms: C1_2  and  C2_3 
ROOT
ATOM      1  C2  UNL d   1       0.947   2.387   1.670  0.00  0.00    -0.077 A 
ATOM      2  C3  UNL d   1       2.325   2.556   1.866  0.00  0.00     0.002 A 
ATOM      3  C4  UNL d   1       2.799   3.263   2.974  0.00  0.00     0.002 A 
ATOM      4  C5  UNL d   1       1.903   3.801   3.894  0.00  0.00    -0.004 A 
ATOM      5  C6  UNL d   1       0.530   3.640   3.707  0.00  0.00     0.002 A 
ATOM      6  C7  UNL d   1       0.055   2.935   2.600  0.00  0.00     0.002 A 
ENDROOT
BRANCH   1   7
ATOM      7  C1  UNL d   1       0.435   1.584   0.503  0.00  0.00     0.055 C 
ATOM      8  C   UNL d   1      -0.363   0.375   0.970  0.00  0.00     0.019 C 
ENDBRANCH   1   7
TORSDOF 1
ENDMDL
