MODEL 1
REMARK minimizedAffinity 3.5835104
REMARK minimizedRMSD -1
REMARK  1 active torsions:
REMARK  status: ('A' for Active; 'I' for Inactive)
REMARK    1  A    between atoms: C1_2  and  C2_3 
ROOT
ATOM      1  C2  UNL d   1       2.403   4.195   4.290  0.00  0.00    -0.077 A 
ATOM      2  C3  UNL d   1       2.306   5.444   4.918  0.00  0.00     0.002 A 
ATOM      3  C4  UNL d   1       3.320   5.888   5.770  0.00  0.00     0.002 A 
ATOM      4  C5  UNL d   1       4.439   5.090   5.997  0.00  0.00    -0.004 A 
ATOM      5  C6  UNL d   1       4.544   3.845   5.378  0.00  0.00     0.002 A 
ATOM      6  C7  UNL d   1       3.531   3.400   4.528  0.00  0.00     0.002 A 
ENDROOT
BRANCH   1   7
ATOM      7  C1  UNL d   1       1.334   3.736   3.333  0.00  0.00     0.055 C 
ATOM      8  C   UNL d   1       0.206   3.023   4.064  0.00  0.00     0.019 C 
ENDBRANCH   1   7
TORSDOF 1
ENDMDL
