MODEL 1
REMARK minimizedAffinity 7.44606924
REMARK minimizedRMSD -1
REMARK  1 active torsions:
REMARK  status: ('A' for Active; 'I' for Inactive)
REMARK    1  A    between atoms: C1_2  and  C2_3 
ROOT
ATOM      1  C2  UNL d   1      -0.172   2.915   3.535  0.00  0.00    -0.077 A 
ATOM      2  C3  UNL d   1      -0.881   1.767   3.157  0.00  0.00     0.002 A 
ATOM      3  C4  UNL d   1      -0.684   1.199   1.897  0.00  0.00     0.002 A 
ATOM      4  C5  UNL d   1       0.224   1.769   1.007  0.00  0.00    -0.004 A 
ATOM      5  C6  UNL d   1       0.933   2.913   1.374  0.00  0.00     0.002 A 
ATOM      6  C7  UNL d   1       0.736   3.483   2.632  0.00  0.00     0.002 A 
ENDROOT
BRANCH   1   7
ATOM      7  C1  UNL d   1      -0.346   3.501   4.912  0.00  0.00     0.055 C 
ATOM      8  C   UNL d   1      -1.757   3.274   5.435  0.00  0.00     0.019 C 
ENDBRANCH   1   7
TORSDOF 1
ENDMDL
