MODEL 1
REMARK minimizedAffinity 9.64923191
REMARK minimizedRMSD -1
REMARK  1 active torsions:
REMARK  status: ('A' for Active; 'I' for Inactive)
REMARK    1  A    between atoms: C1_2  and  C2_3 
ROOT
ATOM      1  C2  UNL d   1      -0.614   2.866   3.364  0.00  0.00    -0.077 A 
ATOM      2  C3  UNL d   1      -1.497   1.834   3.016  0.00  0.00     0.002 A 
ATOM      3  C4  UNL d   1      -1.446   1.259   1.744  0.00  0.00     0.002 A 
ATOM      4  C5  UNL d   1      -0.512   1.708   0.813  0.00  0.00    -0.004 A 
ATOM      5  C6  UNL d   1       0.369   2.735   1.148  0.00  0.00     0.002 A 
ATOM      6  C7  UNL d   1       0.318   3.311   2.418  0.00  0.00     0.002 A 
ENDROOT
BRANCH   1   7
ATOM      7  C1  UNL d   1      -0.635   3.453   4.751  0.00  0.00     0.055 C 
ATOM      8  C   UNL d   1      -1.974   3.215   5.433  0.00  0.00     0.019 C 
ENDBRANCH   1   7
TORSDOF 1
ENDMDL
