MODEL 1
REMARK minimizedAffinity -3.01410294
REMARK minimizedRMSD -1
REMARK  1 active torsions:
REMARK  status: ('A' for Active; 'I' for Inactive)
REMARK    1  A    between atoms: C1_2  and  C2_3 
ROOT
ATOM      1  C2  UNL d   1       0.979   3.061   2.396  0.00  0.00    -0.077 A 
ATOM      2  C3  UNL d   1      -0.117   2.359   2.918  0.00  0.00     0.002 A 
ATOM      3  C4  UNL d   1      -0.826   1.461   2.117  0.00  0.00     0.002 A 
ATOM      4  C5  UNL d   1      -0.445   1.254   0.794  0.00  0.00    -0.004 A 
ATOM      5  C6  UNL d   1       0.643   1.949   0.265  0.00  0.00     0.002 A 
ATOM      6  C7  UNL d   1       1.352   2.847   1.063  0.00  0.00     0.002 A 
ENDROOT
BRANCH   1   7
ATOM      7  C1  UNL d   1       1.775   3.993   3.272  0.00  0.00     0.055 C 
ATOM      8  C   UNL d   1       3.248   3.612   3.290  0.00  0.00     0.019 C 
ENDBRANCH   1   7
TORSDOF 1
ENDMDL
