MODEL 1
REMARK minimizedAffinity 6.34698009
REMARK minimizedRMSD -1
REMARK  1 active torsions:
REMARK  status: ('A' for Active; 'I' for Inactive)
REMARK    1  A    between atoms: C1_2  and  C2_3 
ROOT
ATOM      1  C2  UNL d   1      -0.637   1.937   2.608  0.00  0.00    -0.077 A 
ATOM      2  C3  UNL d   1       0.499   2.702   2.908  0.00  0.00     0.002 A 
ATOM      3  C4  UNL d   1       0.503   3.556   4.013  0.00  0.00     0.002 A 
ATOM      4  C5  UNL d   1      -0.623   3.650   4.827  0.00  0.00    -0.004 A 
ATOM      5  C6  UNL d   1      -1.758   2.894   4.535  0.00  0.00     0.002 A 
ATOM      6  C7  UNL d   1      -1.765   2.041   3.431  0.00  0.00     0.002 A 
ENDROOT
BRANCH   1   7
ATOM      7  C1  UNL d   1      -0.626   0.978   1.446  0.00  0.00     0.055 C 
ATOM      8  C   UNL d   1      -1.793   0.004   1.520  0.00  0.00     0.019 C 
ENDBRANCH   1   7
TORSDOF 1
ENDMDL
