MODEL 1
REMARK minimizedAffinity 17.5803871
REMARK minimizedRMSD -1
REMARK  1 active torsions:
REMARK  status: ('A' for Active; 'I' for Inactive)
REMARK    1  A    between atoms: C3_4  and  O_7 
ROOT
ATOM      1  C   UNL d   1       1.118   5.506  -3.017  0.00  0.00    -0.033 A 
ATOM      2  C1  UNL d   1       0.179   5.970  -3.940  0.00  0.00     0.039 A 
ATOM      3  C2  UNL d   1      -0.871   5.144  -4.347  0.00  0.00    -0.080 A 
ATOM      4  C3  UNL d   1      -0.971   3.858  -3.822  0.00  0.00     0.150 A 
ATOM      5  C4  UNL d   1      -0.041   3.390  -2.900  0.00  0.00    -0.007 A 
ATOM      6  C5  UNL d   1       1.007   4.216  -2.496  0.00  0.00     0.039 A 
ENDROOT
BRANCH   4   7
ATOM      7  O   UNL d   1      -1.975   3.014  -4.192  0.00  0.00    -0.526 OA
ATOM      8  H5  UNL d   1      -2.525   3.462  -4.857  0.00  0.00     0.418 HD
ENDBRANCH   4   7
TORSDOF 1
ENDMDL
