MODEL 1
REMARK minimizedAffinity 2.74617982
REMARK minimizedRMSD -1
REMARK  1 active torsions:
REMARK  status: ('A' for Active; 'I' for Inactive)
REMARK    1  A    between atoms: C3_4  and  O_7 
ROOT
ATOM      1  C   UNL d   1       2.911  -2.280  -5.999  0.00  0.00    -0.033 A 
ATOM      2  C1  UNL d   1       1.569  -1.904  -5.907  0.00  0.00     0.039 A 
ATOM      3  C2  UNL d   1       0.831  -2.219  -4.765  0.00  0.00    -0.080 A 
ATOM      4  C3  UNL d   1       1.444  -2.909  -3.723  0.00  0.00     0.150 A 
ATOM      5  C4  UNL d   1       2.782  -3.283  -3.806  0.00  0.00    -0.007 A 
ATOM      6  C5  UNL d   1       3.517  -2.968  -4.948  0.00  0.00     0.039 A 
ENDROOT
BRANCH   4   7
ATOM      7  O   UNL d   1       0.763  -3.243  -2.591  0.00  0.00    -0.526 OA
ATOM      8  H5  UNL d   1      -0.157  -2.946  -2.686  0.00  0.00     0.418 HD
ENDBRANCH   4   7
TORSDOF 1
ENDMDL
