MODEL 1
REMARK minimizedAffinity 4.09786558
REMARK minimizedRMSD -1
REMARK  1 active torsions:
REMARK  status: ('A' for Active; 'I' for Inactive)
REMARK    1  A    between atoms: C3_4  and  O_7 
ROOT
ATOM      1  C   UNL d   1      -5.999  -4.817   1.124  0.00  0.00    -0.033 A 
ATOM      2  C1  UNL d   1      -5.993  -3.562   1.735  0.00  0.00     0.039 A 
ATOM      3  C2  UNL d   1      -5.984  -3.462   3.128  0.00  0.00    -0.080 A 
ATOM      4  C3  UNL d   1      -5.980  -4.622   3.897  0.00  0.00     0.150 A 
ATOM      5  C4  UNL d   1      -5.982  -5.876   3.294  0.00  0.00    -0.007 A 
ATOM      6  C5  UNL d   1      -5.992  -5.974   1.904  0.00  0.00     0.039 A 
ENDROOT
BRANCH   4   7
ATOM      7  O   UNL d   1      -5.976  -4.575   5.259  0.00  0.00    -0.526 OA
ATOM      8  H5  UNL d   1      -6.004  -3.643   5.535  0.00  0.00     0.418 HD
ENDBRANCH   4   7
TORSDOF 1
ENDMDL
