MODEL 1
REMARK minimizedAffinity 12.3146658
REMARK minimizedRMSD -1
REMARK  1 active torsions:
REMARK  status: ('A' for Active; 'I' for Inactive)
REMARK    1  A    between atoms: C3_4  and  O_7 
ROOT
ATOM      1  C   UNL d   1      -4.660   5.651  -0.806  0.00  0.00    -0.033 A 
ATOM      2  C1  UNL d   1      -5.892   5.909  -0.202  0.00  0.00     0.039 A 
ATOM      3  C2  UNL d   1      -5.985   6.000   1.188  0.00  0.00    -0.080 A 
ATOM      4  C3  UNL d   1      -4.839   5.833   1.961  0.00  0.00     0.150 A 
ATOM      5  C4  UNL d   1      -3.607   5.581   1.366  0.00  0.00    -0.007 A 
ATOM      6  C5  UNL d   1      -3.517   5.489  -0.023  0.00  0.00     0.039 A 
ENDROOT
BRANCH   4   7
ATOM      7  O   UNL d   1      -4.880   5.909   3.322  0.00  0.00    -0.526 OA
ATOM      8  H5  UNL d   1      -5.801   6.059   3.594  0.00  0.00     0.418 HD
ENDBRANCH   4   7
TORSDOF 1
ENDMDL
