MODEL 1
REMARK minimizedAffinity 13.0086403
REMARK minimizedRMSD -1
REMARK  1 active torsions:
REMARK  status: ('A' for Active; 'I' for Inactive)
REMARK    1  A    between atoms: C3_4  and  O_7 
ROOT
ATOM      1  C   UNL d   1       2.715  -3.212  -5.986  0.00  0.00    -0.033 A 
ATOM      2  C1  UNL d   1       3.202  -1.903  -5.980  0.00  0.00     0.039 A 
ATOM      3  C2  UNL d   1       2.314  -0.826  -5.982  0.00  0.00    -0.080 A 
ATOM      4  C3  UNL d   1       0.943  -1.070  -5.989  0.00  0.00     0.150 A 
ATOM      5  C4  UNL d   1       0.451  -2.371  -5.991  0.00  0.00    -0.007 A 
ATOM      6  C5  UNL d   1       1.340  -3.446  -5.990  0.00  0.00     0.039 A 
ENDROOT
BRANCH   4   7
ATOM      7  O   UNL d   1       0.038  -0.051  -5.996  0.00  0.00    -0.526 OA
ATOM      8  H5  UNL d   1       0.522   0.791  -6.023  0.00  0.00     0.418 HD
ENDBRANCH   4   7
TORSDOF 1
ENDMDL
