MODEL 1
REMARK minimizedAffinity 11.2914085
REMARK minimizedRMSD -1
REMARK  1 active torsions:
REMARK  status: ('A' for Active; 'I' for Inactive)
REMARK    1  A    between atoms: C3_4  and  O_7 
ROOT
ATOM      1  C   UNL d   1       4.407  -1.958   1.514  0.00  0.00    -0.033 A 
ATOM      2  C1  UNL d   1       3.353  -2.868   1.607  0.00  0.00     0.039 A 
ATOM      3  C2  UNL d   1       3.615  -4.234   1.733  0.00  0.00    -0.080 A 
ATOM      4  C3  UNL d   1       4.935  -4.676   1.764  0.00  0.00     0.150 A 
ATOM      5  C4  UNL d   1       5.991  -3.774   1.675  0.00  0.00    -0.007 A 
ATOM      6  C5  UNL d   1       5.727  -2.411   1.549  0.00  0.00     0.039 A 
ENDROOT
BRANCH   4   7
ATOM      7  O   UNL d   1       5.241  -5.999   1.880  0.00  0.00    -0.526 OA
ATOM      8  H5  UNL d   1       4.412  -6.506   1.903  0.00  0.00     0.418 HD
ENDBRANCH   4   7
TORSDOF 1
ENDMDL
