MODEL 1
REMARK minimizedAffinity 10.0838108
REMARK minimizedRMSD -1
REMARK  1 active torsions:
REMARK  status: ('A' for Active; 'I' for Inactive)
REMARK    1  A    between atoms: C3_4  and  O_7 
ROOT
ATOM      1  C   UNL d   1      -4.187   5.966   0.289  0.00  0.00    -0.033 A 
ATOM      2  C1  UNL d   1      -5.555   5.973   0.567  0.00  0.00     0.039 A 
ATOM      3  C2  UNL d   1      -6.000   5.985   1.891  0.00  0.00    -0.080 A 
ATOM      4  C3  UNL d   1      -5.067   5.992   2.925  0.00  0.00     0.150 A 
ATOM      5  C4  UNL d   1      -3.703   5.989   2.654  0.00  0.00    -0.007 A 
ATOM      6  C5  UNL d   1      -3.261   5.976   1.332  0.00  0.00     0.039 A 
ENDROOT
BRANCH   4   7
ATOM      7  O   UNL d   1      -5.454   5.999   4.232  0.00  0.00    -0.526 OA
ATOM      8  H5  UNL d   1      -6.424   5.971   4.266  0.00  0.00     0.418 HD
ENDBRANCH   4   7
TORSDOF 1
ENDMDL
