MODEL 1
REMARK minimizedAffinity 12.1068516
REMARK minimizedRMSD -1
REMARK  1 active torsions:
REMARK  status: ('A' for Active; 'I' for Inactive)
REMARK    1  A    between atoms: C3_4  and  O_7 
ROOT
ATOM      1  C   UNL d   1      -4.254   5.634  -1.165  0.00  0.00    -0.033 A 
ATOM      2  C1  UNL d   1      -5.590   5.819  -0.804  0.00  0.00     0.039 A 
ATOM      3  C2  UNL d   1      -5.940   5.945   0.542  0.00  0.00    -0.080 A 
ATOM      4  C3  UNL d   1      -4.946   5.886   1.515  0.00  0.00     0.150 A 
ATOM      5  C4  UNL d   1      -3.613   5.706   1.162  0.00  0.00    -0.007 A 
ATOM      6  C5  UNL d   1      -3.266   5.579  -0.182  0.00  0.00     0.039 A 
ENDROOT
BRANCH   4   7
ATOM      7  O   UNL d   1      -5.240   6.000   2.841  0.00  0.00    -0.526 OA
ATOM      8  H5  UNL d   1      -6.203   6.091   2.937  0.00  0.00     0.418 HD
ENDBRANCH   4   7
TORSDOF 1
ENDMDL
