MODEL 1
REMARK minimizedAffinity 8.33745861
REMARK minimizedRMSD -1
REMARK  1 active torsions:
REMARK  status: ('A' for Active; 'I' for Inactive)
REMARK    1  A    between atoms: C3_4  and  O_7 
ROOT
ATOM      1  C   UNL d   1       2.364  -4.854  -1.874  0.00  0.00    -0.033 A 
ATOM      2  C1  UNL d   1       2.557  -3.707  -2.648  0.00  0.00     0.039 A 
ATOM      3  C2  UNL d   1       2.201  -3.706  -3.998  0.00  0.00    -0.080 A 
ATOM      4  C3  UNL d   1       1.654  -4.856  -4.561  0.00  0.00     0.150 A 
ATOM      5  C4  UNL d   1       1.456  -6.000  -3.796  0.00  0.00    -0.007 A 
ATOM      6  C5  UNL d   1       1.812  -5.999  -2.448  0.00  0.00     0.039 A 
ENDROOT
BRANCH   4   7
ATOM      7  O   UNL d   1       1.296  -4.904  -5.876  0.00  0.00    -0.526 OA
ATOM      8  H5  UNL d   1       1.517  -4.052  -6.287  0.00  0.00     0.418 HD
ENDBRANCH   4   7
TORSDOF 1
ENDMDL
