MODEL 1
REMARK minimizedAffinity 13.3518476
REMARK minimizedRMSD -1
REMARK  1 active torsions:
REMARK  status: ('A' for Active; 'I' for Inactive)
REMARK    1  A    between atoms: C3_4  and  O_7 
ROOT
ATOM      1  C   UNL d   1      -1.645   5.060  -3.547  0.00  0.00    -0.033 A 
ATOM      2  C1  UNL d   1      -0.658   5.711  -2.804  0.00  0.00     0.039 A 
ATOM      3  C2  UNL d   1      -0.050   5.063  -1.728  0.00  0.00    -0.080 A 
ATOM      4  C3  UNL d   1      -0.437   3.765  -1.405  0.00  0.00     0.150 A 
ATOM      5  C4  UNL d   1      -1.417   3.109  -2.143  0.00  0.00    -0.007 A 
ATOM      6  C5  UNL d   1      -2.023   3.759  -3.217  0.00  0.00     0.039 A 
ENDROOT
BRANCH   4   7
ATOM      7  O   UNL d   1       0.124   3.093  -0.360  0.00  0.00    -0.526 OA
ATOM      8  H5  UNL d   1       0.765   3.680   0.075  0.00  0.00     0.418 HD
ENDBRANCH   4   7
TORSDOF 1
ENDMDL
