MODEL 1
REMARK minimizedAffinity 5.73963547
REMARK minimizedRMSD -1
REMARK  1 active torsions:
REMARK  status: ('A' for Active; 'I' for Inactive)
REMARK    1  A    between atoms: C3_4  and  O_7 
ROOT
ATOM      1  C   UNL d   1      -4.847  -4.447   3.447  0.00  0.00    -0.033 A 
ATOM      2  C1  UNL d   1      -5.896  -4.665   2.553  0.00  0.00     0.039 A 
ATOM      3  C2  UNL d   1      -5.999  -3.893   1.393  0.00  0.00    -0.080 A 
ATOM      4  C3  UNL d   1      -5.047  -2.910   1.140  0.00  0.00     0.150 A 
ATOM      5  C4  UNL d   1      -3.997  -2.690   2.025  0.00  0.00    -0.007 A 
ATOM      6  C5  UNL d   1      -3.896  -3.461   3.183  0.00  0.00     0.039 A 
ENDROOT
BRANCH   4   7
ATOM      7  O   UNL d   1      -5.108  -2.129   0.025  0.00  0.00    -0.526 OA
ATOM      8  H5  UNL d   1      -5.902  -2.374  -0.479  0.00  0.00     0.418 HD
ENDBRANCH   4   7
TORSDOF 1
ENDMDL
