MODEL 1
REMARK minimizedAffinity 3.49527979
REMARK minimizedRMSD -1
REMARK  1 active torsions:
REMARK  status: ('A' for Active; 'I' for Inactive)
REMARK    1  A    between atoms: C3_4  and  O_7 
ROOT
ATOM      1  C   UNL d   1       0.137   5.580  -1.085  0.00  0.00    -0.033 A 
ATOM      2  C1  UNL d   1      -0.591   5.723   0.098  0.00  0.00     0.039 A 
ATOM      3  C2  UNL d   1      -0.981   4.593   0.820  0.00  0.00    -0.080 A 
ATOM      4  C3  UNL d   1      -0.636   3.329   0.350  0.00  0.00     0.150 A 
ATOM      5  C4  UNL d   1       0.092   3.180  -0.826  0.00  0.00    -0.007 A 
ATOM      6  C5  UNL d   1       0.480   4.309  -1.546  0.00  0.00     0.039 A 
ENDROOT
BRANCH   4   7
ATOM      7  O   UNL d   1      -0.999   2.197   1.018  0.00  0.00    -0.526 OA
ATOM      8  H5  UNL d   1      -1.522   2.453   1.796  0.00  0.00     0.418 HD
ENDBRANCH   4   7
TORSDOF 1
ENDMDL
