MODEL 1
REMARK minimizedAffinity 5.54397774
REMARK minimizedRMSD -1
REMARK  1 active torsions:
REMARK  status: ('A' for Active; 'I' for Inactive)
REMARK    1  A    between atoms: C3_4  and  O_7 
ROOT
ATOM      1  C   UNL d   1      -0.631   5.129  -1.962  0.00  0.00    -0.033 A 
ATOM      2  C1  UNL d   1      -0.058   5.239  -0.694  0.00  0.00     0.039 A 
ATOM      3  C2  UNL d   1       0.152   4.096   0.081  0.00  0.00    -0.080 A 
ATOM      4  C3  UNL d   1      -0.214   2.852  -0.424  0.00  0.00     0.150 A 
ATOM      5  C4  UNL d   1      -0.782   2.734  -1.688  0.00  0.00    -0.007 A 
ATOM      6  C5  UNL d   1      -0.991   3.876  -2.460  0.00  0.00     0.039 A 
ENDROOT
BRANCH   4   7
ATOM      7  O   UNL d   1      -0.033   1.709   0.297  0.00  0.00    -0.526 OA
ATOM      8  H5  UNL d   1       0.342   1.946   1.162  0.00  0.00     0.418 HD
ENDBRANCH   4   7
TORSDOF 1
ENDMDL
