MODEL 1
REMARK minimizedAffinity 0.113775305
REMARK minimizedRMSD -1
REMARK  1 active torsions:
REMARK  status: ('A' for Active; 'I' for Inactive)
REMARK    1  A    between atoms: C3_4  and  O_7 
ROOT
ATOM      1  C   UNL d   1       0.296   5.273  -1.673  0.00  0.00    -0.033 A 
ATOM      2  C1  UNL d   1       0.588   5.316  -0.309  0.00  0.00     0.039 A 
ATOM      3  C2  UNL d   1       0.213   4.258   0.521  0.00  0.00    -0.080 A 
ATOM      4  C3  UNL d   1      -0.453   3.164  -0.026  0.00  0.00     0.150 A 
ATOM      5  C4  UNL d   1      -0.744   3.113  -1.385  0.00  0.00    -0.007 A 
ATOM      6  C5  UNL d   1      -0.369   4.171  -2.212  0.00  0.00     0.039 A 
ENDROOT
BRANCH   4   7
ATOM      7  O   UNL d   1      -0.844   2.110   0.745  0.00  0.00    -0.526 OA
ATOM      8  H5  UNL d   1      -0.602   2.296   1.668  0.00  0.00     0.418 HD
ENDBRANCH   4   7
TORSDOF 1
ENDMDL
