MODEL 1
REMARK minimizedAffinity 4.02487421
REMARK minimizedRMSD -1
REMARK  1 active torsions:
REMARK  status: ('A' for Active; 'I' for Inactive)
REMARK    1  A    between atoms: C3_4  and  O_7 
ROOT
ATOM      1  C   UNL d   1       0.075   3.834   1.278  0.00  0.00    -0.033 A 
ATOM      2  C1  UNL d   1       0.383   4.789   0.307  0.00  0.00     0.039 A 
ATOM      3  C2  UNL d   1       0.266   4.472  -1.048  0.00  0.00    -0.080 A 
ATOM      4  C3  UNL d   1      -0.161   3.200  -1.418  0.00  0.00     0.150 A 
ATOM      5  C4  UNL d   1      -0.473   2.245  -0.456  0.00  0.00    -0.007 A 
ATOM      6  C5  UNL d   1      -0.355   2.563   0.896  0.00  0.00     0.039 A 
ENDROOT
BRANCH   4   7
ATOM      7  O   UNL d   1      -0.287   2.843  -2.728  0.00  0.00    -0.526 OA
ATOM      8  H5  UNL d   1      -0.009   3.594  -3.279  0.00  0.00     0.418 HD
ENDBRANCH   4   7
TORSDOF 1
ENDMDL
