MODEL 1
REMARK minimizedAffinity 11.914587
REMARK minimizedRMSD -1
REMARK  1 active torsions:
REMARK  status: ('A' for Active; 'I' for Inactive)
REMARK    1  A    between atoms: N_2  and  C1_3 
ROOT
ATOM      1  C1  UNL d   1      -1.896  -1.239  -0.488  0.00  0.00     0.143 A 
ATOM      2  C2  UNL d   1      -0.716  -1.569   0.187  0.00  0.00    -0.057 A 
ATOM      3  C3  UNL d   1      -0.722  -1.876   1.553  0.00  0.00     0.033 A 
ATOM      4  C4  UNL d   1      -1.910  -1.831   2.276  0.00  0.00    -0.042 A 
ATOM      5  C5  UNL d   1      -3.091  -1.481   1.631  0.00  0.00     0.033 A 
ATOM      6  C6  UNL d   1      -3.078  -1.182   0.266  0.00  0.00    -0.057 A 
ENDROOT
BRANCH   1   7
ATOM      7  N   UNL d   1      -1.939  -0.828  -1.823  0.00  0.00    -0.732 N 
ATOM      8  C   UNL d   1      -1.513  -1.717  -2.882  0.00  0.00     0.284 C 
ATOM      9  H3  UNL d   1      -2.781  -0.298  -2.039  0.00  0.00     0.395 HD
ENDBRANCH   1   7
TORSDOF 1
ENDMDL
