MODEL 1
REMARK minimizedAffinity 9.89041424
REMARK minimizedRMSD -1
REMARK  1 active torsions:
REMARK  status: ('A' for Active; 'I' for Inactive)
REMARK    1  A    between atoms: N_2  and  C1_3 
ROOT
ATOM      1  C1  UNL d   1       4.871   3.136   4.653  0.00  0.00     0.143 A 
ATOM      2  C2  UNL d   1       3.706   3.558   5.302  0.00  0.00    -0.057 A 
ATOM      3  C3  UNL d   1       3.647   4.795   5.956  0.00  0.00     0.033 A 
ATOM      4  C4  UNL d   1       4.765   5.621   5.996  0.00  0.00    -0.042 A 
ATOM      5  C5  UNL d   1       5.942   5.211   5.379  0.00  0.00     0.033 A 
ATOM      6  C6  UNL d   1       5.992   3.978   4.722  0.00  0.00    -0.057 A 
ENDROOT
BRANCH   1   7
ATOM      7  N   UNL d   1       5.024   1.875   4.070  0.00  0.00    -0.732 N 
ATOM      8  C   UNL d   1       5.165   1.738   2.636  0.00  0.00     0.284 C 
ATOM      9  H3  UNL d   1       5.640   1.271   4.608  0.00  0.00     0.395 HD
ENDBRANCH   1   7
TORSDOF 1
ENDMDL
