MODEL 1
REMARK minimizedAffinity 9.39103317
REMARK minimizedRMSD -1
REMARK  1 active torsions:
REMARK  status: ('A' for Active; 'I' for Inactive)
REMARK    1  A    between atoms: N_2  and  C1_3 
ROOT
ATOM      1  C1  UNL d   1       4.043   3.350   5.904  0.00  0.00     0.143 A 
ATOM      2  C2  UNL d   1       5.422   3.588   5.904  0.00  0.00    -0.057 A 
ATOM      3  C3  UNL d   1       5.934   4.890   5.948  0.00  0.00     0.033 A 
ATOM      4  C4  UNL d   1       5.074   5.983   5.964  0.00  0.00    -0.042 A 
ATOM      5  C5  UNL d   1       3.700   5.771   5.939  0.00  0.00     0.033 A 
ATOM      6  C6  UNL d   1       3.194   4.468   5.902  0.00  0.00    -0.057 A 
ENDROOT
BRANCH   1   7
ATOM      7  N   UNL d   1       3.472   2.083   5.761  0.00  0.00    -0.732 N 
ATOM      8  C   UNL d   1       3.934   1.178   4.731  0.00  0.00     0.284 C 
ATOM      9  H3  UNL d   1       3.291   1.636   6.657  0.00  0.00     0.395 HD
ENDBRANCH   1   7
TORSDOF 1
ENDMDL
