MODEL 1
REMARK minimizedAffinity 8.34886932
REMARK minimizedRMSD -1
REMARK  1 active torsions:
REMARK  status: ('A' for Active; 'I' for Inactive)
REMARK    1  A    between atoms: N_2  and  C1_3 
ROOT
ATOM      1  C1  UNL d   1      -1.939  -2.087  -0.473  0.00  0.00     0.143 A 
ATOM      2  C2  UNL d   1      -1.246  -3.267  -0.185  0.00  0.00    -0.057 A 
ATOM      3  C3  UNL d   1      -0.800  -3.549   1.112  0.00  0.00     0.033 A 
ATOM      4  C4  UNL d   1      -1.016  -2.638   2.141  0.00  0.00    -0.042 A 
ATOM      5  C5  UNL d   1      -1.681  -1.448   1.873  0.00  0.00     0.033 A 
ATOM      6  C6  UNL d   1      -2.130  -1.175   0.577  0.00  0.00    -0.057 A 
ENDROOT
BRANCH   1   7
ATOM      7  N   UNL d   1      -2.322  -1.704  -1.761  0.00  0.00    -0.732 N 
ATOM      8  C   UNL d   1      -1.925  -2.488  -2.911  0.00  0.00     0.284 C 
ATOM      9  H3  UNL d   1      -3.282  -1.369  -1.798  0.00  0.00     0.395 HD
ENDBRANCH   1   7
TORSDOF 1
ENDMDL
