MODEL 1
REMARK minimizedAffinity 4.70226574
REMARK minimizedRMSD -1
REMARK  1 active torsions:
REMARK  status: ('A' for Active; 'I' for Inactive)
REMARK    1  A    between atoms: N_2  and  C1_3 
ROOT
ATOM      1  C1  UNL d   1      -0.539  -5.314   2.921  0.00  0.00     0.143 A 
ATOM      2  C2  UNL d   1      -0.044  -4.031   2.666  0.00  0.00    -0.057 A 
ATOM      3  C3  UNL d   1      -0.187  -3.435   1.407  0.00  0.00     0.033 A 
ATOM      4  C4  UNL d   1      -0.805  -4.126   0.369  0.00  0.00    -0.042 A 
ATOM      5  C5  UNL d   1      -1.282  -5.413   0.594  0.00  0.00     0.033 A 
ATOM      6  C6  UNL d   1      -1.141  -6.000   1.855  0.00  0.00    -0.057 A 
ENDROOT
BRANCH   1   7
ATOM      7  N   UNL d   1      -0.340  -6.000   4.122  0.00  0.00    -0.732 N 
ATOM      8  C   UNL d   1      -1.075  -5.629   5.312  0.00  0.00     0.284 C 
ATOM      9  H3  UNL d   1      -0.248  -7.004   3.986  0.00  0.00     0.395 HD
ENDBRANCH   1   7
TORSDOF 1
ENDMDL
