MODEL 1
REMARK minimizedAffinity 10.7109661
REMARK minimizedRMSD -1
REMARK  1 active torsions:
REMARK  status: ('A' for Active; 'I' for Inactive)
REMARK    1  A    between atoms: N_2  and  C1_3 
ROOT
ATOM      1  C1  UNL d   1      -1.722   1.199  -4.117  0.00  0.00     0.143 A 
ATOM      2  C2  UNL d   1      -0.354   1.491  -4.153  0.00  0.00    -0.057 A 
ATOM      3  C3  UNL d   1       0.169   2.405  -5.075  0.00  0.00     0.033 A 
ATOM      4  C4  UNL d   1      -0.665   3.024  -6.000  0.00  0.00    -0.042 A 
ATOM      5  C5  UNL d   1      -2.024   2.730  -5.999  0.00  0.00     0.033 A 
ATOM      6  C6  UNL d   1      -2.542   1.821  -5.071  0.00  0.00    -0.057 A 
ENDROOT
BRANCH   1   7
ATOM      7  N   UNL d   1      -2.287   0.225  -3.289  0.00  0.00    -0.732 N 
ATOM      8  C   UNL d   1      -1.475  -0.839  -2.740  0.00  0.00     0.284 C 
ATOM      9  H3  UNL d   1      -2.959   0.617  -2.633  0.00  0.00     0.395 HD
ENDBRANCH   1   7
TORSDOF 1
ENDMDL
