MODEL 1
REMARK minimizedAffinity 8.13313198
REMARK minimizedRMSD -1
REMARK  1 active torsions:
REMARK  status: ('A' for Active; 'I' for Inactive)
REMARK    1  A    between atoms: N_2  and  C1_3 
ROOT
ATOM      1  C1  UNL d   1       4.899   3.389   4.935  0.00  0.00     0.143 A 
ATOM      2  C2  UNL d   1       5.999   4.253   4.943  0.00  0.00    -0.057 A 
ATOM      3  C3  UNL d   1       5.906   5.541   5.483  0.00  0.00     0.033 A 
ATOM      4  C4  UNL d   1       4.699   6.000   6.000  0.00  0.00    -0.042 A 
ATOM      5  C5  UNL d   1       3.586   5.167   5.979  0.00  0.00     0.033 A 
ATOM      6  C6  UNL d   1       3.687   3.879   5.445  0.00  0.00    -0.057 A 
ENDROOT
BRANCH   1   7
ATOM      7  N   UNL d   1       4.902   2.132   4.323  0.00  0.00    -0.732 N 
ATOM      8  C   UNL d   1       5.682   1.896   3.128  0.00  0.00     0.284 C 
ATOM      9  H3  UNL d   1       4.935   1.372   4.999  0.00  0.00     0.395 HD
ENDBRANCH   1   7
TORSDOF 1
ENDMDL
