MODEL 1
REMARK minimizedAffinity 19.8816891
REMARK minimizedRMSD -1
REMARK  1 active torsions:
REMARK  status: ('A' for Active; 'I' for Inactive)
REMARK    1  A    between atoms: N_2  and  C1_3 
ROOT
ATOM      1  C1  UNL d   1      -0.662  -3.871   0.414  0.00  0.00     0.143 A 
ATOM      2  C2  UNL d   1      -0.643  -2.478   0.541  0.00  0.00    -0.057 A 
ATOM      3  C3  UNL d   1      -0.878  -1.645  -0.560  0.00  0.00     0.033 A 
ATOM      4  C4  UNL d   1      -1.109  -2.193  -1.817  0.00  0.00    -0.042 A 
ATOM      5  C5  UNL d   1      -1.107  -3.575  -1.972  0.00  0.00     0.033 A 
ATOM      6  C6  UNL d   1      -0.878  -4.401  -0.867  0.00  0.00    -0.057 A 
ENDROOT
BRANCH   1   7
ATOM      7  N   UNL d   1      -0.338  -4.750   1.450  0.00  0.00    -0.732 N 
ATOM      8  C   UNL d   1      -1.051  -5.999   1.607  0.00  0.00     0.284 C 
ATOM      9  H3  UNL d   1       0.666  -4.824   1.597  0.00  0.00     0.395 HD
ENDBRANCH   1   7
TORSDOF 1
ENDMDL
