MODEL 1
REMARK minimizedAffinity 6.23725319
REMARK minimizedRMSD -1
REMARK  1 active torsions:
REMARK  status: ('A' for Active; 'I' for Inactive)
REMARK    1  A    between atoms: N_2  and  C1_3 
ROOT
ATOM      1  C1  UNL d   1       5.352   3.665   4.725  0.00  0.00     0.143 A 
ATOM      2  C2  UNL d   1       5.773   4.999   4.716  0.00  0.00    -0.057 A 
ATOM      3  C3  UNL d   1       5.032   5.999   5.359  0.00  0.00     0.033 A 
ATOM      4  C4  UNL d   1       3.838   5.684   5.999  0.00  0.00    -0.042 A 
ATOM      5  C5  UNL d   1       3.387   4.369   5.999  0.00  0.00     0.033 A 
ATOM      6  C6  UNL d   1       4.135   3.375   5.361  0.00  0.00    -0.057 A 
ENDROOT
BRANCH   1   7
ATOM      7  N   UNL d   1       5.993   2.643   4.021  0.00  0.00    -0.732 N 
ATOM      8  C   UNL d   1       5.806   2.502   2.592  0.00  0.00     0.284 C 
ATOM      9  H3  UNL d   1       6.951   2.499   4.331  0.00  0.00     0.395 HD
ENDBRANCH   1   7
TORSDOF 1
ENDMDL
