MODEL 1
REMARK minimizedAffinity 18.3300362
REMARK minimizedRMSD -1
REMARK  1 active torsions:
REMARK  status: ('A' for Active; 'I' for Inactive)
REMARK    1  A    between atoms: N_2  and  C1_3 
ROOT
ATOM      1  C1  UNL d   1      -1.413   1.155   2.539  0.00  0.00     0.143 A 
ATOM      2  C2  UNL d   1      -1.281   0.641   3.834  0.00  0.00    -0.057 A 
ATOM      3  C3  UNL d   1      -0.993  -0.712   4.053  0.00  0.00     0.033 A 
ATOM      4  C4  UNL d   1      -0.861  -1.584   2.977  0.00  0.00    -0.042 A 
ATOM      5  C5  UNL d   1      -1.013  -1.100   1.682  0.00  0.00     0.033 A 
ATOM      6  C6  UNL d   1      -1.294   0.253   1.470  0.00  0.00    -0.057 A 
ENDROOT
BRANCH   1   7
ATOM      7  N   UNL d   1      -1.795   2.469   2.259  0.00  0.00    -0.732 N 
ATOM      8  C   UNL d   1      -3.082   2.750   1.660  0.00  0.00     0.284 C 
ATOM      9  H3  UNL d   1      -1.529   3.116   2.997  0.00  0.00     0.395 HD
ENDBRANCH   1   7
TORSDOF 1
ENDMDL
