MODEL 1
REMARK minimizedAffinity 6.70453596
REMARK minimizedRMSD -1
REMARK  1 active torsions:
REMARK  status: ('A' for Active; 'I' for Inactive)
REMARK    1  A    between atoms: N_2  and  C1_3 
ROOT
ATOM      1  C1  UNL d   1       3.522   5.362   5.732  0.00  0.00     0.143 A 
ATOM      2  C2  UNL d   1       4.758   5.980   5.955  0.00  0.00    -0.057 A 
ATOM      3  C3  UNL d   1       5.960   5.286   5.772  0.00  0.00     0.033 A 
ATOM      4  C4  UNL d   1       5.947   3.949   5.388  0.00  0.00    -0.042 A 
ATOM      5  C5  UNL d   1       4.730   3.308   5.184  0.00  0.00     0.033 A 
ATOM      6  C6  UNL d   1       3.533   4.008   5.363  0.00  0.00    -0.057 A 
ENDROOT
BRANCH   1   7
ATOM      7  N   UNL d   1       2.291   5.969   5.992  0.00  0.00    -0.732 N 
ATOM      8  C   UNL d   1       1.100   5.553   5.284  0.00  0.00     0.284 C 
ATOM      9  H3  UNL d   1       2.146   6.143   6.984  0.00  0.00     0.395 HD
ENDBRANCH   1   7
TORSDOF 1
ENDMDL
