MODEL 1
REMARK minimizedAffinity 15.8441954
REMARK minimizedRMSD -1
REMARK  1 active torsions:
REMARK  status: ('A' for Active; 'I' for Inactive)
REMARK    1  A    between atoms: N_2  and  C1_3 
ROOT
ATOM      1  C1  UNL d   1       5.041   3.880   3.775  0.00  0.00     0.143 A 
ATOM      2  C2  UNL d   1       4.241   3.683   4.906  0.00  0.00    -0.057 A 
ATOM      3  C3  UNL d   1       4.284   4.569   5.989  0.00  0.00     0.033 A 
ATOM      4  C4  UNL d   1       5.154   5.654   5.974  0.00  0.00    -0.042 A 
ATOM      5  C5  UNL d   1       5.977   5.856   4.871  0.00  0.00     0.033 A 
ATOM      6  C6  UNL d   1       5.924   4.972   3.789  0.00  0.00    -0.057 A 
ENDROOT
BRANCH   1   7
ATOM      7  N   UNL d   1       5.115   2.981   2.708  0.00  0.00    -0.732 N 
ATOM      8  C   UNL d   1       4.511   3.300   1.433  0.00  0.00     0.284 C 
ATOM      9  H3  UNL d   1       6.028   2.538   2.637  0.00  0.00     0.395 HD
ENDBRANCH   1   7
TORSDOF 1
ENDMDL
