MODEL 1
REMARK minimizedAffinity 15.4677572
REMARK minimizedRMSD -1
REMARK  1 active torsions:
REMARK  status: ('A' for Active; 'I' for Inactive)
REMARK    1  A    between atoms: N_2  and  C1_3 
ROOT
ATOM      1  C1  UNL d   1      -1.598  -4.370   4.724  0.00  0.00     0.143 A 
ATOM      2  C2  UNL d   1      -1.355  -5.693   4.341  0.00  0.00    -0.057 A 
ATOM      3  C3  UNL d   1      -0.753  -5.994   3.113  0.00  0.00     0.033 A 
ATOM      4  C4  UNL d   1      -0.409  -4.975   2.231  0.00  0.00    -0.042 A 
ATOM      5  C5  UNL d   1      -0.664  -3.654   2.581  0.00  0.00     0.033 A 
ATOM      6  C6  UNL d   1      -1.259  -3.359   3.811  0.00  0.00    -0.057 A 
ENDROOT
BRANCH   1   7
ATOM      7  N   UNL d   1      -2.282  -4.010   5.888  0.00  0.00    -0.732 N 
ATOM      8  C   UNL d   1      -2.920  -2.716   5.998  0.00  0.00     0.284 C 
ATOM      9  H3  UNL d   1      -2.831  -4.778   6.268  0.00  0.00     0.395 HD
ENDBRANCH   1   7
TORSDOF 1
ENDMDL
