MODEL 1
REMARK minimizedAffinity 11.0542707
REMARK minimizedRMSD -1
REMARK  0 active torsions:
REMARK  status: ('A' for Active; 'I' for Inactive)
ROOT
ATOM      1  C4' PXY d   1      -1.531   1.038  -1.712  0.00  0.00     0.077 C 
ATOM      2  C1' PXY d   1      -1.697   4.977   2.516  0.00  0.00     0.077 C 
ATOM      3  C1  PXY d   1      -1.641   3.940   1.411  0.00  0.00    -0.082 A 
ATOM      4  C2  PXY d   1      -2.361   4.114   0.314  0.00  0.00     0.003 A 
ATOM      5  C3  PXY d   1      -2.347   3.170  -0.681  0.00  0.00     0.003 A 
ATOM      6  C4  PXY d   1      -1.548   2.064  -0.575  0.00  0.00    -0.082 A 
ATOM      7  C5  PXY d   1      -0.803   1.885   0.536  0.00  0.00     0.003 A 
ATOM      8  C6  PXY d   1      -0.862   2.834   1.553  0.00  0.00     0.003 A 
ENDROOT
TORSDOF 0
ENDMDL
