MODEL 1
REMARK minimizedAffinity -1.72120523
REMARK minimizedRMSD -1
REMARK  0 active torsions:
REMARK  status: ('A' for Active; 'I' for Inactive)
ROOT
ATOM      1  C4' PXY d   1       0.917   0.302   1.938  0.00  0.00     0.077 C 
ATOM      2  C1' PXY d   1       4.502  -1.552  -2.201  0.00  0.00     0.077 C 
ATOM      3  C1  PXY d   1       3.570  -1.055  -1.113  0.00  0.00    -0.082 A 
ATOM      4  C2  PXY d   1       2.756  -1.907  -0.511  0.00  0.00     0.003 A 
ATOM      5  C3  PXY d   1       1.884  -1.469   0.453  0.00  0.00     0.003 A 
ATOM      6  C4  PXY d   1       1.882  -0.156   0.841  0.00  0.00    -0.082 A 
ATOM      7  C5  PXY d   1       2.716   0.717   0.238  0.00  0.00     0.003 A 
ATOM      8  C6  PXY d   1       3.565   0.260  -0.767  0.00  0.00     0.003 A 
ENDROOT
TORSDOF 0
ENDMDL
