MODEL 1
REMARK minimizedAffinity 8.85346603
REMARK minimizedRMSD -1
REMARK  0 active torsions:
REMARK  status: ('A' for Active; 'I' for Inactive)
ROOT
ATOM      1  C4' PXY d   1       3.310   0.026  -0.533  0.00  0.00     0.077 C 
ATOM      2  C1' PXY d   1      -0.144  -4.596  -0.887  0.00  0.00     0.077 C 
ATOM      3  C1  PXY d   1       0.763  -3.385  -0.781  0.00  0.00    -0.082 A 
ATOM      4  C2  PXY d   1       0.726  -2.456  -1.723  0.00  0.00     0.003 A 
ATOM      5  C3  PXY d   1       1.562  -1.371  -1.659  0.00  0.00     0.003 A 
ATOM      6  C4  PXY d   1       2.406  -1.209  -0.594  0.00  0.00    -0.082 A 
ATOM      7  C5  PXY d   1       2.442  -2.147   0.376  0.00  0.00     0.003 A 
ATOM      8  C6  PXY d   1       1.615  -3.261   0.272  0.00  0.00     0.003 A 
ENDROOT
TORSDOF 0
ENDMDL
