MODEL 1
REMARK minimizedAffinity 7.89554739
REMARK minimizedRMSD -1
REMARK  0 active torsions:
REMARK  status: ('A' for Active; 'I' for Inactive)
ROOT
ATOM      1  C4' PXY d   1       3.737   0.797  -0.330  0.00  0.00     0.077 C 
ATOM      2  C1' PXY d   1       0.650  -4.090  -0.293  0.00  0.00     0.077 C 
ATOM      3  C1  PXY d   1       1.455  -2.806  -0.291  0.00  0.00    -0.082 A 
ATOM      4  C2  PXY d   1       1.808  -2.253  -1.440  0.00  0.00     0.003 A 
ATOM      5  C3  PXY d   1       2.564  -1.109  -1.456  0.00  0.00     0.003 A 
ATOM      6  C4  PXY d   1       2.916  -0.495  -0.284  0.00  0.00    -0.082 A 
ATOM      7  C5  PXY d   1       2.550  -1.046   0.892  0.00  0.00     0.003 A 
ATOM      8  C6  PXY d   1       1.819  -2.231   0.888  0.00  0.00     0.003 A 
ENDROOT
TORSDOF 0
ENDMDL
