MODEL 1
REMARK minimizedAffinity 9.89205074
REMARK minimizedRMSD -1
REMARK  0 active torsions:
REMARK  status: ('A' for Active; 'I' for Inactive)
ROOT
ATOM      1  C4' PXY d   1       1.473   1.195   3.548  0.00  0.00     0.077 C 
ATOM      2  C1' PXY d   1      -1.969   0.907  -1.087  0.00  0.00     0.077 C 
ATOM      3  C1  PXY d   1      -1.076   0.988   0.135  0.00  0.00    -0.082 A 
ATOM      4  C2  PXY d   1       0.238   0.992  -0.014  0.00  0.00     0.003 A 
ATOM      5  C3  PXY d   1       1.061   1.033   1.082  0.00  0.00     0.003 A 
ATOM      6  C4  PXY d   1       0.533   1.123   2.342  0.00  0.00    -0.082 A 
ATOM      7  C5  PXY d   1      -0.808   1.131   2.502  0.00  0.00     0.003 A 
ATOM      8  C6  PXY d   1      -1.626   1.047   1.379  0.00  0.00     0.003 A 
ENDROOT
TORSDOF 0
ENDMDL
