MODEL 1
REMARK minimizedAffinity 6.98546743
REMARK minimizedRMSD -1
REMARK  0 active torsions:
REMARK  status: ('A' for Active; 'I' for Inactive)
ROOT
ATOM      1  C4' PXY d   1      -0.544  -0.384  -1.672  0.00  0.00     0.077 C 
ATOM      2  C1' PXY d   1      -4.788   1.152  -5.284  0.00  0.00     0.077 C 
ATOM      3  C1  PXY d   1      -3.684   0.747  -4.327  0.00  0.00    -0.082 A 
ATOM      4  C2  PXY d   1      -2.446   1.160  -4.545  0.00  0.00     0.003 A 
ATOM      5  C3  PXY d   1      -1.430   0.778  -3.707  0.00  0.00     0.003 A 
ATOM      6  C4  PXY d   1      -1.692   0.008  -2.606  0.00  0.00    -0.082 A 
ATOM      7  C5  PXY d   1      -2.954  -0.409  -2.371  0.00  0.00     0.003 A 
ATOM      8  C6  PXY d   1      -3.965  -0.044  -3.256  0.00  0.00     0.003 A 
ENDROOT
TORSDOF 0
ENDMDL
