MODEL 1
REMARK minimizedAffinity 3.32954454
REMARK minimizedRMSD -1
REMARK  0 active torsions:
REMARK  status: ('A' for Active; 'I' for Inactive)
ROOT
ATOM      1  C4' PXY d   1      -0.823   1.284  -0.185  0.00  0.00     0.077 C 
ATOM      2  C1' PXY d   1       0.611  -0.271   5.195  0.00  0.00     0.077 C 
ATOM      3  C1  PXY d   1       0.223   0.133   3.786  0.00  0.00    -0.082 A 
ATOM      4  C2  PXY d   1       1.159   0.253   2.859  0.00  0.00     0.003 A 
ATOM      5  C3  PXY d   1       0.830   0.647   1.588  0.00  0.00     0.003 A 
ATOM      6  C4  PXY d   1      -0.478   0.870   1.249  0.00  0.00    -0.082 A 
ATOM      7  C5  PXY d   1      -1.440   0.740   2.186  0.00  0.00     0.003 A 
ATOM      8  C6  PXY d   1      -1.080   0.378   3.481  0.00  0.00     0.003 A 
ENDROOT
TORSDOF 0
ENDMDL
