MODEL 1
REMARK minimizedAffinity 5.65349054
REMARK minimizedRMSD -1
REMARK  0 active torsions:
REMARK  status: ('A' for Active; 'I' for Inactive)
ROOT
ATOM      1  C4' PXY d   1      -1.435   2.141   1.114  0.00  0.00     0.077 C 
ATOM      2  C1' PXY d   1       1.640  -0.744   5.069  0.00  0.00     0.077 C 
ATOM      3  C1  PXY d   1       0.843   0.022   4.030  0.00  0.00    -0.082 A 
ATOM      4  C2  PXY d   1      -0.476  -0.076   4.015  0.00  0.00     0.003 A 
ATOM      5  C3  PXY d   1      -1.210   0.583   3.063  0.00  0.00     0.003 A 
ATOM      6  C4  PXY d   1      -0.591   1.394   2.150  0.00  0.00    -0.082 A 
ATOM      7  C5  PXY d   1       0.754   1.508   2.166  0.00  0.00     0.003 A 
ATOM      8  C6  PXY d   1       1.484   0.797   3.114  0.00  0.00     0.003 A 
ENDROOT
TORSDOF 0
ENDMDL
