MODEL 1
REMARK minimizedAffinity 1.79827249
REMARK minimizedRMSD -1
REMARK  0 active torsions:
REMARK  status: ('A' for Active; 'I' for Inactive)
ROOT
ATOM      1  C4' PXY d   1      -1.595   1.325  -0.893  0.00  0.00     0.077 C 
ATOM      2  C1' PXY d   1       1.324   0.665   4.052  0.00  0.00     0.077 C 
ATOM      3  C1  PXY d   1       0.570   0.841   2.749  0.00  0.00    -0.082 A 
ATOM      4  C2  PXY d   1      -0.717   1.147   2.775  0.00  0.00     0.003 A 
ATOM      5  C3  PXY d   1      -1.422   1.278   1.606  0.00  0.00     0.003 A 
ATOM      6  C4  PXY d   1      -0.791   1.147   0.398  0.00  0.00    -0.082 A 
ATOM      7  C5  PXY d   1       0.524   0.845   0.364  0.00  0.00     0.003 A 
ATOM      8  C6  PXY d   1       1.213   0.676   1.561  0.00  0.00     0.003 A 
ENDROOT
TORSDOF 0
ENDMDL
