MODEL 1
REMARK minimizedAffinity 4.50884199
REMARK minimizedRMSD -1
REMARK  0 active torsions:
REMARK  status: ('A' for Active; 'I' for Inactive)
ROOT
ATOM      1  C4' PXY d   1      -1.659   1.447  -0.953  0.00  0.00     0.077 C 
ATOM      2  C1' PXY d   1       1.188   0.696   4.022  0.00  0.00     0.077 C 
ATOM      3  C1  PXY d   1       0.452   0.899   2.712  0.00  0.00    -0.082 A 
ATOM      4  C2  PXY d   1      -0.869   0.977   2.709  0.00  0.00     0.003 A 
ATOM      5  C3  PXY d   1      -1.552   1.128   1.530  0.00  0.00     0.003 A 
ATOM      6  C4  PXY d   1      -0.874   1.253   0.347  0.00  0.00    -0.082 A 
ATOM      7  C5  PXY d   1       0.474   1.185   0.343  0.00  0.00     0.003 A 
ATOM      8  C6  PXY d   1       1.147   0.990   1.546  0.00  0.00     0.003 A 
ENDROOT
TORSDOF 0
ENDMDL
