MODEL 1
REMARK minimizedAffinity 2.71836448
REMARK minimizedRMSD -1
REMARK  0 active torsions:
REMARK  status: ('A' for Active; 'I' for Inactive)
ROOT
ATOM      1  C4' PXY d   1      -1.972   0.809  -1.007  0.00  0.00     0.077 C 
ATOM      2  C1' PXY d   1       1.473   0.574   3.629  0.00  0.00     0.077 C 
ATOM      3  C1  PXY d   1       0.580   0.639   2.406  0.00  0.00    -0.082 A 
ATOM      4  C2  PXY d   1      -0.718   0.849   2.554  0.00  0.00     0.003 A 
ATOM      5  C3  PXY d   1      -1.545   0.879   1.461  0.00  0.00     0.003 A 
ATOM      6  C4  PXY d   1      -1.031   0.745   0.199  0.00  0.00    -0.082 A 
ATOM      7  C5  PXY d   1       0.294   0.541   0.039  0.00  0.00     0.003 A 
ATOM      8  C6  PXY d   1       1.110   0.473   1.164  0.00  0.00     0.003 A 
ENDROOT
TORSDOF 0
ENDMDL
