MODEL 1
REMARK minimizedAffinity -4.61056137
REMARK minimizedRMSD -1
REMARK  0 active torsions:
REMARK  status: ('A' for Active; 'I' for Inactive)
ROOT
ATOM      1  C4' PXY d   1      -0.810  -1.907   0.526  0.00  0.00     0.077 C 
ATOM      2  C1' PXY d   1       1.742   3.254   1.046  0.00  0.00     0.077 C 
ATOM      3  C1  PXY d   1       1.062   1.906   0.904  0.00  0.00    -0.082 A 
ATOM      4  C2  PXY d   1       1.425   0.905   1.689  0.00  0.00     0.003 A 
ATOM      5  C3  PXY d   1       0.843  -0.329   1.553  0.00  0.00     0.003 A 
ATOM      6  C4  PXY d   1      -0.158  -0.526   0.640  0.00  0.00    -0.082 A 
ATOM      7  C5  PXY d   1      -0.542   0.494  -0.157  0.00  0.00     0.003 A 
ATOM      8  C6  PXY d   1       0.090   1.728  -0.031  0.00  0.00     0.003 A 
ENDROOT
TORSDOF 0
ENDMDL
