MODEL 1
REMARK minimizedAffinity -2.02405882
REMARK minimizedRMSD -1
REMARK  0 active torsions:
REMARK  status: ('A' for Active; 'I' for Inactive)
ROOT
ATOM      1  C4' PXY d   1       0.429  -0.397  -3.001  0.00  0.00     0.077 C 
ATOM      2  C1' PXY d   1      -1.634  -1.243   2.333  0.00  0.00     0.077 C 
ATOM      3  C1  PXY d   1      -1.095  -1.008   0.936  0.00  0.00    -0.082 A 
ATOM      4  C2  PXY d   1      -1.158  -1.979   0.039  0.00  0.00     0.003 A 
ATOM      5  C3  PXY d   1      -0.646  -1.795  -1.220  0.00  0.00     0.003 A 
ATOM      6  C4  PXY d   1      -0.112  -0.586  -1.581  0.00  0.00    -0.082 A 
ATOM      7  C5  PXY d   1      -0.054   0.412  -0.674  0.00  0.00     0.003 A 
ATOM      8  C6  PXY d   1      -0.542   0.192   0.610  0.00  0.00     0.003 A 
ENDROOT
TORSDOF 0
ENDMDL
