MODEL 1
REMARK minimizedAffinity -4.46746111
REMARK minimizedRMSD -1
REMARK  0 active torsions:
REMARK  status: ('A' for Active; 'I' for Inactive)
ROOT
ATOM      1  C4' PXY d   1       0.359  -1.140  -2.549  0.00  0.00     0.077 C 
ATOM      2  C1' PXY d   1      -1.805  -0.336   2.751  0.00  0.00     0.077 C 
ATOM      3  C1  PXY d   1      -1.234  -0.559   1.364  0.00  0.00    -0.082 A 
ATOM      4  C2  PXY d   1      -0.806   0.475   0.659  0.00  0.00     0.003 A 
ATOM      5  C3  PXY d   1      -0.317   0.295  -0.610  0.00  0.00     0.003 A 
ATOM      6  C4  PXY d   1      -0.215  -0.963  -1.141  0.00  0.00    -0.082 A 
ATOM      7  C5  PXY d   1      -0.640  -2.024  -0.423  0.00  0.00     0.003 A 
ATOM      8  C6  PXY d   1      -1.172  -1.816   0.846  0.00  0.00     0.003 A 
ENDROOT
TORSDOF 0
ENDMDL
