MODEL 1
REMARK minimizedAffinity -4.09510803
REMARK minimizedRMSD -1
REMARK  0 active torsions:
REMARK  status: ('A' for Active; 'I' for Inactive)
ROOT
ATOM      1  C4' PXY d   1       1.931   2.766   0.333  0.00  0.00     0.077 C 
ATOM      2  C1' PXY d   1      -0.642  -2.391   0.779  0.00  0.00     0.077 C 
ATOM      3  C1  PXY d   1       0.030  -1.038   0.649  0.00  0.00    -0.082 A 
ATOM      4  C2  PXY d   1       0.923  -0.663   1.551  0.00  0.00     0.003 A 
ATOM      5  C3  PXY d   1       1.517   0.570   1.466  0.00  0.00     0.003 A 
ATOM      6  C4  PXY d   1       1.234   1.405   0.419  0.00  0.00    -0.082 A 
ATOM      7  C5  PXY d   1       0.332   1.025  -0.511  0.00  0.00     0.003 A 
ATOM      8  C6  PXY d   1      -0.290  -0.213  -0.384  0.00  0.00     0.003 A 
ENDROOT
TORSDOF 0
ENDMDL
