MODEL 1
REMARK minimizedAffinity -3.7264719
REMARK minimizedRMSD -1
REMARK  0 active torsions:
REMARK  status: ('A' for Active; 'I' for Inactive)
ROOT
ATOM      1  C4' PXY d   1       2.142   3.017   0.434  0.00  0.00     0.077 C 
ATOM      2  C1' PXY d   1      -1.413  -1.519   0.882  0.00  0.00     0.077 C 
ATOM      3  C1  PXY d   1      -0.482  -0.330   0.751  0.00  0.00    -0.082 A 
ATOM      4  C2  PXY d   1       0.365  -0.051   1.730  0.00  0.00     0.003 A 
ATOM      5  C3  PXY d   1       1.192   1.039   1.642  0.00  0.00     0.003 A 
ATOM      6  C4  PXY d   1       1.190   1.821   0.518  0.00  0.00    -0.082 A 
ATOM      7  C5  PXY d   1       0.337   1.537  -0.489  0.00  0.00     0.003 A 
ATOM      8  C6  PXY d   1      -0.523   0.451  -0.363  0.00  0.00     0.003 A 
ENDROOT
TORSDOF 0
ENDMDL
