MODEL 1
REMARK minimizedAffinity -0.830343783
REMARK minimizedRMSD -1
REMARK  0 active torsions:
REMARK  status: ('A' for Active; 'I' for Inactive)
ROOT
ATOM      1  C4' PXY d   1       1.167   2.991   0.427  0.00  0.00     0.077 C 
ATOM      2  C1' PXY d   1      -1.321  -2.226   0.371  0.00  0.00     0.077 C 
ATOM      3  C1  PXY d   1      -0.664  -0.860   0.373  0.00  0.00    -0.082 A 
ATOM      4  C2  PXY d   1      -0.306  -0.308   1.521  0.00  0.00     0.003 A 
ATOM      5  C3  PXY d   1       0.260   0.941   1.544  0.00  0.00     0.003 A 
ATOM      6  C4  PXY d   1       0.510   1.609   0.376  0.00  0.00    -0.082 A 
ATOM      7  C5  PXY d   1       0.157   1.049  -0.800  0.00  0.00     0.003 A 
ATOM      8  C6  PXY d   1      -0.454  -0.202  -0.799  0.00  0.00     0.003 A 
ENDROOT
TORSDOF 0
ENDMDL
