MODEL 1
REMARK minimizedAffinity -2.28609824
REMARK minimizedRMSD -1
REMARK  0 active torsions:
REMARK  status: ('A' for Active; 'I' for Inactive)
ROOT
ATOM      1  C4' PXY d   1      -0.788  -0.609   0.860  0.00  0.00     0.077 C 
ATOM      2  C1' PXY d   1       2.847   3.869   0.466  0.00  0.00     0.077 C 
ATOM      3  C1  PXY d   1       1.884   2.703   0.572  0.00  0.00    -0.082 A 
ATOM      4  C2  PXY d   1       2.344   1.499   0.873  0.00  0.00     0.003 A 
ATOM      5  C3  PXY d   1       1.491   0.428   0.941  0.00  0.00     0.003 A 
ATOM      6  C4  PXY d   1       0.146   0.599   0.751  0.00  0.00    -0.082 A 
ATOM      7  C5  PXY d   1      -0.332   1.826   0.454  0.00  0.00     0.003 A 
ATOM      8  C6  PXY d   1       0.555   2.893   0.349  0.00  0.00     0.003 A 
ENDROOT
TORSDOF 0
ENDMDL
