MODEL 1
REMARK minimizedAffinity -3.21705103
REMARK minimizedRMSD -1
REMARK  0 active torsions:
REMARK  status: ('A' for Active; 'I' for Inactive)
ROOT
ATOM      1  C4' PXY d   1      -0.102  -1.846  -2.734  0.00  0.00     0.077 C 
ATOM      2  C1' PXY d   1      -1.512  -0.545   2.720  0.00  0.00     0.077 C 
ATOM      3  C1  PXY d   1      -1.141  -0.899   1.293  0.00  0.00    -0.082 A 
ATOM      4  C2  PXY d   1      -0.641   0.032   0.497  0.00  0.00     0.003 A 
ATOM      5  C3  PXY d   1      -0.330  -0.262  -0.806  0.00  0.00     0.003 A 
ATOM      6  C4  PXY d   1      -0.482  -1.537  -1.283  0.00  0.00    -0.082 A 
ATOM      7  C5  PXY d   1      -0.981  -2.495  -0.474  0.00  0.00     0.003 A 
ATOM      8  C6  PXY d   1      -1.329  -2.166   0.833  0.00  0.00     0.003 A 
ENDROOT
TORSDOF 0
ENDMDL
