MODEL 1
REMARK minimizedAffinity -3.20509577
REMARK minimizedRMSD -1
REMARK  0 active torsions:
REMARK  status: ('A' for Active; 'I' for Inactive)
ROOT
ATOM      1  C4' PXY d   1      -1.313  -1.717   1.017  0.00  0.00     0.077 C 
ATOM      2  C1' PXY d   1       1.570   3.188  -0.003  0.00  0.00     0.077 C 
ATOM      3  C1  PXY d   1       0.803   1.907   0.261  0.00  0.00    -0.082 A 
ATOM      4  C2  PXY d   1       1.300   1.007   1.093  0.00  0.00     0.003 A 
ATOM      5  C3  PXY d   1       0.635  -0.171   1.319  0.00  0.00     0.003 A 
ATOM      6  C4  PXY d   1      -0.578  -0.406   0.728  0.00  0.00    -0.082 A 
ATOM      7  C5  PXY d   1      -1.097   0.513  -0.114  0.00  0.00     0.003 A 
ATOM      8  C6  PXY d   1      -0.386   1.683  -0.362  0.00  0.00     0.003 A 
ENDROOT
TORSDOF 0
ENDMDL
