MODEL 1
REMARK minimizedAffinity -0.505190313
REMARK minimizedRMSD -1
REMARK  0 active torsions:
REMARK  status: ('A' for Active; 'I' for Inactive)
ROOT
ATOM      1  C4' PXY d   1      -0.747  -2.645  -0.091  0.00  0.00     0.077 C 
ATOM      2  C1' PXY d   1       0.655   2.962  -0.205  0.00  0.00     0.077 C 
ATOM      3  C1  PXY d   1       0.283   1.493  -0.188  0.00  0.00    -0.082 A 
ATOM      4  C2  PXY d   1       0.046   0.892   0.967  0.00  0.00     0.003 A 
ATOM      5  C3  PXY d   1      -0.260  -0.444   1.004  0.00  0.00     0.003 A 
ATOM      6  C4  PXY d   1      -0.377  -1.160  -0.157  0.00  0.00    -0.082 A 
ATOM      7  C5  PXY d   1      -0.148  -0.552  -1.340  0.00  0.00     0.003 A 
ATOM      8  C6  PXY d   1       0.202   0.795  -1.353  0.00  0.00     0.003 A 
ENDROOT
TORSDOF 0
ENDMDL
