MODEL 1
REMARK minimizedAffinity -3.71987867
REMARK minimizedRMSD -1
REMARK  0 active torsions:
REMARK  status: ('A' for Active; 'I' for Inactive)
ROOT
ATOM      1  C4' PXY d   1      -0.924  -1.696   0.165  0.00  0.00     0.077 C 
ATOM      2  C1' PXY d   1       2.357   3.061   0.298  0.00  0.00     0.077 C 
ATOM      3  C1  PXY d   1       1.486   1.821   0.261  0.00  0.00    -0.082 A 
ATOM      4  C2  PXY d   1       1.872   0.731   0.905  0.00  0.00     0.003 A 
ATOM      5  C3  PXY d   1       1.112  -0.410   0.855  0.00  0.00     0.003 A 
ATOM      6  C4  PXY d   1      -0.081  -0.418   0.183  0.00  0.00    -0.082 A 
ATOM      7  C5  PXY d   1      -0.487   0.693  -0.467  0.00  0.00     0.003 A 
ATOM      8  C6  PXY d   1       0.319   1.828  -0.438  0.00  0.00     0.003 A 
ENDROOT
TORSDOF 0
ENDMDL
