MODEL 1
REMARK minimizedAffinity -3.11178899
REMARK minimizedRMSD -1
REMARK  0 active torsions:
REMARK  status: ('A' for Active; 'I' for Inactive)
ROOT
ATOM      1  C4' PXY d   1      -0.750  -2.717   0.410  0.00  0.00     0.077 C 
ATOM      2  C1' PXY d   1       0.491   2.926   0.575  0.00  0.00     0.077 C 
ATOM      3  C1  PXY d   1       0.159   1.447   0.544  0.00  0.00    -0.082 A 
ATOM      4  C2  PXY d   1       0.904   0.625  -0.179  0.00  0.00     0.003 A 
ATOM      5  C3  PXY d   1       0.599  -0.710  -0.244  0.00  0.00     0.003 A 
ATOM      6  C4  PXY d   1      -0.447  -1.218   0.479  0.00  0.00    -0.082 A 
ATOM      7  C5  PXY d   1      -1.204  -0.388   1.227  0.00  0.00     0.003 A 
ATOM      8  C6  PXY d   1      -0.903   0.971   1.247  0.00  0.00     0.003 A 
ENDROOT
TORSDOF 0
ENDMDL
