MODEL 1
REMARK minimizedAffinity -4.66966295
REMARK minimizedRMSD -1
REMARK  0 active torsions:
REMARK  status: ('A' for Active; 'I' for Inactive)
ROOT
ATOM      1  C4' PXY d   1       1.910   2.349   0.031  0.00  0.00     0.077 C 
ATOM      2  C1' PXY d   1      -1.450  -2.324   0.565  0.00  0.00     0.077 C 
ATOM      3  C1  PXY d   1      -0.568  -1.101   0.412  0.00  0.00    -0.082 A 
ATOM      4  C2  PXY d   1       0.070  -0.618   1.467  0.00  0.00     0.003 A 
ATOM      5  C3  PXY d   1       0.846   0.506   1.353  0.00  0.00     0.003 A 
ATOM      6  C4  PXY d   1       1.016   1.111   0.136  0.00  0.00    -0.082 A 
ATOM      7  C5  PXY d   1       0.377   0.618  -0.946  0.00  0.00     0.003 A 
ATOM      8  C6  PXY d   1      -0.439  -0.500  -0.802  0.00  0.00     0.003 A 
ENDROOT
TORSDOF 0
ENDMDL
