MODEL 1
REMARK minimizedAffinity -3.57398391
REMARK minimizedRMSD -1
REMARK  0 active torsions:
REMARK  status: ('A' for Active; 'I' for Inactive)
ROOT
ATOM      1  C4' PXY d   1       0.546   2.723   0.128  0.00  0.00     0.077 C 
ATOM      2  C1' PXY d   1      -0.553  -2.952   0.090  0.00  0.00     0.077 C 
ATOM      3  C1  PXY d   1      -0.265  -1.463   0.087  0.00  0.00    -0.082 A 
ATOM      4  C2  PXY d   1       0.323  -0.909   1.135  0.00  0.00     0.003 A 
ATOM      5  C3  PXY d   1       0.562   0.441   1.162  0.00  0.00     0.003 A 
ATOM      6  C4  PXY d   1       0.244   1.223   0.084  0.00  0.00    -0.082 A 
ATOM      7  C5  PXY d   1      -0.347   0.663  -0.993  0.00  0.00     0.003 A 
ATOM      8  C6  PXY d   1      -0.618  -0.702  -0.984  0.00  0.00     0.003 A 
ENDROOT
TORSDOF 0
ENDMDL
