MODEL 1
REMARK minimizedAffinity -4.64045048
REMARK minimizedRMSD -1
REMARK  0 active torsions:
REMARK  status: ('A' for Active; 'I' for Inactive)
ROOT
ATOM      1  C4' PXY d   1       1.939   3.327   0.379  0.00  0.00     0.077 C 
ATOM      2  C1' PXY d   1      -0.835  -1.734   0.707  0.00  0.00     0.077 C 
ATOM      3  C1  PXY d   1      -0.113  -0.405   0.610  0.00  0.00    -0.082 A 
ATOM      4  C2  PXY d   1       1.014  -0.222   1.278  0.00  0.00     0.003 A 
ATOM      5  C3  PXY d   1       1.662   0.985   1.227  0.00  0.00     0.003 A 
ATOM      6  C4  PXY d   1       1.181   1.998   0.441  0.00  0.00    -0.082 A 
ATOM      7  C5  PXY d   1       0.038   1.815  -0.253  0.00  0.00     0.003 A 
ATOM      8  C6  PXY d   1      -0.628   0.596  -0.155  0.00  0.00     0.003 A 
ENDROOT
TORSDOF 0
ENDMDL
