MODEL 1
REMARK minimizedAffinity -1.67418742
REMARK minimizedRMSD -1
REMARK  0 active torsions:
REMARK  status: ('A' for Active; 'I' for Inactive)
ROOT
ATOM      1  C4' PXY d   1       1.788   2.589  -0.071  0.00  0.00     0.077 C 
ATOM      2  C1' PXY d   1      -1.587  -2.008   0.867  0.00  0.00     0.077 C 
ATOM      3  C1  PXY d   1      -0.702  -0.805   0.608  0.00  0.00    -0.082 A 
ATOM      4  C2  PXY d   1       0.091  -0.358   1.568  0.00  0.00     0.003 A 
ATOM      5  C3  PXY d   1       0.874   0.748   1.362  0.00  0.00     0.003 A 
ATOM      6  C4  PXY d   1       0.885   1.372   0.143  0.00  0.00    -0.082 A 
ATOM      7  C5  PXY d   1       0.086   0.916  -0.845  0.00  0.00     0.003 A 
ATOM      8  C6  PXY d   1      -0.732  -0.184  -0.602  0.00  0.00     0.003 A 
ENDROOT
TORSDOF 0
ENDMDL
