MODEL 1
REMARK minimizedAffinity -2.08654094
REMARK minimizedRMSD -1
REMARK  0 active torsions:
REMARK  status: ('A' for Active; 'I' for Inactive)
ROOT
ATOM      1  C4' PXY d   1       0.615   2.569  -0.191  0.00  0.00     0.077 C 
ATOM      2  C1' PXY d   1      -0.816  -3.029  -0.031  0.00  0.00     0.077 C 
ATOM      3  C1  PXY d   1      -0.433  -1.563  -0.083  0.00  0.00    -0.082 A 
ATOM      4  C2  PXY d   1      -0.563  -0.814   1.000  0.00  0.00     0.003 A 
ATOM      5  C3  PXY d   1      -0.251   0.520   0.962  0.00  0.00     0.003 A 
ATOM      6  C4  PXY d   1       0.249   1.083  -0.182  0.00  0.00    -0.082 A 
ATOM      7  C5  PXY d   1       0.395   0.323  -1.288  0.00  0.00     0.003 A 
ATOM      8  C6  PXY d   1       0.034  -1.021  -1.240  0.00  0.00     0.003 A 
ENDROOT
TORSDOF 0
ENDMDL
