MODEL 1
REMARK minimizedAffinity -2.66964459
REMARK minimizedRMSD -1
REMARK  0 active torsions:
REMARK  status: ('A' for Active; 'I' for Inactive)
ROOT
ATOM      1  C4' PXY d   1       0.283   2.887   0.346  0.00  0.00     0.077 C 
ATOM      2  C1' PXY d   1      -0.623  -2.809   0.735  0.00  0.00     0.077 C 
ATOM      3  C1  PXY d   1      -0.380  -1.317   0.621  0.00  0.00    -0.082 A 
ATOM      4  C2  PXY d   1      -0.301  -0.582   1.718  0.00  0.00     0.003 A 
ATOM      5  C3  PXY d   1      -0.113   0.774   1.633  0.00  0.00     0.003 A 
ATOM      6  C4  PXY d   1       0.048   1.375   0.413  0.00  0.00    -0.082 A 
ATOM      7  C5  PXY d   1      -0.022   0.630  -0.710  0.00  0.00     0.003 A 
ATOM      8  C6  PXY d   1      -0.254  -0.738  -0.603  0.00  0.00     0.003 A 
ENDROOT
TORSDOF 0
ENDMDL
