MODEL 1
REMARK minimizedAffinity -3.47299385
REMARK minimizedRMSD -1
REMARK  0 active torsions:
REMARK  status: ('A' for Active; 'I' for Inactive)
ROOT
ATOM      1  C4' PXY d   1      -1.185  -1.885   1.490  0.00  0.00     0.077 C 
ATOM      2  C1' PXY d   1       1.120   3.309   0.427  0.00  0.00     0.077 C 
ATOM      3  C1  PXY d   1       0.524   1.945   0.716  0.00  0.00    -0.082 A 
ATOM      4  C2  PXY d   1      -0.051   1.262  -0.261  0.00  0.00     0.003 A 
ATOM      5  C3  PXY d   1      -0.624   0.042  -0.010  0.00  0.00     0.003 A 
ATOM      6  C4  PXY d   1      -0.561  -0.509   1.242  0.00  0.00    -0.082 A 
ATOM      7  C5  PXY d   1       0.033   0.177   2.242  0.00  0.00     0.003 A 
ATOM      8  C6  PXY d   1       0.572   1.433   1.975  0.00  0.00     0.003 A 
ENDROOT
TORSDOF 0
ENDMDL
