MODEL 1
REMARK minimizedAffinity -3.7105813
REMARK minimizedRMSD -1
REMARK  0 active torsions:
REMARK  status: ('A' for Active; 'I' for Inactive)
ROOT
ATOM      1  C   UNL d   1       1.416  -0.372  -3.453  0.00  0.00     0.077 C 
ATOM      2  C1  UNL d   1       1.214   0.055  -2.029  0.00  0.00    -0.074 A 
ATOM      3  C2  UNL d   1       2.074   0.980  -1.428  0.00  0.00    -0.005 A 
ATOM      4  C3  UNL d   1       1.868   1.375  -0.106  0.00  0.00     0.006 A 
ATOM      5  C4  UNL d   1       0.803   0.850   0.627  0.00  0.00    -0.005 A 
ATOM      6  C5  UNL d   1      -0.068  -0.075   0.041  0.00  0.00    -0.074 A 
ATOM      7  C6  UNL d   1      -1.224  -0.641   0.811  0.00  0.00     0.077 C 
ATOM      8  C7  UNL d   1       0.142  -0.462  -1.289  0.00  0.00    -0.001 A 
ENDROOT
TORSDOF 0
ENDMDL
