MODEL 1
REMARK minimizedAffinity -3.87819767
REMARK minimizedRMSD -1
REMARK  0 active torsions:
REMARK  status: ('A' for Active; 'I' for Inactive)
ROOT
ATOM      1  C   UNL d   1      -1.237   0.333   1.032  0.00  0.00     0.077 C 
ATOM      2  C1  UNL d   1      -0.215   0.309  -0.065  0.00  0.00    -0.074 A 
ATOM      3  C2  UNL d   1       0.383   1.490  -0.516  0.00  0.00    -0.005 A 
ATOM      4  C3  UNL d   1       1.339   1.452  -1.531  0.00  0.00     0.006 A 
ATOM      5  C4  UNL d   1       1.706   0.234  -2.105  0.00  0.00    -0.005 A 
ATOM      6  C5  UNL d   1       1.119  -0.958  -1.667  0.00  0.00    -0.074 A 
ATOM      7  C6  UNL d   1       1.510  -2.276  -2.266  0.00  0.00     0.077 C 
ATOM      8  C7  UNL d   1       0.165  -0.911  -0.641  0.00  0.00    -0.001 A 
ENDROOT
TORSDOF 0
ENDMDL
