MODEL 1
REMARK minimizedAffinity -3.62694907
REMARK minimizedRMSD -1
REMARK  0 active torsions:
REMARK  status: ('A' for Active; 'I' for Inactive)
ROOT
ATOM      1  C   UNL d   1       0.100  -2.629  -0.219  0.00  0.00     0.077 C 
ATOM      2  C1  UNL d   1      -0.075  -1.200   0.204  0.00  0.00    -0.074 A 
ATOM      3  C2  UNL d   1       0.703  -0.183  -0.360  0.00  0.00    -0.005 A 
ATOM      4  C3  UNL d   1       0.521   1.142   0.037  0.00  0.00     0.006 A 
ATOM      5  C4  UNL d   1      -0.437   1.463   0.998  0.00  0.00    -0.005 A 
ATOM      6  C5  UNL d   1      -1.225   0.459   1.572  0.00  0.00    -0.074 A 
ATOM      7  C6  UNL d   1      -2.266   0.788   2.600  0.00  0.00     0.077 C 
ATOM      8  C7  UNL d   1      -1.041  -0.869   1.164  0.00  0.00    -0.001 A 
ENDROOT
TORSDOF 0
ENDMDL
