MODEL 1
REMARK minimizedAffinity -3.94081855
REMARK minimizedRMSD -1
REMARK  0 active torsions:
REMARK  status: ('A' for Active; 'I' for Inactive)
ROOT
ATOM      1  C   UNL d   1       1.649  -0.392  -3.090  0.00  0.00     0.077 C 
ATOM      2  C1  UNL d   1       1.224   0.047  -1.720  0.00  0.00    -0.074 A 
ATOM      3  C2  UNL d   1       2.087   0.782  -0.901  0.00  0.00    -0.005 A 
ATOM      4  C3  UNL d   1       1.674   1.192   0.367  0.00  0.00     0.006 A 
ATOM      5  C4  UNL d   1       0.397   0.870   0.828  0.00  0.00    -0.005 A 
ATOM      6  C5  UNL d   1      -0.480   0.136   0.023  0.00  0.00    -0.074 A 
ATOM      7  C6  UNL d   1      -1.860  -0.209   0.499  0.00  0.00     0.077 C 
ATOM      8  C7  UNL d   1      -0.060  -0.265  -1.253  0.00  0.00    -0.001 A 
ENDROOT
TORSDOF 0
ENDMDL
