MODEL 1
REMARK minimizedAffinity -3.94425583
REMARK minimizedRMSD -1
REMARK  0 active torsions:
REMARK  status: ('A' for Active; 'I' for Inactive)
ROOT
ATOM      1  C   UNL d   1       1.496   0.750  -2.287  0.00  0.00     0.077 C 
ATOM      2  C1  UNL d   1       0.806   0.171  -1.087  0.00  0.00    -0.074 A 
ATOM      3  C2  UNL d   1       0.979  -1.172  -0.736  0.00  0.00    -0.005 A 
ATOM      4  C3  UNL d   1       0.339  -1.693   0.388  0.00  0.00     0.006 A 
ATOM      5  C4  UNL d   1      -0.480  -0.879   1.171  0.00  0.00    -0.005 A 
ATOM      6  C5  UNL d   1      -0.665   0.466   0.836  0.00  0.00    -0.074 A 
ATOM      7  C6  UNL d   1      -1.533   1.358   1.673  0.00  0.00     0.077 C 
ATOM      8  C7  UNL d   1      -0.012   0.985  -0.291  0.00  0.00    -0.001 A 
ENDROOT
TORSDOF 0
ENDMDL
