MODEL 1
REMARK minimizedAffinity -3.86813378
REMARK minimizedRMSD -1
REMARK  0 active torsions:
REMARK  status: ('A' for Active; 'I' for Inactive)
ROOT
ATOM      1  C   UNL d   1       1.887  -0.960  -3.406  0.00  0.00     0.077 C 
ATOM      2  C1  UNL d   1       1.178  -0.986  -2.084  0.00  0.00    -0.074 A 
ATOM      3  C2  UNL d   1       0.384  -2.076  -1.715  0.00  0.00    -0.005 A 
ATOM      4  C3  UNL d   1      -0.261  -2.090  -0.479  0.00  0.00     0.006 A 
ATOM      5  C4  UNL d   1      -0.119  -1.016   0.400  0.00  0.00    -0.005 A 
ATOM      6  C5  UNL d   1       0.672   0.083   0.049  0.00  0.00    -0.074 A 
ATOM      7  C6  UNL d   1       0.843   1.242   0.986  0.00  0.00     0.077 C 
ATOM      8  C7  UNL d   1       1.323   0.087  -1.192  0.00  0.00    -0.001 A 
ENDROOT
TORSDOF 0
ENDMDL
