MODEL 1
REMARK minimizedAffinity -4.43324232
REMARK minimizedRMSD -1
REMARK  0 active torsions:
REMARK  status: ('A' for Active; 'I' for Inactive)
ROOT
ATOM      1  C   UNL d   1       0.741  -3.319  -1.252  0.00  0.00     0.077 C 
ATOM      2  C1  UNL d   1       0.701  -1.848  -0.962  0.00  0.00    -0.074 A 
ATOM      3  C2  UNL d   1       1.300  -0.928  -1.828  0.00  0.00    -0.005 A 
ATOM      4  C3  UNL d   1       1.247   0.438  -1.550  0.00  0.00     0.006 A 
ATOM      5  C4  UNL d   1       0.596   0.897  -0.405  0.00  0.00    -0.005 A 
ATOM      6  C5  UNL d   1      -0.009  -0.008   0.473  0.00  0.00    -0.074 A 
ATOM      7  C6  UNL d   1      -0.722   0.469   1.704  0.00  0.00     0.077 C 
ATOM      8  C7  UNL d   1       0.042  -1.379   0.183  0.00  0.00    -0.001 A 
ENDROOT
TORSDOF 0
ENDMDL
