MODEL 1
REMARK minimizedAffinity -4.79401875
REMARK minimizedRMSD -1
REMARK  0 active torsions:
REMARK  status: ('A' for Active; 'I' for Inactive)
ROOT
ATOM      1  C   UNL d   1       1.909  -0.807  -3.138  0.00  0.00     0.077 C 
ATOM      2  C1  UNL d   1       1.288  -0.674  -1.780  0.00  0.00    -0.074 A 
ATOM      3  C2  UNL d   1       0.634  -1.755  -1.179  0.00  0.00    -0.005 A 
ATOM      4  C3  UNL d   1       0.069  -1.618   0.089  0.00  0.00     0.006 A 
ATOM      5  C4  UNL d   1       0.153  -0.402   0.768  0.00  0.00    -0.005 A 
ATOM      6  C5  UNL d   1       0.804   0.689   0.184  0.00  0.00    -0.074 A 
ATOM      7  C6  UNL d   1       0.911   2.000   0.904  0.00  0.00     0.077 C 
ATOM      8  C7  UNL d   1       1.375   0.542  -1.088  0.00  0.00    -0.001 A 
ENDROOT
TORSDOF 0
ENDMDL
