MODEL 1
REMARK minimizedAffinity -3.1035099
REMARK minimizedRMSD -1
REMARK  0 active torsions:
REMARK  status: ('A' for Active; 'I' for Inactive)
ROOT
ATOM      1  C   UNL d   1      -3.279   1.157   0.935  0.00  0.00     0.077 C 
ATOM      2  C1  UNL d   1      -1.983   0.412   0.817  0.00  0.00    -0.074 A 
ATOM      3  C2  UNL d   1      -1.574  -0.481   1.812  0.00  0.00    -0.005 A 
ATOM      4  C3  UNL d   1      -0.370  -1.174   1.684  0.00  0.00     0.006 A 
ATOM      5  C4  UNL d   1       0.435  -0.981   0.561  0.00  0.00    -0.005 A 
ATOM      6  C5  UNL d   1       0.042  -0.092  -0.445  0.00  0.00    -0.074 A 
ATOM      7  C6  UNL d   1       0.892   0.120  -1.663  0.00  0.00     0.077 C 
ATOM      8  C7  UNL d   1      -1.172   0.595  -0.312  0.00  0.00    -0.001 A 
ENDROOT
TORSDOF 0
ENDMDL
