MODEL 1
REMARK minimizedAffinity -4.93687725
REMARK minimizedRMSD -1
REMARK  0 active torsions:
REMARK  status: ('A' for Active; 'I' for Inactive)
ROOT
ATOM      1  C   UNL d   1      -0.501   0.725   1.133  0.00  0.00     0.077 C 
ATOM      2  C1  UNL d   1       0.273   0.250  -0.061  0.00  0.00    -0.074 A 
ATOM      3  C2  UNL d   1       1.001   1.147  -0.849  0.00  0.00    -0.005 A 
ATOM      4  C3  UNL d   1       1.724   0.690  -1.951  0.00  0.00     0.006 A 
ATOM      5  C4  UNL d   1       1.726  -0.667  -2.275  0.00  0.00    -0.005 A 
ATOM      6  C5  UNL d   1       1.004  -1.580  -1.499  0.00  0.00    -0.074 A 
ATOM      7  C6  UNL d   1       1.004  -3.043  -1.828  0.00  0.00     0.077 C 
ATOM      8  C7  UNL d   1       0.286  -1.113  -0.389  0.00  0.00    -0.001 A 
ENDROOT
TORSDOF 0
ENDMDL
