MODEL 1
REMARK minimizedAffinity -4.75017548
REMARK minimizedRMSD -1
REMARK  0 active torsions:
REMARK  status: ('A' for Active; 'I' for Inactive)
ROOT
ATOM      1  C   UNL d   1       1.279   0.154  -3.068  0.00  0.00     0.077 C 
ATOM      2  C1  UNL d   1       0.876   0.302  -1.631  0.00  0.00    -0.074 A 
ATOM      3  C2  UNL d   1       1.137   1.483  -0.929  0.00  0.00    -0.005 A 
ATOM      4  C3  UNL d   1       0.748   1.609   0.405  0.00  0.00     0.006 A 
ATOM      5  C4  UNL d   1       0.095   0.557   1.048  0.00  0.00    -0.005 A 
ATOM      6  C5  UNL d   1      -0.175  -0.632   0.362  0.00  0.00    -0.074 A 
ATOM      7  C6  UNL d   1      -0.885  -1.768   1.036  0.00  0.00     0.077 C 
ATOM      8  C7  UNL d   1       0.213  -0.748  -0.980  0.00  0.00    -0.001 A 
ENDROOT
TORSDOF 0
ENDMDL
