MODEL 1
REMARK minimizedAffinity -3.74590802
REMARK minimizedRMSD -1
REMARK  0 active torsions:
REMARK  status: ('A' for Active; 'I' for Inactive)
ROOT
ATOM      1  C   UNL d   1       1.602  -0.217  -3.047  0.00  0.00     0.077 C 
ATOM      2  C1  UNL d   1       1.057   0.310  -1.754  0.00  0.00    -0.074 A 
ATOM      3  C2  UNL d   1       1.521   1.514  -1.215  0.00  0.00    -0.005 A 
ATOM      4  C3  UNL d   1       0.998   1.997  -0.016  0.00  0.00     0.006 A 
ATOM      5  C4  UNL d   1       0.006   1.282   0.656  0.00  0.00    -0.005 A 
ATOM      6  C5  UNL d   1      -0.472   0.076   0.133  0.00  0.00    -0.074 A 
ATOM      7  C6  UNL d   1      -1.544  -0.701   0.837  0.00  0.00     0.077 C 
ATOM      8  C7  UNL d   1       0.055  -0.399  -1.077  0.00  0.00    -0.001 A 
ENDROOT
TORSDOF 0
ENDMDL
