MODEL 1
REMARK minimizedAffinity -5.40739393
REMARK minimizedRMSD -1
REMARK  0 active torsions:
REMARK  status: ('A' for Active; 'I' for Inactive)
ROOT
ATOM      1  C   UNL d   1       1.857   0.006  -3.466  0.00  0.00     0.077 C 
ATOM      2  C1  UNL d   1       1.343  -0.752  -2.278  0.00  0.00    -0.074 A 
ATOM      3  C2  UNL d   1       1.586  -2.122  -2.139  0.00  0.00    -0.005 A 
ATOM      4  C3  UNL d   1       1.110  -2.812  -1.024  0.00  0.00     0.006 A 
ATOM      5  C4  UNL d   1       0.386  -2.140  -0.039  0.00  0.00    -0.005 A 
ATOM      6  C5  UNL d   1       0.134  -0.770  -0.160  0.00  0.00    -0.074 A 
ATOM      7  C6  UNL d   1      -0.634  -0.030   0.895  0.00  0.00     0.077 C 
ATOM      8  C7  UNL d   1       0.622  -0.082  -1.280  0.00  0.00    -0.001 A 
ENDROOT
TORSDOF 0
ENDMDL
