MODEL 1
REMARK minimizedAffinity -4.29443264
REMARK minimizedRMSD -1
REMARK  0 active torsions:
REMARK  status: ('A' for Active; 'I' for Inactive)
ROOT
ATOM      1  C   UNL d   1       1.446  -3.049  -1.275  0.00  0.00     0.077 C 
ATOM      2  C1  UNL d   1       1.272  -1.591  -0.971  0.00  0.00    -0.074 A 
ATOM      3  C2  UNL d   1       1.935  -0.616  -1.723  0.00  0.00    -0.005 A 
ATOM      4  C3  UNL d   1       1.756   0.737  -1.435  0.00  0.00     0.006 A 
ATOM      5  C4  UNL d   1       0.913   1.128  -0.394  0.00  0.00    -0.005 A 
ATOM      6  C5  UNL d   1       0.241   0.168   0.368  0.00  0.00    -0.074 A 
ATOM      7  C6  UNL d   1      -0.677   0.571   1.484  0.00  0.00     0.077 C 
ATOM      8  C7  UNL d   1       0.421  -1.190   0.068  0.00  0.00    -0.001 A 
ENDROOT
TORSDOF 0
ENDMDL
