MODEL 1
REMARK minimizedAffinity -3.62337685
REMARK minimizedRMSD -1
REMARK  0 active torsions:
REMARK  status: ('A' for Active; 'I' for Inactive)
ROOT
ATOM      1  C   UNL d   1      -0.770   0.197   1.131  0.00  0.00     0.077 C 
ATOM      2  C1  UNL d   1       0.146  -0.588   0.241  0.00  0.00    -0.074 A 
ATOM      3  C2  UNL d   1       0.185  -1.985   0.302  0.00  0.00    -0.005 A 
ATOM      4  C3  UNL d   1       1.036  -2.703  -0.538  0.00  0.00     0.006 A 
ATOM      5  C4  UNL d   1       1.855  -2.032  -1.447  0.00  0.00    -0.005 A 
ATOM      6  C5  UNL d   1       1.829  -0.636  -1.524  0.00  0.00    -0.074 A 
ATOM      7  C6  UNL d   1       2.696   0.100  -2.502  0.00  0.00     0.077 C 
ATOM      8  C7  UNL d   1       0.967   0.078  -0.680  0.00  0.00    -0.001 A 
ENDROOT
TORSDOF 0
ENDMDL
