MODEL 1
REMARK minimizedAffinity -5.2322607
REMARK minimizedRMSD -1
REMARK  0 active torsions:
REMARK  status: ('A' for Active; 'I' for Inactive)
ROOT
ATOM      1  C   UNL d   1       1.895  -2.660  -1.288  0.00  0.00     0.077 C 
ATOM      2  C1  UNL d   1       1.464  -1.268  -0.931  0.00  0.00    -0.074 A 
ATOM      3  C2  UNL d   1       2.015  -0.157  -1.579  0.00  0.00    -0.005 A 
ATOM      4  C3  UNL d   1       1.597   1.131  -1.243  0.00  0.00     0.006 A 
ATOM      5  C4  UNL d   1       0.627   1.321  -0.258  0.00  0.00    -0.005 A 
ATOM      6  C5  UNL d   1       0.064   0.222   0.399  0.00  0.00    -0.074 A 
ATOM      7  C6  UNL d   1      -0.987   0.407   1.453  0.00  0.00     0.077 C 
ATOM      8  C7  UNL d   1       0.484  -1.070   0.051  0.00  0.00    -0.001 A 
ENDROOT
TORSDOF 0
ENDMDL
