MODEL 1
REMARK minimizedAffinity -0.31532377
REMARK minimizedRMSD -1
REMARK  0 active torsions:
REMARK  status: ('A' for Active; 'I' for Inactive)
ROOT
ATOM      1  C   UNL d   1       0.384  -2.422  -0.149  0.00  0.00     0.077 C 
ATOM      2  C1  UNL d   1       0.108  -1.010   0.275  0.00  0.00    -0.074 A 
ATOM      3  C2  UNL d   1       0.960   0.034  -0.103  0.00  0.00    -0.005 A 
ATOM      4  C3  UNL d   1       0.685   1.343   0.292  0.00  0.00     0.006 A 
ATOM      5  C4  UNL d   1      -0.441   1.622   1.066  0.00  0.00    -0.005 A 
ATOM      6  C5  UNL d   1      -1.304   0.592   1.453  0.00  0.00    -0.074 A 
ATOM      7  C6  UNL d   1      -2.525   0.876   2.278  0.00  0.00     0.077 C 
ATOM      8  C7  UNL d   1      -1.026  -0.720   1.047  0.00  0.00    -0.001 A 
ENDROOT
TORSDOF 0
ENDMDL
