MODEL 1
REMARK minimizedAffinity -6.18606949
REMARK minimizedRMSD -1
REMARK  0 active torsions:
REMARK  status: ('A' for Active; 'I' for Inactive)
ROOT
ATOM      1  C   UNL d   1      -0.850   0.106   0.548  0.00  0.00     0.077 C 
ATOM      2  C1  UNL d   1       0.065  -0.315  -0.564  0.00  0.00    -0.074 A 
ATOM      3  C2  UNL d   1       0.472   0.597  -1.544  0.00  0.00    -0.005 A 
ATOM      4  C3  UNL d   1       1.331   0.193  -2.566  0.00  0.00     0.006 A 
ATOM      5  C4  UNL d   1       1.791  -1.123  -2.619  0.00  0.00    -0.005 A 
ATOM      6  C5  UNL d   1       1.396  -2.048  -1.647  0.00  0.00    -0.074 A 
ATOM      7  C6  UNL d   1       1.889  -3.464  -1.683  0.00  0.00     0.077 C 
ATOM      8  C7  UNL d   1       0.538  -1.633  -0.619  0.00  0.00    -0.001 A 
ENDROOT
TORSDOF 0
ENDMDL
