MODEL 1
REMARK minimizedAffinity 2.34645343
REMARK minimizedRMSD -1
REMARK  1 active torsions:
REMARK  status: ('A' for Active; 'I' for Inactive)
REMARK    1  A    between atoms: C3_4  and  O_7 
ROOT
ATOM      1  C   UNL d   1       0.341  -1.774  -0.260  0.00  0.00    -0.033 A 
ATOM      2  C1  UNL d   1      -0.784  -2.567  -0.029  0.00  0.00     0.039 A 
ATOM      3  C2  UNL d   1      -0.656  -3.784   0.643  0.00  0.00    -0.080 A 
ATOM      4  C3  UNL d   1       0.600  -4.195   1.079  0.00  0.00     0.150 A 
ATOM      5  C4  UNL d   1       1.725  -3.408   0.856  0.00  0.00    -0.007 A 
ATOM      6  C5  UNL d   1       1.596  -2.194   0.183  0.00  0.00     0.039 A 
ENDROOT
BRANCH   4   7
ATOM      7  O   UNL d   1       0.775  -5.378   1.735  0.00  0.00    -0.526 OA
ATOM      8  H5  UNL d   1      -0.084  -5.828   1.792  0.00  0.00     0.418 HD
ENDBRANCH   4   7
TORSDOF 1
ENDMDL
