MODEL 1
REMARK minimizedAffinity 1.97274828
REMARK minimizedRMSD -1
REMARK  1 active torsions:
REMARK  status: ('A' for Active; 'I' for Inactive)
REMARK    1  A    between atoms: C3_4  and  O_7 
ROOT
ATOM      1  C   UNL d   1       5.395  -1.596  -6.000  0.00  0.00    -0.033 A 
ATOM      2  C1  UNL d   1       5.057  -0.241  -5.999  0.00  0.00     0.039 A 
ATOM      3  C2  UNL d   1       5.176   0.509  -4.827  0.00  0.00    -0.080 A 
ATOM      4  C3  UNL d   1       5.635  -0.107  -3.665  0.00  0.00     0.150 A 
ATOM      5  C4  UNL d   1       5.977  -1.455  -3.661  0.00  0.00    -0.007 A 
ATOM      6  C5  UNL d   1       5.856  -2.203  -4.831  0.00  0.00     0.039 A 
ENDROOT
BRANCH   4   7
ATOM      7  O   UNL d   1       5.764   0.583  -2.497  0.00  0.00    -0.526 OA
ATOM      8  H5  UNL d   1       5.464   1.496  -2.643  0.00  0.00     0.418 HD
ENDBRANCH   4   7
TORSDOF 1
ENDMDL
