MODEL 1
REMARK minimizedAffinity 0.666879892
REMARK minimizedRMSD -1
REMARK  1 active torsions:
REMARK  status: ('A' for Active; 'I' for Inactive)
REMARK    1  A    between atoms: C3_4  and  O_7 
ROOT
ATOM      1  C   UNL d   1       5.958  -1.074  -6.000  0.00  0.00    -0.033 A 
ATOM      2  C1  UNL d   1       5.935   0.322  -5.999  0.00  0.00     0.039 A 
ATOM      3  C2  UNL d   1       5.941   1.022  -4.791  0.00  0.00    -0.080 A 
ATOM      4  C3  UNL d   1       5.972   0.315  -3.592  0.00  0.00     0.150 A 
ATOM      5  C4  UNL d   1       5.999  -1.076  -3.585  0.00  0.00    -0.007 A 
ATOM      6  C5  UNL d   1       5.991  -1.773  -4.793  0.00  0.00     0.039 A 
ENDROOT
BRANCH   4   7
ATOM      7  O   UNL d   1       5.974   0.954  -2.388  0.00  0.00    -0.526 OA
ATOM      8  H5  UNL d   1       5.925   1.911  -2.547  0.00  0.00     0.418 HD
ENDBRANCH   4   7
TORSDOF 1
ENDMDL
