MODEL 1
REMARK minimizedAffinity 4.62178278
REMARK minimizedRMSD -1
REMARK  1 active torsions:
REMARK  status: ('A' for Active; 'I' for Inactive)
REMARK    1  A    between atoms: C3_4  and  O_7 
ROOT
ATOM      1  C   UNL d   1       1.506  -2.350  -3.417  0.00  0.00    -0.033 A 
ATOM      2  C1  UNL d   1       1.744  -1.349  -4.361  0.00  0.00     0.039 A 
ATOM      3  C2  UNL d   1       1.525  -0.010  -4.033  0.00  0.00    -0.080 A 
ATOM      4  C3  UNL d   1       1.070   0.315  -2.758  0.00  0.00     0.150 A 
ATOM      5  C4  UNL d   1       0.835  -0.676  -1.811  0.00  0.00    -0.007 A 
ATOM      6  C5  UNL d   1       1.053  -2.013  -2.141  0.00  0.00     0.039 A 
ENDROOT
BRANCH   4   7
ATOM      7  O   UNL d   1       0.837   1.608  -2.392  0.00  0.00    -0.526 OA
ATOM      8  H5  UNL d   1       1.016   2.181  -3.157  0.00  0.00     0.418 HD
ENDBRANCH   4   7
TORSDOF 1
ENDMDL
