MODEL 1
REMARK minimizedAffinity -2.23474002
REMARK minimizedRMSD -1
REMARK  1 active torsions:
REMARK  status: ('A' for Active; 'I' for Inactive)
REMARK    1  A    between atoms: C3_4  and  O_7 
ROOT
ATOM      1  C   UNL d   1       0.736   0.731  -3.650  0.00  0.00    -0.033 A 
ATOM      2  C1  UNL d   1       1.000  -0.634  -3.777  0.00  0.00     0.039 A 
ATOM      3  C2  UNL d   1       1.115  -1.433  -2.638  0.00  0.00    -0.080 A 
ATOM      4  C3  UNL d   1       0.964  -0.856  -1.380  0.00  0.00     0.150 A 
ATOM      5  C4  UNL d   1       0.697   0.502  -1.246  0.00  0.00    -0.007 A 
ATOM      6  C5  UNL d   1       0.583   1.299  -2.384  0.00  0.00     0.039 A 
ENDROOT
BRANCH   4   7
ATOM      7  O   UNL d   1       1.073  -1.595  -0.239  0.00  0.00    -0.526 OA
ATOM      8  H5  UNL d   1       1.287  -2.511  -0.485  0.00  0.00     0.418 HD
ENDBRANCH   4   7
TORSDOF 1
ENDMDL
