MODEL 1
REMARK minimizedAffinity 0.264003932
REMARK minimizedRMSD -1
REMARK  1 active torsions:
REMARK  status: ('A' for Active; 'I' for Inactive)
REMARK    1  A    between atoms: C3_4  and  O_7 
ROOT
ATOM      1  C   UNL d   1      -4.790   4.197   1.459  0.00  0.00    -0.033 A 
ATOM      2  C1  UNL d   1      -3.581   4.497   2.091  0.00  0.00     0.039 A 
ATOM      3  C2  UNL d   1      -3.580   5.098   3.351  0.00  0.00    -0.080 A 
ATOM      4  C3  UNL d   1      -4.792   5.394   3.968  0.00  0.00     0.150 A 
ATOM      5  C4  UNL d   1      -6.000   5.095   3.346  0.00  0.00    -0.007 A 
ATOM      6  C5  UNL d   1      -5.999   4.495   2.087  0.00  0.00     0.039 A 
ENDROOT
BRANCH   4   7
ATOM      7  O   UNL d   1      -4.841   5.986   5.195  0.00  0.00    -0.526 OA
ATOM      8  H5  UNL d   1      -3.932   6.160   5.489  0.00  0.00     0.418 HD
ENDBRANCH   4   7
TORSDOF 1
ENDMDL
