MODEL 1
REMARK minimizedAffinity -0.433477521
REMARK minimizedRMSD -1
REMARK  1 active torsions:
REMARK  status: ('A' for Active; 'I' for Inactive)
REMARK    1  A    between atoms: C3_4  and  O_7 
ROOT
ATOM      1  C   UNL d   1      -4.210   6.000   4.876  0.00  0.00    -0.033 A 
ATOM      2  C1  UNL d   1      -3.277   5.501   3.965  0.00  0.00     0.039 A 
ATOM      3  C2  UNL d   1      -2.832   4.182   4.071  0.00  0.00    -0.080 A 
ATOM      4  C3  UNL d   1      -3.327   3.373   5.090  0.00  0.00     0.150 A 
ATOM      5  C4  UNL d   1      -4.260   3.863   5.999  0.00  0.00    -0.007 A 
ATOM      6  C5  UNL d   1      -4.703   5.180   5.892  0.00  0.00     0.039 A 
ENDROOT
BRANCH   4   7
ATOM      7  O   UNL d   1      -2.919   2.081   5.237  0.00  0.00    -0.526 OA
ATOM      8  H5  UNL d   1      -2.252   1.890   4.556  0.00  0.00     0.418 HD
ENDBRANCH   4   7
TORSDOF 1
ENDMDL
