MODEL 1
REMARK minimizedAffinity 1.58508945
REMARK minimizedRMSD -1
REMARK  1 active torsions:
REMARK  status: ('A' for Active; 'I' for Inactive)
REMARK    1  A    between atoms: C3_4  and  O_7 
ROOT
ATOM      1  C   UNL d   1      -3.379  -1.492   4.884  0.00  0.00    -0.033 A 
ATOM      2  C1  UNL d   1      -2.323  -0.659   4.509  0.00  0.00     0.039 A 
ATOM      3  C2  UNL d   1      -2.329   0.688   4.876  0.00  0.00    -0.080 A 
ATOM      4  C3  UNL d   1      -3.395   1.188   5.619  0.00  0.00     0.150 A 
ATOM      5  C4  UNL d   1      -4.448   0.364   6.000  0.00  0.00    -0.007 A 
ATOM      6  C5  UNL d   1      -4.441  -0.981   5.631  0.00  0.00     0.039 A 
ENDROOT
BRANCH   4   7
ATOM      7  O   UNL d   1      -3.447   2.497   5.997  0.00  0.00    -0.526 OA
ATOM      8  H5  UNL d   1      -2.667   2.952   5.639  0.00  0.00     0.418 HD
ENDBRANCH   4   7
TORSDOF 1
ENDMDL
