MODEL 1
REMARK minimizedAffinity -1.0457623
REMARK minimizedRMSD -1
REMARK  1 active torsions:
REMARK  status: ('A' for Active; 'I' for Inactive)
REMARK    1  A    between atoms: C3_4  and  O_7 
ROOT
ATOM      1  C   UNL d   1       0.263  -0.142  -0.884  0.00  0.00    -0.033 A 
ATOM      2  C1  UNL d   1       0.431   1.163  -1.353  0.00  0.00     0.039 A 
ATOM      3  C2  UNL d   1       1.194   1.403  -2.497  0.00  0.00    -0.080 A 
ATOM      4  C3  UNL d   1       1.781   0.331  -3.164  0.00  0.00     0.150 A 
ATOM      5  C4  UNL d   1       1.614  -0.972  -2.705  0.00  0.00    -0.007 A 
ATOM      6  C5  UNL d   1       0.853  -1.209  -1.561  0.00  0.00     0.039 A 
ENDROOT
BRANCH   4   7
ATOM      7  O   UNL d   1       2.539   0.516  -4.282  0.00  0.00    -0.526 OA
ATOM      8  H5  UNL d   1       2.590   1.469  -4.465  0.00  0.00     0.418 HD
ENDBRANCH   4   7
TORSDOF 1
ENDMDL
