MODEL 1
REMARK minimizedAffinity -0.806605577
REMARK minimizedRMSD -1
REMARK  1 active torsions:
REMARK  status: ('A' for Active; 'I' for Inactive)
REMARK    1  A    between atoms: C3_4  and  O_7 
ROOT
ATOM      1  C   UNL d   1       1.519  -2.467  -3.012  0.00  0.00    -0.033 A 
ATOM      2  C1  UNL d   1       1.623  -1.548  -4.058  0.00  0.00     0.039 A 
ATOM      3  C2  UNL d   1       1.283  -0.210  -3.851  0.00  0.00    -0.080 A 
ATOM      4  C3  UNL d   1       0.842   0.196  -2.594  0.00  0.00     0.150 A 
ATOM      5  C4  UNL d   1       0.740  -0.713  -1.546  0.00  0.00    -0.007 A 
ATOM      6  C5  UNL d   1       1.079  -2.049  -1.756  0.00  0.00     0.039 A 
ENDROOT
BRANCH   4   7
ATOM      7  O   UNL d   1       0.495   1.490  -2.345  0.00  0.00    -0.526 OA
ATOM      8  H5  UNL d   1       0.588   1.998  -3.168  0.00  0.00     0.418 HD
ENDBRANCH   4   7
TORSDOF 1
ENDMDL
