MODEL 1
REMARK minimizedAffinity -3.194484
REMARK minimizedRMSD -1
REMARK  1 active torsions:
REMARK  status: ('A' for Active; 'I' for Inactive)
REMARK    1  A    between atoms: C3_4  and  O_7 
ROOT
ATOM      1  C   UNL d   1       5.987   1.259  -4.972  0.00  0.00    -0.033 A 
ATOM      2  C1  UNL d   1       4.900   0.748  -5.683  0.00  0.00     0.039 A 
ATOM      3  C2  UNL d   1       3.820   1.576  -6.000  0.00  0.00    -0.080 A 
ATOM      4  C3  UNL d   1       3.841   2.909  -5.601  0.00  0.00     0.150 A 
ATOM      5  C4  UNL d   1       4.923   3.425  -4.895  0.00  0.00    -0.007 A 
ATOM      6  C5  UNL d   1       5.999   2.597  -4.579  0.00  0.00     0.039 A 
ENDROOT
BRANCH   4   7
ATOM      7  O   UNL d   1       2.809   3.753  -5.882  0.00  0.00    -0.526 OA
ATOM      8  H5  UNL d   1       2.119   3.252  -6.349  0.00  0.00     0.418 HD
ENDBRANCH   4   7
TORSDOF 1
ENDMDL
