MODEL 1
REMARK minimizedAffinity -1.91494131
REMARK minimizedRMSD -1
REMARK  1 active torsions:
REMARK  status: ('A' for Active; 'I' for Inactive)
REMARK    1  A    between atoms: C3_4  and  O_7 
ROOT
ATOM      1  C   UNL d   1       1.284   1.711  -3.273  0.00  0.00    -0.033 A 
ATOM      2  C1  UNL d   1       0.546   1.694  -2.088  0.00  0.00     0.039 A 
ATOM      3  C2  UNL d   1       0.507   0.540  -1.304  0.00  0.00    -0.080 A 
ATOM      4  C3  UNL d   1       1.212  -0.589  -1.714  0.00  0.00     0.150 A 
ATOM      5  C4  UNL d   1       1.953  -0.577  -2.891  0.00  0.00    -0.007 A 
ATOM      6  C5  UNL d   1       1.989   0.576  -3.673  0.00  0.00     0.039 A 
ENDROOT
BRANCH   4   7
ATOM      7  O   UNL d   1       1.201  -1.740  -0.984  0.00  0.00    -0.526 OA
ATOM      8  H5  UNL d   1       0.624  -1.609  -0.212  0.00  0.00     0.418 HD
ENDBRANCH   4   7
TORSDOF 1
ENDMDL
