MODEL 1
REMARK minimizedAffinity 2.06108022
REMARK minimizedRMSD -1
REMARK  1 active torsions:
REMARK  status: ('A' for Active; 'I' for Inactive)
REMARK    1  A    between atoms: C3_4  and  O_7 
ROOT
ATOM      1  C   UNL d   1       0.543   0.899  -1.302  0.00  0.00    -0.033 A 
ATOM      2  C1  UNL d   1       1.118   0.906  -2.575  0.00  0.00     0.039 A 
ATOM      3  C2  UNL d   1       1.455  -0.297  -3.197  0.00  0.00    -0.080 A 
ATOM      4  C3  UNL d   1       1.213  -1.499  -2.538  0.00  0.00     0.150 A 
ATOM      5  C4  UNL d   1       0.637  -1.514  -1.272  0.00  0.00    -0.007 A 
ATOM      6  C5  UNL d   1       0.302  -0.312  -0.651  0.00  0.00     0.039 A 
ENDROOT
BRANCH   4   7
ATOM      7  O   UNL d   1       1.529  -2.699  -3.104  0.00  0.00    -0.526 OA
ATOM      8  H5  UNL d   1       1.945  -2.532  -3.966  0.00  0.00     0.418 HD
ENDBRANCH   4   7
TORSDOF 1
ENDMDL
