MODEL 1
REMARK minimizedAffinity 2.37607789
REMARK minimizedRMSD -1
REMARK  1 active torsions:
REMARK  status: ('A' for Active; 'I' for Inactive)
REMARK    1  A    between atoms: C3_4  and  O_7 
ROOT
ATOM      1  C   UNL d   1       0.740  -0.595  -0.558  0.00  0.00    -0.033 A 
ATOM      2  C1  UNL d   1       1.086  -1.787  -1.197  0.00  0.00     0.039 A 
ATOM      3  C2  UNL d   1       1.250  -1.816  -2.584  0.00  0.00    -0.080 A 
ATOM      4  C3  UNL d   1       1.066  -0.647  -3.318  0.00  0.00     0.150 A 
ATOM      5  C4  UNL d   1       0.725   0.544  -2.687  0.00  0.00    -0.007 A 
ATOM      6  C5  UNL d   1       0.561   0.571  -1.303  0.00  0.00     0.039 A 
ENDROOT
BRANCH   4   7
ATOM      7  O   UNL d   1       1.210  -0.627  -4.673  0.00  0.00    -0.526 OA
ATOM      8  H5  UNL d   1       1.418  -1.528  -4.974  0.00  0.00     0.418 HD
ENDBRANCH   4   7
TORSDOF 1
ENDMDL
