MODEL 1
REMARK minimizedAffinity 1.01596439
REMARK minimizedRMSD -1
REMARK  1 active torsions:
REMARK  status: ('A' for Active; 'I' for Inactive)
REMARK    1  A    between atoms: C3_4  and  O_7 
ROOT
ATOM      1  C   UNL d   1      -3.619  -1.160   4.364  0.00  0.00    -0.033 A 
ATOM      2  C1  UNL d   1      -4.465  -0.895   5.442  0.00  0.00     0.039 A 
ATOM      3  C2  UNL d   1      -4.510   0.384   5.999  0.00  0.00    -0.080 A 
ATOM      4  C3  UNL d   1      -3.704   1.389   5.470  0.00  0.00     0.150 A 
ATOM      5  C4  UNL d   1      -2.861   1.133   4.393  0.00  0.00    -0.007 A 
ATOM      6  C5  UNL d   1      -2.818  -0.145   3.839  0.00  0.00     0.039 A 
ENDROOT
BRANCH   4   7
ATOM      7  O   UNL d   1      -3.710   2.652   5.983  0.00  0.00    -0.526 OA
ATOM      8  H5  UNL d   1      -4.318   2.673   6.741  0.00  0.00     0.418 HD
ENDBRANCH   4   7
TORSDOF 1
ENDMDL
