MODEL 1
REMARK minimizedAffinity -2.17416668
REMARK minimizedRMSD -1
REMARK  0 active torsions:
REMARK  status: ('A' for Active; 'I' for Inactive)
ROOT
ATOM      1  C   UNL d   1      -1.493  -1.598  -0.023  0.00  0.00     0.124 A 
ATOM      2  C1  UNL d   1      -1.465  -0.403  -0.729  0.00  0.00     0.062 A 
ATOM      3  C2  UNL d   1      -0.345   0.421  -0.666  0.00  0.00     0.162 A 
ATOM      4  C3  UNL d   1       0.757   0.053   0.106  0.00  0.00    -0.034 A 
ATOM      5  C4  UNL d   1       0.721  -1.150   0.813  0.00  0.00     0.162 A 
ATOM      6  C5  UNL d   1      -0.400  -1.970   0.747  0.00  0.00     0.062 A 
ATOM      7  F   UNL d   1      -0.425  -3.124   1.430  0.00  0.00    -0.097 F 
ATOM      8  F1  UNL d   1       1.764  -1.534   1.565  0.00  0.00    -0.096 F 
ATOM      9  I   UNL d   1       2.433   1.283   0.202  0.00  0.00    -0.060 I 
ATOM     10  F2  UNL d   1      -0.346   1.570  -1.358  0.00  0.00    -0.096 F 
ATOM     11  F3  UNL d   1      -2.520  -0.041  -1.473  0.00  0.00    -0.097 F 
ATOM     12  F4  UNL d   1      -2.572  -2.389  -0.085  0.00  0.00    -0.092 F 
ENDROOT
TORSDOF 0
ENDMDL
