MODEL 1
REMARK minimizedAffinity -0.897958636
REMARK minimizedRMSD -1
REMARK  0 active torsions:
REMARK  status: ('A' for Active; 'I' for Inactive)
ROOT
ATOM      1  C   UNL d   1      -1.650  -0.119  -1.572  0.00  0.00     0.124 A 
ATOM      2  C1  UNL d   1      -1.872  -0.552  -0.272  0.00  0.00     0.062 A 
ATOM      3  C2  UNL d   1      -0.893  -0.377   0.701  0.00  0.00     0.162 A 
ATOM      4  C3  UNL d   1       0.318   0.235   0.379  0.00  0.00    -0.034 A 
ATOM      5  C4  UNL d   1       0.535   0.667  -0.931  0.00  0.00     0.162 A 
ATOM      6  C5  UNL d   1      -0.447   0.490  -1.900  0.00  0.00     0.062 A 
ATOM      7  F   UNL d   1      -0.230   0.909  -3.155  0.00  0.00    -0.097 F 
ATOM      8  F1  UNL d   1       1.688   1.260  -1.275  0.00  0.00    -0.096 F 
ATOM      9  I   UNL d   1       1.786   0.499   1.831  0.00  0.00    -0.060 I 
ATOM     10  F2  UNL d   1      -1.135  -0.805   1.949  0.00  0.00    -0.096 F 
ATOM     11  F3  UNL d   1      -3.033  -1.141   0.048  0.00  0.00    -0.097 F 
ATOM     12  F4  UNL d   1      -2.594  -0.290  -2.506  0.00  0.00    -0.092 F 
ENDROOT
TORSDOF 0
ENDMDL
