MODEL 1
REMARK minimizedAffinity -0.91844523
REMARK minimizedRMSD -1
REMARK  0 active torsions:
REMARK  status: ('A' for Active; 'I' for Inactive)
ROOT
ATOM      1  C   UNL d   1      -2.394  -0.874  -0.488  0.00  0.00     0.124 A 
ATOM      2  C1  UNL d   1      -1.731  -0.167  -1.483  0.00  0.00     0.062 A 
ATOM      3  C2  UNL d   1      -0.445   0.315  -1.261  0.00  0.00     0.162 A 
ATOM      4  C3  UNL d   1       0.189   0.093  -0.038  0.00  0.00    -0.034 A 
ATOM      5  C4  UNL d   1      -0.484  -0.618   0.958  0.00  0.00     0.162 A 
ATOM      6  C5  UNL d   1      -1.769  -1.098   0.731  0.00  0.00     0.062 A 
ATOM      7  F   UNL d   1      -2.408  -1.780   1.693  0.00  0.00    -0.097 F 
ATOM      8  F1  UNL d   1       0.096  -0.849   2.145  0.00  0.00    -0.096 F 
ATOM      9  I   UNL d   1       2.112   0.813   0.298  0.00  0.00    -0.060 I 
ATOM     10  F2  UNL d   1       0.171   0.995  -2.240  0.00  0.00    -0.096 F 
ATOM     11  F3  UNL d   1      -2.333   0.051  -2.661  0.00  0.00    -0.097 F 
ATOM     12  F4  UNL d   1      -3.632  -1.336  -0.705  0.00  0.00    -0.092 F 
ENDROOT
TORSDOF 0
ENDMDL
