MODEL 1
REMARK minimizedAffinity -2.44245625
REMARK minimizedRMSD -1
REMARK  0 active torsions:
REMARK  status: ('A' for Active; 'I' for Inactive)
ROOT
ATOM      1  C   UNL d   1       1.996   1.234   0.524  0.00  0.00     0.124 A 
ATOM      2  C1  UNL d   1       1.582  -0.060   0.807  0.00  0.00     0.062 A 
ATOM      3  C2  UNL d   1       0.307  -0.483   0.441  0.00  0.00     0.162 A 
ATOM      4  C3  UNL d   1      -0.562   0.389  -0.215  0.00  0.00    -0.034 A 
ATOM      5  C4  UNL d   1      -0.139   1.689  -0.496  0.00  0.00     0.162 A 
ATOM      6  C5  UNL d   1       1.136   2.107  -0.127  0.00  0.00     0.062 A 
ATOM      7  F   UNL d   1       1.534   3.358  -0.402  0.00  0.00    -0.097 F 
ATOM      8  F1  UNL d   1      -0.949   2.553  -1.124  0.00  0.00    -0.096 F 
ATOM      9  I   UNL d   1      -2.469  -0.240  -0.764  0.00  0.00    -0.060 I 
ATOM     10  F2  UNL d   1      -0.067  -1.739   0.727  0.00  0.00    -0.096 F 
ATOM     11  F3  UNL d   1       2.411  -0.905   1.436  0.00  0.00    -0.097 F 
ATOM     12  F4  UNL d   1       3.222   1.639   0.878  0.00  0.00    -0.092 F 
ENDROOT
TORSDOF 0
ENDMDL
