MODEL 1
REMARK minimizedAffinity -2.75524807
REMARK minimizedRMSD -1
REMARK  0 active torsions:
REMARK  status: ('A' for Active; 'I' for Inactive)
ROOT
ATOM      1  C   UNL d   1       1.774  -0.506   0.830  0.00  0.00     0.124 A 
ATOM      2  C1  UNL d   1       1.206   0.406  -0.049  0.00  0.00     0.062 A 
ATOM      3  C2  UNL d   1      -0.162   0.376  -0.303  0.00  0.00     0.162 A 
ATOM      4  C3  UNL d   1      -0.973  -0.570   0.325  0.00  0.00    -0.034 A 
ATOM      5  C4  UNL d   1      -0.395  -1.484   1.207  0.00  0.00     0.162 A 
ATOM      6  C5  UNL d   1       0.973  -1.450   1.457  0.00  0.00     0.062 A 
ATOM      7  F   UNL d   1       1.519  -2.332   2.306  0.00  0.00    -0.097 F 
ATOM      8  F1  UNL d   1      -1.146  -2.407   1.827  0.00  0.00    -0.096 F 
ATOM      9  I   UNL d   1      -3.019  -0.618  -0.052  0.00  0.00    -0.060 I 
ATOM     10  F2  UNL d   1      -0.683   1.269  -1.157  0.00  0.00    -0.096 F 
ATOM     11  F3  UNL d   1       1.978   1.319  -0.657  0.00  0.00    -0.097 F 
ATOM     12  F4  UNL d   1       3.091  -0.475   1.071  0.00  0.00    -0.092 F 
ENDROOT
TORSDOF 0
ENDMDL
