MODEL 1
REMARK minimizedAffinity -2.03745961
REMARK minimizedRMSD -1
REMARK  0 active torsions:
REMARK  status: ('A' for Active; 'I' for Inactive)
ROOT
ATOM      1  C   UNL d   1      -1.526  -1.357  -0.315  0.00  0.00     0.124 A 
ATOM      2  C1  UNL d   1      -1.384  -0.254  -1.145  0.00  0.00     0.062 A 
ATOM      3  C2  UNL d   1      -0.264   0.565  -1.036  0.00  0.00     0.162 A 
ATOM      4  C3  UNL d   1       0.724   0.283  -0.093  0.00  0.00    -0.034 A 
ATOM      5  C4  UNL d   1       0.574  -0.828   0.739  0.00  0.00     0.162 A 
ATOM      6  C5  UNL d   1      -0.548  -1.643   0.626  0.00  0.00     0.062 A 
ATOM      7  F   UNL d   1      -0.683  -2.709   1.429  0.00  0.00    -0.097 F 
ATOM      8  F1  UNL d   1       1.505  -1.128   1.657  0.00  0.00    -0.096 F 
ATOM      9  I   UNL d   1       2.401   1.505   0.074  0.00  0.00    -0.060 I 
ATOM     10  F2  UNL d   1      -0.153   1.624  -1.851  0.00  0.00    -0.096 F 
ATOM     11  F3  UNL d   1      -2.329   0.024  -2.055  0.00  0.00    -0.097 F 
ATOM     12  F4  UNL d   1      -2.606  -2.143  -0.422  0.00  0.00    -0.092 F 
ENDROOT
TORSDOF 0
ENDMDL
