MODEL 1
REMARK minimizedAffinity 1.97160983
REMARK minimizedRMSD -1
REMARK  0 active torsions:
REMARK  status: ('A' for Active; 'I' for Inactive)
ROOT
ATOM      1  C   UNL d   1      -2.510  -0.865   0.111  0.00  0.00     0.124 A 
ATOM      2  C1  UNL d   1      -1.514  -1.167   1.029  0.00  0.00     0.062 A 
ATOM      3  C2  UNL d   1      -0.245  -0.612   0.892  0.00  0.00     0.162 A 
ATOM      4  C3  UNL d   1       0.036   0.251  -0.167  0.00  0.00    -0.034 A 
ATOM      5  C4  UNL d   1      -0.971   0.549  -1.087  0.00  0.00     0.162 A 
ATOM      6  C5  UNL d   1      -2.238  -0.007  -0.946  0.00  0.00     0.062 A 
ATOM      7  F   UNL d   1      -3.200   0.285  -1.834  0.00  0.00    -0.097 F 
ATOM      8  F1  UNL d   1      -0.736   1.375  -2.117  0.00  0.00    -0.096 F 
ATOM      9  I   UNL d   1       1.932   1.082  -0.376  0.00  0.00    -0.060 I 
ATOM     10  F2  UNL d   1       0.699  -0.922   1.794  0.00  0.00    -0.096 F 
ATOM     11  F3  UNL d   1      -1.774  -1.995   2.050  0.00  0.00    -0.097 F 
ATOM     12  F4  UNL d   1      -3.731  -1.400   0.245  0.00  0.00    -0.092 F 
ENDROOT
TORSDOF 0
ENDMDL
