MODEL 1
REMARK minimizedAffinity -0.838417232
REMARK minimizedRMSD -1
REMARK  0 active torsions:
REMARK  status: ('A' for Active; 'I' for Inactive)
ROOT
ATOM      1  C   UNL d   1      -2.074  -1.743  -0.063  0.00  0.00     0.124 A 
ATOM      2  C1  UNL d   1      -1.847  -0.662  -0.903  0.00  0.00     0.062 A 
ATOM      3  C2  UNL d   1      -0.672   0.075  -0.792  0.00  0.00     0.162 A 
ATOM      4  C3  UNL d   1       0.287  -0.267   0.162  0.00  0.00    -0.034 A 
ATOM      5  C4  UNL d   1       0.051  -1.355   1.003  0.00  0.00     0.162 A 
ATOM      6  C5  UNL d   1      -1.125  -2.089   0.889  0.00  0.00     0.062 A 
ATOM      7  F   UNL d   1      -1.343  -3.133   1.702  0.00  0.00    -0.097 F 
ATOM      8  F1  UNL d   1       0.952  -1.712   1.932  0.00  0.00    -0.096 F 
ATOM      9  I   UNL d   1       2.046   0.833   0.330  0.00  0.00    -0.060 I 
ATOM     10  F2  UNL d   1      -0.479   1.115  -1.617  0.00  0.00    -0.096 F 
ATOM     11  F3  UNL d   1      -2.762  -0.326  -1.823  0.00  0.00    -0.097 F 
ATOM     12  F4  UNL d   1      -3.206  -2.451  -0.170  0.00  0.00    -0.092 F 
ENDROOT
TORSDOF 0
ENDMDL
