MODEL 1
REMARK minimizedAffinity 1.5144881
REMARK minimizedRMSD -1
REMARK  0 active torsions:
REMARK  status: ('A' for Active; 'I' for Inactive)
ROOT
ATOM      1  C   UNL d   1      -2.357  -1.039  -0.140  0.00  0.00     0.124 A 
ATOM      2  C1  UNL d   1      -1.638  -0.948   1.044  0.00  0.00     0.062 A 
ATOM      3  C2  UNL d   1      -0.417  -0.281   1.072  0.00  0.00     0.162 A 
ATOM      4  C3  UNL d   1       0.093   0.303  -0.089  0.00  0.00    -0.034 A 
ATOM      5  C4  UNL d   1      -0.636   0.206  -1.275  0.00  0.00     0.162 A 
ATOM      6  C5  UNL d   1      -1.856  -0.462  -1.298  0.00  0.00     0.062 A 
ATOM      7  F   UNL d   1      -2.549  -0.549  -2.442  0.00  0.00    -0.097 F 
ATOM      8  F1  UNL d   1      -0.175   0.756  -2.409  0.00  0.00    -0.096 F 
ATOM      9  I   UNL d   1       1.918   1.302  -0.051  0.00  0.00    -0.060 I 
ATOM     10  F2  UNL d   1       0.257  -0.208   2.229  0.00  0.00    -0.096 F 
ATOM     11  F3  UNL d   1      -2.119  -1.506   2.164  0.00  0.00    -0.097 F 
ATOM     12  F4  UNL d   1      -3.531  -1.683  -0.164  0.00  0.00    -0.092 F 
ENDROOT
TORSDOF 0
ENDMDL
