MODEL 1
REMARK minimizedAffinity -1.8734622
REMARK minimizedRMSD -1
REMARK  0 active torsions:
REMARK  status: ('A' for Active; 'I' for Inactive)
ROOT
ATOM      1  C   UNL d   1       0.506   0.269  -0.666  0.00  0.00     0.124 A 
ATOM      2  C1  UNL d   1      -0.369   0.145  -1.736  0.00  0.00     0.062 A 
ATOM      3  C2  UNL d   1      -1.634  -0.403  -1.546  0.00  0.00     0.162 A 
ATOM      4  C3  UNL d   1      -2.032  -0.831  -0.280  0.00  0.00    -0.034 A 
ATOM      5  C4  UNL d   1      -1.146  -0.704   0.792  0.00  0.00     0.162 A 
ATOM      6  C5  UNL d   1       0.117  -0.156   0.596  0.00  0.00     0.062 A 
ATOM      7  F   UNL d   1       0.961  -0.037   1.631  0.00  0.00    -0.097 F 
ATOM      8  F1  UNL d   1      -1.497  -1.105   2.022  0.00  0.00    -0.096 F 
ATOM      9  I   UNL d   1      -3.923  -1.651   0.009  0.00  0.00    -0.060 I 
ATOM     10  F2  UNL d   1      -2.459  -0.511  -2.598  0.00  0.00    -0.096 F 
ATOM     11  F3  UNL d   1       0.005   0.553  -2.957  0.00  0.00    -0.097 F 
ATOM     12  F4  UNL d   1       1.723   0.796  -0.852  0.00  0.00    -0.092 F 
ENDROOT
TORSDOF 0
ENDMDL
