MODEL 1
REMARK minimizedAffinity -2.8225913
REMARK minimizedRMSD -1
REMARK  0 active torsions:
REMARK  status: ('A' for Active; 'I' for Inactive)
ROOT
ATOM      1  C   UNL d   1      -2.063  -2.085   0.094  0.00  0.00     0.124 A 
ATOM      2  C1  UNL d   1      -1.953  -0.946  -0.692  0.00  0.00     0.062 A 
ATOM      3  C2  UNL d   1      -0.851  -0.107  -0.560  0.00  0.00     0.162 A 
ATOM      4  C3  UNL d   1       0.153  -0.405   0.363  0.00  0.00    -0.034 A 
ATOM      5  C4  UNL d   1       0.036  -1.551   1.150  0.00  0.00     0.162 A 
ATOM      6  C5  UNL d   1      -1.069  -2.386   1.014  0.00  0.00     0.062 A 
ATOM      7  F   UNL d   1      -1.173  -3.486   1.774  0.00  0.00    -0.097 F 
ATOM      8  F1  UNL d   1       0.982  -1.867   2.047  0.00  0.00    -0.096 F 
ATOM      9  I   UNL d   1       1.804   0.847   0.564  0.00  0.00    -0.060 I 
ATOM     10  F2  UNL d   1      -0.771   0.986  -1.332  0.00  0.00    -0.096 F 
ATOM     11  F3  UNL d   1      -2.913  -0.652  -1.581  0.00  0.00    -0.097 F 
ATOM     12  F4  UNL d   1      -3.126  -2.889  -0.035  0.00  0.00    -0.092 F 
ENDROOT
TORSDOF 0
ENDMDL
