MODEL 1
REMARK minimizedAffinity -2.14127254
REMARK minimizedRMSD -1
REMARK  0 active torsions:
REMARK  status: ('A' for Active; 'I' for Inactive)
ROOT
ATOM      1  C   UNL d   1      -1.956  -0.704  -0.209  0.00  0.00     0.124 A 
ATOM      2  C1  UNL d   1      -1.476  -0.265  -1.435  0.00  0.00     0.062 A 
ATOM      3  C2  UNL d   1      -0.212   0.310  -1.526  0.00  0.00     0.162 A 
ATOM      4  C3  UNL d   1       0.583   0.448  -0.388  0.00  0.00    -0.034 A 
ATOM      5  C4  UNL d   1       0.093   0.004   0.842  0.00  0.00     0.162 A 
ATOM      6  C5  UNL d   1      -1.172  -0.569   0.928  0.00  0.00     0.062 A 
ATOM      7  F   UNL d   1      -1.634  -0.993   2.113  0.00  0.00    -0.097 F 
ATOM      8  F1  UNL d   1       0.830   0.122   1.956  0.00  0.00    -0.096 F 
ATOM      9  I   UNL d   1       2.474   1.306  -0.520  0.00  0.00    -0.060 I 
ATOM     10  F2  UNL d   1       0.227   0.726  -2.724  0.00  0.00    -0.096 F 
ATOM     11  F3  UNL d   1      -2.232  -0.393  -2.535  0.00  0.00    -0.097 F 
ATOM     12  F4  UNL d   1      -3.174  -1.256  -0.124  0.00  0.00    -0.092 F 
ENDROOT
TORSDOF 0
ENDMDL
