MODEL 1
REMARK minimizedAffinity 4.44055843
REMARK minimizedRMSD -1
REMARK  0 active torsions:
REMARK  status: ('A' for Active; 'I' for Inactive)
ROOT
ATOM      1  C   UNL d   1       3.269   3.303   0.248  0.00  0.00     0.124 A 
ATOM      2  C1  UNL d   1       3.230   2.166  -0.547  0.00  0.00     0.062 A 
ATOM      3  C2  UNL d   1       2.552   1.030  -0.112  0.00  0.00     0.162 A 
ATOM      4  C3  UNL d   1       1.906   1.027   1.125  0.00  0.00    -0.034 A 
ATOM      5  C4  UNL d   1       1.951   2.174   1.919  0.00  0.00     0.162 A 
ATOM      6  C5  UNL d   1       2.630   3.306   1.480  0.00  0.00     0.062 A 
ATOM      7  F   UNL d   1       2.666   4.404   2.250  0.00  0.00    -0.097 F 
ATOM      8  F1  UNL d   1       1.341   2.205   3.114  0.00  0.00    -0.096 F 
ATOM      9  I   UNL d   1       0.892  -0.669   1.779  0.00  0.00    -0.060 I 
ATOM     10  F2  UNL d   1       2.530  -0.054  -0.901  0.00  0.00    -0.096 F 
ATOM     11  F3  UNL d   1       3.847   2.160  -1.737  0.00  0.00    -0.097 F 
ATOM     12  F4  UNL d   1       3.923   4.393  -0.172  0.00  0.00    -0.092 F 
ENDROOT
TORSDOF 0
ENDMDL
