MODEL 1
REMARK minimizedAffinity -3.59049797
REMARK minimizedRMSD -1
REMARK  0 active torsions:
REMARK  status: ('A' for Active; 'I' for Inactive)
ROOT
ATOM      1  C   UNL d   1       2.178   0.534   0.393  0.00  0.00     0.124 A 
ATOM      2  C1  UNL d   1       1.373   1.518  -0.163  0.00  0.00     0.062 A 
ATOM      3  C2  UNL d   1       0.019   1.277  -0.377  0.00  0.00     0.162 A 
ATOM      4  C3  UNL d   1      -0.539   0.046  -0.034  0.00  0.00    -0.034 A 
ATOM      5  C4  UNL d   1       0.277  -0.939   0.525  0.00  0.00     0.162 A 
ATOM      6  C5  UNL d   1       1.630  -0.693   0.737  0.00  0.00     0.062 A 
ATOM      7  F   UNL d   1       2.406  -1.645   1.275  0.00  0.00    -0.097 F 
ATOM      8  F1  UNL d   1      -0.227  -2.134   0.867  0.00  0.00    -0.096 F 
ATOM      9  I   UNL d   1      -2.563  -0.319  -0.352  0.00  0.00    -0.060 I 
ATOM     10  F2  UNL d   1      -0.735   2.246  -0.917  0.00  0.00    -0.096 F 
ATOM     11  F3  UNL d   1       1.901   2.705  -0.497  0.00  0.00    -0.097 F 
ATOM     12  F4  UNL d   1       3.481   0.769   0.597  0.00  0.00    -0.092 F 
ENDROOT
TORSDOF 0
ENDMDL
