MODEL 1
REMARK minimizedAffinity -2.28037524
REMARK minimizedRMSD -1
REMARK  0 active torsions:
REMARK  status: ('A' for Active; 'I' for Inactive)
ROOT
ATOM      1  C   UNL d   1       0.681  -0.214  -0.731  0.00  0.00     0.124 A 
ATOM      2  C1  UNL d   1       0.289  -0.663   0.523  0.00  0.00     0.062 A 
ATOM      3  C2  UNL d   1      -1.054  -0.913   0.790  0.00  0.00     0.162 A 
ATOM      4  C3  UNL d   1      -2.016  -0.714  -0.200  0.00  0.00    -0.034 A 
ATOM      5  C4  UNL d   1      -1.615  -0.261  -1.458  0.00  0.00     0.162 A 
ATOM      6  C5  UNL d   1      -0.272  -0.014  -1.720  0.00  0.00     0.062 A 
ATOM      7  F   UNL d   1       0.104   0.421  -2.932  0.00  0.00    -0.097 F 
ATOM      8  F1  UNL d   1      -2.515  -0.060  -2.433  0.00  0.00    -0.096 F 
ATOM      9  I   UNL d   1      -4.026  -1.086   0.194  0.00  0.00    -0.060 I 
ATOM     10  F2  UNL d   1      -1.403  -1.346   2.010  0.00  0.00    -0.096 F 
ATOM     11  F3  UNL d   1       1.208  -0.857   1.481  0.00  0.00    -0.097 F 
ATOM     12  F4  UNL d   1       1.974   0.026  -0.984  0.00  0.00    -0.092 F 
ENDROOT
TORSDOF 0
ENDMDL
