MODEL 1
REMARK minimizedAffinity 2.02705669
REMARK minimizedRMSD -1
REMARK  0 active torsions:
REMARK  status: ('A' for Active; 'I' for Inactive)
ROOT
ATOM      1  C   UNL d   1      -1.702  -0.827  -0.392  0.00  0.00     0.124 A 
ATOM      2  C1  UNL d   1      -1.662   0.365  -1.102  0.00  0.00     0.062 A 
ATOM      3  C2  UNL d   1      -0.538   1.182  -1.035  0.00  0.00     0.162 A 
ATOM      4  C3  UNL d   1       0.558   0.810  -0.256  0.00  0.00    -0.034 A 
ATOM      5  C4  UNL d   1       0.510  -0.390   0.456  0.00  0.00     0.162 A 
ATOM      6  C5  UNL d   1      -0.616  -1.204   0.386  0.00  0.00     0.062 A 
ATOM      7  F   UNL d   1      -0.653  -2.355   1.072  0.00  0.00    -0.097 F 
ATOM      8  F1  UNL d   1       1.545  -0.779   1.215  0.00  0.00    -0.096 F 
ATOM      9  I   UNL d   1       2.242   2.029  -0.153  0.00  0.00    -0.060 I 
ATOM     10  F2  UNL d   1      -0.527   2.329  -1.731  0.00  0.00    -0.096 F 
ATOM     11  F3  UNL d   1      -2.710   0.732  -1.853  0.00  0.00    -0.097 F 
ATOM     12  F4  UNL d   1      -2.786  -1.611  -0.457  0.00  0.00    -0.092 F 
ENDROOT
TORSDOF 0
ENDMDL
