MODEL 1
REMARK minimizedAffinity 16.1038055
REMARK minimizedRMSD -1
REMARK  1 active torsions:
REMARK  status: ('A' for Active; 'I' for Inactive)
REMARK    1  A    between atoms: C1_2  and  C2_3 
ROOT
ATOM      1  C2  UNL d   1      -3.365   3.523   5.352  0.00  0.00    -0.076 A 
ATOM      2  C3  UNL d   1      -4.309   2.706   5.999  0.00  0.00     0.004 A 
ATOM      3  C4  UNL d   1      -4.722   1.501   5.434  0.00  0.00    -0.003 A 
ATOM      4  C5  UNL d   1      -4.197   1.092   4.212  0.00  0.00     0.000 A 
ATOM      5  C6  UNL d   1      -3.247   1.881   3.565  0.00  0.00     0.000 A 
ATOM      6  C7  UNL d   1      -2.808   3.091   4.129  0.00  0.00    -0.073 A 
ATOM      7  C8  UNL d   1      -1.786   3.906   3.385  0.00  0.00     0.078 C 
ENDROOT
BRANCH   1   8
ATOM      8  C1  UNL d   1      -2.976   4.832   6.000  0.00  0.00     0.053 C 
ATOM      9  C   UNL d   1      -4.107   5.849   5.985  0.00  0.00     0.018 C 
ENDBRANCH   1   8
TORSDOF 1
ENDMDL
