MODEL 1
REMARK minimizedAffinity 7.9210453
REMARK minimizedRMSD -1
REMARK  1 active torsions:
REMARK  status: ('A' for Active; 'I' for Inactive)
REMARK    1  A    between atoms: C1_2  and  C2_3 
ROOT
ATOM      1  C2  UNL d   1       0.357  -1.645   2.532  0.00  0.00    -0.076 A 
ATOM      2  C3  UNL d   1       1.537  -1.436   1.796  0.00  0.00     0.004 A 
ATOM      3  C4  UNL d   1       2.136  -2.477   1.091  0.00  0.00    -0.003 A 
ATOM      4  C5  UNL d   1       1.566  -3.746   1.109  0.00  0.00     0.000 A 
ATOM      5  C6  UNL d   1       0.387  -3.967   1.820  0.00  0.00     0.000 A 
ATOM      6  C7  UNL d   1      -0.239  -2.924   2.523  0.00  0.00    -0.073 A 
ATOM      7  C8  UNL d   1      -1.506  -3.221   3.277  0.00  0.00     0.078 C 
ENDROOT
BRANCH   1   8
ATOM      8  C1  UNL d   1      -0.233  -0.484   3.300  0.00  0.00     0.053 C 
ATOM      9  C   UNL d   1       0.832   0.457   3.844  0.00  0.00     0.018 C 
ENDBRANCH   1   8
TORSDOF 1
ENDMDL
