MODEL 1
REMARK minimizedAffinity 22.0244598
REMARK minimizedRMSD -1
REMARK  1 active torsions:
REMARK  status: ('A' for Active; 'I' for Inactive)
REMARK    1  A    between atoms: C1_2  and  C2_3 
ROOT
ATOM      1  C2  UNL d   1       4.644  -4.284  -0.634  0.00  0.00    -0.076 A 
ATOM      2  C3  UNL d   1       3.394  -4.899  -0.817  0.00  0.00     0.004 A 
ATOM      3  C4  UNL d   1       2.217  -4.263  -0.425  0.00  0.00    -0.003 A 
ATOM      4  C5  UNL d   1       2.272  -3.001   0.157  0.00  0.00     0.000 A 
ATOM      5  C6  UNL d   1       3.503  -2.369   0.330  0.00  0.00     0.000 A 
ATOM      6  C7  UNL d   1       4.697  -2.989  -0.075  0.00  0.00    -0.073 A 
ATOM      7  C8  UNL d   1       5.997  -2.264   0.142  0.00  0.00     0.078 C 
ENDROOT
BRANCH   1   8
ATOM      8  C1  UNL d   1       5.888  -5.034  -1.054  0.00  0.00     0.053 C 
ATOM      9  C   UNL d   1       5.638  -5.966  -2.230  0.00  0.00     0.018 C 
ENDBRANCH   1   8
TORSDOF 1
ENDMDL
