MODEL 1
REMARK minimizedAffinity 10.7328072
REMARK minimizedRMSD -1
REMARK  1 active torsions:
REMARK  status: ('A' for Active; 'I' for Inactive)
REMARK    1  A    between atoms: C1_2  and  C2_3 
ROOT
ATOM      1  C2  UNL d   1      -1.632   4.000   4.073  0.00  0.00    -0.076 A 
ATOM      2  C3  UNL d   1      -2.145   4.735   5.156  0.00  0.00     0.004 A 
ATOM      3  C4  UNL d   1      -1.385   5.725   5.776  0.00  0.00    -0.003 A 
ATOM      4  C5  UNL d   1      -0.099   5.997   5.323  0.00  0.00     0.000 A 
ATOM      5  C6  UNL d   1       0.420   5.290   4.238  0.00  0.00     0.000 A 
ATOM      6  C7  UNL d   1      -0.340   4.300   3.591  0.00  0.00    -0.073 A 
ATOM      7  C8  UNL d   1       0.272   3.565   2.430  0.00  0.00     0.078 C 
ENDROOT
BRANCH   1   8
ATOM      8  C1  UNL d   1      -2.493   2.920   3.457  0.00  0.00     0.053 C 
ATOM      9  C   UNL d   1      -2.532   1.655   4.301  0.00  0.00     0.018 C 
ENDBRANCH   1   8
TORSDOF 1
ENDMDL
