MODEL 1
REMARK minimizedAffinity 10.0035143
REMARK minimizedRMSD -1
REMARK  1 active torsions:
REMARK  status: ('A' for Active; 'I' for Inactive)
REMARK    1  A    between atoms: C1_2  and  C2_3 
ROOT
ATOM      1  C2  UNL d   1       2.059  -0.668   2.125  0.00  0.00    -0.076 A 
ATOM      2  C3  UNL d   1       3.221  -1.081   1.450  0.00  0.00     0.004 A 
ATOM      3  C4  UNL d   1       3.231  -2.247   0.687  0.00  0.00    -0.003 A 
ATOM      4  C5  UNL d   1       2.079  -3.019   0.586  0.00  0.00     0.000 A 
ATOM      5  C6  UNL d   1       0.912  -2.615   1.233  0.00  0.00     0.000 A 
ATOM      6  C7  UNL d   1       0.881  -1.433   1.993  0.00  0.00    -0.073 A 
ATOM      7  C8  UNL d   1      -0.403  -1.048   2.676  0.00  0.00     0.078 C 
ENDROOT
BRANCH   1   8
ATOM      8  C1  UNL d   1       2.115   0.592   2.959  0.00  0.00     0.053 C 
ATOM      9  C   UNL d   1       2.452   1.824   2.134  0.00  0.00     0.018 C 
ENDBRANCH   1   8
TORSDOF 1
ENDMDL
