MODEL 1
REMARK minimizedAffinity 6.55679655
REMARK minimizedRMSD -1
REMARK  1 active torsions:
REMARK  status: ('A' for Active; 'I' for Inactive)
REMARK    1  A    between atoms: C1_2  and  C2_3 
ROOT
ATOM      1  C2  UNL d   1      -1.833  -1.216  -5.884  0.00  0.00    -0.073 A 
ATOM      2  C3  UNL d   1      -1.583  -2.592  -5.945  0.00  0.00    -0.002 A 
ATOM      3  C4  UNL d   1      -2.642  -3.499  -5.998  0.00  0.00     0.004 A 
ATOM      4  C5  UNL d   1      -3.960  -3.041  -5.999  0.00  0.00    -0.004 A 
ATOM      5  C6  UNL d   1      -4.230  -1.670  -5.951  0.00  0.00    -0.075 A 
ATOM      6  C7  UNL d   1      -5.641  -1.161  -5.949  0.00  0.00     0.076 C 
ATOM      7  C8  UNL d   1      -3.161  -0.765  -5.895  0.00  0.00     0.001 A 
ENDROOT
BRANCH   1   8
ATOM      8  C1  UNL d   1      -0.693  -0.233  -5.833  0.00  0.00     0.053 C 
ATOM      9  C   UNL d   1       0.333  -0.604  -4.775  0.00  0.00     0.018 C 
ENDBRANCH   1   8
TORSDOF 1
ENDMDL
