MODEL 1
REMARK minimizedAffinity 10.4696827
REMARK minimizedRMSD -1
REMARK  1 active torsions:
REMARK  status: ('A' for Active; 'I' for Inactive)
REMARK    1  A    between atoms: C1_2  and  C2_3 
ROOT
ATOM      1  C2  UNL d   1      -0.003  -0.751  -4.606  0.00  0.00    -0.073 A 
ATOM      2  C3  UNL d   1       0.062  -0.409  -3.250  0.00  0.00    -0.002 A 
ATOM      3  C4  UNL d   1       1.288  -0.103  -2.658  0.00  0.00     0.004 A 
ATOM      4  C5  UNL d   1       2.459  -0.128  -3.416  0.00  0.00    -0.004 A 
ATOM      5  C6  UNL d   1       2.413  -0.455  -4.775  0.00  0.00    -0.075 A 
ATOM      6  C7  UNL d   1       3.663  -0.489  -5.604  0.00  0.00     0.076 C 
ATOM      7  C8  UNL d   1       1.178  -0.764  -5.361  0.00  0.00     0.001 A 
ENDROOT
BRANCH   1   8
ATOM      8  C1  UNL d   1      -1.326  -1.076  -5.250  0.00  0.00     0.053 C 
ATOM      9  C   UNL d   1      -1.285  -2.398  -6.000  0.00  0.00     0.018 C 
ENDBRANCH   1   8
TORSDOF 1
ENDMDL
