MODEL 1
REMARK minimizedAffinity 6.67507076
REMARK minimizedRMSD -1
REMARK  1 active torsions:
REMARK  status: ('A' for Active; 'I' for Inactive)
REMARK    1  A    between atoms: C1_2  and  C2_3 
ROOT
ATOM      1  C2  UNL d   1      -1.306  -1.812  -5.521  0.00  0.00    -0.073 A 
ATOM      2  C3  UNL d   1      -2.054  -0.632  -5.611  0.00  0.00    -0.002 A 
ATOM      3  C4  UNL d   1      -3.432  -0.686  -5.823  0.00  0.00     0.004 A 
ATOM      4  C5  UNL d   1      -4.077  -1.917  -5.940  0.00  0.00    -0.004 A 
ATOM      5  C6  UNL d   1      -3.349  -3.107  -5.840  0.00  0.00    -0.075 A 
ATOM      6  C7  UNL d   1      -4.028  -4.440  -5.965  0.00  0.00     0.076 C 
ATOM      7  C8  UNL d   1      -1.965  -3.045  -5.630  0.00  0.00     0.001 A 
ENDROOT
BRANCH   1   8
ATOM      8  C1  UNL d   1       0.181  -1.759  -5.286  0.00  0.00     0.053 C 
ATOM      9  C   UNL d   1       0.520  -1.291  -3.879  0.00  0.00     0.018 C 
ENDBRANCH   1   8
TORSDOF 1
ENDMDL
