MODEL 1
REMARK minimizedAffinity 5.89860821
REMARK minimizedRMSD -1
REMARK  1 active torsions:
REMARK  status: ('A' for Active; 'I' for Inactive)
REMARK    1  A    between atoms: C1_2  and  C2_3 
ROOT
ATOM      1  C2  UNL d   1      -2.096  -1.349  -5.745  0.00  0.00    -0.073 A 
ATOM      2  C3  UNL d   1      -3.120  -0.395  -5.743  0.00  0.00    -0.002 A 
ATOM      3  C4  UNL d   1      -4.455  -0.794  -5.831  0.00  0.00     0.004 A 
ATOM      4  C5  UNL d   1      -4.778  -2.148  -5.914  0.00  0.00    -0.004 A 
ATOM      5  C6  UNL d   1      -3.769  -3.117  -5.905  0.00  0.00    -0.075 A 
ATOM      6  C7  UNL d   1      -4.101  -4.577  -5.996  0.00  0.00     0.076 C 
ATOM      7  C8  UNL d   1      -2.432  -2.708  -5.819  0.00  0.00     0.001 A 
ENDROOT
BRANCH   1   8
ATOM      8  C1  UNL d   1      -0.654  -0.923  -5.643  0.00  0.00     0.053 C 
ATOM      9  C   UNL d   1      -0.195  -0.804  -4.199  0.00  0.00     0.018 C 
ENDBRANCH   1   8
TORSDOF 1
ENDMDL
