MODEL 1
REMARK minimizedAffinity 1.19273353
REMARK minimizedRMSD -1
REMARK  1 active torsions:
REMARK  status: ('A' for Active; 'I' for Inactive)
REMARK    1  A    between atoms: C1_2  and  C2_3 
ROOT
ATOM      1  C2  UNL d   1      -3.169  -2.162  -5.997  0.00  0.00    -0.073 A 
ATOM      2  C3  UNL d   1      -3.950  -1.000  -5.993  0.00  0.00    -0.002 A 
ATOM      3  C4  UNL d   1      -5.343  -1.087  -5.998  0.00  0.00     0.004 A 
ATOM      4  C5  UNL d   1      -5.968  -2.334  -6.000  0.00  0.00    -0.004 A 
ATOM      5  C6  UNL d   1      -5.205  -3.506  -5.991  0.00  0.00    -0.075 A 
ATOM      6  C7  UNL d   1      -5.862  -4.855  -5.995  0.00  0.00     0.076 C 
ATOM      7  C8  UNL d   1      -3.807  -3.410  -5.989  0.00  0.00     0.001 A 
ENDROOT
BRANCH   1   8
ATOM      8  C1  UNL d   1      -1.665  -2.073  -5.985  0.00  0.00     0.053 C 
ATOM      9  C   UNL d   1      -1.173  -0.830  -5.260  0.00  0.00     0.018 C 
ENDBRANCH   1   8
TORSDOF 1
ENDMDL
