MODEL 1
REMARK minimizedAffinity 8.13241005
REMARK minimizedRMSD -1
REMARK  1 active torsions:
REMARK  status: ('A' for Active; 'I' for Inactive)
REMARK    1  A    between atoms: C1_2  and  C2_3 
ROOT
ATOM      1  C2  UNL d   1      -5.661   3.984   4.578  0.00  0.00    -0.073 A 
ATOM      2  C3  UNL d   1      -5.941   3.008   5.542  0.00  0.00    -0.002 A 
ATOM      3  C4  UNL d   1      -5.628   1.670   5.301  0.00  0.00     0.004 A 
ATOM      4  C5  UNL d   1      -5.027   1.295   4.099  0.00  0.00    -0.004 A 
ATOM      5  C6  UNL d   1      -4.729   2.257   3.129  0.00  0.00    -0.075 A 
ATOM      6  C7  UNL d   1      -4.084   1.870   1.830  0.00  0.00     0.076 C 
ATOM      7  C8  UNL d   1      -5.048   3.599   3.377  0.00  0.00     0.001 A 
ENDROOT
BRANCH   1   8
ATOM      8  C1  UNL d   1      -5.991   5.432   4.837  0.00  0.00     0.053 C 
ATOM      9  C   UNL d   1      -5.193   5.999   6.000  0.00  0.00     0.018 C 
ENDBRANCH   1   8
TORSDOF 1
ENDMDL
