MODEL 1
REMARK minimizedAffinity 10.1726131
REMARK minimizedRMSD -1
REMARK  1 active torsions:
REMARK  status: ('A' for Active; 'I' for Inactive)
REMARK    1  A    between atoms: C1_2  and  C2_3 
ROOT
ATOM      1  C2  UNL d   1       0.788  -0.069  -3.622  0.00  0.00    -0.073 A 
ATOM      2  C3  UNL d   1       1.303   0.327  -2.383  0.00  0.00    -0.002 A 
ATOM      3  C4  UNL d   1       2.637   0.721  -2.267  0.00  0.00     0.004 A 
ATOM      4  C5  UNL d   1       3.466   0.728  -3.388  0.00  0.00    -0.004 A 
ATOM      5  C6  UNL d   1       2.967   0.347  -4.638  0.00  0.00    -0.075 A 
ATOM      6  C7  UNL d   1       3.847   0.347  -5.853  0.00  0.00     0.076 C 
ATOM      7  C8  UNL d   1       1.627  -0.050  -4.745  0.00  0.00     0.001 A 
ENDROOT
BRANCH   1   8
ATOM      8  C1  UNL d   1      -0.654  -0.489  -3.753  0.00  0.00     0.053 C 
ATOM      9  C   UNL d   1      -1.044  -0.744  -5.201  0.00  0.00     0.018 C 
ENDBRANCH   1   8
TORSDOF 1
ENDMDL
