MODEL 1
REMARK minimizedAffinity 7.419034
REMARK minimizedRMSD -1
REMARK  1 active torsions:
REMARK  status: ('A' for Active; 'I' for Inactive)
REMARK    1  A    between atoms: C1_2  and  C2_3 
ROOT
ATOM      1  C2  UNL d   1      -3.194  -1.709  -5.979  0.00  0.00    -0.073 A 
ATOM      2  C3  UNL d   1      -4.306  -0.861  -5.929  0.00  0.00    -0.002 A 
ATOM      3  C4  UNL d   1      -5.596  -1.391  -5.906  0.00  0.00     0.004 A 
ATOM      4  C5  UNL d   1      -5.788  -2.772  -5.925  0.00  0.00    -0.004 A 
ATOM      5  C6  UNL d   1      -4.689  -3.637  -5.963  0.00  0.00    -0.075 A 
ATOM      6  C7  UNL d   1      -4.879  -5.125  -5.986  0.00  0.00     0.076 C 
ATOM      7  C8  UNL d   1      -3.396  -3.096  -5.989  0.00  0.00     0.001 A 
ENDROOT
BRANCH   1   8
ATOM      8  C1  UNL d   1      -1.798  -1.141  -5.999  0.00  0.00     0.053 C 
ATOM      9  C   UNL d   1      -1.798   0.376  -5.904  0.00  0.00     0.018 C 
ENDBRANCH   1   8
TORSDOF 1
ENDMDL
