MODEL 1
REMARK minimizedAffinity 3.12449932
REMARK minimizedRMSD -1
REMARK  1 active torsions:
REMARK  status: ('A' for Active; 'I' for Inactive)
REMARK    1  A    between atoms: C1_2  and  C2_3 
ROOT
ATOM      1  C2  UNL d   1      -2.086  -0.740  -5.994  0.00  0.00    -0.073 A 
ATOM      2  C3  UNL d   1      -3.255   0.029  -5.989  0.00  0.00    -0.002 A 
ATOM      3  C4  UNL d   1      -4.506  -0.590  -5.996  0.00  0.00     0.004 A 
ATOM      4  C5  UNL d   1      -4.601  -1.981  -6.000  0.00  0.00    -0.004 A 
ATOM      5  C6  UNL d   1      -3.444  -2.767  -5.992  0.00  0.00    -0.075 A 
ATOM      6  C7  UNL d   1      -3.529  -4.265  -5.998  0.00  0.00     0.076 C 
ATOM      7  C8  UNL d   1      -2.191  -2.139  -5.988  0.00  0.00     0.001 A 
ENDROOT
BRANCH   1   8
ATOM      8  C1  UNL d   1      -0.733  -0.077  -5.981  0.00  0.00     0.053 C 
ATOM      9  C   UNL d   1       0.162  -0.630  -4.883  0.00  0.00     0.018 C 
ENDBRANCH   1   8
TORSDOF 1
ENDMDL
