MODEL 1
REMARK minimizedAffinity 9.42864704
REMARK minimizedRMSD -1
REMARK  1 active torsions:
REMARK  status: ('A' for Active; 'I' for Inactive)
REMARK    1  A    between atoms: C1_2  and  C2_3 
ROOT
ATOM      1  C2  UNL d   1      -5.413   2.846   3.179  0.00  0.00    -0.073 A 
ATOM      2  C3  UNL d   1      -5.575   1.750   4.035  0.00  0.00    -0.002 A 
ATOM      3  C4  UNL d   1      -5.862   1.947   5.386  0.00  0.00     0.004 A 
ATOM      4  C5  UNL d   1      -5.998   3.240   5.894  0.00  0.00    -0.004 A 
ATOM      5  C6  UNL d   1      -5.852   4.347   5.052  0.00  0.00    -0.075 A 
ATOM      6  C7  UNL d   1      -5.994   5.743   5.583  0.00  0.00     0.076 C 
ATOM      7  C8  UNL d   1      -5.561   4.141   3.697  0.00  0.00     0.001 A 
ENDROOT
BRANCH   1   8
ATOM      8  C1  UNL d   1      -5.109   2.638   1.718  0.00  0.00     0.053 C 
ATOM      9  C   UNL d   1      -3.630   2.384   1.474  0.00  0.00     0.018 C 
ENDBRANCH   1   8
TORSDOF 1
ENDMDL
