MODEL 1
REMARK minimizedAffinity -5.7311058
REMARK minimizedRMSD -1
REMARK  1 active torsions:
REMARK  status: ('A' for Active; 'I' for Inactive)
REMARK    1  A    between atoms: C1_2  and  C2_3 
ROOT
ATOM      1  C2  UNL d   1       0.430   0.082   0.094  0.00  0.00    -0.073 A 
ATOM      2  C3  UNL d   1      -0.511   0.399   1.080  0.00  0.00    -0.002 A 
ATOM      3  C4  UNL d   1      -1.208  -0.613   1.741  0.00  0.00     0.004 A 
ATOM      4  C5  UNL d   1      -0.967  -1.951   1.427  0.00  0.00    -0.004 A 
ATOM      5  C6  UNL d   1      -0.023  -2.288   0.453  0.00  0.00    -0.075 A 
ATOM      6  C7  UNL d   1       0.246  -3.722   0.102  0.00  0.00     0.076 C 
ATOM      7  C8  UNL d   1       0.671  -1.266  -0.208  0.00  0.00     0.001 A 
ENDROOT
BRANCH   1   8
ATOM      8  C1  UNL d   1       1.190   1.172  -0.618  0.00  0.00     0.053 C 
ATOM      9  C   UNL d   1       1.965   2.052   0.350  0.00  0.00     0.018 C 
ENDBRANCH   1   8
TORSDOF 1
ENDMDL
