MODEL 1
REMARK minimizedAffinity -3.48761797
REMARK minimizedRMSD -1
REMARK  1 active torsions:
REMARK  status: ('A' for Active; 'I' for Inactive)
REMARK    1  A    between atoms: C1_2  and  C2_3 
ROOT
ATOM      1  C2  UNL d   1       0.192   0.767  -0.059  0.00  0.00    -0.073 A 
ATOM      2  C3  UNL d   1       0.440   0.854  -1.434  0.00  0.00    -0.002 A 
ATOM      3  C4  UNL d   1       0.703  -0.297  -2.177  0.00  0.00     0.004 A 
ATOM      4  C5  UNL d   1       0.715  -1.546  -1.557  0.00  0.00    -0.004 A 
ATOM      5  C6  UNL d   1       0.458  -1.655  -0.186  0.00  0.00    -0.075 A 
ATOM      6  C7  UNL d   1       0.469  -2.991   0.497  0.00  0.00     0.076 C 
ATOM      7  C8  UNL d   1       0.197  -0.495   0.554  0.00  0.00     0.001 A 
ENDROOT
BRANCH   1   8
ATOM      8  C1  UNL d   1      -0.099   2.006   0.747  0.00  0.00     0.053 C 
ATOM      9  C   UNL d   1       1.149   2.845   0.973  0.00  0.00     0.018 C 
ENDBRANCH   1   8
TORSDOF 1
ENDMDL
