MODEL 1
REMARK minimizedAffinity -2.2868104
REMARK minimizedRMSD -1
REMARK  1 active torsions:
REMARK  status: ('A' for Active; 'I' for Inactive)
REMARK    1  A    between atoms: C1_2  and  C2_3 
ROOT
ATOM      1  C2  UNL d   1       0.328   0.596  -0.274  0.00  0.00    -0.073 A 
ATOM      2  C3  UNL d   1       0.633   0.617  -1.640  0.00  0.00    -0.002 A 
ATOM      3  C4  UNL d   1       0.976  -0.562  -2.304  0.00  0.00     0.004 A 
ATOM      4  C5  UNL d   1       1.010  -1.772  -1.612  0.00  0.00    -0.004 A 
ATOM      5  C6  UNL d   1       0.698  -1.816  -0.250  0.00  0.00    -0.075 A 
ATOM      6  C7  UNL d   1       0.733  -3.110   0.509  0.00  0.00     0.076 C 
ATOM      7  C8  UNL d   1       0.357  -0.628   0.411  0.00  0.00     0.001 A 
ENDROOT
BRANCH   1   8
ATOM      8  C1  UNL d   1      -0.049   1.865   0.446  0.00  0.00     0.053 C 
ATOM      9  C   UNL d   1       1.162   2.738   0.733  0.00  0.00     0.018 C 
ENDBRANCH   1   8
TORSDOF 1
ENDMDL
