MODEL 1
REMARK minimizedAffinity -6.46639347
REMARK minimizedRMSD -1
REMARK  1 active torsions:
REMARK  status: ('A' for Active; 'I' for Inactive)
REMARK    1  A    between atoms: C1_2  and  C2_3 
ROOT
ATOM      1  C2  UNL d   1       0.008  -0.111  -0.007  0.00  0.00    -0.073 A 
ATOM      2  C3  UNL d   1       0.552  -1.317  -0.464  0.00  0.00    -0.002 A 
ATOM      3  C4  UNL d   1       0.253  -2.516   0.184  0.00  0.00     0.004 A 
ATOM      4  C5  UNL d   1      -0.598  -2.523   1.289  0.00  0.00    -0.004 A 
ATOM      5  C6  UNL d   1      -1.162  -1.330   1.753  0.00  0.00    -0.075 A 
ATOM      6  C7  UNL d   1      -2.077  -1.321   2.942  0.00  0.00     0.076 C 
ATOM      7  C8  UNL d   1      -0.854  -0.130   1.099  0.00  0.00     0.001 A 
ENDROOT
BRANCH   1   8
ATOM      8  C1  UNL d   1       0.323   1.185  -0.708  0.00  0.00     0.053 C 
ATOM      9  C   UNL d   1       0.755   2.269   0.267  0.00  0.00     0.018 C 
ENDBRANCH   1   8
TORSDOF 1
ENDMDL
