MODEL 1
REMARK minimizedAffinity -5.65971708
REMARK minimizedRMSD -1
REMARK  1 active torsions:
REMARK  status: ('A' for Active; 'I' for Inactive)
REMARK    1  A    between atoms: C1_2  and  C2_3 
ROOT
ATOM      1  C2  UNL d   1       0.182   0.254  -0.117  0.00  0.00    -0.073 A 
ATOM      2  C3  UNL d   1       0.398   0.221  -1.499  0.00  0.00    -0.002 A 
ATOM      3  C4  UNL d   1       0.530  -0.999  -2.164  0.00  0.00     0.004 A 
ATOM      4  C5  UNL d   1       0.439  -2.197  -1.455  0.00  0.00    -0.004 A 
ATOM      5  C6  UNL d   1       0.211  -2.185  -0.075  0.00  0.00    -0.075 A 
ATOM      6  C7  UNL d   1       0.113  -3.465   0.701  0.00  0.00     0.076 C 
ATOM      7  C8  UNL d   1       0.083  -0.956   0.585  0.00  0.00     0.001 A 
ENDROOT
BRANCH   1   8
ATOM      8  C1  UNL d   1       0.033   1.569   0.603  0.00  0.00     0.053 C 
ATOM      9  C   UNL d   1       1.341   2.343   0.653  0.00  0.00     0.018 C 
ENDBRANCH   1   8
TORSDOF 1
ENDMDL
