MODEL 1
REMARK minimizedAffinity -3.86576056
REMARK minimizedRMSD -1
REMARK  1 active torsions:
REMARK  status: ('A' for Active; 'I' for Inactive)
REMARK    1  A    between atoms: C1_2  and  C2_3 
ROOT
ATOM      1  C2  UNL d   1      -0.465  -2.104  -0.796  0.00  0.00    -0.073 A 
ATOM      2  C3  UNL d   1      -1.029  -2.681   0.348  0.00  0.00    -0.002 A 
ATOM      3  C4  UNL d   1      -1.203  -1.922   1.506  0.00  0.00     0.004 A 
ATOM      4  C5  UNL d   1      -0.823  -0.581   1.531  0.00  0.00    -0.004 A 
ATOM      5  C6  UNL d   1      -0.269   0.017   0.394  0.00  0.00    -0.075 A 
ATOM      6  C7  UNL d   1       0.147   1.458   0.405  0.00  0.00     0.076 C 
ATOM      7  C8  UNL d   1      -0.095  -0.752  -0.765  0.00  0.00     0.001 A 
ENDROOT
BRANCH   1   8
ATOM      8  C1  UNL d   1      -0.280  -2.917  -2.052  0.00  0.00     0.053 C 
ATOM      9  C   UNL d   1       0.631  -2.223  -3.051  0.00  0.00     0.018 C 
ENDBRANCH   1   8
TORSDOF 1
ENDMDL
