MODEL 1
REMARK minimizedAffinity -4.46883678
REMARK minimizedRMSD -1
REMARK  1 active torsions:
REMARK  status: ('A' for Active; 'I' for Inactive)
REMARK    1  A    between atoms: C1_2  and  C2_3 
ROOT
ATOM      1  C2  UNL d   1      -0.129  -1.454  -0.157  0.00  0.00    -0.073 A 
ATOM      2  C3  UNL d   1       0.352  -1.643  -1.457  0.00  0.00    -0.002 A 
ATOM      3  C4  UNL d   1       0.554  -0.550  -2.300  0.00  0.00     0.004 A 
ATOM      4  C5  UNL d   1       0.284   0.743  -1.850  0.00  0.00    -0.004 A 
ATOM      5  C6  UNL d   1      -0.186   0.953  -0.550  0.00  0.00    -0.075 A 
ATOM      6  C7  UNL d   1      -0.484   2.337  -0.051  0.00  0.00     0.076 C 
ATOM      7  C8  UNL d   1      -0.389  -0.151   0.290  0.00  0.00     0.001 A 
ENDROOT
BRANCH   1   8
ATOM      8  C1  UNL d   1      -0.343  -2.632   0.759  0.00  0.00     0.053 C 
ATOM      9  C   UNL d   1       0.936  -3.425   0.976  0.00  0.00     0.018 C 
ENDBRANCH   1   8
TORSDOF 1
ENDMDL
