MODEL 1
REMARK minimizedAffinity -2.74871349
REMARK minimizedRMSD -1
REMARK  1 active torsions:
REMARK  status: ('A' for Active; 'I' for Inactive)
REMARK    1  A    between atoms: N_2  and  C1_3 
ROOT
ATOM      1  C1  UNL d   1      -0.409   0.749  -0.022  0.00  0.00     0.143 A 
ATOM      2  C2  UNL d   1      -0.331   0.622   1.369  0.00  0.00    -0.057 A 
ATOM      3  C3  UNL d   1      -1.171   1.358   2.213  0.00  0.00     0.033 A 
ATOM      4  C4  UNL d   1      -2.087   2.259   1.680  0.00  0.00    -0.042 A 
ATOM      5  C5  UNL d   1      -2.164   2.420   0.301  0.00  0.00     0.033 A 
ATOM      6  C6  UNL d   1      -1.328   1.677  -0.537  0.00  0.00    -0.057 A 
ENDROOT
BRANCH   1   7
ATOM      7  N   UNL d   1       0.465   0.118  -0.911  0.00  0.00    -0.732 N 
ATOM      8  C   UNL d   1       1.019  -1.183  -0.601  0.00  0.00     0.284 C 
ATOM      9  H3  UNL d   1       0.178   0.227  -1.881  0.00  0.00     0.395 HD
ENDBRANCH   1   7
TORSDOF 1
ENDMDL
