MODEL 1
REMARK minimizedAffinity -3.55678082
REMARK minimizedRMSD -1
REMARK  1 active torsions:
REMARK  status: ('A' for Active; 'I' for Inactive)
REMARK    1  A    between atoms: N_2  and  C1_3 
ROOT
ATOM      1  C1  UNL d   1      -0.166   0.372   0.343  0.00  0.00     0.143 A 
ATOM      2  C2  UNL d   1      -0.643   0.847   1.570  0.00  0.00    -0.057 A 
ATOM      3  C3  UNL d   1      -1.479   1.968   1.639  0.00  0.00     0.033 A 
ATOM      4  C4  UNL d   1      -1.831   2.654   0.481  0.00  0.00    -0.042 A 
ATOM      5  C5  UNL d   1      -1.348   2.215  -0.746  0.00  0.00     0.033 A 
ATOM      6  C6  UNL d   1      -0.519   1.091  -0.810  0.00  0.00    -0.057 A 
ENDROOT
BRANCH   1   7
ATOM      7  N   UNL d   1       0.747  -0.677   0.217  0.00  0.00    -0.732 N 
ATOM      8  C   UNL d   1       0.596  -1.665  -0.829  0.00  0.00     0.284 C 
ATOM      9  H3  UNL d   1       1.708  -0.377   0.370  0.00  0.00     0.395 HD
ENDBRANCH   1   7
TORSDOF 1
ENDMDL
