MODEL 1
REMARK minimizedAffinity -0.932620645
REMARK minimizedRMSD -1
REMARK  1 active torsions:
REMARK  status: ('A' for Active; 'I' for Inactive)
REMARK    1  A    between atoms: N_2  and  C1_3 
ROOT
ATOM      1  C1  UNL d   1       0.988  -0.541  -2.099  0.00  0.00     0.143 A 
ATOM      2  C2  UNL d   1       1.364  -1.459  -1.112  0.00  0.00    -0.057 A 
ATOM      3  C3  UNL d   1       1.167  -2.835  -1.287  0.00  0.00     0.033 A 
ATOM      4  C4  UNL d   1       0.562  -3.315  -2.444  0.00  0.00    -0.042 A 
ATOM      5  C5  UNL d   1       0.158  -2.418  -3.427  0.00  0.00     0.033 A 
ATOM      6  C6  UNL d   1       0.363  -1.047  -3.249  0.00  0.00    -0.057 A 
ENDROOT
BRANCH   1   7
ATOM      7  N   UNL d   1       1.067   0.845  -1.942  0.00  0.00    -0.732 N 
ATOM      8  C   UNL d   1      -0.007   1.577  -1.307  0.00  0.00     0.284 C 
ATOM      9  H3  UNL d   1       1.998   1.152  -1.669  0.00  0.00     0.395 HD
ENDBRANCH   1   7
TORSDOF 1
ENDMDL
