MODEL 1
REMARK minimizedAffinity -5.20814562
REMARK minimizedRMSD -1
REMARK  1 active torsions:
REMARK  status: ('A' for Active; 'I' for Inactive)
REMARK    1  A    between atoms: N_2  and  C1_3 
ROOT
ATOM      1  C1  UNL d   1       0.188   0.753   0.099  0.00  0.00     0.143 A 
ATOM      2  C2  UNL d   1      -0.471   0.560   1.318  0.00  0.00    -0.057 A 
ATOM      3  C3  UNL d   1      -1.368   1.512   1.817  0.00  0.00     0.033 A 
ATOM      4  C4  UNL d   1      -1.600   2.691   1.117  0.00  0.00    -0.042 A 
ATOM      5  C5  UNL d   1      -0.937   2.916  -0.084  0.00  0.00     0.033 A 
ATOM      6  C6  UNL d   1      -0.048   1.958  -0.580  0.00  0.00    -0.057 A 
ENDROOT
BRANCH   1   7
ATOM      7  N   UNL d   1       1.166  -0.111  -0.402  0.00  0.00    -0.732 N 
ATOM      8  C   UNL d   1       0.830  -1.469  -0.773  0.00  0.00     0.284 C 
ATOM      9  H3  UNL d   1       1.798   0.353  -1.051  0.00  0.00     0.395 HD
ENDBRANCH   1   7
TORSDOF 1
ENDMDL
