MODEL 1
REMARK minimizedAffinity -3.04599237
REMARK minimizedRMSD -1
REMARK  1 active torsions:
REMARK  status: ('A' for Active; 'I' for Inactive)
REMARK    1  A    between atoms: N_2  and  C1_3 
ROOT
ATOM      1  C1  UNL d   1      -0.572   0.869   0.809  0.00  0.00     0.143 A 
ATOM      2  C2  UNL d   1      -0.270   1.423  -0.439  0.00  0.00    -0.057 A 
ATOM      3  C3  UNL d   1       0.564   0.759  -1.346  0.00  0.00     0.033 A 
ATOM      4  C4  UNL d   1       1.137  -0.463  -1.008  0.00  0.00    -0.042 A 
ATOM      5  C5  UNL d   1       0.871  -1.021   0.238  0.00  0.00     0.033 A 
ATOM      6  C6  UNL d   1       0.032  -0.355   1.137  0.00  0.00    -0.057 A 
ENDROOT
BRANCH   1   7
ATOM      7  N   UNL d   1      -1.315   1.526   1.793  0.00  0.00    -0.732 N 
ATOM      8  C   UNL d   1      -2.512   2.261   1.444  0.00  0.00     0.284 C 
ATOM      9  H3  UNL d   1      -1.396   0.980   2.648  0.00  0.00     0.395 HD
ENDBRANCH   1   7
TORSDOF 1
ENDMDL
