MODEL 1
REMARK minimizedAffinity -4.79438496
REMARK minimizedRMSD -1
REMARK  1 active torsions:
REMARK  status: ('A' for Active; 'I' for Inactive)
REMARK    1  A    between atoms: N_2  and  C1_3 
ROOT
ATOM      1  C1  UNL d   1      -0.042   0.864  -0.355  0.00  0.00     0.143 A 
ATOM      2  C2  UNL d   1      -0.896   0.350   0.626  0.00  0.00    -0.057 A 
ATOM      3  C3  UNL d   1      -1.791   1.176   1.316  0.00  0.00     0.033 A 
ATOM      4  C4  UNL d   1      -1.827   2.542   1.056  0.00  0.00    -0.042 A 
ATOM      5  C5  UNL d   1      -0.970   3.080   0.102  0.00  0.00     0.033 A 
ATOM      6  C6  UNL d   1      -0.083   2.248  -0.588  0.00  0.00    -0.057 A 
ENDROOT
BRANCH   1   7
ATOM      7  N   UNL d   1       0.938   0.111  -1.006  0.00  0.00    -0.732 N 
ATOM      8  C   UNL d   1       0.957  -1.332  -0.890  0.00  0.00     0.284 C 
ATOM      9  H3  UNL d   1       1.135   0.455  -1.943  0.00  0.00     0.395 HD
ENDBRANCH   1   7
TORSDOF 1
ENDMDL
