MODEL 1
REMARK minimizedAffinity -3.77385116
REMARK minimizedRMSD -1
REMARK  1 active torsions:
REMARK  status: ('A' for Active; 'I' for Inactive)
REMARK    1  A    between atoms: N_2  and  C1_3 
ROOT
ATOM      1  C1  UNL d   1       0.306   1.895  -0.188  0.00  0.00     0.143 A 
ATOM      2  C2  UNL d   1       0.892   0.764  -0.769  0.00  0.00    -0.057 A 
ATOM      3  C3  UNL d   1       0.725  -0.508  -0.210  0.00  0.00     0.033 A 
ATOM      4  C4  UNL d   1      -0.010  -0.670   0.960  0.00  0.00    -0.042 A 
ATOM      5  C5  UNL d   1      -0.581   0.443   1.568  0.00  0.00     0.033 A 
ATOM      6  C6  UNL d   1      -0.416   1.710   1.001  0.00  0.00    -0.057 A 
ENDROOT
BRANCH   1   7
ATOM      7  N   UNL d   1       0.517   3.199  -0.641  0.00  0.00    -0.732 N 
ATOM      8  C   UNL d   1       0.060   4.332   0.136  0.00  0.00     0.284 C 
ATOM      9  H3  UNL d   1       1.439   3.323  -1.053  0.00  0.00     0.395 HD
ENDBRANCH   1   7
TORSDOF 1
ENDMDL
