MODEL 1
REMARK minimizedAffinity -4.39497089
REMARK minimizedRMSD -1
REMARK  1 active torsions:
REMARK  status: ('A' for Active; 'I' for Inactive)
REMARK    1  A    between atoms: N_2  and  C1_3 
ROOT
ATOM      1  C1  UNL d   1       0.025   0.114   0.151  0.00  0.00     0.143 A 
ATOM      2  C2  UNL d   1      -0.039   0.010   1.545  0.00  0.00    -0.057 A 
ATOM      3  C3  UNL d   1      -1.042   0.658   2.276  0.00  0.00     0.033 A 
ATOM      4  C4  UNL d   1      -1.984   1.448   1.626  0.00  0.00    -0.042 A 
ATOM      5  C5  UNL d   1      -1.925   1.586   0.244  0.00  0.00     0.033 A 
ATOM      6  C6  UNL d   1      -0.925   0.931  -0.481  0.00  0.00    -0.057 A 
ENDROOT
BRANCH   1   7
ATOM      7  N   UNL d   1       1.056  -0.425  -0.622  0.00  0.00    -0.732 N 
ATOM      8  C   UNL d   1       0.833  -1.608  -1.426  0.00  0.00     0.284 C 
ATOM      9  H3  UNL d   1       1.612   0.292  -1.083  0.00  0.00     0.395 HD
ENDBRANCH   1   7
TORSDOF 1
ENDMDL
