MODEL 1
REMARK minimizedAffinity -5.21586514
REMARK minimizedRMSD -1
REMARK  1 active torsions:
REMARK  status: ('A' for Active; 'I' for Inactive)
REMARK    1  A    between atoms: N_2  and  C1_3 
ROOT
ATOM      1  C1  UNL d   1       0.163   0.683  -0.260  0.00  0.00     0.143 A 
ATOM      2  C2  UNL d   1      -0.622   0.425   0.869  0.00  0.00    -0.057 A 
ATOM      3  C3  UNL d   1      -1.479   1.399   1.396  0.00  0.00     0.033 A 
ATOM      4  C4  UNL d   1      -1.543   2.663   0.819  0.00  0.00    -0.042 A 
ATOM      5  C5  UNL d   1      -0.753   2.950  -0.288  0.00  0.00     0.033 A 
ATOM      6  C6  UNL d   1       0.095   1.971  -0.814  0.00  0.00    -0.057 A 
ENDROOT
BRANCH   1   7
ATOM      7  N   UNL d   1       1.106  -0.210  -0.772  0.00  0.00    -0.732 N 
ATOM      8  C   UNL d   1       0.691  -1.473  -1.345  0.00  0.00     0.284 C 
ATOM      9  H3  UNL d   1       1.844   0.260  -1.292  0.00  0.00     0.395 HD
ENDBRANCH   1   7
TORSDOF 1
ENDMDL
