MODEL 1
REMARK minimizedAffinity -5.28507233
REMARK minimizedRMSD -1
REMARK  1 active torsions:
REMARK  status: ('A' for Active; 'I' for Inactive)
REMARK    1  A    between atoms: N_2  and  C1_3 
ROOT
ATOM      1  C1  UNL d   1      -0.062   0.558  -0.158  0.00  0.00     0.143 A 
ATOM      2  C2  UNL d   1      -0.795   0.347   1.015  0.00  0.00    -0.057 A 
ATOM      3  C3  UNL d   1      -1.560   1.370   1.587  0.00  0.00     0.033 A 
ATOM      4  C4  UNL d   1      -1.583   2.636   1.009  0.00  0.00    -0.042 A 
ATOM      5  C5  UNL d   1      -0.843   2.875  -0.143  0.00  0.00     0.033 A 
ATOM      6  C6  UNL d   1      -0.085   1.847  -0.713  0.00  0.00    -0.057 A 
ENDROOT
BRANCH   1   7
ATOM      7  N   UNL d   1       0.796  -0.390  -0.720  0.00  0.00    -0.732 N 
ATOM      8  C   UNL d   1       0.267  -1.532  -1.435  0.00  0.00     0.284 C 
ATOM      9  H3  UNL d   1       1.610   0.034  -1.160  0.00  0.00     0.395 HD
ENDBRANCH   1   7
TORSDOF 1
ENDMDL
