MODEL 1
REMARK minimizedAffinity 4.92337751
REMARK minimizedRMSD -1
REMARK  1 active torsions:
REMARK  status: ('A' for Active; 'I' for Inactive)
REMARK    1  A    between atoms: C1_2  and  C2_3 
ROOT
ATOM      1  C2  UNL d   1       3.106  -1.333   0.867  0.00  0.00    -0.076 A 
ATOM      2  C3  UNL d   1       4.088  -1.930   1.677  0.00  0.00     0.004 A 
ATOM      3  C4  UNL d   1       5.173  -1.193   2.149  0.00  0.00    -0.003 A 
ATOM      4  C5  UNL d   1       5.293   0.152   1.820  0.00  0.00     0.000 A 
ATOM      5  C6  UNL d   1       4.319   0.765   1.032  0.00  0.00     0.000 A 
ATOM      6  C7  UNL d   1       3.210   0.041   0.561  0.00  0.00    -0.073 A 
ATOM      7  C8  UNL d   1       2.193   0.750  -0.290  0.00  0.00     0.078 C 
ENDROOT
BRANCH   1   8
ATOM      8  C1  UNL d   1       1.966  -2.188   0.362  0.00  0.00     0.053 C 
ATOM      9  C   UNL d   1       2.168  -2.638  -1.077  0.00  0.00     0.018 C 
ENDBRANCH   1   8
TORSDOF 1
ENDMDL
