MODEL 1
REMARK minimizedAffinity 0.925748646
REMARK minimizedRMSD -1
REMARK  1 active torsions:
REMARK  status: ('A' for Active; 'I' for Inactive)
REMARK    1  A    between atoms: C1_2  and  C2_3 
ROOT
ATOM      1  C2  UNL d   1       2.174  -1.611  -0.791  0.00  0.00    -0.076 A 
ATOM      2  C3  UNL d   1       2.486  -2.715  -1.604  0.00  0.00     0.004 A 
ATOM      3  C4  UNL d   1       3.495  -2.637  -2.563  0.00  0.00    -0.003 A 
ATOM      4  C5  UNL d   1       4.210  -1.455  -2.723  0.00  0.00     0.000 A 
ATOM      5  C6  UNL d   1       3.926  -0.356  -1.912  0.00  0.00     0.000 A 
ATOM      6  C7  UNL d   1       2.923  -0.423  -0.930  0.00  0.00    -0.073 A 
ATOM      7  C8  UNL d   1       2.654   0.794  -0.088  0.00  0.00     0.078 C 
ENDROOT
BRANCH   1   8
ATOM      8  C1  UNL d   1       1.051  -1.746   0.213  0.00  0.00     0.053 C 
ATOM      9  C   UNL d   1      -0.222  -2.300  -0.408  0.00  0.00     0.018 C 
ENDBRANCH   1   8
TORSDOF 1
ENDMDL
