MODEL 1
REMARK minimizedAffinity -1.16508365
REMARK minimizedRMSD -1
REMARK  1 active torsions:
REMARK  status: ('A' for Active; 'I' for Inactive)
REMARK    1  A    between atoms: C1_2  and  C2_3 
ROOT
ATOM      1  C2  UNL d   1       1.232  -1.203  -0.309  0.00  0.00    -0.076 A 
ATOM      2  C3  UNL d   1       1.611   0.108   0.027  0.00  0.00     0.004 A 
ATOM      3  C4  UNL d   1       0.698   1.159  -0.043  0.00  0.00    -0.003 A 
ATOM      4  C5  UNL d   1      -0.609   0.915  -0.449  0.00  0.00     0.000 A 
ATOM      5  C6  UNL d   1      -1.007  -0.382  -0.770  0.00  0.00     0.000 A 
ATOM      6  C7  UNL d   1      -0.103  -1.455  -0.689  0.00  0.00    -0.073 A 
ATOM      7  C8  UNL d   1      -0.585  -2.833  -1.052  0.00  0.00     0.078 C 
ENDROOT
BRANCH   1   8
ATOM      8  C1  UNL d   1       2.273  -2.298  -0.240  0.00  0.00     0.053 C 
ATOM      9  C   UNL d   1       2.836  -2.653  -1.608  0.00  0.00     0.018 C 
ENDBRANCH   1   8
TORSDOF 1
ENDMDL
