MODEL 1
REMARK minimizedAffinity 5.83480263
REMARK minimizedRMSD -1
REMARK  1 active torsions:
REMARK  status: ('A' for Active; 'I' for Inactive)
REMARK    1  A    between atoms: C1_2  and  C2_3 
ROOT
ATOM      1  C2  UNL d   1       0.776  -0.986  -0.440  0.00  0.00    -0.076 A 
ATOM      2  C3  UNL d   1       1.145   0.280   0.047  0.00  0.00     0.004 A 
ATOM      3  C4  UNL d   1       0.301   1.379  -0.099  0.00  0.00    -0.003 A 
ATOM      4  C5  UNL d   1      -0.928   1.230  -0.733  0.00  0.00     0.000 A 
ATOM      5  C6  UNL d   1      -1.318  -0.023  -1.206  0.00  0.00     0.000 A 
ATOM      6  C7  UNL d   1      -0.485  -1.144  -1.053  0.00  0.00    -0.073 A 
ATOM      7  C8  UNL d   1      -0.954  -2.470  -1.587  0.00  0.00     0.078 C 
ENDROOT
BRANCH   1   8
ATOM      8  C1  UNL d   1       1.745  -2.135  -0.277  0.00  0.00     0.053 C 
ATOM      9  C   UNL d   1       3.041  -1.917  -1.042  0.00  0.00     0.018 C 
ENDBRANCH   1   8
TORSDOF 1
ENDMDL
