MODEL 1
REMARK minimizedAffinity -5.79438162
REMARK minimizedRMSD -1
REMARK  0 active torsions:
REMARK  status: ('A' for Active; 'I' for Inactive)
ROOT
ATOM      1  C   UNL d   1      -2.577  -2.321   0.646  0.00  0.00     0.020 A 
ATOM      2  C1  UNL d   1      -1.483  -2.445   1.501  0.00  0.00     0.020 A 
ATOM      3  C2  UNL d   1      -0.361  -1.633   1.322  0.00  0.00     0.034 A 
ATOM      4  C3  UNL d   1      -0.331  -0.693   0.285  0.00  0.00     0.017 A 
ATOM      5  C4  UNL d   1      -1.430  -0.569  -0.572  0.00  0.00     0.017 A 
ATOM      6  C5  UNL d   1      -2.551  -1.384  -0.388  0.00  0.00     0.034 A 
ATOM      7 Cl   UNL d   1      -1.466   0.569  -1.873  0.00  0.00    -0.070 Cl
ATOM      8 Cl1  UNL d   1       1.089   0.278   0.122  0.00  0.00    -0.070 Cl
ENDROOT
TORSDOF 0
ENDMDL
