MODEL 1
REMARK minimizedAffinity -4.69460821
REMARK minimizedRMSD -1
REMARK  0 active torsions:
REMARK  status: ('A' for Active; 'I' for Inactive)
ROOT
ATOM      1  C   UNL d   1      -0.377   0.440  -1.154  0.00  0.00     0.020 A 
ATOM      2  C1  UNL d   1       0.648   0.189  -0.243  0.00  0.00     0.020 A 
ATOM      3  C2  UNL d   1       0.454  -0.732   0.789  0.00  0.00     0.034 A 
ATOM      4  C3  UNL d   1      -0.767  -1.405   0.912  0.00  0.00     0.017 A 
ATOM      5  C4  UNL d   1      -1.795  -1.152  -0.004  0.00  0.00     0.017 A 
ATOM      6  C5  UNL d   1      -1.595  -0.229  -1.035  0.00  0.00     0.034 A 
ATOM      7 Cl   UNL d   1      -3.329  -1.944   0.083  0.00  0.00    -0.070 Cl
ATOM      8 Cl1  UNL d   1      -0.936  -2.531   2.211  0.00  0.00    -0.070 Cl
ENDROOT
TORSDOF 0
ENDMDL
