MODEL 1
REMARK minimizedAffinity -5.75527525
REMARK minimizedRMSD -1
REMARK  0 active torsions:
REMARK  status: ('A' for Active; 'I' for Inactive)
ROOT
ATOM      1  C   UNL d   1      -2.487   0.039  -0.826  0.00  0.00     0.020 A 
ATOM      2  C1  UNL d   1      -3.095  -0.894   0.012  0.00  0.00     0.020 A 
ATOM      3  C2  UNL d   1      -2.326  -1.620   0.924  0.00  0.00     0.034 A 
ATOM      4  C3  UNL d   1      -0.943  -1.413   0.999  0.00  0.00     0.017 A 
ATOM      5  C4  UNL d   1      -0.334  -0.476   0.157  0.00  0.00     0.017 A 
ATOM      6  C5  UNL d   1      -1.110   0.248  -0.754  0.00  0.00     0.034 A 
ATOM      7 Cl   UNL d   1       1.366  -0.166   0.192  0.00  0.00    -0.070 Cl
ATOM      8 Cl1  UNL d   1      -0.053  -2.346   2.150  0.00  0.00    -0.070 Cl
ENDROOT
TORSDOF 0
ENDMDL
