MODEL 1
REMARK minimizedAffinity -3.86546659
REMARK minimizedRMSD -1
REMARK  0 active torsions:
REMARK  status: ('A' for Active; 'I' for Inactive)
ROOT
ATOM      1  C   UNL d   1       2.712   2.935   1.441  0.00  0.00     0.020 A 
ATOM      2  C1  UNL d   1       1.456   3.492   1.203  0.00  0.00     0.020 A 
ATOM      3  C2  UNL d   1       0.425   2.698   0.696  0.00  0.00     0.034 A 
ATOM      4  C3  UNL d   1       0.648   1.343   0.425  0.00  0.00     0.017 A 
ATOM      5  C4  UNL d   1       1.909   0.785   0.664  0.00  0.00     0.017 A 
ATOM      6  C5  UNL d   1       2.938   1.585   1.172  0.00  0.00     0.034 A 
ATOM      7 Cl   UNL d   1       2.261  -0.878   0.354  0.00  0.00    -0.070 Cl
ATOM      8 Cl1  UNL d   1      -0.672   0.421  -0.201  0.00  0.00    -0.070 Cl
ENDROOT
TORSDOF 0
ENDMDL
