MODEL 1
REMARK minimizedAffinity -3.86199641
REMARK minimizedRMSD -1
REMARK  0 active torsions:
REMARK  status: ('A' for Active; 'I' for Inactive)
ROOT
ATOM      1  C   UNL d   1       0.142   0.227  -1.545  0.00  0.00     0.020 A 
ATOM      2  C1  UNL d   1       1.023  -0.153  -0.533  0.00  0.00     0.020 A 
ATOM      3  C2  UNL d   1       0.525  -0.612   0.689  0.00  0.00     0.034 A 
ATOM      4  C3  UNL d   1      -0.856  -0.691   0.901  0.00  0.00     0.017 A 
ATOM      5  C4  UNL d   1      -1.738  -0.309  -0.115  0.00  0.00     0.017 A 
ATOM      6  C5  UNL d   1      -1.235   0.149  -1.337  0.00  0.00     0.034 A 
ATOM      7 Cl   UNL d   1      -3.455  -0.378   0.073  0.00  0.00    -0.070 Cl
ATOM      8 Cl1  UNL d   1      -1.401  -1.267   2.436  0.00  0.00    -0.070 Cl
ENDROOT
TORSDOF 0
ENDMDL
