MODEL 1
REMARK minimizedAffinity -2.38064098
REMARK minimizedRMSD -1
REMARK  0 active torsions:
REMARK  status: ('A' for Active; 'I' for Inactive)
ROOT
ATOM      1  C   UNL d   1      -2.344  -0.961   0.533  0.00  0.00     0.020 A 
ATOM      2  C1  UNL d   1      -2.854  -1.037  -0.762  0.00  0.00     0.020 A 
ATOM      3  C2  UNL d   1      -2.095  -0.574  -1.840  0.00  0.00     0.034 A 
ATOM      4  C3  UNL d   1      -0.822  -0.033  -1.624  0.00  0.00     0.017 A 
ATOM      5  C4  UNL d   1      -0.311   0.042  -0.323  0.00  0.00     0.017 A 
ATOM      6  C5  UNL d   1      -1.075  -0.423   0.752  0.00  0.00     0.034 A 
ATOM      7 Cl   UNL d   1       1.251   0.697   0.023  0.00  0.00    -0.070 Cl
ATOM      8 Cl1  UNL d   1       0.060   0.519  -3.002  0.00  0.00    -0.070 Cl
ENDROOT
TORSDOF 0
ENDMDL
