MODEL 1
REMARK minimizedAffinity 2.44462538
REMARK minimizedRMSD -1
REMARK  0 active torsions:
REMARK  status: ('A' for Active; 'I' for Inactive)
ROOT
ATOM      1  C   UNL d   1      -3.968   0.713   5.997  0.00  0.00     0.020 A 
ATOM      2  C1  UNL d   1      -3.371   1.453   4.978  0.00  0.00     0.020 A 
ATOM      3  C2  UNL d   1      -2.679   0.800   3.955  0.00  0.00     0.034 A 
ATOM      4  C3  UNL d   1      -2.583  -0.596   3.950  0.00  0.00     0.017 A 
ATOM      5  C4  UNL d   1      -3.183  -1.338   4.974  0.00  0.00     0.017 A 
ATOM      6  C5  UNL d   1      -3.875  -0.679   5.995  0.00  0.00     0.034 A 
ATOM      7 Cl   UNL d   1      -3.108  -3.063   5.035  0.00  0.00    -0.070 Cl
ATOM      8 Cl1  UNL d   1      -1.713  -1.337   2.654  0.00  0.00    -0.070 Cl
ENDROOT
TORSDOF 0
ENDMDL
