MODEL 1
REMARK minimizedAffinity -1.00556469
REMARK minimizedRMSD -1
REMARK  0 active torsions:
REMARK  status: ('A' for Active; 'I' for Inactive)
ROOT
ATOM      1  C   UNL d   1       2.627   4.043   1.006  0.00  0.00     0.020 A 
ATOM      2  C1  UNL d   1       1.818   3.594  -0.037  0.00  0.00     0.020 A 
ATOM      3  C2  UNL d   1       1.675   2.225  -0.270  0.00  0.00     0.034 A 
ATOM      4  C3  UNL d   1       2.341   1.299   0.541  0.00  0.00     0.017 A 
ATOM      5  C4  UNL d   1       3.153   1.750   1.588  0.00  0.00     0.017 A 
ATOM      6  C5  UNL d   1       3.293   3.123   1.817  0.00  0.00     0.034 A 
ATOM      7 Cl   UNL d   1       4.007   0.669   2.631  0.00  0.00    -0.070 Cl
ATOM      8 Cl1  UNL d   1       2.118  -0.379   0.196  0.00  0.00    -0.070 Cl
ENDROOT
TORSDOF 0
ENDMDL
