MODEL 1
REMARK minimizedAffinity -4.81972027
REMARK minimizedRMSD -1
REMARK  0 active torsions:
REMARK  status: ('A' for Active; 'I' for Inactive)
ROOT
ATOM      1  C   UNL d   1      -2.166  -2.517   0.543  0.00  0.00     0.020 A 
ATOM      2  C1  UNL d   1      -1.066  -2.772   1.361  0.00  0.00     0.020 A 
ATOM      3  C2  UNL d   1       0.084  -1.989   1.250  0.00  0.00     0.034 A 
ATOM      4  C3  UNL d   1       0.138  -0.946   0.318  0.00  0.00     0.017 A 
ATOM      5  C4  UNL d   1      -0.966  -0.690  -0.503  0.00  0.00     0.017 A 
ATOM      6  C5  UNL d   1      -2.116  -1.478  -0.387  0.00  0.00     0.034 A 
ATOM      7 Cl   UNL d   1      -0.975   0.579  -1.677  0.00  0.00    -0.070 Cl
ATOM      8 Cl1  UNL d   1       1.592  -0.017   0.234  0.00  0.00    -0.070 Cl
ENDROOT
TORSDOF 0
ENDMDL
