MODEL 1
REMARK minimizedAffinity -4.07769346
REMARK minimizedRMSD -1
REMARK  0 active torsions:
REMARK  status: ('A' for Active; 'I' for Inactive)
ROOT
ATOM      1  C   UNL d   1      -1.118  -2.644   1.224  0.00  0.00     0.020 A 
ATOM      2  C1  UNL d   1      -2.246  -2.538   0.411  0.00  0.00     0.020 A 
ATOM      3  C2  UNL d   1      -2.329  -1.520  -0.540  0.00  0.00     0.034 A 
ATOM      4  C3  UNL d   1      -1.282  -0.602  -0.682  0.00  0.00     0.017 A 
ATOM      5  C4  UNL d   1      -0.149  -0.708   0.134  0.00  0.00     0.017 A 
ATOM      6  C5  UNL d   1      -0.072  -1.730   1.085  0.00  0.00     0.034 A 
ATOM      7 Cl   UNL d   1       1.183   0.386   0.018  0.00  0.00    -0.070 Cl
ATOM      8 Cl1  UNL d   1      -1.451   0.632  -1.879  0.00  0.00    -0.070 Cl
ENDROOT
TORSDOF 0
ENDMDL
