MODEL 1
REMARK minimizedAffinity -2.99979687
REMARK minimizedRMSD -1
REMARK  0 active torsions:
REMARK  status: ('A' for Active; 'I' for Inactive)
ROOT
ATOM      1  C   UNL d   1      -3.119  -0.948  -0.147  0.00  0.00     0.020 A 
ATOM      2  C1  UNL d   1      -2.211  -1.482   0.767  0.00  0.00     0.020 A 
ATOM      3  C2  UNL d   1      -0.884  -1.049   0.767  0.00  0.00     0.034 A 
ATOM      4  C3  UNL d   1      -0.460  -0.079  -0.148  0.00  0.00     0.017 A 
ATOM      5  C4  UNL d   1      -1.372   0.456  -1.065  0.00  0.00     0.017 A 
ATOM      6  C5  UNL d   1      -2.700   0.019  -1.061  0.00  0.00     0.034 A 
ATOM      7 Cl   UNL d   1      -0.923   1.656  -2.226  0.00  0.00    -0.070 Cl
ATOM      8 Cl1  UNL d   1       1.196   0.410  -0.092  0.00  0.00    -0.070 Cl
ENDROOT
TORSDOF 0
ENDMDL
