MODEL 1
REMARK minimizedAffinity -4.37284088
REMARK minimizedRMSD -1
REMARK  0 active torsions:
REMARK  status: ('A' for Active; 'I' for Inactive)
ROOT
ATOM      1  C   UNL d   1       0.021   0.369  -1.211  0.00  0.00     0.020 A 
ATOM      2  C1  UNL d   1       0.971   0.110  -0.224  0.00  0.00     0.020 A 
ATOM      3  C2  UNL d   1       0.670  -0.766   0.821  0.00  0.00     0.034 A 
ATOM      4  C3  UNL d   1      -0.584  -1.386   0.881  0.00  0.00     0.017 A 
ATOM      5  C4  UNL d   1      -1.536  -1.125  -0.111  0.00  0.00     0.017 A 
ATOM      6  C5  UNL d   1      -1.229  -0.247  -1.155  0.00  0.00     0.034 A 
ATOM      7 Cl   UNL d   1      -3.104  -1.852  -0.104  0.00  0.00    -0.070 Cl
ATOM      8 Cl1  UNL d   1      -0.888  -2.458   2.202  0.00  0.00    -0.070 Cl
ENDROOT
TORSDOF 0
ENDMDL
