MODEL 1
REMARK minimizedAffinity 1.67517722
REMARK minimizedRMSD -1
REMARK  0 active torsions:
REMARK  status: ('A' for Active; 'I' for Inactive)
ROOT
ATOM      1  C   UNL d   1      -0.536   0.715  -1.735  0.00  0.00     0.020 A 
ATOM      2  C1  UNL d   1      -1.142   0.867  -0.488  0.00  0.00     0.020 A 
ATOM      3  C2  UNL d   1      -2.049  -0.091  -0.031  0.00  0.00     0.034 A 
ATOM      4  C3  UNL d   1      -2.354  -1.205  -0.821  0.00  0.00     0.017 A 
ATOM      5  C4  UNL d   1      -1.746  -1.357  -2.072  0.00  0.00     0.017 A 
ATOM      6  C5  UNL d   1      -0.838  -0.395  -2.525  0.00  0.00     0.034 A 
ATOM      7 Cl   UNL d   1      -2.072  -2.705  -3.103  0.00  0.00    -0.070 Cl
ATOM      8 Cl1  UNL d   1      -3.485  -2.350  -0.192  0.00  0.00    -0.070 Cl
ENDROOT
TORSDOF 0
ENDMDL
