MODEL 1
REMARK minimizedAffinity -2.80582142
REMARK minimizedRMSD -1
REMARK  0 active torsions:
REMARK  status: ('A' for Active; 'I' for Inactive)
ROOT
ATOM      1  C   UNL d   1       0.669  -0.895   0.951  0.00  0.00     0.020 A 
ATOM      2  C1  UNL d   1       1.309  -0.358  -0.165  0.00  0.00     0.020 A 
ATOM      3  C2  UNL d   1       0.555   0.143  -1.228  0.00  0.00     0.034 A 
ATOM      4  C3  UNL d   1      -0.843   0.108  -1.178  0.00  0.00     0.017 A 
ATOM      5  C4  UNL d   1      -1.484  -0.431  -0.056  0.00  0.00     0.017 A 
ATOM      6  C5  UNL d   1      -0.724  -0.931   1.006  0.00  0.00     0.034 A 
ATOM      7 Cl   UNL d   1      -3.206  -0.508   0.079  0.00  0.00    -0.070 Cl
ATOM      8 Cl1  UNL d   1      -1.712   0.745  -2.528  0.00  0.00    -0.070 Cl
ENDROOT
TORSDOF 0
ENDMDL
