MODEL 1
REMARK minimizedAffinity -4.0505662
REMARK minimizedRMSD -1
REMARK  0 active torsions:
REMARK  status: ('A' for Active; 'I' for Inactive)
ROOT
ATOM      1  C   UNL d   1       1.134   0.235  -0.612  0.00  0.00     0.020 A 
ATOM      2  C1  UNL d   1       0.118   0.584  -1.501  0.00  0.00     0.020 A 
ATOM      3  C2  UNL d   1      -1.176   0.095  -1.310  0.00  0.00     0.034 A 
ATOM      4  C3  UNL d   1      -1.458  -0.746  -0.227  0.00  0.00     0.017 A 
ATOM      5  C4  UNL d   1      -0.437  -1.096   0.665  0.00  0.00     0.017 A 
ATOM      6  C5  UNL d   1       0.857  -0.603   0.469  0.00  0.00     0.034 A 
ATOM      7 Cl   UNL d   1      -0.708  -2.129   2.024  0.00  0.00    -0.070 Cl
ATOM      8 Cl1  UNL d   1      -3.080  -1.314  -0.051  0.00  0.00    -0.070 Cl
ENDROOT
TORSDOF 0
ENDMDL
