MODEL 1
REMARK minimizedAffinity -4.76868773
REMARK minimizedRMSD -1
REMARK  0 active torsions:
REMARK  status: ('A' for Active; 'I' for Inactive)
ROOT
ATOM      1  C   UNL d   1      -2.610  -1.194   1.094  0.00  0.00     0.020 A 
ATOM      2  C1  UNL d   1      -3.107  -0.924  -0.180  0.00  0.00     0.020 A 
ATOM      3  C2  UNL d   1      -2.296  -0.296  -1.127  0.00  0.00     0.034 A 
ATOM      4  C3  UNL d   1      -0.983   0.065  -0.801  0.00  0.00     0.017 A 
ATOM      5  C4  UNL d   1      -0.486  -0.207   0.479  0.00  0.00     0.017 A 
ATOM      6  C5  UNL d   1      -1.302  -0.836   1.423  0.00  0.00     0.034 A 
ATOM      7 Cl   UNL d   1       1.123   0.208   0.955  0.00  0.00    -0.070 Cl
ATOM      8 Cl1  UNL d   1      -0.036   0.839  -2.021  0.00  0.00    -0.070 Cl
ENDROOT
TORSDOF 0
ENDMDL
