MODEL 1
REMARK minimizedAffinity -4.15331888
REMARK minimizedRMSD -1
REMARK  0 active torsions:
REMARK  status: ('A' for Active; 'I' for Inactive)
ROOT
ATOM      1  C   UNL d   1      -2.808  -0.614  -0.185  0.00  0.00     0.020 A 
ATOM      2  C1  UNL d   1      -2.068  -0.728   0.991  0.00  0.00     0.020 A 
ATOM      3  C2  UNL d   1      -0.717  -0.375   1.004  0.00  0.00     0.034 A 
ATOM      4  C3  UNL d   1      -0.101   0.093  -0.163  0.00  0.00     0.017 A 
ATOM      5  C4  UNL d   1      -0.844   0.207  -1.343  0.00  0.00     0.017 A 
ATOM      6  C5  UNL d   1      -2.197  -0.147  -1.350  0.00  0.00     0.034 A 
ATOM      7 Cl   UNL d   1      -0.154   0.777  -2.822  0.00  0.00    -0.070 Cl
ATOM      8 Cl1  UNL d   1       1.573   0.511  -0.075  0.00  0.00    -0.070 Cl
ENDROOT
TORSDOF 0
ENDMDL
