MODEL 1
REMARK minimizedAffinity 11.0370159
REMARK minimizedRMSD -1
REMARK  2 active torsions:
REMARK  status: ('A' for Active; 'I' for Inactive)
REMARK    1  A    between atoms: C2'_3  and  C1'_4 
REMARK    2  A    between atoms: C1'_4  and  C1_5 
ROOT
ATOM      1  C1  I4B d   1       1.146  -3.837   2.882  0.00  0.00    -0.075 A 
ATOM      2  C2  I4B d   1       0.795  -2.582   3.315  0.00  0.00     0.003 A 
ATOM      3  C3  I4B d   1       0.358  -2.383   4.647  0.00  0.00     0.002 A 
ATOM      4  C4  I4B d   1       0.239  -3.468   5.492  0.00  0.00    -0.004 A 
ATOM      5  C5  I4B d   1       0.616  -4.735   5.059  0.00  0.00     0.002 A 
ATOM      6  C6  I4B d   1       1.085  -4.920   3.750  0.00  0.00     0.003 A 
ENDROOT
BRANCH   1   7
ATOM      7  C1' I4B d   1       1.572  -4.016   1.460  0.00  0.00     0.060 C 
BRANCH   7   8
ATOM      8  C2' I4B d   1       1.568  -5.500   1.155  0.00  0.00    -0.013 C 
ATOM      9  C4' I4B d   1       0.879  -5.785  -0.154  0.00  0.00     0.013 C 
ATOM     10  C3' I4B d   1       2.991  -5.972   1.132  0.00  0.00     0.013 C 
ENDBRANCH   7   8
ENDBRANCH   1   7
TORSDOF 2
ENDMDL
