MODEL 1
REMARK minimizedAffinity 7.13915157
REMARK minimizedRMSD -1
REMARK  2 active torsions:
REMARK  status: ('A' for Active; 'I' for Inactive)
REMARK    1  A    between atoms: C2'_3  and  C1'_4 
REMARK    2  A    between atoms: C1'_4  and  C1_5 
ROOT
ATOM      1  C1  I4B d   1       0.763  -1.590   3.352  0.00  0.00    -0.075 A 
ATOM      2  C2  I4B d   1       1.882  -2.316   3.028  0.00  0.00     0.003 A 
ATOM      3  C3  I4B d   1       2.754  -1.865   2.008  0.00  0.00     0.002 A 
ATOM      4  C4  I4B d   1       2.445  -0.717   1.308  0.00  0.00    -0.004 A 
ATOM      5  C5  I4B d   1       1.323   0.031   1.654  0.00  0.00     0.002 A 
ATOM      6  C6  I4B d   1       0.483  -0.401   2.690  0.00  0.00     0.003 A 
ENDROOT
BRANCH   1   7
ATOM      7  C1' I4B d   1      -0.154  -2.112   4.412  0.00  0.00     0.060 C 
BRANCH   7   8
ATOM      8  C2' I4B d   1       0.443  -1.763   5.760  0.00  0.00    -0.013 C 
ATOM      9  C4' I4B d   1       1.726  -2.515   6.000  0.00  0.00     0.013 C 
ATOM     10  C3' I4B d   1       0.670  -0.281   5.796  0.00  0.00     0.013 C 
ENDBRANCH   7   8
ENDBRANCH   1   7
TORSDOF 2
ENDMDL
