MODEL 1
REMARK minimizedAffinity 20.9554138
REMARK minimizedRMSD -1
REMARK  2 active torsions:
REMARK  status: ('A' for Active; 'I' for Inactive)
REMARK    1  A    between atoms: C2'_3  and  C1'_4 
REMARK    2  A    between atoms: C1'_4  and  C1_5 
ROOT
ATOM      1  C1  I4B d   1      -4.732   2.823  -2.745  0.00  0.00    -0.075 A 
ATOM      2  C2  I4B d   1      -3.800   1.851  -3.013  0.00  0.00     0.003 A 
ATOM      3  C3  I4B d   1      -2.990   1.334  -1.973  0.00  0.00     0.002 A 
ATOM      4  C4  I4B d   1      -3.107   1.851  -0.699  0.00  0.00    -0.004 A 
ATOM      5  C5  I4B d   1      -4.068   2.820  -0.425  0.00  0.00     0.002 A 
ATOM      6  C6  I4B d   1      -4.894   3.301  -1.451  0.00  0.00     0.003 A 
ENDROOT
BRANCH   1   7
ATOM      7  C1' I4B d   1      -5.548   3.369  -3.873  0.00  0.00     0.060 C 
BRANCH   7   8
ATOM      8  C2' I4B d   1      -4.842   3.028  -5.169  0.00  0.00    -0.013 C 
ATOM      9  C4' I4B d   1      -5.649   2.058  -5.991  0.00  0.00     0.013 C 
ATOM     10  C3' I4B d   1      -4.605   4.305  -5.918  0.00  0.00     0.013 C 
ENDBRANCH   7   8
ENDBRANCH   1   7
TORSDOF 2
ENDMDL
