MODEL 1
REMARK minimizedAffinity 14.8417673
REMARK minimizedRMSD -1
REMARK  2 active torsions:
REMARK  status: ('A' for Active; 'I' for Inactive)
REMARK    1  A    between atoms: C2'_3  and  C1'_4 
REMARK    2  A    between atoms: C1'_4  and  C1_5 
ROOT
ATOM      1  C1  I4B d   1       1.076  -0.490   2.368  0.00  0.00    -0.075 A 
ATOM      2  C2  I4B d   1       1.787  -1.612   2.024  0.00  0.00     0.003 A 
ATOM      3  C3  I4B d   1       1.578  -2.829   2.717  0.00  0.00     0.002 A 
ATOM      4  C4  I4B d   1       0.690  -2.866   3.773  0.00  0.00    -0.004 A 
ATOM      5  C5  I4B d   1      -0.047  -1.733   4.105  0.00  0.00     0.002 A 
ATOM      6  C6  I4B d   1       0.138  -0.540   3.391  0.00  0.00     0.003 A 
ENDROOT
BRANCH   1   7
ATOM      7  C1' I4B d   1       1.347   0.787   1.638  0.00  0.00     0.060 C 
BRANCH   7   8
ATOM      8  C2' I4B d   1       0.909   1.935   2.525  0.00  0.00    -0.013 C 
ATOM      9  C4' I4B d   1       2.096   2.640   3.128  0.00  0.00     0.013 C 
ATOM     10  C3' I4B d   1       0.085   2.873   1.696  0.00  0.00     0.013 C 
ENDBRANCH   7   8
ENDBRANCH   1   7
TORSDOF 2
ENDMDL
