MODEL 1
REMARK minimizedAffinity 11.1518784
REMARK minimizedRMSD -1
REMARK  2 active torsions:
REMARK  status: ('A' for Active; 'I' for Inactive)
REMARK    1  A    between atoms: C2'_3  and  C1'_4 
REMARK    2  A    between atoms: C1'_4  and  C1_5 
ROOT
ATOM      1  C1  I4B d   1      -4.166   2.922  -1.610  0.00  0.00    -0.075 A 
ATOM      2  C2  I4B d   1      -3.001   2.212  -1.456  0.00  0.00     0.003 A 
ATOM      3  C3  I4B d   1      -2.895   0.898  -1.972  0.00  0.00     0.002 A 
ATOM      4  C4  I4B d   1      -3.987   0.318  -2.585  0.00  0.00    -0.004 A 
ATOM      5  C5  I4B d   1      -5.159   1.048  -2.760  0.00  0.00     0.002 A 
ATOM      6  C6  I4B d   1      -5.245   2.363  -2.280  0.00  0.00     0.003 A 
ENDROOT
BRANCH   1   7
ATOM      7  C1' I4B d   1      -4.254   4.296  -1.024  0.00  0.00     0.060 C 
BRANCH   7   8
ATOM      8  C2' I4B d   1      -5.706   4.565  -0.683  0.00  0.00    -0.013 C 
ATOM      9  C4' I4B d   1      -5.991   4.265   0.765  0.00  0.00     0.013 C 
ATOM     10  C3' I4B d   1      -5.999   6.000  -1.006  0.00  0.00     0.013 C 
ENDBRANCH   7   8
ENDBRANCH   1   7
TORSDOF 2
ENDMDL
