MODEL 1
REMARK minimizedAffinity 13.3650475
REMARK minimizedRMSD -1
REMARK  2 active torsions:
REMARK  status: ('A' for Active; 'I' for Inactive)
REMARK    1  A    between atoms: C2'_3  and  C1'_4 
REMARK    2  A    between atoms: C1'_4  and  C1_5 
ROOT
ATOM      1  C1  I4B d   1      -3.868   1.186  -2.542  0.00  0.00    -0.075 A 
ATOM      2  C2  I4B d   1      -5.042   1.690  -3.045  0.00  0.00     0.003 A 
ATOM      3  C3  I4B d   1      -5.534   2.937  -2.590  0.00  0.00     0.002 A 
ATOM      4  C4  I4B d   1      -4.852   3.618  -1.602  0.00  0.00    -0.004 A 
ATOM      5  C5  I4B d   1      -3.651   3.116  -1.110  0.00  0.00     0.002 A 
ATOM      6  C6  I4B d   1      -3.149   1.899  -1.592  0.00  0.00     0.003 A 
ENDROOT
BRANCH   1   7
ATOM      7  C1' I4B d   1      -3.394  -0.150  -3.020  0.00  0.00     0.060 C 
BRANCH   7   8
ATOM      8  C2' I4B d   1      -4.608  -1.037  -3.206  0.00  0.00    -0.013 C 
ATOM      9  C4' I4B d   1      -4.226  -2.366  -3.803  0.00  0.00     0.013 C 
ATOM     10  C3' I4B d   1      -5.263  -1.212  -1.868  0.00  0.00     0.013 C 
ENDBRANCH   7   8
ENDBRANCH   1   7
TORSDOF 2
ENDMDL
