MODEL 1
REMARK minimizedAffinity 11.0103283
REMARK minimizedRMSD -1
REMARK  2 active torsions:
REMARK  status: ('A' for Active; 'I' for Inactive)
REMARK    1  A    between atoms: C2'_3  and  C1'_4 
REMARK    2  A    between atoms: C1'_4  and  C1_5 
ROOT
ATOM      1  C1  I4B d   1       2.081  -1.538   2.640  0.00  0.00    -0.075 A 
ATOM      2  C2  I4B d   1       1.749  -0.925   3.823  0.00  0.00     0.003 A 
ATOM      3  C3  I4B d   1       1.016  -1.630   4.809  0.00  0.00     0.002 A 
ATOM      4  C4  I4B d   1       0.597  -2.919   4.552  0.00  0.00    -0.004 A 
ATOM      5  C5  I4B d   1       0.955  -3.546   3.362  0.00  0.00     0.002 A 
ATOM      6  C6  I4B d   1       1.712  -2.856   2.405  0.00  0.00     0.003 A 
ENDROOT
BRANCH   1   7
ATOM      7  C1' I4B d   1       2.827  -0.753   1.607  0.00  0.00     0.060 C 
BRANCH   7   8
ATOM      8  C2' I4B d   1       2.158   0.600   1.476  0.00  0.00    -0.013 C 
ATOM      9  C4' I4B d   1       2.766   1.402   0.355  0.00  0.00     0.013 C 
ATOM     10  C3' I4B d   1       0.694   0.372   1.247  0.00  0.00     0.013 C 
ENDBRANCH   7   8
ENDBRANCH   1   7
TORSDOF 2
ENDMDL
