MODEL 1
REMARK minimizedAffinity 11.6734266
REMARK minimizedRMSD -1
REMARK  2 active torsions:
REMARK  status: ('A' for Active; 'I' for Inactive)
REMARK    1  A    between atoms: C2'_3  and  C1'_4 
REMARK    2  A    between atoms: C1'_4  and  C1_5 
ROOT
ATOM      1  C1  I4B d   1       4.232   5.301  -2.844  0.00  0.00    -0.075 A 
ATOM      2  C2  I4B d   1       3.372   5.204  -3.909  0.00  0.00     0.003 A 
ATOM      3  C3  I4B d   1       3.825   5.494  -5.219  0.00  0.00     0.002 A 
ATOM      4  C4  I4B d   1       5.123   5.923  -5.410  0.00  0.00    -0.004 A 
ATOM      5  C5  I4B d   1       5.999   5.998  -4.331  0.00  0.00     0.002 A 
ATOM      6  C6  I4B d   1       5.555   5.674  -3.041  0.00  0.00     0.003 A 
ENDROOT
BRANCH   1   7
ATOM      7  C1' I4B d   1       3.711   5.019  -1.470  0.00  0.00     0.060 C 
BRANCH   7   8
ATOM      8  C2' I4B d   1       2.615   3.980  -1.590  0.00  0.00    -0.013 C 
ATOM      9  C4' I4B d   1       2.915   2.771  -0.744  0.00  0.00     0.013 C 
ATOM     10  C3' I4B d   1       1.323   4.621  -1.180  0.00  0.00     0.013 C 
ENDBRANCH   7   8
ENDBRANCH   1   7
TORSDOF 2
ENDMDL
