MODEL 1
REMARK minimizedAffinity -2.78074574
REMARK minimizedRMSD -1
REMARK  1 active torsions:
REMARK  status: ('A' for Active; 'I' for Inactive)
REMARK    1  A    between atoms: N_2  and  C1_3 
ROOT
ATOM      1  C1  UNL d   1       0.097  -0.010   0.230  0.00  0.00     0.143 A 
ATOM      2  C2  UNL d   1       0.379   1.305  -0.155  0.00  0.00    -0.057 A 
ATOM      3  C3  UNL d   1       1.302   1.583  -1.170  0.00  0.00     0.033 A 
ATOM      4  C4  UNL d   1       1.983   0.547  -1.801  0.00  0.00    -0.042 A 
ATOM      5  C5  UNL d   1       1.737  -0.767  -1.418  0.00  0.00     0.033 A 
ATOM      6  C6  UNL d   1       0.810  -1.038  -0.407  0.00  0.00    -0.057 A 
ENDROOT
BRANCH   1   7
ATOM      7  N   UNL d   1      -0.736  -0.346   1.300  0.00  0.00    -0.732 N 
ATOM      8  C   UNL d   1      -2.147  -0.023   1.265  0.00  0.00     0.284 C 
ATOM      9  H3  UNL d   1      -0.530  -1.267   1.679  0.00  0.00     0.395 HD
ENDBRANCH   1   7
TORSDOF 1
ENDMDL
