MODEL 1
REMARK minimizedAffinity -2.84743929
REMARK minimizedRMSD -1
REMARK  1 active torsions:
REMARK  status: ('A' for Active; 'I' for Inactive)
REMARK    1  A    between atoms: N_2  and  C1_3 
ROOT
ATOM      1  C1  UNL d   1      -3.588   2.408   3.511  0.00  0.00     0.143 A 
ATOM      2  C2  UNL d   1      -2.719   1.358   3.826  0.00  0.00    -0.057 A 
ATOM      3  C3  UNL d   1      -2.688   0.186   3.061  0.00  0.00     0.033 A 
ATOM      4  C4  UNL d   1      -3.550   0.031   1.981  0.00  0.00    -0.042 A 
ATOM      5  C5  UNL d   1      -4.440   1.051   1.664  0.00  0.00     0.033 A 
ATOM      6  C6  UNL d   1      -4.461   2.222   2.428  0.00  0.00    -0.057 A 
ENDROOT
BRANCH   1   7
ATOM      7  N   UNL d   1      -3.734   3.557   4.292  0.00  0.00    -0.732 N 
ATOM      8  C   UNL d   1      -2.776   3.871   5.330  0.00  0.00     0.284 C 
ATOM      9  H3  UNL d   1      -4.034   4.362   3.746  0.00  0.00     0.395 HD
ENDBRANCH   1   7
TORSDOF 1
ENDMDL
