MODEL 1
REMARK minimizedAffinity -3.36464858
REMARK minimizedRMSD -1
REMARK  1 active torsions:
REMARK  status: ('A' for Active; 'I' for Inactive)
REMARK    1  A    between atoms: N_2  and  C1_3 
ROOT
ATOM      1  C1  UNL d   1       0.110   0.208  -0.696  0.00  0.00     0.143 A 
ATOM      2  C2  UNL d   1       0.225  -0.739  -1.719  0.00  0.00    -0.057 A 
ATOM      3  C3  UNL d   1       1.386  -0.830  -2.496  0.00  0.00     0.033 A 
ATOM      4  C4  UNL d   1       2.444   0.048  -2.283  0.00  0.00    -0.042 A 
ATOM      5  C5  UNL d   1       2.341   1.014  -1.288  0.00  0.00     0.033 A 
ATOM      6  C6  UNL d   1       1.182   1.095  -0.511  0.00  0.00    -0.057 A 
ENDROOT
BRANCH   1   7
ATOM      7  N   UNL d   1      -1.056   0.413   0.047  0.00  0.00    -0.732 N 
ATOM      8  C   UNL d   1      -1.014   0.434   1.493  0.00  0.00     0.284 C 
ATOM      9  H3  UNL d   1      -1.657   1.125  -0.362  0.00  0.00     0.395 HD
ENDBRANCH   1   7
TORSDOF 1
ENDMDL
