MODEL 1
REMARK minimizedAffinity -4.32066298
REMARK minimizedRMSD -1
REMARK  1 active torsions:
REMARK  status: ('A' for Active; 'I' for Inactive)
REMARK    1  A    between atoms: N_2  and  C1_3 
ROOT
ATOM      1  C1  UNL d   1       1.420   1.362  -0.541  0.00  0.00     0.143 A 
ATOM      2  C2  UNL d   1       0.227   0.632  -0.523  0.00  0.00    -0.057 A 
ATOM      3  C3  UNL d   1      -0.187  -0.111  -1.636  0.00  0.00     0.033 A 
ATOM      4  C4  UNL d   1       0.575  -0.114  -2.800  0.00  0.00    -0.042 A 
ATOM      5  C5  UNL d   1       1.752   0.624  -2.848  0.00  0.00     0.033 A 
ATOM      6  C6  UNL d   1       2.163   1.358  -1.732  0.00  0.00    -0.057 A 
ENDROOT
BRANCH   1   7
ATOM      7  N   UNL d   1       1.836   2.199   0.498  0.00  0.00    -0.732 N 
ATOM      8  C   UNL d   1       1.856   3.635   0.323  0.00  0.00     0.284 C 
ATOM      9  H3  UNL d   1       1.488   1.895   1.404  0.00  0.00     0.395 HD
ENDBRANCH   1   7
TORSDOF 1
ENDMDL
