MODEL 1
REMARK minimizedAffinity -2.75507355
REMARK minimizedRMSD -1
REMARK  1 active torsions:
REMARK  status: ('A' for Active; 'I' for Inactive)
REMARK    1  A    between atoms: N_2  and  C1_3 
ROOT
ATOM      1  C1  UNL d   1      -0.290   0.767  -0.038  0.00  0.00     0.143 A 
ATOM      2  C2  UNL d   1       0.315  -0.242   0.718  0.00  0.00    -0.057 A 
ATOM      3  C3  UNL d   1      -0.363  -0.866   1.772  0.00  0.00     0.033 A 
ATOM      4  C4  UNL d   1      -1.653  -0.470   2.109  0.00  0.00    -0.042 A 
ATOM      5  C5  UNL d   1      -2.265   0.549   1.387  0.00  0.00     0.033 A 
ATOM      6  C6  UNL d   1      -1.586   1.164   0.331  0.00  0.00    -0.057 A 
ENDROOT
BRANCH   1   7
ATOM      7  N   UNL d   1       0.367   1.494  -1.034  0.00  0.00    -0.732 N 
ATOM      8  C   UNL d   1       1.809   1.456  -1.144  0.00  0.00     0.284 C 
ATOM      9  H3  UNL d   1      -0.120   1.456  -1.927  0.00  0.00     0.395 HD
ENDBRANCH   1   7
TORSDOF 1
ENDMDL
