MODEL 1
REMARK minimizedAffinity -3.54362702
REMARK minimizedRMSD -1
REMARK  1 active torsions:
REMARK  status: ('A' for Active; 'I' for Inactive)
REMARK    1  A    between atoms: N_2  and  C1_3 
ROOT
ATOM      1  C1  UNL d   1       0.191   0.640  -0.100  0.00  0.00     0.143 A 
ATOM      2  C2  UNL d   1       0.335  -0.201  -1.209  0.00  0.00    -0.057 A 
ATOM      3  C3  UNL d   1       0.252  -1.592  -1.082  0.00  0.00     0.033 A 
ATOM      4  C4  UNL d   1       0.051  -2.172   0.167  0.00  0.00    -0.042 A 
ATOM      5  C5  UNL d   1      -0.071  -1.357   1.287  0.00  0.00     0.033 A 
ATOM      6  C6  UNL d   1       0.007   0.033   1.152  0.00  0.00    -0.057 A 
ENDROOT
BRANCH   1   7
ATOM      7  N   UNL d   1       0.362   2.025  -0.147  0.00  0.00    -0.732 N 
ATOM      8  C   UNL d   1       1.687   2.606  -0.123  0.00  0.00     0.284 C 
ATOM      9  H3  UNL d   1      -0.277   2.474  -0.800  0.00  0.00     0.395 HD
ENDBRANCH   1   7
TORSDOF 1
ENDMDL
