MODEL 1
REMARK minimizedAffinity -0.897076368
REMARK minimizedRMSD -1
REMARK  1 active torsions:
REMARK  status: ('A' for Active; 'I' for Inactive)
REMARK    1  A    between atoms: N_2  and  C1_3 
ROOT
ATOM      1  C1  UNL d   1       0.926   0.018  -0.131  0.00  0.00     0.143 A 
ATOM      2  C2  UNL d   1       0.825   1.319   0.375  0.00  0.00    -0.057 A 
ATOM      3  C3  UNL d   1       1.663   2.343  -0.082  0.00  0.00     0.033 A 
ATOM      4  C4  UNL d   1       2.640   2.077  -1.036  0.00  0.00    -0.042 A 
ATOM      5  C5  UNL d   1       2.775   0.786  -1.535  0.00  0.00     0.033 A 
ATOM      6  C6  UNL d   1       1.931  -0.231  -1.079  0.00  0.00    -0.057 A 
ENDROOT
BRANCH   1   7
ATOM      7  N   UNL d   1       0.188  -1.065   0.354  0.00  0.00    -0.732 N 
ATOM      8  C   UNL d   1       0.580  -2.422   0.042  0.00  0.00     0.284 C 
ATOM      9  H3  UNL d   1      -0.113  -0.930   1.316  0.00  0.00     0.395 HD
ENDBRANCH   1   7
TORSDOF 1
ENDMDL
