MODEL 1
REMARK minimizedAffinity -2.91163301
REMARK minimizedRMSD -1
REMARK  1 active torsions:
REMARK  status: ('A' for Active; 'I' for Inactive)
REMARK    1  A    between atoms: N_2  and  C1_3 
ROOT
ATOM      1  C1  UNL d   1       0.174   0.278  -0.068  0.00  0.00     0.143 A 
ATOM      2  C2  UNL d   1       0.631   1.550  -0.430  0.00  0.00    -0.057 A 
ATOM      3  C3  UNL d   1       1.659   1.713  -1.366  0.00  0.00     0.033 A 
ATOM      4  C4  UNL d   1       2.270   0.602  -1.938  0.00  0.00    -0.042 A 
ATOM      5  C5  UNL d   1       1.850  -0.672  -1.574  0.00  0.00     0.033 A 
ATOM      6  C6  UNL d   1       0.818  -0.828  -0.644  0.00  0.00    -0.057 A 
ENDROOT
BRANCH   1   7
ATOM      7  N   UNL d   1      -0.777   0.048   0.929  0.00  0.00    -0.732 N 
ATOM      8  C   UNL d   1      -2.162   0.413   0.725  0.00  0.00     0.284 C 
ATOM      9  H3  UNL d   1      -0.647  -0.850   1.389  0.00  0.00     0.395 HD
ENDBRANCH   1   7
TORSDOF 1
ENDMDL
