MODEL 1
REMARK minimizedAffinity -3.56878471
REMARK minimizedRMSD -1
REMARK  1 active torsions:
REMARK  status: ('A' for Active; 'I' for Inactive)
REMARK    1  A    between atoms: N_2  and  C1_3 
ROOT
ATOM      1  C1  UNL d   1      -0.502  -0.127   0.446  0.00  0.00     0.143 A 
ATOM      2  C2  UNL d   1      -1.693   0.270  -0.171  0.00  0.00    -0.057 A 
ATOM      3  C3  UNL d   1      -2.840   0.553   0.580  0.00  0.00     0.033 A 
ATOM      4  C4  UNL d   1      -2.824   0.416   1.964  0.00  0.00    -0.042 A 
ATOM      5  C5  UNL d   1      -1.658  -0.001   2.596  0.00  0.00     0.033 A 
ATOM      6  C6  UNL d   1      -0.514  -0.276   1.841  0.00  0.00    -0.057 A 
ENDROOT
BRANCH   1   7
ATOM      7  N   UNL d   1       0.643  -0.518  -0.253  0.00  0.00    -0.732 N 
ATOM      8  C   UNL d   1       1.464   0.463  -0.930  0.00  0.00     0.284 C 
ATOM      9  H3  UNL d   1       1.172  -1.236   0.238  0.00  0.00     0.395 HD
ENDBRANCH   1   7
TORSDOF 1
ENDMDL
