MODEL 1
REMARK minimizedAffinity -2.18121171
REMARK minimizedRMSD -1
REMARK  1 active torsions:
REMARK  status: ('A' for Active; 'I' for Inactive)
REMARK    1  A    between atoms: N_2  and  C1_3 
ROOT
ATOM      1  C1  UNL d   1       1.037   0.804  -0.524  0.00  0.00     0.143 A 
ATOM      2  C2  UNL d   1       2.336   0.378  -0.822  0.00  0.00    -0.057 A 
ATOM      3  C3  UNL d   1       2.863   0.505  -2.113  0.00  0.00     0.033 A 
ATOM      4  C4  UNL d   1       2.087   1.034  -3.139  0.00  0.00    -0.042 A 
ATOM      5  C5  UNL d   1       0.784   1.440  -2.871  0.00  0.00     0.033 A 
ATOM      6  C6  UNL d   1       0.266   1.318  -1.578  0.00  0.00    -0.057 A 
ENDROOT
BRANCH   1   7
ATOM      7  N   UNL d   1       0.422   0.615   0.716  0.00  0.00    -0.732 N 
ATOM      8  C   UNL d   1      -0.698  -0.291   0.853  0.00  0.00     0.284 C 
ATOM      9  H3  UNL d   1       1.094   0.564   1.479  0.00  0.00     0.395 HD
ENDBRANCH   1   7
TORSDOF 1
ENDMDL
