MODEL 1
REMARK minimizedAffinity -2.69524407
REMARK minimizedRMSD -1
REMARK  1 active torsions:
REMARK  status: ('A' for Active; 'I' for Inactive)
REMARK    1  A    between atoms: N_2  and  C1_3 
ROOT
ATOM      1  C1  UNL d   1      -1.816   0.124   1.936  0.00  0.00     0.143 A 
ATOM      2  C2  UNL d   1      -1.962   1.468   2.296  0.00  0.00    -0.057 A 
ATOM      3  C3  UNL d   1      -3.198   2.118   2.193  0.00  0.00     0.033 A 
ATOM      4  C4  UNL d   1      -4.308   1.440   1.700  0.00  0.00    -0.042 A 
ATOM      5  C5  UNL d   1      -4.180   0.110   1.313  0.00  0.00     0.033 A 
ATOM      6  C6  UNL d   1      -2.945  -0.534   1.424  0.00  0.00    -0.057 A 
ENDROOT
BRANCH   1   7
ATOM      7  N   UNL d   1      -0.592  -0.549   1.922  0.00  0.00    -0.732 N 
ATOM      8  C   UNL d   1       0.237  -0.547   0.736  0.00  0.00     0.284 C 
ATOM      9  H3  UNL d   1      -0.075  -0.433   2.791  0.00  0.00     0.395 HD
ENDBRANCH   1   7
TORSDOF 1
ENDMDL
