MODEL 1
REMARK minimizedAffinity -4.28589106
REMARK minimizedRMSD -1
REMARK  1 active torsions:
REMARK  status: ('A' for Active; 'I' for Inactive)
REMARK    1  A    between atoms: N_2  and  C1_3 
ROOT
ATOM      1  C1  UNL d   1      -1.173  -0.064   0.503  0.00  0.00     0.143 A 
ATOM      2  C2  UNL d   1      -1.157   0.260   1.864  0.00  0.00    -0.057 A 
ATOM      3  C3  UNL d   1      -2.345   0.467   2.576  0.00  0.00     0.033 A 
ATOM      4  C4  UNL d   1      -3.574   0.382   1.929  0.00  0.00    -0.042 A 
ATOM      5  C5  UNL d   1      -3.613   0.087   0.571  0.00  0.00     0.033 A 
ATOM      6  C6  UNL d   1      -2.423  -0.126  -0.132  0.00  0.00    -0.057 A 
ENDROOT
BRANCH   1   7
ATOM      7  N   UNL d   1      -0.024  -0.185  -0.281  0.00  0.00    -0.732 N 
ATOM      8  C   UNL d   1       0.814   0.966  -0.544  0.00  0.00     0.284 C 
ATOM      9  H3  UNL d   1       0.493  -1.039  -0.084  0.00  0.00     0.395 HD
ENDBRANCH   1   7
TORSDOF 1
ENDMDL
