MODEL 1
REMARK minimizedAffinity -5.91795731
REMARK minimizedRMSD -1
REMARK  1 active torsions:
REMARK  status: ('A' for Active; 'I' for Inactive)
REMARK    1  A    between atoms: C1_2  and  C2_3 
ROOT
ATOM      1  C2  UNL d   1      -0.483  -1.086   2.416  0.00  0.00    -0.073 A 
ATOM      2  C3  UNL d   1       0.838  -0.954   2.858  0.00  0.00    -0.002 A 
ATOM      3  C4  UNL d   1       1.791  -0.326   2.055  0.00  0.00     0.004 A 
ATOM      4  C5  UNL d   1       1.432   0.182   0.807  0.00  0.00    -0.004 A 
ATOM      5  C6  UNL d   1       0.114   0.071   0.353  0.00  0.00    -0.075 A 
ATOM      6  C7  UNL d   1      -0.289   0.610  -0.988  0.00  0.00     0.076 C 
ATOM      7  C8  UNL d   1      -0.837  -0.564   1.164  0.00  0.00     0.001 A 
ENDROOT
BRANCH   1   8
ATOM      8  C1  UNL d   1      -1.516  -1.758   3.283  0.00  0.00     0.053 C 
ATOM      9  C   UNL d   1      -1.236  -3.242   3.458  0.00  0.00     0.018 C 
ENDBRANCH   1   8
TORSDOF 1
ENDMDL
