MODEL 1
REMARK minimizedAffinity -5.32485342
REMARK minimizedRMSD -1
REMARK  1 active torsions:
REMARK  status: ('A' for Active; 'I' for Inactive)
REMARK    1  A    between atoms: C1_2  and  C2_3 
ROOT
ATOM      1  C2  UNL d   1       0.044  -0.138   0.019  0.00  0.00    -0.073 A 
ATOM      2  C3  UNL d   1      -1.065   0.084   0.843  0.00  0.00    -0.002 A 
ATOM      3  C4  UNL d   1      -1.019  -0.259   2.195  0.00  0.00     0.004 A 
ATOM      4  C5  UNL d   1       0.138  -0.819   2.738  0.00  0.00    -0.004 A 
ATOM      5  C6  UNL d   1       1.261  -1.037   1.934  0.00  0.00    -0.075 A 
ATOM      6  C7  UNL d   1       2.511  -1.641   2.502  0.00  0.00     0.076 C 
ATOM      7  C8  UNL d   1       1.205  -0.693   0.576  0.00  0.00     0.001 A 
ENDROOT
BRANCH   1   8
ATOM      8  C1  UNL d   1       0.001   0.237  -1.440  0.00  0.00     0.053 C 
ATOM      9  C   UNL d   1      -0.140   1.737  -1.639  0.00  0.00     0.018 C 
ENDBRANCH   1   8
TORSDOF 1
ENDMDL
