MODEL 1
REMARK minimizedAffinity -4.0685277
REMARK minimizedRMSD -1
REMARK  1 active torsions:
REMARK  status: ('A' for Active; 'I' for Inactive)
REMARK    1  A    between atoms: C1_2  and  C2_3 
ROOT
ATOM      1  C2  UNL d   1      -0.095   0.164   1.162  0.00  0.00    -0.073 A 
ATOM      2  C3  UNL d   1       1.289   0.163   1.366  0.00  0.00    -0.002 A 
ATOM      3  C4  UNL d   1       1.867  -0.721   2.279  0.00  0.00     0.004 A 
ATOM      4  C5  UNL d   1       1.069  -1.615   2.991  0.00  0.00    -0.004 A 
ATOM      5  C6  UNL d   1      -0.316  -1.637   2.793  0.00  0.00    -0.075 A 
ATOM      6  C7  UNL d   1      -1.189  -2.592   3.554  0.00  0.00     0.076 C 
ATOM      7  C8  UNL d   1      -0.889  -0.746   1.877  0.00  0.00     0.001 A 
ENDROOT
BRANCH   1   8
ATOM      8  C1  UNL d   1      -0.723   1.111   0.173  0.00  0.00     0.053 C 
ATOM      9  C   UNL d   1      -0.370   0.753  -1.262  0.00  0.00     0.018 C 
ENDBRANCH   1   8
TORSDOF 1
ENDMDL
