MODEL 1
REMARK minimizedAffinity -0.877082884
REMARK minimizedRMSD -1
REMARK  1 active torsions:
REMARK  status: ('A' for Active; 'I' for Inactive)
REMARK    1  A    between atoms: C1_2  and  C2_3 
ROOT
ATOM      1  C2  UNL d   1       1.033  -0.509   0.651  0.00  0.00    -0.073 A 
ATOM      2  C3  UNL d   1       1.793  -1.250  -0.262  0.00  0.00    -0.002 A 
ATOM      3  C4  UNL d   1       1.675  -1.014  -1.632  0.00  0.00     0.004 A 
ATOM      4  C5  UNL d   1       0.803  -0.033  -2.103  0.00  0.00    -0.004 A 
ATOM      5  C6  UNL d   1       0.044   0.726  -1.206  0.00  0.00    -0.075 A 
ATOM      6  C7  UNL d   1      -0.900   1.784  -1.697  0.00  0.00     0.076 C 
ATOM      7  C8  UNL d   1       0.166   0.482   0.168  0.00  0.00     0.001 A 
ENDROOT
BRANCH   1   8
ATOM      8  C1  UNL d   1       1.161  -0.755   2.132  0.00  0.00     0.053 C 
ATOM      9  C   UNL d   1       0.393  -1.991   2.573  0.00  0.00     0.018 C 
ENDBRANCH   1   8
TORSDOF 1
ENDMDL
