MODEL 1
REMARK minimizedAffinity -2.92679
REMARK minimizedRMSD -1
REMARK  1 active torsions:
REMARK  status: ('A' for Active; 'I' for Inactive)
REMARK    1  A    between atoms: C1_2  and  C2_3 
ROOT
ATOM      1  C2  UNL d   1      -0.013  -1.121   2.675  0.00  0.00    -0.073 A 
ATOM      2  C3  UNL d   1       1.288  -0.995   3.174  0.00  0.00    -0.002 A 
ATOM      3  C4  UNL d   1       2.284  -0.394   2.403  0.00  0.00     0.004 A 
ATOM      4  C5  UNL d   1       1.988   0.092   1.130  0.00  0.00    -0.004 A 
ATOM      5  C6  UNL d   1       0.691  -0.014   0.618  0.00  0.00    -0.075 A 
ATOM      6  C7  UNL d   1       0.357   0.501  -0.751  0.00  0.00     0.076 C 
ATOM      7  C8  UNL d   1      -0.303  -0.621   1.397  0.00  0.00     0.001 A 
ENDROOT
BRANCH   1   8
ATOM      8  C1  UNL d   1      -1.093  -1.763   3.507  0.00  0.00     0.053 C 
ATOM      9  C   UNL d   1      -1.206  -3.255   3.242  0.00  0.00     0.018 C 
ENDBRANCH   1   8
TORSDOF 1
ENDMDL
