MODEL 1
REMARK minimizedAffinity 1.59666562
REMARK minimizedRMSD -1
REMARK  1 active torsions:
REMARK  status: ('A' for Active; 'I' for Inactive)
REMARK    1  A    between atoms: C1_2  and  C2_3 
ROOT
ATOM      1  C2  UNL d   1       0.959   1.540   0.506  0.00  0.00    -0.076 A 
ATOM      2  C3  UNL d   1       1.583   0.312   0.222  0.00  0.00     0.004 A 
ATOM      3  C4  UNL d   1       1.036  -0.890   0.667  0.00  0.00    -0.003 A 
ATOM      4  C5  UNL d   1      -0.144  -0.885   1.402  0.00  0.00     0.000 A 
ATOM      5  C6  UNL d   1      -0.786   0.322   1.677  0.00  0.00     0.000 A 
ATOM      6  C7  UNL d   1      -0.256   1.542   1.223  0.00  0.00    -0.073 A 
ATOM      7  C8  UNL d   1      -0.987   2.815   1.554  0.00  0.00     0.078 C 
ENDROOT
BRANCH   1   8
ATOM      8  C1  UNL d   1       1.614   2.814   0.021  0.00  0.00     0.053 C 
ATOM      9  C   UNL d   1       2.900   3.129   0.769  0.00  0.00     0.018 C 
ENDBRANCH   1   8
TORSDOF 1
ENDMDL
