MODEL 1
REMARK minimizedAffinity 5.03924465
REMARK minimizedRMSD -1
REMARK  1 active torsions:
REMARK  status: ('A' for Active; 'I' for Inactive)
REMARK    1  A    between atoms: C1_2  and  C2_3 
ROOT
ATOM      1  C2  UNL d   1       2.123   0.362  -0.727  0.00  0.00    -0.076 A 
ATOM      2  C3  UNL d   1       2.768  -0.830  -0.353  0.00  0.00     0.004 A 
ATOM      3  C4  UNL d   1       2.805  -1.926  -1.212  0.00  0.00    -0.003 A 
ATOM      4  C5  UNL d   1       2.197  -1.849  -2.461  0.00  0.00     0.000 A 
ATOM      5  C6  UNL d   1       1.568  -0.670  -2.856  0.00  0.00     0.000 A 
ATOM      6  C7  UNL d   1       1.536   0.451  -2.008  0.00  0.00    -0.073 A 
ATOM      7  C8  UNL d   1       0.837   1.696  -2.482  0.00  0.00     0.078 C 
ENDROOT
BRANCH   1   8
ATOM      8  C1  UNL d   1       2.091   1.509   0.257  0.00  0.00     0.053 C 
ATOM      9  C   UNL d   1       3.479   2.049   0.566  0.00  0.00     0.018 C 
ENDBRANCH   1   8
TORSDOF 1
ENDMDL
