MODEL 1
REMARK minimizedAffinity 6.15544701
REMARK minimizedRMSD -1
REMARK  1 active torsions:
REMARK  status: ('A' for Active; 'I' for Inactive)
REMARK    1  A    between atoms: C1_2  and  C2_3 
ROOT
ATOM      1  C2  UNL d   1       2.129   0.614  -1.037  0.00  0.00    -0.076 A 
ATOM      2  C3  UNL d   1       2.208   1.397  -2.202  0.00  0.00     0.004 A 
ATOM      3  C4  UNL d   1       1.561   1.006  -3.374  0.00  0.00    -0.003 A 
ATOM      4  C5  UNL d   1       0.825  -0.173  -3.399  0.00  0.00     0.000 A 
ATOM      5  C6  UNL d   1       0.721  -0.952  -2.247  0.00  0.00     0.000 A 
ATOM      6  C7  UNL d   1       1.353  -0.565  -1.053  0.00  0.00    -0.073 A 
ATOM      7  C8  UNL d   1       1.213  -1.446   0.157  0.00  0.00     0.078 C 
ENDROOT
BRANCH   1   8
ATOM      8  C1  UNL d   1       2.873   1.074   0.196  0.00  0.00     0.053 C 
ATOM      9  C   UNL d   1       2.138   2.176   0.944  0.00  0.00     0.018 C 
ENDBRANCH   1   8
TORSDOF 1
ENDMDL
