MODEL 1
REMARK minimizedAffinity 2.98037028
REMARK minimizedRMSD -1
REMARK  1 active torsions:
REMARK  status: ('A' for Active; 'I' for Inactive)
REMARK    1  A    between atoms: C1_2  and  C2_3 
ROOT
ATOM      1  C2  UNL d   1       1.793  -4.011   1.129  0.00  0.00    -0.076 A 
ATOM      2  C3  UNL d   1       1.908  -5.409   1.031  0.00  0.00     0.004 A 
ATOM      3  C4  UNL d   1       3.068  -5.999   0.531  0.00  0.00    -0.003 A 
ATOM      4  C5  UNL d   1       4.131  -5.201   0.123  0.00  0.00     0.000 A 
ATOM      5  C6  UNL d   1       4.041  -3.814   0.230  0.00  0.00     0.000 A 
ATOM      6  C7  UNL d   1       2.885  -3.203   0.746  0.00  0.00    -0.073 A 
ATOM      7  C8  UNL d   1       2.839  -1.703   0.834  0.00  0.00     0.078 C 
ENDROOT
BRANCH   1   8
ATOM      8  C1  UNL d   1       0.500  -3.427   1.653  0.00  0.00     0.053 C 
ATOM      9  C   UNL d   1      -0.627  -3.498   0.635  0.00  0.00     0.018 C 
ENDBRANCH   1   8
TORSDOF 1
ENDMDL
