MODEL 1
REMARK minimizedAffinity 3.63043046
REMARK minimizedRMSD -1
REMARK  1 active torsions:
REMARK  status: ('A' for Active; 'I' for Inactive)
REMARK    1  A    between atoms: C1_2  and  C2_3 
ROOT
ATOM      1  C2  UNL d   1      -3.173   1.166   1.477  0.00  0.00    -0.076 A 
ATOM      2  C3  UNL d   1      -4.420   0.747   1.971  0.00  0.00     0.004 A 
ATOM      3  C4  UNL d   1      -5.586   1.446   1.663  0.00  0.00    -0.003 A 
ATOM      4  C5  UNL d   1      -5.523   2.576   0.856  0.00  0.00     0.000 A 
ATOM      5  C6  UNL d   1      -4.296   2.997   0.342  0.00  0.00     0.000 A 
ATOM      6  C7  UNL d   1      -3.114   2.293   0.630  0.00  0.00    -0.073 A 
ATOM      7  C8  UNL d   1      -1.818   2.795   0.054  0.00  0.00     0.078 C 
ENDROOT
BRANCH   1   8
ATOM      8  C1  UNL d   1      -1.939   0.383   1.867  0.00  0.00     0.053 C 
ATOM      9  C   UNL d   1      -1.622   0.495   3.350  0.00  0.00     0.018 C 
ENDBRANCH   1   8
TORSDOF 1
ENDMDL
