MODEL 1
REMARK minimizedAffinity 5.22815228
REMARK minimizedRMSD -1
REMARK  1 active torsions:
REMARK  status: ('A' for Active; 'I' for Inactive)
REMARK    1  A    between atoms: C1_2  and  C2_3 
ROOT
ATOM      1  C2  UNL d   1       2.860   1.287  -0.723  0.00  0.00    -0.076 A 
ATOM      2  C3  UNL d   1       1.549   0.951  -1.103  0.00  0.00     0.004 A 
ATOM      3  C4  UNL d   1       1.264   0.527  -2.400  0.00  0.00    -0.003 A 
ATOM      4  C5  UNL d   1       2.286   0.431  -3.338  0.00  0.00     0.000 A 
ATOM      5  C6  UNL d   1       3.595   0.743  -2.974  0.00  0.00     0.000 A 
ATOM      6  C7  UNL d   1       3.902   1.157  -1.666  0.00  0.00    -0.073 A 
ATOM      7  C8  UNL d   1       5.331   1.487  -1.330  0.00  0.00     0.078 C 
ENDROOT
BRANCH   1   8
ATOM      8  C1  UNL d   1       3.104   1.767   0.689  0.00  0.00     0.053 C 
ATOM      9  C   UNL d   1       2.002   2.687   1.191  0.00  0.00     0.018 C 
ENDBRANCH   1   8
TORSDOF 1
ENDMDL
