MODEL 1
REMARK minimizedAffinity 3.36782289
REMARK minimizedRMSD -1
REMARK  1 active torsions:
REMARK  status: ('A' for Active; 'I' for Inactive)
REMARK    1  A    between atoms: C1_2  and  C2_3 
ROOT
ATOM      1  C2  UNL d   1       0.144   2.413   0.292  0.00  0.00    -0.076 A 
ATOM      2  C3  UNL d   1      -0.177   3.272  -0.773  0.00  0.00     0.004 A 
ATOM      3  C4  UNL d   1      -1.497   3.434  -1.191  0.00  0.00    -0.003 A 
ATOM      4  C5  UNL d   1      -2.517   2.740  -0.550  0.00  0.00     0.000 A 
ATOM      5  C6  UNL d   1      -2.218   1.896   0.519  0.00  0.00     0.000 A 
ATOM      6  C7  UNL d   1      -0.895   1.734   0.964  0.00  0.00    -0.073 A 
ATOM      7  C8  UNL d   1      -0.629   0.807   2.118  0.00  0.00     0.078 C 
ENDROOT
BRANCH   1   8
ATOM      8  C1  UNL d   1       1.596   2.256   0.683  0.00  0.00     0.053 C 
ATOM      9  C   UNL d   1       2.456   3.419   0.212  0.00  0.00     0.018 C 
ENDBRANCH   1   8
TORSDOF 1
ENDMDL
