MODEL 1
REMARK minimizedAffinity 0.24871555
REMARK minimizedRMSD -1
REMARK  1 active torsions:
REMARK  status: ('A' for Active; 'I' for Inactive)
REMARK    1  A    between atoms: C1_2  and  C2_3 
ROOT
ATOM      1  C2  UNL d   1       2.814   0.980   0.547  0.00  0.00    -0.076 A 
ATOM      2  C3  UNL d   1       1.753   1.890   0.400  0.00  0.00     0.004 A 
ATOM      3  C4  UNL d   1       1.901   3.229   0.761  0.00  0.00    -0.003 A 
ATOM      4  C5  UNL d   1       3.113   3.679   1.273  0.00  0.00     0.000 A 
ATOM      5  C6  UNL d   1       4.182   2.794   1.409  0.00  0.00     0.000 A 
ATOM      6  C7  UNL d   1       4.054   1.445   1.035  0.00  0.00    -0.073 A 
ATOM      7  C8  UNL d   1       5.238   0.533   1.208  0.00  0.00     0.078 C 
ENDROOT
BRANCH   1   8
ATOM      8  C1  UNL d   1       2.587  -0.465   0.165  0.00  0.00     0.053 C 
ATOM      9  C   UNL d   1       1.390  -0.643  -0.756  0.00  0.00     0.018 C 
ENDBRANCH   1   8
TORSDOF 1
ENDMDL
