MODEL 1
REMARK minimizedAffinity 4.56435394
REMARK minimizedRMSD -1
REMARK  1 active torsions:
REMARK  status: ('A' for Active; 'I' for Inactive)
REMARK    1  A    between atoms: C1_2  and  C2_3 
ROOT
ATOM      1  C2  UNL d   1       1.436   2.450   1.892  0.00  0.00    -0.076 A 
ATOM      2  C3  UNL d   1       2.111   2.500   3.124  0.00  0.00     0.004 A 
ATOM      3  C4  UNL d   1       3.500   2.411   3.185  0.00  0.00    -0.003 A 
ATOM      4  C5  UNL d   1       4.238   2.271   2.014  0.00  0.00     0.000 A 
ATOM      5  C6  UNL d   1       3.586   2.238   0.782  0.00  0.00     0.000 A 
ATOM      6  C7  UNL d   1       2.187   2.343   0.702  0.00  0.00    -0.073 A 
ATOM      7  C8  UNL d   1       1.536   2.295  -0.653  0.00  0.00     0.078 C 
ENDROOT
BRANCH   1   8
ATOM      8  C1  UNL d   1      -0.075   2.525   1.890  0.00  0.00     0.053 C 
ATOM      9  C   UNL d   1      -0.641   2.903   3.249  0.00  0.00     0.018 C 
ENDBRANCH   1   8
TORSDOF 1
ENDMDL
