MODEL 1
REMARK minimizedAffinity 9.08780289
REMARK minimizedRMSD -1
REMARK  1 active torsions:
REMARK  status: ('A' for Active; 'I' for Inactive)
REMARK    1  A    between atoms: C1_2  and  C2_3 
ROOT
ATOM      1  C2  UNL d   1       1.527   0.778   0.578  0.00  0.00    -0.076 A 
ATOM      2  C3  UNL d   1       2.224   1.887   0.067  0.00  0.00     0.004 A 
ATOM      3  C4  UNL d   1       1.711   3.177   0.194  0.00  0.00    -0.003 A 
ATOM      4  C5  UNL d   1       0.493   3.379   0.834  0.00  0.00     0.000 A 
ATOM      5  C6  UNL d   1      -0.203   2.292   1.362  0.00  0.00     0.000 A 
ATOM      6  C7  UNL d   1       0.308   0.987   1.257  0.00  0.00    -0.073 A 
ATOM      7  C8  UNL d   1      -0.488  -0.149   1.840  0.00  0.00     0.078 C 
ENDROOT
BRANCH   1   8
ATOM      8  C1  UNL d   1       2.119  -0.600   0.387  0.00  0.00     0.053 C 
ATOM      9  C   UNL d   1       1.874  -1.152  -1.009  0.00  0.00     0.018 C 
ENDBRANCH   1   8
TORSDOF 1
ENDMDL
