MODEL 1
REMARK minimizedAffinity -1.32647264
REMARK minimizedRMSD -1
REMARK  2 active torsions:
REMARK  status: ('A' for Active; 'I' for Inactive)
REMARK    1  A    between atoms: C1_2  and  C2_3 
REMARK    2  A    between atoms: C2_3  and  C3_4 
ROOT
ATOM      1  C3  UNL d   1       1.949   1.382  -3.318  0.00  0.00    -0.075 A 
ATOM      2  C4  UNL d   1       0.750   1.374  -4.045  0.00  0.00     0.002 A 
ATOM      3  C5  UNL d   1       0.728   1.781  -5.379  0.00  0.00     0.002 A 
ATOM      4  C6  UNL d   1       1.899   2.210  -6.000  0.00  0.00    -0.004 A 
ATOM      5  C7  UNL d   1       3.093   2.238  -5.282  0.00  0.00     0.002 A 
ATOM      6  C8  UNL d   1       3.119   1.827  -3.948  0.00  0.00     0.002 A 
ENDROOT
BRANCH   1   7
ATOM      7  C2  UNL d   1       1.986   0.915  -1.882  0.00  0.00     0.056 C 
BRANCH   7   8
ATOM      8  C1  UNL d   1       2.631  -0.461  -1.690  0.00  0.00     0.007 C 
ATOM      9  C   UNL d   1       1.651  -1.614  -1.872  0.00  0.00     0.009 C 
ENDBRANCH   7   8
ENDBRANCH   1   7
TORSDOF 2
ENDMDL
