MODEL 1
REMARK minimizedAffinity -0.370030701
REMARK minimizedRMSD -1
REMARK  2 active torsions:
REMARK  status: ('A' for Active; 'I' for Inactive)
REMARK    1  A    between atoms: C1_2  and  C2_3 
REMARK    2  A    between atoms: C2_3  and  C3_4 
ROOT
ATOM      1  C3  UNL d   1       1.431   0.815  -2.976  0.00  0.00    -0.075 A 
ATOM      2  C4  UNL d   1       0.686   0.883  -4.162  0.00  0.00     0.002 A 
ATOM      3  C5  UNL d   1       1.226   1.472  -5.306  0.00  0.00     0.002 A 
ATOM      4  C6  UNL d   1       2.511   2.008  -5.276  0.00  0.00    -0.004 A 
ATOM      5  C7  UNL d   1       3.255   1.961  -4.098  0.00  0.00     0.002 A 
ATOM      6  C8  UNL d   1       2.718   1.369  -2.954  0.00  0.00     0.002 A 
ENDROOT
BRANCH   1   7
ATOM      7  C2  UNL d   1       0.863   0.153  -1.743  0.00  0.00     0.056 C 
BRANCH   7   8
ATOM      8  C1  UNL d   1      -0.550   0.621  -1.379  0.00  0.00     0.007 C 
ATOM      9  C   UNL d   1      -1.081  -0.014  -0.101  0.00  0.00     0.009 C 
ENDBRANCH   7   8
ENDBRANCH   1   7
TORSDOF 2
ENDMDL
