MODEL 1
REMARK minimizedAffinity -0.276920795
REMARK minimizedRMSD -1
REMARK  2 active torsions:
REMARK  status: ('A' for Active; 'I' for Inactive)
REMARK    1  A    between atoms: C1_2  and  C2_3 
REMARK    2  A    between atoms: C2_3  and  C3_4 
ROOT
ATOM      1  C3  UNL d   1       1.847   1.838  -3.588  0.00  0.00    -0.075 A 
ATOM      2  C4  UNL d   1       1.904   2.262  -4.924  0.00  0.00     0.002 A 
ATOM      3  C5  UNL d   1       3.121   2.294  -5.605  0.00  0.00     0.002 A 
ATOM      4  C6  UNL d   1       4.295   1.913  -4.959  0.00  0.00    -0.004 A 
ATOM      5  C7  UNL d   1       4.253   1.506  -3.628  0.00  0.00     0.002 A 
ATOM      6  C8  UNL d   1       3.036   1.469  -2.944  0.00  0.00     0.002 A 
ENDROOT
BRANCH   1   7
ATOM      7  C2  UNL d   1       0.530   1.772  -2.854  0.00  0.00     0.056 C 
BRANCH   7   8
ATOM      8  C1  UNL d   1       0.170   0.374  -2.341  0.00  0.00     0.007 C 
ATOM      9  C   UNL d   1      -0.918   0.386  -1.275  0.00  0.00     0.009 C 
ENDBRANCH   7   8
ENDBRANCH   1   7
TORSDOF 2
ENDMDL
