MODEL 1
REMARK minimizedAffinity 6.69423819
REMARK minimizedRMSD -1
REMARK  2 active torsions:
REMARK  status: ('A' for Active; 'I' for Inactive)
REMARK    1  A    between atoms: C1_2  and  C2_3 
REMARK    2  A    between atoms: C2_3  and  C3_4 
ROOT
ATOM      1  C3  UNL d   1       4.683   5.489   1.272  0.00  0.00    -0.075 A 
ATOM      2  C4  UNL d   1       3.454   5.278   1.913  0.00  0.00     0.002 A 
ATOM      3  C5  UNL d   1       2.258   5.373   1.200  0.00  0.00     0.002 A 
ATOM      4  C6  UNL d   1       2.276   5.688  -0.156  0.00  0.00    -0.004 A 
ATOM      5  C7  UNL d   1       3.490   5.916  -0.799  0.00  0.00     0.002 A 
ATOM      6  C8  UNL d   1       4.689   5.818  -0.090  0.00  0.00     0.002 A 
ENDROOT
BRANCH   1   7
ATOM      7  C2  UNL d   1       5.982   5.359   2.032  0.00  0.00     0.056 C 
BRANCH   7   8
ATOM      8  C1  UNL d   1       5.957   5.997   3.425  0.00  0.00     0.007 C 
ATOM      9  C   UNL d   1       5.980   4.974   4.553  0.00  0.00     0.009 C 
ENDBRANCH   7   8
ENDBRANCH   1   7
TORSDOF 2
ENDMDL
