MODEL 1
REMARK minimizedAffinity -0.75740236
REMARK minimizedRMSD -1
REMARK  2 active torsions:
REMARK  status: ('A' for Active; 'I' for Inactive)
REMARK    1  A    between atoms: C1_2  and  C2_3 
REMARK    2  A    between atoms: C2_3  and  C3_4 
ROOT
ATOM      1  C3  UNL d   1       0.926   2.396  -2.920  0.00  0.00    -0.075 A 
ATOM      2  C4  UNL d   1       1.582   1.618  -1.954  0.00  0.00     0.002 A 
ATOM      3  C5  UNL d   1       2.694   0.850  -2.299  0.00  0.00     0.002 A 
ATOM      4  C6  UNL d   1       3.158   0.841  -3.613  0.00  0.00    -0.004 A 
ATOM      5  C7  UNL d   1       2.505   1.597  -4.584  0.00  0.00     0.002 A 
ATOM      6  C8  UNL d   1       1.394   2.370  -4.240  0.00  0.00     0.002 A 
ENDROOT
BRANCH   1   7
ATOM      7  C2  UNL d   1      -0.260   3.252  -2.547  0.00  0.00     0.056 C 
BRANCH   7   8
ATOM      8  C1  UNL d   1       0.111   4.670  -2.098  0.00  0.00     0.007 C 
ATOM      9  C   UNL d   1      -0.999   5.361  -1.316  0.00  0.00     0.009 C 
ENDBRANCH   7   8
ENDBRANCH   1   7
TORSDOF 2
ENDMDL
