MODEL 1
REMARK minimizedAffinity 5.73377609
REMARK minimizedRMSD -1
REMARK  2 active torsions:
REMARK  status: ('A' for Active; 'I' for Inactive)
REMARK    1  A    between atoms: C1_2  and  C2_3 
REMARK    2  A    between atoms: C2_3  and  C3_4 
ROOT
ATOM      1  C3  UNL d   1       1.487   1.832  -3.561  0.00  0.00    -0.075 A 
ATOM      2  C4  UNL d   1       1.668   2.088  -4.928  0.00  0.00     0.002 A 
ATOM      3  C5  UNL d   1       2.951   2.197  -5.465  0.00  0.00     0.002 A 
ATOM      4  C6  UNL d   1       4.067   2.063  -4.642  0.00  0.00    -0.004 A 
ATOM      5  C7  UNL d   1       3.899   1.825  -3.280  0.00  0.00     0.002 A 
ATOM      6  C8  UNL d   1       2.617   1.711  -2.741  0.00  0.00     0.002 A 
ENDROOT
BRANCH   1   7
ATOM      7  C2  UNL d   1       0.102   1.683  -2.979  0.00  0.00     0.056 C 
BRANCH   7   8
ATOM      8  C1  UNL d   1      -0.060   0.470  -2.056  0.00  0.00     0.007 C 
ATOM      9  C   UNL d   1      -1.372   0.475  -1.283  0.00  0.00     0.009 C 
ENDBRANCH   7   8
ENDBRANCH   1   7
TORSDOF 2
ENDMDL
