MODEL 1
REMARK minimizedAffinity 5.2000227
REMARK minimizedRMSD -1
REMARK  2 active torsions:
REMARK  status: ('A' for Active; 'I' for Inactive)
REMARK    1  A    between atoms: C1_2  and  C2_3 
REMARK    2  A    between atoms: C2_3  and  C3_4 
ROOT
ATOM      1  C3  UNL d   1      -3.855  -0.534   3.474  0.00  0.00    -0.075 A 
ATOM      2  C4  UNL d   1      -5.156  -0.118   3.155  0.00  0.00     0.002 A 
ATOM      3  C5  UNL d   1      -5.999  -0.942   2.409  0.00  0.00     0.002 A 
ATOM      4  C6  UNL d   1      -5.550  -2.184   1.965  0.00  0.00    -0.004 A 
ATOM      5  C7  UNL d   1      -4.254  -2.600   2.262  0.00  0.00     0.002 A 
ATOM      6  C8  UNL d   1      -3.410  -1.779   3.012  0.00  0.00     0.002 A 
ENDROOT
BRANCH   1   7
ATOM      7  C2  UNL d   1      -2.947   0.341   4.307  0.00  0.00     0.056 C 
BRANCH   7   8
ATOM      8  C1  UNL d   1      -1.955   1.170   3.485  0.00  0.00     0.007 C 
ATOM      9  C   UNL d   1      -2.034   0.893   1.990  0.00  0.00     0.009 C 
ENDBRANCH   7   8
ENDBRANCH   1   7
TORSDOF 2
ENDMDL
