MODEL 1
REMARK minimizedAffinity 3.64558101
REMARK minimizedRMSD -1
REMARK  2 active torsions:
REMARK  status: ('A' for Active; 'I' for Inactive)
REMARK    1  A    between atoms: C1_2  and  C2_3 
REMARK    2  A    between atoms: C2_3  and  C3_4 
ROOT
ATOM      1  C3  UNL d   1       2.164   0.860  -2.475  0.00  0.00    -0.075 A 
ATOM      2  C4  UNL d   1       3.080  -0.026  -1.889  0.00  0.00     0.002 A 
ATOM      3  C5  UNL d   1       2.670  -1.290  -1.464  0.00  0.00     0.002 A 
ATOM      4  C6  UNL d   1       1.340  -1.680  -1.609  0.00  0.00    -0.004 A 
ATOM      5  C7  UNL d   1       0.418  -0.801  -2.174  0.00  0.00     0.002 A 
ATOM      6  C8  UNL d   1       0.827   0.463  -2.604  0.00  0.00     0.002 A 
ENDROOT
BRANCH   1   7
ATOM      7  C2  UNL d   1       2.608   2.218  -2.964  0.00  0.00     0.056 C 
BRANCH   7   8
ATOM      8  C1  UNL d   1       3.546   2.169  -4.174  0.00  0.00     0.007 C 
ATOM      9  C   UNL d   1       2.809   2.195  -5.507  0.00  0.00     0.009 C 
ENDBRANCH   7   8
ENDBRANCH   1   7
TORSDOF 2
ENDMDL
