MODEL 1
REMARK minimizedAffinity -1.56348121
REMARK minimizedRMSD -1
REMARK  2 active torsions:
REMARK  status: ('A' for Active; 'I' for Inactive)
REMARK    1  A    between atoms: C1_2  and  C2_3 
REMARK    2  A    between atoms: C2_3  and  C3_4 
ROOT
ATOM      1  C3  UNL d   1       1.699   1.693  -3.929  0.00  0.00    -0.075 A 
ATOM      2  C4  UNL d   1       1.742   1.859  -5.321  0.00  0.00     0.002 A 
ATOM      3  C5  UNL d   1       2.961   1.837  -5.999  0.00  0.00     0.002 A 
ATOM      4  C6  UNL d   1       4.150   1.659  -5.295  0.00  0.00    -0.004 A 
ATOM      5  C7  UNL d   1       4.120   1.510  -3.910  0.00  0.00     0.002 A 
ATOM      6  C8  UNL d   1       2.902   1.527  -3.230  0.00  0.00     0.002 A 
ENDROOT
BRANCH   1   7
ATOM      7  C2  UNL d   1       0.380   1.686  -3.193  0.00  0.00     0.056 C 
BRANCH   7   8
ATOM      8  C1  UNL d   1       0.158   0.444  -2.323  0.00  0.00     0.007 C 
ATOM      9  C   UNL d   1      -1.137   0.495  -1.523  0.00  0.00     0.009 C 
ENDBRANCH   7   8
ENDBRANCH   1   7
TORSDOF 2
ENDMDL
