MODEL 1
REMARK minimizedAffinity -1.34207296
REMARK minimizedRMSD -1
REMARK  2 active torsions:
REMARK  status: ('A' for Active; 'I' for Inactive)
REMARK    1  A    between atoms: C1_2  and  C2_3 
REMARK    2  A    between atoms: C2_3  and  C3_4 
ROOT
ATOM      1  C3  UNL d   1       1.569   1.472  -3.164  0.00  0.00    -0.075 A 
ATOM      2  C4  UNL d   1       0.965   0.488  -2.367  0.00  0.00     0.002 A 
ATOM      3  C5  UNL d   1       1.736  -0.502  -1.758  0.00  0.00     0.002 A 
ATOM      4  C6  UNL d   1       3.117  -0.527  -1.945  0.00  0.00    -0.004 A 
ATOM      5  C7  UNL d   1       3.725   0.435  -2.747  0.00  0.00     0.002 A 
ATOM      6  C8  UNL d   1       2.956   1.430  -3.354  0.00  0.00     0.002 A 
ENDROOT
BRANCH   1   7
ATOM      7  C2  UNL d   1       0.743   2.563  -3.802  0.00  0.00     0.056 C 
BRANCH   7   8
ATOM      8  C1  UNL d   1       0.571   3.808  -2.925  0.00  0.00     0.007 C 
ATOM      9  C   UNL d   1      -0.787   3.877  -2.239  0.00  0.00     0.009 C 
ENDBRANCH   7   8
ENDBRANCH   1   7
TORSDOF 2
ENDMDL
