MODEL 1
REMARK minimizedAffinity 4.84362793
REMARK minimizedRMSD -1
REMARK  2 active torsions:
REMARK  status: ('A' for Active; 'I' for Inactive)
REMARK    1  A    between atoms: C1_2  and  C2_3 
REMARK    2  A    between atoms: C2_3  and  C3_4 
ROOT
ATOM      1  C3  UNL d   1      -2.496   3.940   4.063  0.00  0.00    -0.075 A 
ATOM      2  C4  UNL d   1      -1.491   3.969   5.042  0.00  0.00     0.002 A 
ATOM      3  C5  UNL d   1      -1.465   4.983   6.000  0.00  0.00     0.002 A 
ATOM      4  C6  UNL d   1      -2.434   5.984   5.985  0.00  0.00    -0.004 A 
ATOM      5  C7  UNL d   1      -3.427   5.974   5.008  0.00  0.00     0.002 A 
ATOM      6  C8  UNL d   1      -3.458   4.958   4.051  0.00  0.00     0.002 A 
ENDROOT
BRANCH   1   7
ATOM      7  C2  UNL d   1      -2.547   2.828   3.042  0.00  0.00     0.056 C 
BRANCH   7   8
ATOM      8  C1  UNL d   1      -1.756   1.578   3.441  0.00  0.00     0.007 C 
ATOM      9  C   UNL d   1      -2.472   0.279   3.093  0.00  0.00     0.009 C 
ENDBRANCH   7   8
ENDBRANCH   1   7
TORSDOF 2
ENDMDL
