MODEL 1
REMARK minimizedAffinity 2.30836964
REMARK minimizedRMSD -1
REMARK  2 active torsions:
REMARK  status: ('A' for Active; 'I' for Inactive)
REMARK    1  A    between atoms: C1_2  and  C2_3 
REMARK    2  A    between atoms: C2_3  and  C3_4 
ROOT
ATOM      1  C3  UNL d   1       2.248   1.523  -3.527  0.00  0.00    -0.075 A 
ATOM      2  C4  UNL d   1       2.891   1.990  -4.682  0.00  0.00     0.002 A 
ATOM      3  C5  UNL d   1       2.227   1.998  -5.909  0.00  0.00     0.002 A 
ATOM      4  C6  UNL d   1       0.918   1.530  -5.999  0.00  0.00    -0.004 A 
ATOM      5  C7  UNL d   1       0.274   1.048  -4.861  0.00  0.00     0.002 A 
ATOM      6  C8  UNL d   1       0.935   1.044  -3.631  0.00  0.00     0.002 A 
ENDROOT
BRANCH   1   7
ATOM      7  C2  UNL d   1       2.951   1.540  -2.191  0.00  0.00     0.056 C 
BRANCH   7   8
ATOM      8  C1  UNL d   1       3.136   0.153  -1.566  0.00  0.00     0.007 C 
ATOM      9  C   UNL d   1       4.578  -0.334  -1.605  0.00  0.00     0.009 C 
ENDBRANCH   7   8
ENDBRANCH   1   7
TORSDOF 2
ENDMDL
