MODEL 1
REMARK minimizedAffinity -1.0697937
REMARK minimizedRMSD -1
REMARK  2 active torsions:
REMARK  status: ('A' for Active; 'I' for Inactive)
REMARK    1  A    between atoms: C1_2  and  C2_3 
REMARK    2  A    between atoms: C2_3  and  C3_4 
ROOT
ATOM      1  C3  UNL d   1       4.645   5.806   3.089  0.00  0.00    -0.075 A 
ATOM      2  C4  UNL d   1       3.471   5.920   2.330  0.00  0.00     0.002 A 
ATOM      3  C5  UNL d   1       3.532   6.000   0.939  0.00  0.00     0.002 A 
ATOM      4  C6  UNL d   1       4.764   5.978   0.290  0.00  0.00    -0.004 A 
ATOM      5  C7  UNL d   1       5.938   5.883   1.034  0.00  0.00     0.002 A 
ATOM      6  C8  UNL d   1       5.880   5.798   2.426  0.00  0.00     0.002 A 
ENDROOT
BRANCH   1   7
ATOM      7  C2  UNL d   1       4.585   5.689   4.593  0.00  0.00     0.056 C 
BRANCH   7   8
ATOM      8  C1  UNL d   1       5.942   5.425   5.253  0.00  0.00     0.007 C 
ATOM      9  C   UNL d   1       5.999   4.098   5.998  0.00  0.00     0.009 C 
ENDBRANCH   7   8
ENDBRANCH   1   7
TORSDOF 2
ENDMDL
