MODEL 1
REMARK minimizedAffinity -4.70544338
REMARK minimizedRMSD -1
REMARK  2 active torsions:
REMARK  status: ('A' for Active; 'I' for Inactive)
REMARK    1  A    between atoms: C1_2  and  C2_3 
REMARK    2  A    between atoms: C2_3  and  C3_4 
ROOT
ATOM      1  C3  UNL d   1       0.427   0.284  -0.035  0.00  0.00    -0.075 A 
ATOM      2  C4  UNL d   1       1.631   0.202  -0.750  0.00  0.00     0.002 A 
ATOM      3  C5  UNL d   1       2.087  -1.026  -1.231  0.00  0.00     0.002 A 
ATOM      4  C6  UNL d   1       1.353  -2.186  -0.995  0.00  0.00    -0.004 A 
ATOM      5  C7  UNL d   1       0.164  -2.119  -0.271  0.00  0.00     0.002 A 
ATOM      6  C8  UNL d   1      -0.297  -0.891   0.207  0.00  0.00     0.002 A 
ENDROOT
BRANCH   1   7
ATOM      7  C2  UNL d   1      -0.087   1.614   0.463  0.00  0.00     0.056 C 
BRANCH   7   8
ATOM      8  C1  UNL d   1      -0.575   2.549  -0.649  0.00  0.00     0.007 C 
ATOM      9  C   UNL d   1       0.496   3.518  -1.132  0.00  0.00     0.009 C 
ENDBRANCH   7   8
ENDBRANCH   1   7
TORSDOF 2
ENDMDL
