MODEL 1
REMARK minimizedAffinity 8.54773331
REMARK minimizedRMSD -1
REMARK  0 active torsions:
REMARK  status: ('A' for Active; 'I' for Inactive)
ROOT
ATOM      1  O1  BZF d   1       5.999   5.998  -4.194  0.00  0.00    -0.204 OA
ATOM      2  C2  BZF d   1       5.581   5.420  -5.377  0.00  0.00     0.174 A 
ATOM      3  C3  BZF d   1       4.470   4.681  -5.182  0.00  0.00    -0.012 A 
ATOM      4  C3A BZF d   1       4.122   4.880  -3.808  0.00  0.00    -0.107 A 
ATOM      5  C4  BZF d   1       3.104   4.421  -3.022  0.00  0.00     0.055 A 
ATOM      6  C5  BZF d   1       3.093   4.744  -1.702  0.00  0.00    -0.016 A 
ATOM      7  C6  BZF d   1       4.085   5.517  -1.135  0.00  0.00     0.022 A 
ATOM      8  C7  BZF d   1       5.112   6.000  -1.876  0.00  0.00     0.029 A 
ATOM      9  C7A BZF d   1       5.109   5.703  -3.217  0.00  0.00     0.058 A 
ENDROOT
TORSDOF 0
ENDMDL
