MODEL 1
REMARK minimizedAffinity 2.54152918
REMARK minimizedRMSD -1
REMARK  0 active torsions:
REMARK  status: ('A' for Active; 'I' for Inactive)
ROOT
ATOM      1  O1  BZF d   1       5.998   5.663  -2.266  0.00  0.00    -0.204 OA
ATOM      2  C2  BZF d   1       5.094   5.117  -1.377  0.00  0.00     0.174 A 
ATOM      3  C3  BZF d   1       3.972   4.725  -2.015  0.00  0.00    -0.012 A 
ATOM      4  C3A BZF d   1       4.227   4.962  -3.403  0.00  0.00    -0.107 A 
ATOM      5  C4  BZF d   1       3.497   4.760  -4.540  0.00  0.00     0.055 A 
ATOM      6  C5  BZF d   1       4.006   5.167  -5.732  0.00  0.00    -0.016 A 
ATOM      7  C6  BZF d   1       5.237   5.783  -5.825  0.00  0.00     0.022 A 
ATOM      8  C7  BZF d   1       6.000   6.000  -4.726  0.00  0.00     0.029 A 
ATOM      9  C7A BZF d   1       5.503   5.560  -3.523  0.00  0.00     0.058 A 
ENDROOT
TORSDOF 0
ENDMDL
