MODEL 1
REMARK minimizedAffinity 5.37633801
REMARK minimizedRMSD -1
REMARK  0 active torsions:
REMARK  status: ('A' for Active; 'I' for Inactive)
ROOT
ATOM      1  O1  BZF d   1      -4.527  -5.177  -2.445  0.00  0.00    -0.204 OA
ATOM      2  C2  BZF d   1      -4.675  -4.091  -1.604  0.00  0.00     0.174 A 
ATOM      3  C3  BZF d   1      -5.057  -2.999  -2.297  0.00  0.00    -0.012 A 
ATOM      4  C3A BZF d   1      -5.242  -3.451  -3.642  0.00  0.00    -0.107 A 
ATOM      5  C4  BZF d   1      -5.633  -2.833  -4.795  0.00  0.00     0.055 A 
ATOM      6  C5  BZF d   1      -5.641  -3.542  -5.954  0.00  0.00    -0.016 A 
ATOM      7  C6  BZF d   1      -5.260  -4.867  -5.998  0.00  0.00     0.022 A 
ATOM      8  C7  BZF d   1      -4.869  -5.524  -4.879  0.00  0.00     0.029 A 
ATOM      9  C7A BZF d   1      -4.891  -4.820  -3.700  0.00  0.00     0.058 A 
ENDROOT
TORSDOF 0
ENDMDL
