MODEL 1
REMARK minimizedAffinity 5.13190651
REMARK minimizedRMSD -1
REMARK  0 active torsions:
REMARK  status: ('A' for Active; 'I' for Inactive)
ROOT
ATOM      1  O1  BZF d   1      -2.053  -1.380   0.705  0.00  0.00    -0.204 OA
ATOM      2  C2  BZF d   1      -2.305  -0.068   0.355  0.00  0.00     0.174 A 
ATOM      3  C3  BZF d   1      -1.152   0.611   0.187  0.00  0.00    -0.012 A 
ATOM      4  C3A BZF d   1      -0.115  -0.359   0.358  0.00  0.00    -0.107 A 
ATOM      5  C4  BZF d   1       1.248  -0.298   0.296  0.00  0.00     0.055 A 
ATOM      6  C5  BZF d   1       1.973  -1.410   0.585  0.00  0.00    -0.016 A 
ATOM      7  C6  BZF d   1       1.369  -2.597   0.945  0.00  0.00     0.022 A 
ATOM      8  C7  BZF d   1       0.020  -2.708   1.016  0.00  0.00     0.029 A 
ATOM      9  C7A BZF d   1      -0.716  -1.595   0.692  0.00  0.00     0.058 A 
ENDROOT
TORSDOF 0
ENDMDL
