MODEL 1
REMARK minimizedAffinity 10.3872118
REMARK minimizedRMSD -1
REMARK  0 active torsions:
REMARK  status: ('A' for Active; 'I' for Inactive)
ROOT
ATOM      1  O1  BZF d   1       4.037   1.133  -0.307  0.00  0.00    -0.204 OA
ATOM      2  C2  BZF d   1       3.662   2.433  -0.584  0.00  0.00     0.174 A 
ATOM      3  C3  BZF d   1       2.610   2.799   0.177  0.00  0.00    -0.012 A 
ATOM      4  C3A BZF d   1       2.367   1.688   1.044  0.00  0.00    -0.107 A 
ATOM      5  C4  BZF d   1       1.462   1.453   2.039  0.00  0.00     0.055 A 
ATOM      6  C5  BZF d   1       1.444   0.236   2.642  0.00  0.00    -0.016 A 
ATOM      7  C6  BZF d   1       2.313  -0.771   2.273  0.00  0.00     0.022 A 
ATOM      8  C7  BZF d   1       3.232  -0.583   1.295  0.00  0.00     0.029 A 
ATOM      9  C7A BZF d   1       3.274   0.657   0.706  0.00  0.00     0.058 A 
ENDROOT
TORSDOF 0
ENDMDL
