MODEL 1
REMARK minimizedAffinity 6.46376848
REMARK minimizedRMSD -1
REMARK  0 active torsions:
REMARK  status: ('A' for Active; 'I' for Inactive)
ROOT
ATOM      1  O1  BZF d   1       3.706   1.980   0.421  0.00  0.00    -0.204 OA
ATOM      2  C2  BZF d   1       2.718   2.862   0.814  0.00  0.00     0.174 A 
ATOM      3  C3  BZF d   1       1.711   2.208   1.428  0.00  0.00    -0.012 A 
ATOM      4  C3A BZF d   1       2.136   0.844   1.500  0.00  0.00    -0.107 A 
ATOM      5  C4  BZF d   1       1.573  -0.289   2.014  0.00  0.00     0.055 A 
ATOM      6  C5  BZF d   1       2.216  -1.476   1.856  0.00  0.00    -0.016 A 
ATOM      7  C6  BZF d   1       3.418  -1.567   1.186  0.00  0.00     0.022 A 
ATOM      8  C7  BZF d   1       4.018  -0.470   0.662  0.00  0.00     0.029 A 
ATOM      9  C7A BZF d   1       3.387   0.736   0.849  0.00  0.00     0.058 A 
ENDROOT
TORSDOF 0
ENDMDL
