MODEL 1
REMARK minimizedAffinity 4.43027639
REMARK minimizedRMSD -1
REMARK  0 active torsions:
REMARK  status: ('A' for Active; 'I' for Inactive)
ROOT
ATOM      1  C   UNL d   1      -0.835   2.920   1.247  0.00  0.00     0.020 A 
ATOM      2  C1  UNL d   1      -1.988   2.347   1.781  0.00  0.00     0.020 A 
ATOM      3  C2  UNL d   1      -1.965   1.028   2.240  0.00  0.00     0.034 A 
ATOM      4  C3  UNL d   1      -0.786   0.278   2.165  0.00  0.00     0.017 A 
ATOM      5  C4  UNL d   1       0.371   0.854   1.629  0.00  0.00     0.017 A 
ATOM      6  C5  UNL d   1       0.342   2.175   1.171  0.00  0.00     0.034 A 
ATOM      7 Cl   UNL d   1       1.863  -0.010   1.504  0.00  0.00    -0.070 Cl
ATOM      8 Cl1  UNL d   1      -0.830  -1.347   2.751  0.00  0.00    -0.070 Cl
ENDROOT
TORSDOF 0
ENDMDL
