MODEL 1
REMARK minimizedAffinity -3.85164404
REMARK minimizedRMSD -1
REMARK  0 active torsions:
REMARK  status: ('A' for Active; 'I' for Inactive)
ROOT
ATOM      1  C   UNL d   1       0.224   1.500   0.956  0.00  0.00     0.020 A 
ATOM      2  C1  UNL d   1       0.277   0.107   0.989  0.00  0.00     0.020 A 
ATOM      3  C2  UNL d   1      -0.797  -0.621   1.505  0.00  0.00     0.034 A 
ATOM      4  C3  UNL d   1      -1.929   0.044   1.990  0.00  0.00     0.017 A 
ATOM      5  C4  UNL d   1      -1.982   1.442   1.956  0.00  0.00     0.017 A 
ATOM      6  C5  UNL d   1      -0.903   2.166   1.439  0.00  0.00     0.034 A 
ATOM      7 Cl   UNL d   1      -3.344   2.333   2.536  0.00  0.00    -0.070 Cl
ATOM      8 Cl1  UNL d   1      -3.221  -0.919   2.613  0.00  0.00    -0.070 Cl
ENDROOT
TORSDOF 0
ENDMDL
