MODEL 1
REMARK minimizedAffinity 1.20599031
REMARK minimizedRMSD -1
REMARK  0 active torsions:
REMARK  status: ('A' for Active; 'I' for Inactive)
ROOT
ATOM      1  C   UNL d   1      -1.604   2.529   1.785  0.00  0.00     0.020 A 
ATOM      2  C1  UNL d   1      -0.297   2.872   1.441  0.00  0.00     0.020 A 
ATOM      3  C2  UNL d   1       0.692   1.887   1.388  0.00  0.00     0.034 A 
ATOM      4  C3  UNL d   1       0.376   0.556   1.681  0.00  0.00     0.017 A 
ATOM      5  C4  UNL d   1      -0.936   0.213   2.027  0.00  0.00     0.017 A 
ATOM      6  C5  UNL d   1      -1.922   1.203   2.078  0.00  0.00     0.034 A 
ATOM      7 Cl   UNL d   1      -1.402  -1.409   2.401  0.00  0.00    -0.070 Cl
ATOM      8 Cl1  UNL d   1       1.649  -0.609   1.596  0.00  0.00    -0.070 Cl
ENDROOT
TORSDOF 0
ENDMDL
