MODEL 1
REMARK minimizedAffinity 2.95353699
REMARK minimizedRMSD -1
REMARK  0 active torsions:
REMARK  status: ('A' for Active; 'I' for Inactive)
ROOT
ATOM      1  C   UNL d   1      -3.342  -2.803  -1.252  0.00  0.00     0.020 A 
ATOM      2  C1  UNL d   1      -3.773  -2.015  -2.318  0.00  0.00     0.020 A 
ATOM      3  C2  UNL d   1      -3.134  -2.104  -3.556  0.00  0.00     0.034 A 
ATOM      4  C3  UNL d   1      -2.059  -2.983  -3.732  0.00  0.00     0.017 A 
ATOM      5  C4  UNL d   1      -1.627  -3.774  -2.661  0.00  0.00     0.017 A 
ATOM      6  C5  UNL d   1      -2.271  -3.681  -1.424  0.00  0.00     0.034 A 
ATOM      7 Cl   UNL d   1      -0.308  -4.883  -2.801  0.00  0.00    -0.070 Cl
ATOM      8 Cl1  UNL d   1      -1.316  -3.042  -5.290  0.00  0.00    -0.070 Cl
ENDROOT
TORSDOF 0
ENDMDL
