MODEL 1
REMARK minimizedAffinity 6.58541298
REMARK minimizedRMSD -1
REMARK  0 active torsions:
REMARK  status: ('A' for Active; 'I' for Inactive)
ROOT
ATOM      1  C   UNL d   1       0.875   2.175   0.907  0.00  0.00     0.020 A 
ATOM      2  C1  UNL d   1       1.249   0.841   0.756  0.00  0.00     0.020 A 
ATOM      3  C2  UNL d   1       0.494  -0.168   1.359  0.00  0.00     0.034 A 
ATOM      4  C3  UNL d   1      -0.637   0.156   2.116  0.00  0.00     0.017 A 
ATOM      5  C4  UNL d   1      -1.012   1.496   2.267  0.00  0.00     0.017 A 
ATOM      6  C5  UNL d   1      -0.253   2.502   1.661  0.00  0.00     0.034 A 
ATOM      7 Cl   UNL d   1      -2.395   1.974   3.186  0.00  0.00    -0.070 Cl
ATOM      8 Cl1  UNL d   1      -1.523  -1.142   2.833  0.00  0.00    -0.070 Cl
ENDROOT
TORSDOF 0
ENDMDL
