MODEL 1
REMARK minimizedAffinity 0.148708656
REMARK minimizedRMSD -1
REMARK  0 active torsions:
REMARK  status: ('A' for Active; 'I' for Inactive)
ROOT
ATOM      1  C   UNL d   1       0.374   2.430   0.652  0.00  0.00     0.020 A 
ATOM      2  C1  UNL d   1       1.552   1.698   0.789  0.00  0.00     0.020 A 
ATOM      3  C2  UNL d   1       1.500   0.358   1.180  0.00  0.00     0.034 A 
ATOM      4  C3  UNL d   1       0.267  -0.253   1.436  0.00  0.00     0.017 A 
ATOM      5  C4  UNL d   1      -0.916   0.484   1.298  0.00  0.00     0.017 A 
ATOM      6  C5  UNL d   1      -0.857   1.825   0.906  0.00  0.00     0.034 A 
ATOM      7 Cl   UNL d   1      -2.474  -0.201   1.595  0.00  0.00    -0.070 Cl
ATOM      8 Cl1  UNL d   1       0.276  -1.913   1.915  0.00  0.00    -0.070 Cl
ENDROOT
TORSDOF 0
ENDMDL
