MODEL 1
REMARK minimizedAffinity 8.31189823
REMARK minimizedRMSD -1
REMARK  0 active torsions:
REMARK  status: ('A' for Active; 'I' for Inactive)
ROOT
ATOM      1  C   UNL d   1       1.564   1.616   0.647  0.00  0.00     0.020 A 
ATOM      2  C1  UNL d   1       1.323   0.391   1.268  0.00  0.00     0.020 A 
ATOM      3  C2  UNL d   1       0.030   0.059   1.678  0.00  0.00     0.034 A 
ATOM      4  C3  UNL d   1      -1.027   0.953   1.467  0.00  0.00     0.017 A 
ATOM      5  C4  UNL d   1      -0.783   2.182   0.844  0.00  0.00     0.017 A 
ATOM      6  C5  UNL d   1       0.513   2.510   0.436  0.00  0.00     0.034 A 
ATOM      7 Cl   UNL d   1      -2.036   3.337   0.550  0.00  0.00    -0.070 Cl
ATOM      8 Cl1  UNL d   1      -2.600   0.477   2.000  0.00  0.00    -0.070 Cl
ENDROOT
TORSDOF 0
ENDMDL
