MODEL 1
REMARK minimizedAffinity 6.02487421
REMARK minimizedRMSD -1
REMARK  0 active torsions:
REMARK  status: ('A' for Active; 'I' for Inactive)
ROOT
ATOM      1  C   UNL d   1      -3.255  -1.700  -2.241  0.00  0.00     0.020 A 
ATOM      2  C1  UNL d   1      -2.085  -2.414  -2.498  0.00  0.00     0.020 A 
ATOM      3  C2  UNL d   1      -1.851  -3.628  -1.849  0.00  0.00     0.034 A 
ATOM      4  C3  UNL d   1      -2.788  -4.131  -0.938  0.00  0.00     0.017 A 
ATOM      5  C4  UNL d   1      -3.961  -3.413  -0.681  0.00  0.00     0.017 A 
ATOM      6  C5  UNL d   1      -4.191  -2.198  -1.334  0.00  0.00     0.034 A 
ATOM      7 Cl   UNL d   1      -5.164  -3.970   0.429  0.00  0.00    -0.070 Cl
ATOM      8 Cl1  UNL d   1      -2.434  -5.638  -0.172  0.00  0.00    -0.070 Cl
ENDROOT
TORSDOF 0
ENDMDL
