MODEL 1
REMARK minimizedAffinity 9.30798912
REMARK minimizedRMSD -1
REMARK  0 active torsions:
REMARK  status: ('A' for Active; 'I' for Inactive)
ROOT
ATOM      1  C   UNL d   1      -2.820  -1.545  -2.192  0.00  0.00     0.020 A 
ATOM      2  C1  UNL d   1      -3.194  -1.686  -0.856  0.00  0.00     0.020 A 
ATOM      3  C2  UNL d   1      -2.492  -2.560  -0.023  0.00  0.00     0.034 A 
ATOM      4  C3  UNL d   1      -1.412  -3.295  -0.525  0.00  0.00     0.017 A 
ATOM      5  C4  UNL d   1      -1.037  -3.152  -1.865  0.00  0.00     0.017 A 
ATOM      6  C5  UNL d   1      -1.743  -2.276  -2.695  0.00  0.00     0.034 A 
ATOM      7 Cl   UNL d   1       0.285  -4.026  -2.556  0.00  0.00    -0.070 Cl
ATOM      8 Cl1  UNL d   1      -0.589  -4.357   0.562  0.00  0.00    -0.070 Cl
ENDROOT
TORSDOF 0
ENDMDL
