MODEL 1
REMARK minimizedAffinity 4.23805618
REMARK minimizedRMSD -1
REMARK  0 active torsions:
REMARK  status: ('A' for Active; 'I' for Inactive)
ROOT
ATOM      1  C   UNL d   1       0.255   0.518   2.275  0.00  0.00     0.020 A 
ATOM      2  C1  UNL d   1       0.710   1.475   1.368  0.00  0.00     0.020 A 
ATOM      3  C2  UNL d   1      -0.137   2.506   0.957  0.00  0.00     0.034 A 
ATOM      4  C3  UNL d   1      -1.444   2.583   1.453  0.00  0.00     0.017 A 
ATOM      5  C4  UNL d   1      -1.900   1.622   2.363  0.00  0.00     0.017 A 
ATOM      6  C5  UNL d   1      -1.047   0.592   2.771  0.00  0.00     0.034 A 
ATOM      7 Cl   UNL d   1      -3.499   1.651   3.018  0.00  0.00    -0.070 Cl
ATOM      8 Cl1  UNL d   1      -2.437   3.885   0.901  0.00  0.00    -0.070 Cl
ENDROOT
TORSDOF 0
ENDMDL
