MODEL 1
REMARK minimizedAffinity 5.48578262
REMARK minimizedRMSD -1
REMARK  0 active torsions:
REMARK  status: ('A' for Active; 'I' for Inactive)
ROOT
ATOM      1  C   UNL d   1      -0.036   1.721   1.169  0.00  0.00     0.020 A 
ATOM      2  C1  UNL d   1      -0.764   2.884   1.416  0.00  0.00     0.020 A 
ATOM      3  C2  UNL d   1      -2.007   2.808   2.049  0.00  0.00     0.034 A 
ATOM      4  C3  UNL d   1      -2.525   1.567   2.436  0.00  0.00     0.017 A 
ATOM      5  C4  UNL d   1      -1.793   0.400   2.187  0.00  0.00     0.017 A 
ATOM      6  C5  UNL d   1      -0.549   0.482   1.553  0.00  0.00     0.034 A 
ATOM      7 Cl   UNL d   1      -2.367  -1.167   2.636  0.00  0.00    -0.070 Cl
ATOM      8 Cl1  UNL d   1      -4.068   1.548   3.214  0.00  0.00    -0.070 Cl
ENDROOT
TORSDOF 0
ENDMDL
