MODEL 1
REMARK minimizedAffinity 6.33692884
REMARK minimizedRMSD -1
REMARK  0 active torsions:
REMARK  status: ('A' for Active; 'I' for Inactive)
ROOT
ATOM      1  C   UNL d   1      -1.673   2.425   1.891  0.00  0.00     0.020 A 
ATOM      2  C1  UNL d   1      -1.694   1.046   2.097  0.00  0.00     0.020 A 
ATOM      3  C2  UNL d   1      -0.539   0.290   1.881  0.00  0.00     0.034 A 
ATOM      4  C3  UNL d   1       0.641   0.913   1.458  0.00  0.00     0.017 A 
ATOM      5  C4  UNL d   1       0.661   2.298   1.252  0.00  0.00     0.017 A 
ATOM      6  C5  UNL d   1      -0.498   3.049   1.470  0.00  0.00     0.034 A 
ATOM      7 Cl   UNL d   1       2.079   3.137   0.731  0.00  0.00    -0.070 Cl
ATOM      8 Cl1  UNL d   1       2.031  -0.082   1.211  0.00  0.00    -0.070 Cl
ENDROOT
TORSDOF 0
ENDMDL
