MODEL 1
REMARK minimizedAffinity 5.07924986
REMARK minimizedRMSD -1
REMARK  0 active torsions:
REMARK  status: ('A' for Active; 'I' for Inactive)
ROOT
ATOM      1  C   UNL d   1       0.748   1.466   1.057  0.00  0.00     0.020 A 
ATOM      2  C1  UNL d   1       0.005   2.642   1.148  0.00  0.00     0.020 A 
ATOM      3  C2  UNL d   1      -1.261   2.624   1.736  0.00  0.00     0.034 A 
ATOM      4  C3  UNL d   1      -1.788   1.428   2.236  0.00  0.00     0.017 A 
ATOM      5  C4  UNL d   1      -1.042   0.248   2.145  0.00  0.00     0.017 A 
ATOM      6  C5  UNL d   1       0.226   0.271   1.555  0.00  0.00     0.034 A 
ATOM      7 Cl   UNL d   1      -1.625  -1.267   2.739  0.00  0.00    -0.070 Cl
ATOM      8 Cl1  UNL d   1      -3.360   1.480   2.951  0.00  0.00    -0.070 Cl
ENDROOT
TORSDOF 0
ENDMDL
