MODEL 1
REMARK minimizedAffinity 3.36745644
REMARK minimizedRMSD -1
REMARK  0 active torsions:
REMARK  status: ('A' for Active; 'I' for Inactive)
ROOT
ATOM      1  C   UNL d   1      -3.287  -3.648   0.039  0.00  0.00     0.020 A 
ATOM      2  C1  UNL d   1      -2.879  -4.552  -0.941  0.00  0.00     0.020 A 
ATOM      3  C2  UNL d   1      -2.757  -4.135  -2.268  0.00  0.00     0.034 A 
ATOM      4  C3  UNL d   1      -3.044  -2.810  -2.619  0.00  0.00     0.017 A 
ATOM      5  C4  UNL d   1      -3.453  -1.904  -1.634  0.00  0.00     0.017 A 
ATOM      6  C5  UNL d   1      -3.573  -2.327  -0.307  0.00  0.00     0.034 A 
ATOM      7 Cl   UNL d   1      -3.823  -0.253  -1.990  0.00  0.00    -0.070 Cl
ATOM      8 Cl1  UNL d   1      -2.871  -2.363  -4.279  0.00  0.00    -0.070 Cl
ENDROOT
TORSDOF 0
ENDMDL
