MODEL 1
REMARK minimizedAffinity 11.5909081
REMARK minimizedRMSD -1
REMARK  0 active torsions:
REMARK  status: ('A' for Active; 'I' for Inactive)
ROOT
ATOM      1  C   UNL d   1       4.603   4.992  -6.000  0.00  0.00     0.020 A 
ATOM      2  C1  UNL d   1       5.494   5.698  -5.192  0.00  0.00     0.020 A 
ATOM      3  C2  UNL d   1       5.152   5.997  -3.872  0.00  0.00     0.034 A 
ATOM      4  C3  UNL d   1       3.916   5.590  -3.355  0.00  0.00     0.017 A 
ATOM      5  C4  UNL d   1       3.023   4.881  -4.166  0.00  0.00     0.017 A 
ATOM      6  C5  UNL d   1       3.371   4.584  -5.488  0.00  0.00     0.034 A 
ATOM      7 Cl   UNL d   1       1.481   4.345  -3.599  0.00  0.00    -0.070 Cl
ATOM      8 Cl1  UNL d   1       3.560   5.994  -1.713  0.00  0.00    -0.070 Cl
ENDROOT
TORSDOF 0
ENDMDL
