MODEL 1
REMARK minimizedAffinity -0.975071013
REMARK minimizedRMSD -1
REMARK  0 active torsions:
REMARK  status: ('A' for Active; 'I' for Inactive)
ROOT
ATOM      1  C   UNL d   1      -1.661  -0.621   2.591  0.00  0.00     0.020 A 
ATOM      2  C1  UNL d   1      -0.976  -1.454   3.475  0.00  0.00     0.020 A 
ATOM      3  C2  UNL d   1       0.403  -1.313   3.641  0.00  0.00     0.034 A 
ATOM      4  C3  UNL d   1       1.102  -0.336   2.923  0.00  0.00     0.017 A 
ATOM      5  C4  UNL d   1       0.414   0.500   2.036  0.00  0.00     0.017 A 
ATOM      6  C5  UNL d   1      -0.967   0.354   1.874  0.00  0.00     0.034 A 
ATOM      7 Cl   UNL d   1       1.209   1.728   1.115  0.00  0.00    -0.070 Cl
ATOM      8 Cl1  UNL d   1       2.807  -0.218   3.178  0.00  0.00    -0.070 Cl
ENDROOT
TORSDOF 0
ENDMDL
