MODEL 1
REMARK minimizedAffinity -2.22711325
REMARK minimizedRMSD -1
REMARK  0 active torsions:
REMARK  status: ('A' for Active; 'I' for Inactive)
ROOT
ATOM      1  C2' OXE d   1      -2.198  -0.959  -1.048  0.00  0.00     0.078 C 
ATOM      2  C1' OXE d   1      -1.311  -2.484   1.136  0.00  0.00     0.078 C 
ATOM      3  C1  OXE d   1      -0.373  -1.444   0.577  0.00  0.00    -0.078 A 
ATOM      4  C2  OXE d   1      -0.797  -0.734  -0.521  0.00  0.00    -0.078 A 
ATOM      5  C3  OXE d   1       0.007   0.275  -1.043  0.00  0.00     0.003 A 
ATOM      6  C4  OXE d   1       1.305   0.470  -0.556  0.00  0.00    -0.002 A 
ATOM      7  C5  OXE d   1       1.772  -0.269   0.537  0.00  0.00    -0.002 A 
ATOM      8  C6  OXE d   1       0.931  -1.198   1.140  0.00  0.00     0.003 A 
ENDROOT
TORSDOF 0
ENDMDL
