MODEL 1
REMARK minimizedAffinity 0.600243866
REMARK minimizedRMSD -1
REMARK  0 active torsions:
REMARK  status: ('A' for Active; 'I' for Inactive)
ROOT
ATOM      1  C2' OXE d   1       1.478  -0.778   0.443  0.00  0.00     0.078 C 
ATOM      2  C1' OXE d   1       0.991   1.986   0.400  0.00  0.00     0.078 C 
ATOM      3  C1  OXE d   1      -0.007   1.086  -0.284  0.00  0.00    -0.078 A 
ATOM      4  C2  OXE d   1       0.264  -0.261  -0.298  0.00  0.00    -0.078 A 
ATOM      5  C3  OXE d   1      -0.651  -1.142  -0.868  0.00  0.00     0.003 A 
ATOM      6  C4  OXE d   1      -1.767  -0.655  -1.561  0.00  0.00    -0.002 A 
ATOM      7  C5  OXE d   1      -2.040   0.716  -1.592  0.00  0.00    -0.002 A 
ATOM      8  C6  OXE d   1      -1.194   1.595  -0.924  0.00  0.00     0.003 A 
ENDROOT
TORSDOF 0
ENDMDL
