MODEL 1
REMARK minimizedAffinity -2.59385538
REMARK minimizedRMSD -1
REMARK  0 active torsions:
REMARK  status: ('A' for Active; 'I' for Inactive)
ROOT
ATOM      1  C2' OXE d   1       3.993   1.454   1.180  0.00  0.00     0.078 C 
ATOM      2  C1' OXE d   1       1.874   3.294   1.254  0.00  0.00     0.078 C 
ATOM      3  C1  OXE d   1       1.576   1.896   0.771  0.00  0.00    -0.078 A 
ATOM      4  C2  OXE d   1       2.628   1.016   0.694  0.00  0.00    -0.078 A 
ATOM      5  C3  OXE d   1       2.398  -0.301   0.308  0.00  0.00     0.003 A 
ATOM      6  C4  OXE d   1       1.135  -0.696  -0.150  0.00  0.00    -0.002 A 
ATOM      7  C5  OXE d   1       0.058   0.196  -0.117  0.00  0.00    -0.002 A 
ATOM      8  C6  OXE d   1       0.252   1.481   0.379  0.00  0.00     0.003 A 
ENDROOT
TORSDOF 0
ENDMDL
