MODEL 1
REMARK minimizedAffinity -3.22983742
REMARK minimizedRMSD -1
REMARK  0 active torsions:
REMARK  status: ('A' for Active; 'I' for Inactive)
ROOT
ATOM      1  C2' OXE d   1      -1.029  -2.404   1.089  0.00  0.00     0.078 C 
ATOM      2  C1' OXE d   1      -2.330  -1.205  -1.091  0.00  0.00     0.078 C 
ATOM      3  C1  OXE d   1      -0.994  -0.644  -0.674  0.00  0.00    -0.078 A 
ATOM      4  C2  OXE d   1      -0.386  -1.206   0.423  0.00  0.00    -0.078 A 
ATOM      5  C3  OXE d   1       0.873  -0.763   0.817  0.00  0.00     0.003 A 
ATOM      6  C4  OXE d   1       1.457   0.351   0.202  0.00  0.00    -0.002 A 
ATOM      7  C5  OXE d   1       0.836   0.965  -0.892  0.00  0.00    -0.002 A 
ATOM      8  C6  OXE d   1      -0.366   0.454  -1.368  0.00  0.00     0.003 A 
ENDROOT
TORSDOF 0
ENDMDL
