MODEL 1
REMARK minimizedAffinity -2.14811611
REMARK minimizedRMSD -1
REMARK  0 active torsions:
REMARK  status: ('A' for Active; 'I' for Inactive)
ROOT
ATOM      1  C2' OXE d   1       3.744   1.463   1.619  0.00  0.00     0.078 C 
ATOM      2  C1' OXE d   1       1.832   3.473   1.186  0.00  0.00     0.078 C 
ATOM      3  C1  OXE d   1       1.502   2.076   0.724  0.00  0.00    -0.078 A 
ATOM      4  C2  OXE d   1       2.462   1.108   0.898  0.00  0.00    -0.078 A 
ATOM      5  C3  OXE d   1       2.187  -0.208   0.539  0.00  0.00     0.003 A 
ATOM      6  C4  OXE d   1       1.003  -0.526  -0.137  0.00  0.00    -0.002 A 
ATOM      7  C5  OXE d   1       0.028   0.452  -0.360  0.00  0.00    -0.002 A 
ATOM      8  C6  OXE d   1       0.243   1.746   0.101  0.00  0.00     0.003 A 
ENDROOT
TORSDOF 0
ENDMDL
