MODEL 1
REMARK minimizedAffinity 0.918140113
REMARK minimizedRMSD -1
REMARK  0 active torsions:
REMARK  status: ('A' for Active; 'I' for Inactive)
ROOT
ATOM      1  C2' OXE d   1       0.586   0.320   0.153  0.00  0.00     0.078 C 
ATOM      2  C1' OXE d   1      -1.512   0.383  -1.711  0.00  0.00     0.078 C 
ATOM      3  C1  OXE d   1      -1.526  -0.711  -0.673  0.00  0.00    -0.078 A 
ATOM      4  C2  OXE d   1      -0.471  -0.762   0.206  0.00  0.00    -0.078 A 
ATOM      5  C3  OXE d   1      -0.463  -1.718   1.218  0.00  0.00     0.003 A 
ATOM      6  C4  OXE d   1      -1.440  -2.720   1.254  0.00  0.00    -0.002 A 
ATOM      7  C5  OXE d   1      -2.502  -2.710   0.343  0.00  0.00    -0.002 A 
ATOM      8  C6  OXE d   1      -2.582  -1.690  -0.598  0.00  0.00     0.003 A 
ENDROOT
TORSDOF 0
ENDMDL
