MODEL 1
REMARK minimizedAffinity -1.81702828
REMARK minimizedRMSD -1
REMARK  0 active torsions:
REMARK  status: ('A' for Active; 'I' for Inactive)
ROOT
ATOM      1  C2' OXE d   1       1.243   0.405  -0.370  0.00  0.00     0.078 C 
ATOM      2  C1' OXE d   1       3.664   1.687  -0.979  0.00  0.00     0.078 C 
ATOM      3  C1  OXE d   1       2.915   2.146   0.247  0.00  0.00    -0.078 A 
ATOM      4  C2  OXE d   1       1.708   1.544   0.512  0.00  0.00    -0.078 A 
ATOM      5  C3  OXE d   1       1.002   1.891   1.660  0.00  0.00     0.003 A 
ATOM      6  C4  OXE d   1       1.434   2.953   2.464  0.00  0.00    -0.002 A 
ATOM      7  C5  OXE d   1       2.640   3.605   2.191  0.00  0.00    -0.002 A 
ATOM      8  C6  OXE d   1       3.412   3.186   1.113  0.00  0.00     0.003 A 
ENDROOT
TORSDOF 0
ENDMDL
