MODEL 1
REMARK minimizedAffinity -3.56049871
REMARK minimizedRMSD -1
REMARK  0 active torsions:
REMARK  status: ('A' for Active; 'I' for Inactive)
ROOT
ATOM      1  C2' OXE d   1      -1.159   0.695  -1.806  0.00  0.00     0.078 C 
ATOM      2  C1' OXE d   1       0.618   0.298   0.331  0.00  0.00     0.078 C 
ATOM      3  C1  OXE d   1      -0.483  -0.714   0.135  0.00  0.00    -0.078 A 
ATOM      4  C2  OXE d   1      -1.376  -0.486  -0.885  0.00  0.00    -0.078 A 
ATOM      5  C3  OXE d   1      -2.379  -1.417  -1.144  0.00  0.00     0.003 A 
ATOM      6  C4  OXE d   1      -2.579  -2.501  -0.281  0.00  0.00    -0.002 A 
ATOM      7  C5  OXE d   1      -1.705  -2.730   0.787  0.00  0.00    -0.002 A 
ATOM      8  C6  OXE d   1      -0.629  -1.871   0.983  0.00  0.00     0.003 A 
ENDROOT
TORSDOF 0
ENDMDL
