MODEL 1
REMARK minimizedAffinity -1.17093813
REMARK minimizedRMSD -1
REMARK  0 active torsions:
REMARK  status: ('A' for Active; 'I' for Inactive)
ROOT
ATOM      1  C2' OXE d   1       1.525   0.477   0.137  0.00  0.00     0.078 C 
ATOM      2  C1' OXE d   1       0.739  -1.843   1.508  0.00  0.00     0.078 C 
ATOM      3  C1  OXE d   1      -0.126  -1.374   0.365  0.00  0.00    -0.078 A 
ATOM      4  C2  OXE d   1       0.240  -0.212  -0.270  0.00  0.00    -0.078 A 
ATOM      5  C3  OXE d   1      -0.492   0.236  -1.366  0.00  0.00     0.003 A 
ATOM      6  C4  OXE d   1      -1.685  -0.402  -1.730  0.00  0.00    -0.002 A 
ATOM      7  C5  OXE d   1      -2.098  -1.564  -1.070  0.00  0.00    -0.002 A 
ATOM      8  C6  OXE d   1      -1.309  -2.086  -0.051  0.00  0.00     0.003 A 
ENDROOT
TORSDOF 0
ENDMDL
