MODEL 1
REMARK minimizedAffinity -1.934587
REMARK minimizedRMSD -1
REMARK  0 active torsions:
REMARK  status: ('A' for Active; 'I' for Inactive)
ROOT
ATOM      1  C2' OXE d   1       1.742  -0.111   0.155  0.00  0.00     0.078 C 
ATOM      2  C1' OXE d   1      -0.358  -1.731   1.075  0.00  0.00     0.078 C 
ATOM      3  C1  OXE d   1      -0.642  -0.798  -0.076  0.00  0.00    -0.078 A 
ATOM      4  C2  OXE d   1       0.379   0.025  -0.489  0.00  0.00    -0.078 A 
ATOM      5  C3  OXE d   1       0.187   0.866  -1.581  0.00  0.00     0.003 A 
ATOM      6  C4  OXE d   1      -1.080   0.993  -2.164  0.00  0.00    -0.002 A 
ATOM      7  C5  OXE d   1      -2.143   0.193  -1.733  0.00  0.00    -0.002 A 
ATOM      8  C6  OXE d   1      -1.930  -0.736  -0.720  0.00  0.00     0.003 A 
ENDROOT
TORSDOF 0
ENDMDL
