MODEL 1
REMARK minimizedAffinity -1.69227374
REMARK minimizedRMSD -1
REMARK  0 active torsions:
REMARK  status: ('A' for Active; 'I' for Inactive)
ROOT
ATOM      1  C2' OXE d   1       0.887   0.982   0.352  0.00  0.00     0.078 C 
ATOM      2  C1' OXE d   1       0.513  -1.681   1.157  0.00  0.00     0.078 C 
ATOM      3  C1  OXE d   1      -0.509  -1.077   0.226  0.00  0.00    -0.078 A 
ATOM      4  C2  OXE d   1      -0.343   0.241  -0.125  0.00  0.00    -0.078 A 
ATOM      5  C3  OXE d   1      -1.226   0.831  -1.024  0.00  0.00     0.003 A 
ATOM      6  C4  OXE d   1      -2.367   0.142  -1.453  0.00  0.00    -0.002 A 
ATOM      7  C5  OXE d   1      -2.576  -1.189  -1.075  0.00  0.00    -0.002 A 
ATOM      8  C6  OXE d   1      -1.636  -1.825  -0.272  0.00  0.00     0.003 A 
ENDROOT
TORSDOF 0
ENDMDL
