MODEL 1
REMARK minimizedAffinity -0.773698866
REMARK minimizedRMSD -1
REMARK  0 active torsions:
REMARK  status: ('A' for Active; 'I' for Inactive)
ROOT
ATOM      1  C2' OXE d   1       1.846  -0.876   1.349  0.00  0.00     0.078 C 
ATOM      2  C1' OXE d   1       2.846   1.479   0.194  0.00  0.00     0.078 C 
ATOM      3  C1  OXE d   1       1.509   0.972  -0.286  0.00  0.00    -0.078 A 
ATOM      4  C2  OXE d   1       1.049  -0.206   0.251  0.00  0.00    -0.078 A 
ATOM      5  C3  OXE d   1      -0.204  -0.688  -0.117  0.00  0.00     0.003 A 
ATOM      6  C4  OXE d   1      -0.930  -0.068  -1.140  0.00  0.00    -0.002 A 
ATOM      7  C5  OXE d   1      -0.461   1.111  -1.729  0.00  0.00    -0.002 A 
ATOM      8  C6  OXE d   1       0.734   1.667  -1.285  0.00  0.00     0.003 A 
ENDROOT
TORSDOF 0
ENDMDL
