MODEL 1
REMARK minimizedAffinity -3.64717484
REMARK minimizedRMSD -1
REMARK  0 active torsions:
REMARK  status: ('A' for Active; 'I' for Inactive)
ROOT
ATOM      1  C2' OXE d   1       1.171  -0.076   0.674  0.00  0.00     0.078 C 
ATOM      2  C1' OXE d   1      -0.558   0.836  -1.340  0.00  0.00     0.078 C 
ATOM      3  C1  OXE d   1      -0.993  -0.357  -0.526  0.00  0.00    -0.078 A 
ATOM      4  C2  OXE d   1      -0.120  -0.825   0.426  0.00  0.00    -0.078 A 
ATOM      5  C3  OXE d   1      -0.495  -1.889   1.241  0.00  0.00     0.003 A 
ATOM      6  C4  OXE d   1      -1.687  -2.583   0.999  0.00  0.00    -0.002 A 
ATOM      7  C5  OXE d   1      -2.572  -2.147   0.007  0.00  0.00    -0.002 A 
ATOM      8  C6  OXE d   1      -2.261  -1.012  -0.734  0.00  0.00     0.003 A 
ENDROOT
TORSDOF 0
ENDMDL
