MODEL 1
REMARK minimizedAffinity -0.070629783
REMARK minimizedRMSD -1
REMARK  0 active torsions:
REMARK  status: ('A' for Active; 'I' for Inactive)
ROOT
ATOM      1  C2' OXE d   1       0.408  -1.990   1.278  0.00  0.00     0.078 C 
ATOM      2  C1' OXE d   1      -1.768  -3.378   0.174  0.00  0.00     0.078 C 
ATOM      3  C1  OXE d   1      -1.442  -2.018  -0.390  0.00  0.00    -0.078 A 
ATOM      4  C2  OXE d   1      -0.405  -1.325   0.188  0.00  0.00    -0.078 A 
ATOM      5  C3  OXE d   1      -0.028  -0.090  -0.329  0.00  0.00     0.003 A 
ATOM      6  C4  OXE d   1      -0.791   0.522  -1.331  0.00  0.00    -0.002 A 
ATOM      7  C5  OXE d   1      -1.876  -0.148  -1.906  0.00  0.00    -0.002 A 
ATOM      8  C6  OXE d   1      -2.188  -1.434  -1.477  0.00  0.00     0.003 A 
ENDROOT
TORSDOF 0
ENDMDL
