MODEL 1
REMARK minimizedAffinity -2.86714482
REMARK minimizedRMSD -1
REMARK  0 active torsions:
REMARK  status: ('A' for Active; 'I' for Inactive)
ROOT
ATOM      1  C2' OXE d   1       1.010   0.589  -0.066  0.00  0.00     0.078 C 
ATOM      2  C1' OXE d   1      -1.108   1.177  -1.811  0.00  0.00     0.078 C 
ATOM      3  C1  OXE d   1      -1.193  -0.095  -1.005  0.00  0.00    -0.078 A 
ATOM      4  C2  OXE d   1      -0.131  -0.398  -0.189  0.00  0.00    -0.078 A 
ATOM      5  C3  OXE d   1      -0.182  -1.531   0.618  0.00  0.00     0.003 A 
ATOM      6  C4  OXE d   1      -1.236  -2.444   0.491  0.00  0.00    -0.002 A 
ATOM      7  C5  OXE d   1      -2.310  -2.174  -0.364  0.00  0.00    -0.002 A 
ATOM      8  C6  OXE d   1      -2.324  -0.986  -1.086  0.00  0.00     0.003 A 
ENDROOT
TORSDOF 0
ENDMDL
