MODEL 1
REMARK minimizedAffinity -3.07848215
REMARK minimizedRMSD -1
REMARK  0 active torsions:
REMARK  status: ('A' for Active; 'I' for Inactive)
ROOT
ATOM      1  C2' OXE d   1      -0.381   1.227  -2.262  0.00  0.00     0.078 C 
ATOM      2  C1' OXE d   1      -2.111  -0.759  -1.292  0.00  0.00     0.078 C 
ATOM      3  C1  OXE d   1      -0.836  -0.502  -0.528  0.00  0.00    -0.078 A 
ATOM      4  C2  OXE d   1       0.027   0.439  -1.036  0.00  0.00    -0.078 A 
ATOM      5  C3  OXE d   1       1.191   0.753  -0.341  0.00  0.00     0.003 A 
ATOM      6  C4  OXE d   1       1.565   0.012   0.787  0.00  0.00    -0.002 A 
ATOM      7  C5  OXE d   1       0.719  -0.978   1.299  0.00  0.00    -0.002 A 
ATOM      8  C6  OXE d   1      -0.502  -1.218   0.679  0.00  0.00     0.003 A 
ENDROOT
TORSDOF 0
ENDMDL
