MODEL 1
REMARK minimizedAffinity -3.55149412
REMARK minimizedRMSD -1
REMARK  0 active torsions:
REMARK  status: ('A' for Active; 'I' for Inactive)
ROOT
ATOM      1  C2' OXE d   1       1.408  -0.379  -0.554  0.00  0.00     0.078 C 
ATOM      2  C1' OXE d   1      -0.879   1.198  -0.144  0.00  0.00     0.078 C 
ATOM      3  C1  OXE d   1       0.455   1.775   0.258  0.00  0.00    -0.078 A 
ATOM      4  C2  OXE d   1       1.563   0.979   0.097  0.00  0.00    -0.078 A 
ATOM      5  C3  OXE d   1       2.825   1.483   0.401  0.00  0.00     0.003 A 
ATOM      6  C4  OXE d   1       2.959   2.735   1.012  0.00  0.00    -0.002 A 
ATOM      7  C5  OXE d   1       1.839   3.547   1.222  0.00  0.00    -0.002 A 
ATOM      8  C6  OXE d   1       0.588   3.100   0.812  0.00  0.00     0.003 A 
ENDROOT
TORSDOF 0
ENDMDL
