MODEL 1
REMARK minimizedAffinity 0.334120423
REMARK minimizedRMSD -1
REMARK  0 active torsions:
REMARK  status: ('A' for Active; 'I' for Inactive)
ROOT
ATOM      1  C2' OXE d   1       1.444   0.785   0.180  0.00  0.00     0.078 C 
ATOM      2  C1' OXE d   1      -0.097   1.286  -2.112  0.00  0.00     0.078 C 
ATOM      3  C1  OXE d   1      -0.625   0.286  -1.114  0.00  0.00    -0.078 A 
ATOM      4  C2  OXE d   1       0.158   0.013  -0.018  0.00  0.00    -0.078 A 
ATOM      5  C3  OXE d   1      -0.307  -0.861   0.961  0.00  0.00     0.003 A 
ATOM      6  C4  OXE d   1      -1.493  -1.579   0.765  0.00  0.00    -0.002 A 
ATOM      7  C5  OXE d   1      -2.286  -1.345  -0.364  0.00  0.00    -0.002 A 
ATOM      8  C6  OXE d   1      -1.889  -0.387  -1.289  0.00  0.00     0.003 A 
ENDROOT
TORSDOF 0
ENDMDL
