MODEL 1
REMARK minimizedAffinity 14.7931805
REMARK minimizedRMSD -1
REMARK  1 active torsions:
REMARK  status: ('A' for Active; 'I' for Inactive)
REMARK    1  A    between atoms: C1_2  and  C2_3 
ROOT
ATOM      1  C2  UNL d   1      -2.469  -3.804  -2.762  0.00  0.00    -0.081 A 
ATOM      2  C3  UNL d   1      -2.638  -5.174  -2.999  0.00  0.00     0.006 A 
ATOM      3  C4  UNL d   1      -3.636  -5.890  -2.334  0.00  0.00     0.002 A 
ATOM      4  C5  UNL d   1      -4.487  -5.248  -1.428  0.00  0.00    -0.080 A 
ATOM      5  C6  UNL d   1      -5.582  -5.998  -0.731  0.00  0.00     0.076 C 
ATOM      6  C7  UNL d   1      -4.307  -3.883  -1.178  0.00  0.00     0.002 A 
ATOM      7  C8  UNL d   1      -3.309  -3.166  -1.842  0.00  0.00     0.006 A 
ENDROOT
BRANCH   1   8
ATOM      8  C1  UNL d   1      -1.436  -3.015  -3.525  0.00  0.00     0.054 C 
ATOM      9  C   UNL d   1      -0.113  -2.963  -2.773  0.00  0.00     0.018 C 
ENDBRANCH   1   8
TORSDOF 1
ENDMDL
