MODEL 1
REMARK minimizedAffinity -3.50669336
REMARK minimizedRMSD -1
REMARK  1 active torsions:
REMARK  status: ('A' for Active; 'I' for Inactive)
REMARK    1  A    between atoms: C1_2  and  C2_3 
ROOT
ATOM      1  C2  UNL d   1       5.435  -2.087  -4.353  0.00  0.00    -0.081 A 
ATOM      2  C3  UNL d   1       4.601  -2.225  -5.469  0.00  0.00     0.006 A 
ATOM      3  C4  UNL d   1       4.330  -3.488  -6.000  0.00  0.00     0.002 A 
ATOM      4  C5  UNL d   1       4.881  -4.635  -5.418  0.00  0.00    -0.080 A 
ATOM      5  C6  UNL d   1       4.574  -6.000  -5.959  0.00  0.00     0.076 C 
ATOM      6  C7  UNL d   1       5.728  -4.497  -4.313  0.00  0.00     0.002 A 
ATOM      7  C8  UNL d   1       6.000  -3.233  -3.783  0.00  0.00     0.006 A 
ENDROOT
BRANCH   1   8
ATOM      8  C1  UNL d   1       5.677  -0.732  -3.739  0.00  0.00     0.054 C 
ATOM      9  C   UNL d   1       4.466  -0.258  -2.949  0.00  0.00     0.018 C 
ENDBRANCH   1   8
TORSDOF 1
ENDMDL
