MODEL 1
REMARK minimizedAffinity 8.74854374
REMARK minimizedRMSD -1
REMARK  1 active torsions:
REMARK  status: ('A' for Active; 'I' for Inactive)
REMARK    1  A    between atoms: C1_2  and  C2_3 
ROOT
ATOM      1  C2  UNL d   1       3.742  -5.256  -4.438  0.00  0.00    -0.081 A 
ATOM      2  C3  UNL d   1       3.219  -4.049  -4.917  0.00  0.00     0.006 A 
ATOM      3  C4  UNL d   1       1.977  -3.589  -4.473  0.00  0.00     0.002 A 
ATOM      4  C5  UNL d   1       1.241  -4.325  -3.538  0.00  0.00    -0.080 A 
ATOM      5  C6  UNL d   1      -0.080  -3.828  -3.030  0.00  0.00     0.076 C 
ATOM      6  C7  UNL d   1       1.755  -5.540  -3.072  0.00  0.00     0.002 A 
ATOM      7  C8  UNL d   1       2.997  -6.000  -3.516  0.00  0.00     0.006 A 
ENDROOT
BRANCH   1   8
ATOM      8  C1  UNL d   1       5.111  -5.722  -4.865  0.00  0.00     0.054 C 
ATOM      9  C   UNL d   1       6.000  -4.548  -5.249  0.00  0.00     0.018 C 
ENDBRANCH   1   8
TORSDOF 1
ENDMDL
