MODEL 1
REMARK minimizedAffinity 6.5831151
REMARK minimizedRMSD -1
REMARK  1 active torsions:
REMARK  status: ('A' for Active; 'I' for Inactive)
REMARK    1  A    between atoms: C1_2  and  C2_3 
ROOT
ATOM      1  C2  UNL d   1      -0.193   3.322  -3.004  0.00  0.00    -0.081 A 
ATOM      2  C3  UNL d   1       0.418   4.581  -2.940  0.00  0.00     0.006 A 
ATOM      3  C4  UNL d   1       1.372   4.855  -1.958  0.00  0.00     0.002 A 
ATOM      4  C5  UNL d   1       1.737   3.875  -1.029  0.00  0.00    -0.080 A 
ATOM      5  C6  UNL d   1       2.782   4.148   0.012  0.00  0.00     0.076 C 
ATOM      6  C7  UNL d   1       1.114   2.624  -1.082  0.00  0.00     0.002 A 
ATOM      7  C8  UNL d   1       0.159   2.349  -2.063  0.00  0.00     0.006 A 
ENDROOT
BRANCH   1   8
ATOM      8  C1  UNL d   1      -1.175   3.002  -4.102  0.00  0.00     0.054 C 
ATOM      9  C   UNL d   1      -2.125   1.887  -3.687  0.00  0.00     0.018 C 
ENDBRANCH   1   8
TORSDOF 1
ENDMDL
