MODEL 1
REMARK minimizedAffinity 11.8384151
REMARK minimizedRMSD -1
REMARK  1 active torsions:
REMARK  status: ('A' for Active; 'I' for Inactive)
REMARK    1  A    between atoms: C1_2  and  C2_3 
ROOT
ATOM      1  C2  UNL d   1       1.423  -0.465   2.268  0.00  0.00    -0.081 A 
ATOM      2  C3  UNL d   1       1.901  -0.198   0.980  0.00  0.00     0.006 A 
ATOM      3  C4  UNL d   1       3.242   0.135   0.777  0.00  0.00     0.002 A 
ATOM      4  C5  UNL d   1       4.129   0.199   1.857  0.00  0.00    -0.080 A 
ATOM      5  C6  UNL d   1       5.578   0.527   1.650  0.00  0.00     0.076 C 
ATOM      6  C7  UNL d   1       3.647  -0.050   3.147  0.00  0.00     0.002 A 
ATOM      7  C8  UNL d   1       2.306  -0.383   3.350  0.00  0.00     0.006 A 
ENDROOT
BRANCH   1   8
ATOM      8  C1  UNL d   1      -0.008  -0.889   2.483  0.00  0.00     0.054 C 
ATOM      9  C   UNL d   1      -0.318  -2.184   1.746  0.00  0.00     0.018 C 
ENDBRANCH   1   8
TORSDOF 1
ENDMDL
