MODEL 1
REMARK minimizedAffinity -0.659704804
REMARK minimizedRMSD -1
REMARK  1 active torsions:
REMARK  status: ('A' for Active; 'I' for Inactive)
REMARK    1  A    between atoms: C1_2  and  C2_3 
ROOT
ATOM      1  C2  UNL d   1      -0.575  -2.289   0.476  0.00  0.00    -0.081 A 
ATOM      2  C3  UNL d   1       0.554  -3.081   0.230  0.00  0.00     0.006 A 
ATOM      3  C4  UNL d   1       1.822  -2.500   0.146  0.00  0.00     0.002 A 
ATOM      4  C5  UNL d   1       1.983  -1.121   0.314  0.00  0.00    -0.080 A 
ATOM      5  C6  UNL d   1       3.342  -0.489   0.256  0.00  0.00     0.076 C 
ATOM      6  C7  UNL d   1       0.854  -0.327   0.542  0.00  0.00     0.002 A 
ATOM      7  C8  UNL d   1      -0.414  -0.907   0.625  0.00  0.00     0.006 A 
ENDROOT
BRANCH   1   8
ATOM      8  C1  UNL d   1      -1.935  -2.920   0.631  0.00  0.00     0.054 C 
ATOM      9  C   UNL d   1      -2.755  -2.787  -0.643  0.00  0.00     0.018 C 
ENDBRANCH   1   8
TORSDOF 1
ENDMDL
