MODEL 1
REMARK minimizedAffinity 2.27880406
REMARK minimizedRMSD -1
REMARK  1 active torsions:
REMARK  status: ('A' for Active; 'I' for Inactive)
REMARK    1  A    between atoms: C1_2  and  C2_3 
ROOT
ATOM      1  C2  UNL d   1       0.286  -1.004   0.109  0.00  0.00    -0.081 A 
ATOM      2  C3  UNL d   1       0.869  -0.535  -1.075  0.00  0.00     0.006 A 
ATOM      3  C4  UNL d   1       0.399   0.632  -1.681  0.00  0.00     0.002 A 
ATOM      4  C5  UNL d   1      -0.655   1.354  -1.111  0.00  0.00    -0.080 A 
ATOM      5  C6  UNL d   1      -1.149   2.625  -1.736  0.00  0.00     0.076 C 
ATOM      6  C7  UNL d   1      -1.249   0.876   0.062  0.00  0.00     0.002 A 
ATOM      7  C8  UNL d   1      -0.780  -0.291   0.669  0.00  0.00     0.006 A 
ENDROOT
BRANCH   1   8
ATOM      8  C1  UNL d   1       0.833  -2.226   0.801  0.00  0.00     0.054 C 
ATOM      9  C   UNL d   1       0.246  -2.381   2.196  0.00  0.00     0.018 C 
ENDBRANCH   1   8
TORSDOF 1
ENDMDL
