MODEL 1
REMARK minimizedAffinity 7.33003283
REMARK minimizedRMSD -1
REMARK  1 active torsions:
REMARK  status: ('A' for Active; 'I' for Inactive)
REMARK    1  A    between atoms: C1_2  and  C2_3 
ROOT
ATOM      1  C2  UNL d   1      -5.051  -5.397  -2.677  0.00  0.00    -0.081 A 
ATOM      2  C3  UNL d   1      -5.572  -5.990  -1.520  0.00  0.00     0.006 A 
ATOM      3  C4  UNL d   1      -5.344  -5.417  -0.267  0.00  0.00     0.002 A 
ATOM      4  C5  UNL d   1      -4.599  -4.239  -0.150  0.00  0.00    -0.080 A 
ATOM      5  C6  UNL d   1      -4.372  -3.596   1.186  0.00  0.00     0.076 C 
ATOM      6  C7  UNL d   1      -4.063  -3.656  -1.304  0.00  0.00     0.002 A 
ATOM      7  C8  UNL d   1      -4.291  -4.229  -2.557  0.00  0.00     0.006 A 
ENDROOT
BRANCH   1   8
ATOM      8  C1  UNL d   1      -5.350  -5.977  -4.036  0.00  0.00     0.054 C 
ATOM      9  C   UNL d   1      -4.157  -5.840  -4.971  0.00  0.00     0.018 C 
ENDBRANCH   1   8
TORSDOF 1
ENDMDL
