MODEL 1
REMARK minimizedAffinity -0.41459617
REMARK minimizedRMSD -1
REMARK  1 active torsions:
REMARK  status: ('A' for Active; 'I' for Inactive)
REMARK    1  A    between atoms: C1_2  and  C2_3 
ROOT
ATOM      1  C2  UNL d   1       0.976   2.703  -0.733  0.00  0.00    -0.081 A 
ATOM      2  C3  UNL d   1      -0.336   2.465  -0.304  0.00  0.00     0.006 A 
ATOM      3  C4  UNL d   1      -0.704   1.210   0.186  0.00  0.00     0.002 A 
ATOM      4  C5  UNL d   1       0.235   0.175   0.263  0.00  0.00    -0.080 A 
ATOM      5  C6  UNL d   1      -0.140  -1.168   0.815  0.00  0.00     0.076 C 
ATOM      6  C7  UNL d   1       1.541   0.408  -0.182  0.00  0.00     0.002 A 
ATOM      7  C8  UNL d   1       1.909   1.662  -0.673  0.00  0.00     0.006 A 
ENDROOT
BRANCH   1   8
ATOM      8  C1  UNL d   1       1.392   4.074  -1.201  0.00  0.00     0.054 C 
ATOM      9  C   UNL d   1       0.631   4.486  -2.453  0.00  0.00     0.018 C 
ENDBRANCH   1   8
TORSDOF 1
ENDMDL
