MODEL 1
REMARK minimizedAffinity 11.4070292
REMARK minimizedRMSD -1
REMARK  1 active torsions:
REMARK  status: ('A' for Active; 'I' for Inactive)
REMARK    1  A    between atoms: C1_2  and  C2_3 
ROOT
ATOM      1  C2  UNL d   1       1.976  -0.244   0.707  0.00  0.00    -0.081 A 
ATOM      2  C3  UNL d   1       1.512   0.877   0.010  0.00  0.00     0.006 A 
ATOM      3  C4  UNL d   1       0.185   1.294   0.141  0.00  0.00     0.002 A 
ATOM      4  C5  UNL d   1      -0.697   0.601   0.977  0.00  0.00    -0.080 A 
ATOM      5  C6  UNL d   1      -2.116   1.055   1.150  0.00  0.00     0.076 C 
ATOM      6  C7  UNL d   1      -0.238  -0.530   1.661  0.00  0.00     0.002 A 
ATOM      7  C8  UNL d   1       1.089  -0.947   1.529  0.00  0.00     0.006 A 
ENDROOT
BRANCH   1   8
ATOM      8  C1  UNL d   1       3.423  -0.657   0.619  0.00  0.00     0.054 C 
ATOM      9  C   UNL d   1       4.210  -0.179   1.830  0.00  0.00     0.018 C 
ENDBRANCH   1   8
TORSDOF 1
ENDMDL
