MODEL 1
REMARK minimizedAffinity 1.81263375
REMARK minimizedRMSD -1
REMARK  1 active torsions:
REMARK  status: ('A' for Active; 'I' for Inactive)
REMARK    1  A    between atoms: C1_2  and  C2_3 
ROOT
ATOM      1  C2  UNL d   1      -4.034  -4.709   0.587  0.00  0.00    -0.081 A 
ATOM      2  C3  UNL d   1      -4.529  -5.905   0.055  0.00  0.00     0.006 A 
ATOM      3  C4  UNL d   1      -4.849  -5.999  -1.302  0.00  0.00     0.002 A 
ATOM      4  C5  UNL d   1      -4.671  -4.900  -2.150  0.00  0.00    -0.080 A 
ATOM      5  C6  UNL d   1      -4.982  -4.996  -3.614  0.00  0.00     0.076 C 
ATOM      6  C7  UNL d   1      -4.193  -3.699  -1.615  0.00  0.00     0.002 A 
ATOM      7  C8  UNL d   1      -3.873  -3.605  -0.259  0.00  0.00     0.006 A 
ENDROOT
BRANCH   1   8
ATOM      8  C1  UNL d   1      -3.627  -4.624   2.036  0.00  0.00     0.054 C 
ATOM      9  C   UNL d   1      -3.614  -6.000   2.688  0.00  0.00     0.018 C 
ENDBRANCH   1   8
TORSDOF 1
ENDMDL
