MODEL 1
REMARK minimizedAffinity 10.7515659
REMARK minimizedRMSD -1
REMARK  1 active torsions:
REMARK  status: ('A' for Active; 'I' for Inactive)
REMARK    1  A    between atoms: C1_2  and  C2_3 
ROOT
ATOM      1  C2  UNL d   1       0.544   3.319  -4.950  0.00  0.00    -0.081 A 
ATOM      2  C3  UNL d   1       0.231   2.059  -4.423  0.00  0.00     0.006 A 
ATOM      3  C4  UNL d   1      -0.802   1.917  -3.494  0.00  0.00     0.002 A 
ATOM      4  C5  UNL d   1      -1.545   3.029  -3.083  0.00  0.00    -0.080 A 
ATOM      5  C6  UNL d   1      -2.677   2.885  -2.109  0.00  0.00     0.076 C 
ATOM      6  C7  UNL d   1      -1.222   4.289  -3.596  0.00  0.00     0.002 A 
ATOM      7  C8  UNL d   1      -0.188   4.433  -4.524  0.00  0.00     0.006 A 
ENDROOT
BRANCH   1   8
ATOM      8  C1  UNL d   1       1.615   3.466  -6.000  0.00  0.00     0.054 C 
ATOM      9  C   UNL d   1       2.749   4.357  -5.513  0.00  0.00     0.018 C 
ENDBRANCH   1   8
TORSDOF 1
ENDMDL
