MODEL 1
REMARK minimizedAffinity -3.81968427
REMARK minimizedRMSD -1
REMARK  0 active torsions:
REMARK  status: ('A' for Active; 'I' for Inactive)
ROOT
ATOM      1  C   UNL d   1       0.356  -0.096  -1.774  0.00  0.00     0.023 A 
ATOM      2  C1  UNL d   1      -0.481   1.001  -1.567  0.00  0.00     0.003 A 
ATOM      3  C2  UNL d   1      -0.971   1.276  -0.289  0.00  0.00     0.048 A 
ATOM      4  C3  UNL d   1      -0.619   0.450   0.779  0.00  0.00     0.023 A 
ATOM      5  C4  UNL d   1       0.218  -0.648   0.577  0.00  0.00     0.048 A 
ATOM      6  C5  UNL d   1       0.705  -0.920  -0.703  0.00  0.00     0.003 A 
ATOM      7  I   UNL d   1      -1.347   0.858   2.683  0.00  0.00    -0.146 I 
ENDROOT
TORSDOF 0
ENDMDL
