MODEL 1
REMARK minimizedAffinity -5.23657465
REMARK minimizedRMSD -1
REMARK  0 active torsions:
REMARK  status: ('A' for Active; 'I' for Inactive)
ROOT
ATOM      1  C   UNL d   1      -0.563   1.178   3.415  0.00  0.00     0.023 A 
ATOM      2  C1  UNL d   1       0.723   0.723   3.123  0.00  0.00     0.003 A 
ATOM      3  C2  UNL d   1       1.036   0.293   1.832  0.00  0.00     0.048 A 
ATOM      4  C3  UNL d   1       0.059   0.322   0.838  0.00  0.00     0.023 A 
ATOM      5  C4  UNL d   1      -1.229   0.777   1.125  0.00  0.00     0.048 A 
ATOM      6  C5  UNL d   1      -1.538   1.205   2.417  0.00  0.00     0.003 A 
ATOM      7  I   UNL d   1       0.523  -0.318  -1.085  0.00  0.00    -0.146 I 
ENDROOT
TORSDOF 0
ENDMDL
