MODEL 1
REMARK minimizedAffinity -0.579747677
REMARK minimizedRMSD -1
REMARK  0 active torsions:
REMARK  status: ('A' for Active; 'I' for Inactive)
ROOT
ATOM      1  C   UNL d   1      -0.857  -0.186   0.559  0.00  0.00     0.023 A 
ATOM      2  C1  UNL d   1      -0.570   1.160   0.328  0.00  0.00     0.003 A 
ATOM      3  C2  UNL d   1       0.069   1.547  -0.852  0.00  0.00     0.048 A 
ATOM      4  C3  UNL d   1       0.417   0.583  -1.797  0.00  0.00     0.023 A 
ATOM      5  C4  UNL d   1       0.132  -0.765  -1.572  0.00  0.00     0.048 A 
ATOM      6  C5  UNL d   1      -0.506  -1.147  -0.390  0.00  0.00     0.003 A 
ATOM      7  I   UNL d   1       1.368   1.156  -3.555  0.00  0.00    -0.146 I 
ENDROOT
TORSDOF 0
ENDMDL
