MODEL 1
REMARK minimizedAffinity -3.15580678
REMARK minimizedRMSD -1
REMARK  0 active torsions:
REMARK  status: ('A' for Active; 'I' for Inactive)
ROOT
ATOM      1  C   UNL d   1      -0.874  -0.084   0.573  0.00  0.00     0.023 A 
ATOM      2  C1  UNL d   1      -0.982   1.109  -0.142  0.00  0.00     0.003 A 
ATOM      3  C2  UNL d   1      -0.372   1.234  -1.392  0.00  0.00     0.048 A 
ATOM      4  C3  UNL d   1       0.344   0.161  -1.922  0.00  0.00     0.023 A 
ATOM      5  C4  UNL d   1       0.454  -1.035  -1.211  0.00  0.00     0.048 A 
ATOM      6  C5  UNL d   1      -0.157  -1.155   0.039  0.00  0.00     0.003 A 
ATOM      7  I   UNL d   1       1.252   0.343  -3.782  0.00  0.00    -0.146 I 
ENDROOT
TORSDOF 0
ENDMDL
