MODEL 1
REMARK minimizedAffinity -3.90841675
REMARK minimizedRMSD -1
REMARK  0 active torsions:
REMARK  status: ('A' for Active; 'I' for Inactive)
ROOT
ATOM      1  C   UNL d   1      -1.136   1.447   3.068  0.00  0.00     0.023 A 
ATOM      2  C1  UNL d   1       0.214   1.619   2.762  0.00  0.00     0.003 A 
ATOM      3  C2  UNL d   1       0.740   1.079   1.587  0.00  0.00     0.048 A 
ATOM      4  C3  UNL d   1      -0.091   0.369   0.721  0.00  0.00     0.023 A 
ATOM      5  C4  UNL d   1      -1.443   0.195   1.022  0.00  0.00     0.048 A 
ATOM      6  C5  UNL d   1      -1.963   0.736   2.199  0.00  0.00     0.003 A 
ATOM      7  I   UNL d   1       0.688  -0.436  -1.030  0.00  0.00    -0.146 I 
ENDROOT
TORSDOF 0
ENDMDL
