MODEL 1
REMARK minimizedAffinity -2.71891928
REMARK minimizedRMSD -1
REMARK  0 active torsions:
REMARK  status: ('A' for Active; 'I' for Inactive)
ROOT
ATOM      1  C   UNL d   1      -0.995   0.238   0.904  0.00  0.00     0.023 A 
ATOM      2  C1  UNL d   1      -1.069   1.499   0.312  0.00  0.00     0.003 A 
ATOM      3  C2  UNL d   1      -0.590   1.692  -0.985  0.00  0.00     0.048 A 
ATOM      4  C3  UNL d   1      -0.038   0.620  -1.685  0.00  0.00     0.023 A 
ATOM      5  C4  UNL d   1       0.037  -0.644  -1.096  0.00  0.00     0.048 A 
ATOM      6  C5  UNL d   1      -0.443  -0.832   0.201  0.00  0.00     0.003 A 
ATOM      7  I   UNL d   1       0.677   0.904  -3.615  0.00  0.00    -0.146 I 
ENDROOT
TORSDOF 0
ENDMDL
