MODEL 1
REMARK minimizedAffinity -1.45319998
REMARK minimizedRMSD -1
REMARK  0 active torsions:
REMARK  status: ('A' for Active; 'I' for Inactive)
ROOT
ATOM      1  C   UNL d   1       1.227   0.593  -4.886  0.00  0.00     0.023 A 
ATOM      2  C1  UNL d   1       0.767  -0.696  -4.616  0.00  0.00     0.003 A 
ATOM      3  C2  UNL d   1       0.523  -1.090  -3.299  0.00  0.00     0.048 A 
ATOM      4  C3  UNL d   1       0.741  -0.189  -2.256  0.00  0.00     0.023 A 
ATOM      5  C4  UNL d   1       1.200   1.102  -2.522  0.00  0.00     0.048 A 
ATOM      6  C5  UNL d   1       1.443   1.491  -3.841  0.00  0.00     0.003 A 
ATOM      7  I   UNL d   1       0.378  -0.773  -0.295  0.00  0.00    -0.146 I 
ENDROOT
TORSDOF 0
ENDMDL
