MODEL 1
REMARK minimizedAffinity -2.22322845
REMARK minimizedRMSD -1
REMARK  0 active torsions:
REMARK  status: ('A' for Active; 'I' for Inactive)
ROOT
ATOM      1  C   UNL d   1      -0.362   0.147   2.922  0.00  0.00     0.023 A 
ATOM      2  C1  UNL d   1       0.869  -0.244   2.394  0.00  0.00     0.003 A 
ATOM      3  C2  UNL d   1       1.047  -0.313   1.011  0.00  0.00     0.048 A 
ATOM      4  C3  UNL d   1      -0.010   0.011   0.161  0.00  0.00     0.023 A 
ATOM      5  C4  UNL d   1      -1.243   0.403   0.684  0.00  0.00     0.048 A 
ATOM      6  C5  UNL d   1      -1.417   0.470   2.068  0.00  0.00     0.003 A 
ATOM      7  I   UNL d   1       0.253  -0.092  -1.898  0.00  0.00    -0.146 I 
ENDROOT
TORSDOF 0
ENDMDL
