MODEL 1
REMARK minimizedAffinity -0.59152621
REMARK minimizedRMSD -1
REMARK  0 active torsions:
REMARK  status: ('A' for Active; 'I' for Inactive)
ROOT
ATOM      1  C   UNL d   1      -0.460   0.002   0.595  0.00  0.00     0.023 A 
ATOM      2  C1  UNL d   1      -0.122   1.256   0.086  0.00  0.00     0.003 A 
ATOM      3  C2  UNL d   1       0.439   1.366  -1.188  0.00  0.00     0.048 A 
ATOM      4  C3  UNL d   1       0.659   0.217  -1.948  0.00  0.00     0.023 A 
ATOM      5  C4  UNL d   1       0.321  -1.039  -1.443  0.00  0.00     0.048 A 
ATOM      6  C5  UNL d   1      -0.239  -1.144  -0.169  0.00  0.00     0.003 A 
ATOM      7  I   UNL d   1       1.494   0.378  -3.845  0.00  0.00    -0.146 I 
ENDROOT
TORSDOF 0
ENDMDL
