MODEL 1
REMARK minimizedAffinity -1.73183393
REMARK minimizedRMSD -1
REMARK  0 active torsions:
REMARK  status: ('A' for Active; 'I' for Inactive)
ROOT
ATOM      1  C2' OXE d   1       0.266  -1.985  -1.195  0.00  0.00     0.078 C 
ATOM      2  C1' OXE d   1       1.585   0.465  -1.570  0.00  0.00     0.078 C 
ATOM      3  C1  OXE d   1       0.482   0.410  -0.542  0.00  0.00    -0.078 A 
ATOM      4  C2  OXE d   1      -0.189  -0.781  -0.399  0.00  0.00    -0.078 A 
ATOM      5  C3  OXE d   1      -1.178  -0.902   0.573  0.00  0.00     0.003 A 
ATOM      6  C4  OXE d   1      -1.600   0.219   1.298  0.00  0.00    -0.002 A 
ATOM      7  C5  OXE d   1      -0.957   1.451   1.139  0.00  0.00    -0.002 A 
ATOM      8  C6  OXE d   1       0.112   1.553   0.255  0.00  0.00     0.003 A 
ENDROOT
TORSDOF 0
ENDMDL
