MODEL 1
REMARK minimizedAffinity -1.94354975
REMARK minimizedRMSD -1
REMARK  0 active torsions:
REMARK  status: ('A' for Active; 'I' for Inactive)
ROOT
ATOM      1  C2' OXE d   1      -0.039   2.186  -1.184  0.00  0.00     0.078 C 
ATOM      2  C1' OXE d   1      -1.620   1.384   0.992  0.00  0.00     0.078 C 
ATOM      3  C1  OXE d   1      -0.748   0.344   0.335  0.00  0.00    -0.078 A 
ATOM      4  C2  OXE d   1      -0.013   0.734  -0.758  0.00  0.00    -0.078 A 
ATOM      5  C3  OXE d   1       0.851  -0.172  -1.367  0.00  0.00     0.003 A 
ATOM      6  C4  OXE d   1       0.861  -1.516  -0.974  0.00  0.00    -0.002 A 
ATOM      7  C5  OXE d   1       0.090  -1.943   0.112  0.00  0.00    -0.002 A 
ATOM      8  C6  OXE d   1      -0.686  -1.019   0.803  0.00  0.00     0.003 A 
ENDROOT
TORSDOF 0
ENDMDL
