MODEL 1
REMARK minimizedAffinity -2.95724106
REMARK minimizedRMSD -1
REMARK  0 active torsions:
REMARK  status: ('A' for Active; 'I' for Inactive)
ROOT
ATOM      1  C2' OXE d   1       0.675   1.736  -1.066  0.00  0.00     0.078 C 
ATOM      2  C1' OXE d   1       0.282  -0.979  -0.471  0.00  0.00     0.078 C 
ATOM      3  C1  OXE d   1      -0.506   0.035   0.320  0.00  0.00    -0.078 A 
ATOM      4  C2  OXE d   1      -0.273   1.363   0.054  0.00  0.00    -0.078 A 
ATOM      5  C3  OXE d   1      -1.012   2.338   0.717  0.00  0.00     0.003 A 
ATOM      6  C4  OXE d   1      -1.879   1.985   1.758  0.00  0.00    -0.002 A 
ATOM      7  C5  OXE d   1      -2.101   0.640   2.072  0.00  0.00    -0.002 A 
ATOM      8  C6  OXE d   1      -1.456  -0.347   1.335  0.00  0.00     0.003 A 
ENDROOT
TORSDOF 0
ENDMDL
