MODEL 1
REMARK minimizedAffinity -2.01029992
REMARK minimizedRMSD -1
REMARK  0 active torsions:
REMARK  status: ('A' for Active; 'I' for Inactive)
ROOT
ATOM      1  C2' OXE d   1      -0.746  -1.460   2.643  0.00  0.00     0.078 C 
ATOM      2  C1' OXE d   1      -1.639   1.179   2.303  0.00  0.00     0.078 C 
ATOM      3  C1  OXE d   1      -0.766   0.588   1.225  0.00  0.00    -0.078 A 
ATOM      4  C2  OXE d   1      -0.295  -0.688   1.422  0.00  0.00    -0.078 A 
ATOM      5  C3  OXE d   1       0.470  -1.301   0.433  0.00  0.00     0.003 A 
ATOM      6  C4  OXE d   1       0.890  -0.576  -0.688  0.00  0.00    -0.002 A 
ATOM      7  C5  OXE d   1       0.455   0.738  -0.889  0.00  0.00    -0.002 A 
ATOM      8  C6  OXE d   1      -0.406   1.319   0.035  0.00  0.00     0.003 A 
ENDROOT
TORSDOF 0
ENDMDL
