MODEL 1
REMARK minimizedAffinity -5.13857174
REMARK minimizedRMSD -1
REMARK  0 active torsions:
REMARK  status: ('A' for Active; 'I' for Inactive)
ROOT
ATOM      1  C2' OXE d   1      -1.100  -1.609   2.134  0.00  0.00     0.078 C 
ATOM      2  C1' OXE d   1      -0.089  -1.444  -0.479  0.00  0.00     0.078 C 
ATOM      3  C1  OXE d   1      -0.554  -0.168   0.177  0.00  0.00    -0.078 A 
ATOM      4  C2  OXE d   1      -1.091  -0.265   1.438  0.00  0.00    -0.078 A 
ATOM      5  C3  OXE d   1      -1.486   0.888   2.110  0.00  0.00     0.003 A 
ATOM      6  C4  OXE d   1      -1.483   2.126   1.456  0.00  0.00    -0.002 A 
ATOM      7  C5  OXE d   1      -0.977   2.241   0.156  0.00  0.00    -0.002 A 
ATOM      8  C6  OXE d   1      -0.471   1.113  -0.480  0.00  0.00     0.003 A 
ENDROOT
TORSDOF 0
ENDMDL
