MODEL 1
REMARK minimizedAffinity -4.15479755
REMARK minimizedRMSD -1
REMARK  0 active torsions:
REMARK  status: ('A' for Active; 'I' for Inactive)
ROOT
ATOM      1  C2' OXE d   1      -1.146  -1.304   1.277  0.00  0.00     0.078 C 
ATOM      2  C1' OXE d   1      -2.234   1.257   0.910  0.00  0.00     0.078 C 
ATOM      3  C1  OXE d   1      -0.948   0.931   0.194  0.00  0.00    -0.078 A 
ATOM      4  C2  OXE d   1      -0.398  -0.309   0.416  0.00  0.00    -0.078 A 
ATOM      5  C3  OXE d   1       0.759  -0.681  -0.262  0.00  0.00     0.003 A 
ATOM      6  C4  OXE d   1       1.450   0.248  -1.049  0.00  0.00    -0.002 A 
ATOM      7  C5  OXE d   1       0.929   1.529  -1.257  0.00  0.00    -0.002 A 
ATOM      8  C6  OXE d   1      -0.289   1.871  -0.678  0.00  0.00     0.003 A 
ENDROOT
TORSDOF 0
ENDMDL
