MODEL 1
REMARK minimizedAffinity -5.73023319
REMARK minimizedRMSD -1
REMARK  0 active torsions:
REMARK  status: ('A' for Active; 'I' for Inactive)
ROOT
ATOM      1  C2' OXE d   1      -0.034   2.369  -1.535  0.00  0.00     0.078 C 
ATOM      2  C1' OXE d   1       0.955  -0.201  -0.991  0.00  0.00     0.078 C 
ATOM      3  C1  OXE d   1      -0.040   0.389  -0.024  0.00  0.00    -0.078 A 
ATOM      4  C2  OXE d   1      -0.483   1.666  -0.273  0.00  0.00    -0.078 A 
ATOM      5  C3  OXE d   1      -1.443   2.237   0.558  0.00  0.00     0.003 A 
ATOM      6  C4  OXE d   1      -1.846   1.584   1.729  0.00  0.00    -0.002 A 
ATOM      7  C5  OXE d   1      -1.377   0.299   2.023  0.00  0.00    -0.002 A 
ATOM      8  C6  OXE d   1      -0.508  -0.328   1.137  0.00  0.00     0.003 A 
ENDROOT
TORSDOF 0
ENDMDL
