MODEL 1
REMARK minimizedAffinity -4.88450146
REMARK minimizedRMSD -1
REMARK  0 active torsions:
REMARK  status: ('A' for Active; 'I' for Inactive)
ROOT
ATOM      1  C2' OXE d   1       1.355   0.058  -0.899  0.00  0.00     0.078 C 
ATOM      2  C1' OXE d   1      -0.232   2.320  -1.396  0.00  0.00     0.078 C 
ATOM      3  C1  OXE d   1      -0.625   1.423  -0.248  0.00  0.00    -0.078 A 
ATOM      4  C2  OXE d   1       0.130   0.294  -0.041  0.00  0.00    -0.078 A 
ATOM      5  C3  OXE d   1      -0.155  -0.539   1.037  0.00  0.00     0.003 A 
ATOM      6  C4  OXE d   1      -1.296  -0.319   1.819  0.00  0.00    -0.002 A 
ATOM      7  C5  OXE d   1      -2.101   0.804   1.601  0.00  0.00    -0.002 A 
ATOM      8  C6  OXE d   1      -1.756   1.706   0.600  0.00  0.00     0.003 A 
ENDROOT
TORSDOF 0
ENDMDL
