MODEL 1
REMARK minimizedAffinity -3.77491641
REMARK minimizedRMSD -1
REMARK  0 active torsions:
REMARK  status: ('A' for Active; 'I' for Inactive)
ROOT
ATOM      1  C2' OXE d   1      -0.393  -1.099  -0.685  0.00  0.00     0.078 C 
ATOM      2  C1' OXE d   1       0.445  -0.832   1.980  0.00  0.00     0.078 C 
ATOM      3  C1  OXE d   1      -0.445   0.245   1.412  0.00  0.00    -0.078 A 
ATOM      4  C2  OXE d   1      -0.813   0.130   0.093  0.00  0.00    -0.078 A 
ATOM      5  C3  OXE d   1      -1.678   1.066  -0.466  0.00  0.00     0.003 A 
ATOM      6  C4  OXE d   1      -2.053   2.205   0.257  0.00  0.00    -0.002 A 
ATOM      7  C5  OXE d   1      -1.657   2.361   1.590  0.00  0.00    -0.002 A 
ATOM      8  C6  OXE d   1      -0.890   1.371   2.194  0.00  0.00     0.003 A 
ENDROOT
TORSDOF 0
ENDMDL
