MODEL 1
REMARK minimizedAffinity -3.74451756
REMARK minimizedRMSD -1
REMARK  0 active torsions:
REMARK  status: ('A' for Active; 'I' for Inactive)
ROOT
ATOM      1  C2' OXE d   1      -1.128  -0.245   2.626  0.00  0.00     0.078 C 
ATOM      2  C1' OXE d   1      -2.468   1.627   1.019  0.00  0.00     0.078 C 
ATOM      3  C1  OXE d   1      -1.207   1.005   0.472  0.00  0.00    -0.078 A 
ATOM      4  C2  OXE d   1      -0.533   0.125   1.284  0.00  0.00    -0.078 A 
ATOM      5  C3  OXE d   1       0.605  -0.519   0.808  0.00  0.00     0.003 A 
ATOM      6  C4  OXE d   1       1.155  -0.164  -0.430  0.00  0.00    -0.002 A 
ATOM      7  C5  OXE d   1       0.505   0.759  -1.256  0.00  0.00    -0.002 A 
ATOM      8  C6  OXE d   1      -0.697   1.320  -0.839  0.00  0.00     0.003 A 
ENDROOT
TORSDOF 0
ENDMDL
