MODEL 1
REMARK minimizedAffinity -5.75847578
REMARK minimizedRMSD -1
REMARK  0 active torsions:
REMARK  status: ('A' for Active; 'I' for Inactive)
ROOT
ATOM      1  C2' OXE d   1      -0.764  -0.877   1.539  0.00  0.00     0.078 C 
ATOM      2  C1' OXE d   1      -1.951   1.661   1.360  0.00  0.00     0.078 C 
ATOM      3  C1  OXE d   1      -0.850   1.329   0.384  0.00  0.00    -0.078 A 
ATOM      4  C2  OXE d   1      -0.243   0.102   0.509  0.00  0.00    -0.078 A 
ATOM      5  C3  OXE d   1       0.741  -0.276  -0.400  0.00  0.00     0.003 A 
ATOM      6  C4  OXE d   1       1.225   0.640  -1.342  0.00  0.00    -0.002 A 
ATOM      7  C5  OXE d   1       0.648   1.909  -1.461  0.00  0.00    -0.002 A 
ATOM      8  C6  OXE d   1      -0.417   2.253  -0.635  0.00  0.00     0.003 A 
ENDROOT
TORSDOF 0
ENDMDL
