MODEL 1
REMARK minimizedAffinity -5.33576918
REMARK minimizedRMSD -1
REMARK  0 active torsions:
REMARK  status: ('A' for Active; 'I' for Inactive)
ROOT
ATOM      1  C2' OXE d   1      -0.683  -0.916   1.788  0.00  0.00     0.078 C 
ATOM      2  C1' OXE d   1      -1.818   1.647   1.636  0.00  0.00     0.078 C 
ATOM      3  C1  OXE d   1      -0.819   1.256   0.576  0.00  0.00    -0.078 A 
ATOM      4  C2  OXE d   1      -0.234   0.018   0.685  0.00  0.00    -0.078 A 
ATOM      5  C3  OXE d   1       0.654  -0.415  -0.297  0.00  0.00     0.003 A 
ATOM      6  C4  OXE d   1       1.072   0.459  -1.308  0.00  0.00    -0.002 A 
ATOM      7  C5  OXE d   1       0.518   1.739  -1.414  0.00  0.00    -0.002 A 
ATOM      8  C6  OXE d   1      -0.458   2.137  -0.507  0.00  0.00     0.003 A 
ENDROOT
TORSDOF 0
ENDMDL
