MODEL 1
REMARK minimizedAffinity -4.94162846
REMARK minimizedRMSD -1
REMARK  0 active torsions:
REMARK  status: ('A' for Active; 'I' for Inactive)
ROOT
ATOM      1  C2' OXE d   1      -0.009  -1.542  -1.722  0.00  0.00     0.078 C 
ATOM      2  C1' OXE d   1      -0.752  -4.023  -2.804  0.00  0.00     0.078 C 
ATOM      3  C1  OXE d   1       0.408  -3.995  -1.841  0.00  0.00    -0.078 A 
ATOM      4  C2  OXE d   1       0.795  -2.770  -1.352  0.00  0.00    -0.078 A 
ATOM      5  C3  OXE d   1       1.824  -2.694  -0.418  0.00  0.00     0.003 A 
ATOM      6  C4  OXE d   1       2.568  -3.834  -0.089  0.00  0.00    -0.002 A 
ATOM      7  C5  OXE d   1       2.216  -5.085  -0.606  0.00  0.00    -0.002 A 
ATOM      8  C6  OXE d   1       1.114  -5.189  -1.448  0.00  0.00     0.003 A 
ENDROOT
TORSDOF 0
ENDMDL
