MODEL 1
REMARK minimizedAffinity -4.1020484
REMARK minimizedRMSD -1
REMARK  0 active torsions:
REMARK  status: ('A' for Active; 'I' for Inactive)
ROOT
ATOM      1  C2' OXE d   1      -2.347   2.504   0.994  0.00  0.00     0.078 C 
ATOM      2  C1' OXE d   1      -1.517   0.431   2.696  0.00  0.00     0.078 C 
ATOM      3  C1  OXE d   1      -0.849   0.545   1.348  0.00  0.00    -0.078 A 
ATOM      4  C2  OXE d   1      -1.294   1.534   0.504  0.00  0.00    -0.078 A 
ATOM      5  C3  OXE d   1      -0.674   1.717  -0.729  0.00  0.00     0.003 A 
ATOM      6  C4  OXE d   1       0.292   0.809  -1.179  0.00  0.00    -0.002 A 
ATOM      7  C5  OXE d   1       0.731  -0.229  -0.351  0.00  0.00    -0.002 A 
ATOM      8  C6  OXE d   1       0.203  -0.349   0.930  0.00  0.00     0.003 A 
ENDROOT
TORSDOF 0
ENDMDL
