MODEL 1
REMARK minimizedAffinity -4.51834202
REMARK minimizedRMSD -1
REMARK  0 active torsions:
REMARK  status: ('A' for Active; 'I' for Inactive)
ROOT
ATOM      1  C2' OXE d   1       1.543   0.272  -0.710  0.00  0.00     0.078 C 
ATOM      2  C1' OXE d   1      -0.331   2.181  -1.559  0.00  0.00     0.078 C 
ATOM      3  C1  OXE d   1      -0.651   1.384  -0.319  0.00  0.00    -0.078 A 
ATOM      4  C2  OXE d   1       0.250   0.420   0.063  0.00  0.00    -0.078 A 
ATOM      5  C3  OXE d   1       0.030  -0.306   1.230  0.00  0.00     0.003 A 
ATOM      6  C4  OXE d   1      -1.173  -0.171   1.933  0.00  0.00    -0.002 A 
ATOM      7  C5  OXE d   1      -2.122   0.778   1.539  0.00  0.00    -0.002 A 
ATOM      8  C6  OXE d   1      -1.859   1.591   0.442  0.00  0.00     0.003 A 
ENDROOT
TORSDOF 0
ENDMDL
