MODEL 1
REMARK minimizedAffinity -5.45473289
REMARK minimizedRMSD -1
REMARK  0 active torsions:
REMARK  status: ('A' for Active; 'I' for Inactive)
ROOT
ATOM      1  C2' OXE d   1       0.212  -0.959   1.857  0.00  0.00     0.078 C 
ATOM      2  C1' OXE d   1       0.609  -0.336  -0.851  0.00  0.00     0.078 C 
ATOM      3  C1  OXE d   1      -0.506   0.372  -0.122  0.00  0.00    -0.078 A 
ATOM      4  C2  OXE d   1      -0.723   0.027   1.190  0.00  0.00    -0.078 A 
ATOM      5  C3  OXE d   1      -1.703   0.689   1.924  0.00  0.00     0.003 A 
ATOM      6  C4  OXE d   1      -2.569   1.592   1.296  0.00  0.00    -0.002 A 
ATOM      7  C5  OXE d   1      -2.391   1.928  -0.050  0.00  0.00    -0.002 A 
ATOM      8  C6  OXE d   1      -1.339   1.360  -0.760  0.00  0.00     0.003 A 
ENDROOT
TORSDOF 0
ENDMDL
