MODEL 1
REMARK minimizedAffinity -2.19820642
REMARK minimizedRMSD -1
REMARK  0 active torsions:
REMARK  status: ('A' for Active; 'I' for Inactive)
ROOT
ATOM      1  C2' OXE d   1      -0.745  -0.704   1.449  0.00  0.00     0.078 C 
ATOM      2  C1' OXE d   1      -1.939   1.815   1.115  0.00  0.00     0.078 C 
ATOM      3  C1  OXE d   1      -0.739   1.486   0.261  0.00  0.00    -0.078 A 
ATOM      4  C2  OXE d   1      -0.133   0.269   0.465  0.00  0.00    -0.078 A 
ATOM      5  C3  OXE d   1       0.943  -0.106  -0.334  0.00  0.00     0.003 A 
ATOM      6  C4  OXE d   1       1.509   0.804  -1.235  0.00  0.00    -0.002 A 
ATOM      7  C5  OXE d   1       0.932   2.063  -1.429  0.00  0.00    -0.002 A 
ATOM      8  C6  OXE d   1      -0.216   2.403  -0.721  0.00  0.00     0.003 A 
ENDROOT
TORSDOF 0
ENDMDL
