MODEL 1
REMARK minimizedAffinity -3.50416255
REMARK minimizedRMSD -1
REMARK  0 active torsions:
REMARK  status: ('A' for Active; 'I' for Inactive)
ROOT
ATOM      1  C2' OXE d   1       0.610  -0.684  -0.573  0.00  0.00     0.078 C 
ATOM      2  C1' OXE d   1      -0.446  -1.170   1.982  0.00  0.00     0.078 C 
ATOM      3  C1  OXE d   1      -0.799   0.134   1.312  0.00  0.00    -0.078 A 
ATOM      4  C2  OXE d   1      -0.240   0.384   0.082  0.00  0.00    -0.078 A 
ATOM      5  C3  OXE d   1      -0.575   1.548  -0.604  0.00  0.00     0.003 A 
ATOM      6  C4  OXE d   1      -1.353   2.535   0.012  0.00  0.00    -0.002 A 
ATOM      7  C5  OXE d   1      -1.900   2.317   1.281  0.00  0.00    -0.002 A 
ATOM      8  C6  OXE d   1      -1.668   1.107   1.925  0.00  0.00     0.003 A 
ENDROOT
TORSDOF 0
ENDMDL
