MODEL 1
REMARK minimizedAffinity 0.100073949
REMARK minimizedRMSD -1
REMARK  0 active torsions:
REMARK  status: ('A' for Active; 'I' for Inactive)
ROOT
ATOM      1  N1  IND d   1       1.663  -2.520   0.059  0.00  0.00    -0.196 N 
ATOM      2  C2  IND d   1       2.193  -3.407   0.953  0.00  0.00     0.054 A 
ATOM      3  C3  IND d   1       1.530  -3.342   2.130  0.00  0.00    -0.031 A 
ATOM      4  C4  IND d   1      -0.520  -1.924   2.775  0.00  0.00     0.051 A 
ATOM      5  C5  IND d   1      -1.338  -0.936   2.303  0.00  0.00    -0.031 A 
ATOM      6  C6  IND d   1      -1.197  -0.418   1.032  0.00  0.00     0.015 A 
ATOM      7  C7  IND d   1      -0.235  -0.877   0.178  0.00  0.00    -0.016 A 
ATOM      8  C8  IND d   1       0.603  -1.875   0.656  0.00  0.00    -0.047 A 
ATOM      9  C9  IND d   1       0.491  -2.376   1.960  0.00  0.00    -0.096 A 
ATOM     10  HN1 IND d   1       1.945  -2.387  -0.743  0.00  0.00     0.298 HD
ENDROOT
TORSDOF 0
ENDMDL
