MODEL 1
REMARK minimizedAffinity 3.53508973
REMARK minimizedRMSD -1
REMARK  0 active torsions:
REMARK  status: ('A' for Active; 'I' for Inactive)
ROOT
ATOM      1  C   UNL d   1      -6.000   1.340  -4.252  0.00  0.00     0.023 A 
ATOM      2  C1  UNL d   1      -5.987   1.547  -2.872  0.00  0.00     0.003 A 
ATOM      3  C2  UNL d   1      -5.621   2.792  -2.356  0.00  0.00     0.048 A 
ATOM      4  C3  UNL d   1      -5.271   3.825  -3.224  0.00  0.00     0.023 A 
ATOM      5  C4  UNL d   1      -5.284   3.623  -4.605  0.00  0.00     0.048 A 
ATOM      6  C5  UNL d   1      -5.649   2.376  -5.117  0.00  0.00     0.003 A 
ATOM      7  I   UNL d   1      -4.728   5.679  -2.457  0.00  0.00    -0.146 I 
ENDROOT
TORSDOF 0
ENDMDL
