MODEL 1
REMARK minimizedAffinity -0.249692783
REMARK minimizedRMSD -1
REMARK  0 active torsions:
REMARK  status: ('A' for Active; 'I' for Inactive)
ROOT
ATOM      1  C   UNL d   1      -4.619   3.759  -1.307  0.00  0.00     0.023 A 
ATOM      2  C1  UNL d   1      -5.602   2.782  -1.149  0.00  0.00     0.003 A 
ATOM      3  C2  UNL d   1      -6.000   2.008  -2.241  0.00  0.00     0.048 A 
ATOM      4  C3  UNL d   1      -5.409   2.214  -3.487  0.00  0.00     0.023 A 
ATOM      5  C4  UNL d   1      -4.424   3.190  -3.649  0.00  0.00     0.048 A 
ATOM      6  C5  UNL d   1      -4.031   3.963  -2.555  0.00  0.00     0.003 A 
ATOM      7  I   UNL d   1      -5.999   1.062  -5.113  0.00  0.00    -0.146 I 
ENDROOT
TORSDOF 0
ENDMDL
