MODEL 1
REMARK minimizedAffinity 8.31033611
REMARK minimizedRMSD -1
REMARK  0 active torsions:
REMARK  status: ('A' for Active; 'I' for Inactive)
ROOT
ATOM      1  C   UNL d   1       5.977  -3.782  -0.927  0.00  0.00     0.023 A 
ATOM      2  C1  UNL d   1       5.494  -5.090  -0.979  0.00  0.00     0.003 A 
ATOM      3  C2  UNL d   1       4.128  -5.337  -0.832  0.00  0.00     0.048 A 
ATOM      4  C3  UNL d   1       3.250  -4.272  -0.632  0.00  0.00     0.023 A 
ATOM      5  C4  UNL d   1       3.729  -2.962  -0.580  0.00  0.00     0.048 A 
ATOM      6  C5  UNL d   1       5.096  -2.720  -0.727  0.00  0.00     0.003 A 
ATOM      7  I   UNL d   1       1.216  -4.638  -0.412  0.00  0.00    -0.146 I 
ENDROOT
TORSDOF 0
ENDMDL
