MODEL 1
REMARK minimizedAffinity 1.79600191
REMARK minimizedRMSD -1
REMARK  0 active torsions:
REMARK  status: ('A' for Active; 'I' for Inactive)
ROOT
ATOM      1  C   UNL d   1      -5.637   3.266  -1.865  0.00  0.00     0.023 A 
ATOM      2  C1  UNL d   1      -5.894   1.911  -1.662  0.00  0.00     0.003 A 
ATOM      3  C2  UNL d   1      -5.996   1.046  -2.754  0.00  0.00     0.048 A 
ATOM      4  C3  UNL d   1      -5.839   1.544  -4.047  0.00  0.00     0.023 A 
ATOM      5  C4  UNL d   1      -5.580   2.900  -4.255  0.00  0.00     0.048 A 
ATOM      6  C5  UNL d   1      -5.480   3.760  -3.161  0.00  0.00     0.003 A 
ATOM      7  I   UNL d   1      -5.991   0.260  -5.674  0.00  0.00    -0.146 I 
ENDROOT
TORSDOF 0
ENDMDL
