MODEL 1
REMARK minimizedAffinity 7.08063507
REMARK minimizedRMSD -1
REMARK  0 active torsions:
REMARK  status: ('A' for Active; 'I' for Inactive)
ROOT
ATOM      1  C   UNL d   1      -5.622   2.803  -3.640  0.00  0.00     0.023 A 
ATOM      2  C1  UNL d   1      -5.230   3.624  -2.583  0.00  0.00     0.003 A 
ATOM      3  C2  UNL d   1      -5.216   3.126  -1.279  0.00  0.00     0.048 A 
ATOM      4  C3  UNL d   1      -5.594   1.805  -1.039  0.00  0.00     0.023 A 
ATOM      5  C4  UNL d   1      -5.986   0.980  -2.094  0.00  0.00     0.048 A 
ATOM      6  C5  UNL d   1      -6.000   1.483  -3.396  0.00  0.00     0.003 A 
ATOM      7  I   UNL d   1      -5.573   1.061   0.901  0.00  0.00    -0.146 I 
ENDROOT
TORSDOF 0
ENDMDL
