MODEL 1
REMARK minimizedAffinity 4.38375759
REMARK minimizedRMSD -1
REMARK  0 active torsions:
REMARK  status: ('A' for Active; 'I' for Inactive)
ROOT
ATOM      1  C   UNL d   1      -5.981   3.908  -1.886  0.00  0.00     0.023 A 
ATOM      2  C1  UNL d   1      -5.981   2.607  -1.385  0.00  0.00     0.003 A 
ATOM      3  C2  UNL d   1      -5.986   1.519  -2.261  0.00  0.00     0.048 A 
ATOM      4  C3  UNL d   1      -5.989   1.741  -3.638  0.00  0.00     0.023 A 
ATOM      5  C4  UNL d   1      -5.988   3.041  -4.144  0.00  0.00     0.048 A 
ATOM      6  C5  UNL d   1      -5.984   4.125  -3.264  0.00  0.00     0.003 A 
ATOM      7  I   UNL d   1      -5.996   0.124  -4.944  0.00  0.00    -0.146 I 
ENDROOT
TORSDOF 0
ENDMDL
