MODEL 1
REMARK minimizedAffinity 4.72773552
REMARK minimizedRMSD -1
REMARK  0 active torsions:
REMARK  status: ('A' for Active; 'I' for Inactive)
ROOT
ATOM      1  C   UNL d   1      -4.688   1.113   1.744  0.00  0.00     0.023 A 
ATOM      2  C1  UNL d   1      -5.621   1.424   2.734  0.00  0.00     0.003 A 
ATOM      3  C2  UNL d   1      -5.999   0.458   3.668  0.00  0.00     0.048 A 
ATOM      4  C3  UNL d   1      -5.439  -0.818   3.608  0.00  0.00     0.023 A 
ATOM      5  C4  UNL d   1      -4.504  -1.134   2.620  0.00  0.00     0.048 A 
ATOM      6  C5  UNL d   1      -4.130  -0.165   1.688  0.00  0.00     0.003 A 
ATOM      7  I   UNL d   1      -6.000  -2.258   4.997  0.00  0.00    -0.146 I 
ENDROOT
TORSDOF 0
ENDMDL
