MODEL 1
REMARK minimizedAffinity -0.106109805
REMARK minimizedRMSD -1
REMARK  0 active torsions:
REMARK  status: ('A' for Active; 'I' for Inactive)
ROOT
ATOM      1  C   UNL d   1      -5.999   3.154  -4.863  0.00  0.00     0.023 A 
ATOM      2  C1  UNL d   1      -5.999   1.785  -4.590  0.00  0.00     0.003 A 
ATOM      3  C2  UNL d   1      -5.997   1.335  -3.268  0.00  0.00     0.048 A 
ATOM      4  C3  UNL d   1      -5.998   2.259  -2.224  0.00  0.00     0.023 A 
ATOM      5  C4  UNL d   1      -5.999   3.629  -2.491  0.00  0.00     0.048 A 
ATOM      6  C5  UNL d   1      -6.000   4.074  -3.814  0.00  0.00     0.003 A 
ATOM      7  I   UNL d   1      -5.996   1.591  -0.255  0.00  0.00    -0.146 I 
ENDROOT
TORSDOF 0
ENDMDL
