MODEL 1
REMARK minimizedAffinity 7.30894995
REMARK minimizedRMSD -1
REMARK  0 active torsions:
REMARK  status: ('A' for Active; 'I' for Inactive)
ROOT
ATOM      1  C   UNL d   1      -5.126   3.811  -2.635  0.00  0.00     0.023 A 
ATOM      2  C1  UNL d   1      -5.630   2.666  -2.019  0.00  0.00     0.003 A 
ATOM      3  C2  UNL d   1      -5.882   1.519  -2.774  0.00  0.00     0.048 A 
ATOM      4  C3  UNL d   1      -5.626   1.524  -4.145  0.00  0.00     0.023 A 
ATOM      5  C4  UNL d   1      -5.120   2.667  -4.765  0.00  0.00     0.048 A 
ATOM      6  C5  UNL d   1      -4.871   3.812  -4.006  0.00  0.00     0.003 A 
ATOM      7  I   UNL d   1      -5.999  -0.183  -5.271  0.00  0.00    -0.146 I 
ENDROOT
TORSDOF 0
ENDMDL
