MODEL 1
REMARK minimizedAffinity 10.6310997
REMARK minimizedRMSD -1
REMARK  0 active torsions:
REMARK  status: ('A' for Active; 'I' for Inactive)
ROOT
ATOM      1  C   UNL d   1       1.211   3.266   0.864  0.00  0.00     0.023 A 
ATOM      2  C1  UNL d   1       0.064   2.543   0.532  0.00  0.00     0.003 A 
ATOM      3  C2  UNL d   1      -0.921   3.124  -0.270  0.00  0.00     0.048 A 
ATOM      4  C3  UNL d   1      -0.752   4.427  -0.738  0.00  0.00     0.023 A 
ATOM      5  C4  UNL d   1       0.394   5.153  -0.409  0.00  0.00     0.048 A 
ATOM      6  C5  UNL d   1       1.375   4.569   0.394  0.00  0.00     0.003 A 
ATOM      7  I   UNL d   1      -2.216   5.293  -1.932  0.00  0.00    -0.146 I 
ENDROOT
TORSDOF 0
ENDMDL
