MODEL 1
REMARK minimizedAffinity 0.699962795
REMARK minimizedRMSD -1
REMARK  0 active torsions:
REMARK  status: ('A' for Active; 'I' for Inactive)
ROOT
ATOM      1  C   UNL d   1       5.390   3.024  -4.867  0.00  0.00     0.023 A 
ATOM      2  C1  UNL d   1       4.344   2.235  -4.388  0.00  0.00     0.003 A 
ATOM      3  C2  UNL d   1       3.023   2.554  -4.712  0.00  0.00     0.048 A 
ATOM      4  C3  UNL d   1       2.756   3.661  -5.516  0.00  0.00     0.023 A 
ATOM      5  C4  UNL d   1       3.800   4.453  -5.998  0.00  0.00     0.048 A 
ATOM      6  C5  UNL d   1       5.119   4.131  -5.671  0.00  0.00     0.003 A 
ATOM      7  I   UNL d   1       0.792   4.137  -6.000  0.00  0.00    -0.146 I 
ENDROOT
TORSDOF 0
ENDMDL
