MODEL 1
REMARK minimizedAffinity -1.36048222
REMARK minimizedRMSD -1
REMARK  0 active torsions:
REMARK  status: ('A' for Active; 'I' for Inactive)
ROOT
ATOM      1  C   UNL d   1       5.246   2.892  -5.631  0.00  0.00     0.023 A 
ATOM      2  C1  UNL d   1       5.182   4.236  -6.000  0.00  0.00     0.003 A 
ATOM      3  C2  UNL d   1       3.955   4.903  -5.998  0.00  0.00     0.048 A 
ATOM      4  C3  UNL d   1       2.797   4.221  -5.626  0.00  0.00     0.023 A 
ATOM      5  C4  UNL d   1       2.857   2.877  -5.255  0.00  0.00     0.048 A 
ATOM      6  C5  UNL d   1       4.086   2.214  -5.259  0.00  0.00     0.003 A 
ATOM      7  I   UNL d   1       0.971   5.213  -5.623  0.00  0.00    -0.146 I 
ENDROOT
TORSDOF 0
ENDMDL
