MODEL 1
REMARK minimizedAffinity -2.31645012
REMARK minimizedRMSD -1
REMARK  0 active torsions:
REMARK  status: ('A' for Active; 'I' for Inactive)
ROOT
ATOM      1  C   UNL d   1       4.880   3.385  -5.735  0.00  0.00     0.023 A 
ATOM      2  C1  UNL d   1       4.751   4.761  -5.923  0.00  0.00     0.003 A 
ATOM      3  C2  UNL d   1       3.483   5.340  -6.000  0.00  0.00     0.048 A 
ATOM      4  C3  UNL d   1       2.348   4.538  -5.886  0.00  0.00     0.023 A 
ATOM      5  C4  UNL d   1       2.473   3.161  -5.696  0.00  0.00     0.048 A 
ATOM      6  C5  UNL d   1       3.743   2.586  -5.621  0.00  0.00     0.003 A 
ATOM      7  I   UNL d   1       0.460   5.398  -5.999  0.00  0.00    -0.146 I 
ENDROOT
TORSDOF 0
ENDMDL
