MODEL 1
REMARK minimizedAffinity -2.55150104
REMARK minimizedRMSD -1
REMARK  0 active torsions:
REMARK  status: ('A' for Active; 'I' for Inactive)
ROOT
ATOM      1  C   UNL d   1       5.250   3.259  -5.275  0.00  0.00     0.023 A 
ATOM      2  C1  UNL d   1       4.230   2.358  -4.968  0.00  0.00     0.003 A 
ATOM      3  C2  UNL d   1       2.896   2.714  -5.175  0.00  0.00     0.048 A 
ATOM      4  C3  UNL d   1       2.588   3.972  -5.690  0.00  0.00     0.023 A 
ATOM      5  C4  UNL d   1       3.605   4.877  -6.000  0.00  0.00     0.048 A 
ATOM      6  C5  UNL d   1       4.938   4.517  -5.790  0.00  0.00     0.003 A 
ATOM      7  I   UNL d   1       0.603   4.505  -6.000  0.00  0.00    -0.146 I 
ENDROOT
TORSDOF 0
ENDMDL
