MODEL 1
REMARK minimizedAffinity -2.87670803
REMARK minimizedRMSD -1
REMARK  0 active torsions:
REMARK  status: ('A' for Active; 'I' for Inactive)
ROOT
ATOM      1  C   UNL d   1       5.407   3.540  -5.827  0.00  0.00     0.023 A 
ATOM      2  C1  UNL d   1       4.226   2.828  -5.619  0.00  0.00     0.003 A 
ATOM      3  C2  UNL d   1       3.002   3.499  -5.583  0.00  0.00     0.048 A 
ATOM      4  C3  UNL d   1       2.966   4.882  -5.755  0.00  0.00     0.023 A 
ATOM      5  C4  UNL d   1       4.146   5.599  -5.964  0.00  0.00     0.048 A 
ATOM      6  C5  UNL d   1       5.367   4.924  -5.999  0.00  0.00     0.003 A 
ATOM      7  I   UNL d   1       1.146   5.884  -5.701  0.00  0.00    -0.146 I 
ENDROOT
TORSDOF 0
ENDMDL
