MODEL 1
REMARK minimizedAffinity -3.59781766
REMARK minimizedRMSD -1
REMARK  0 active torsions:
REMARK  status: ('A' for Active; 'I' for Inactive)
ROOT
ATOM      1  C   UNL d   1       4.507   3.377  -4.978  0.00  0.00     0.023 A 
ATOM      2  C1  UNL d   1       3.281   2.869  -4.547  0.00  0.00     0.003 A 
ATOM      3  C2  UNL d   1       2.099   3.553  -4.839  0.00  0.00     0.048 A 
ATOM      4  C3  UNL d   1       2.149   4.743  -5.564  0.00  0.00     0.023 A 
ATOM      5  C4  UNL d   1       3.373   5.254  -5.999  0.00  0.00     0.048 A 
ATOM      6  C5  UNL d   1       4.553   4.568  -5.703  0.00  0.00     0.003 A 
ATOM      7  I   UNL d   1       0.391   5.762  -6.000  0.00  0.00    -0.146 I 
ENDROOT
TORSDOF 0
ENDMDL
