MODEL 1
REMARK minimizedAffinity 5.71546078
REMARK minimizedRMSD -1
REMARK  0 active torsions:
REMARK  status: ('A' for Active; 'I' for Inactive)
ROOT
ATOM      1  C   UNL d   1       4.475   3.038  -5.992  0.00  0.00     0.023 A 
ATOM      2  C1  UNL d   1       4.296   4.422  -5.996  0.00  0.00     0.003 A 
ATOM      3  C2  UNL d   1       3.008   4.961  -5.998  0.00  0.00     0.048 A 
ATOM      4  C3  UNL d   1       1.903   4.111  -5.996  0.00  0.00     0.023 A 
ATOM      5  C4  UNL d   1       2.076   2.726  -5.991  0.00  0.00     0.048 A 
ATOM      6  C5  UNL d   1       3.366   2.191  -5.990  0.00  0.00     0.003 A 
ATOM      7  I   UNL d   1      -0.015   4.911  -5.999  0.00  0.00    -0.146 I 
ENDROOT
TORSDOF 0
ENDMDL
