MODEL 1
REMARK minimizedAffinity 0.363111645
REMARK minimizedRMSD -1
REMARK  0 active torsions:
REMARK  status: ('A' for Active; 'I' for Inactive)
ROOT
ATOM      1  C   UNL d   1       2.213   2.565  -5.530  0.00  0.00     0.023 A 
ATOM      2  C1  UNL d   1       1.886   3.908  -5.338  0.00  0.00     0.003 A 
ATOM      3  C2  UNL d   1       2.867   4.892  -5.472  0.00  0.00     0.048 A 
ATOM      4  C3  UNL d   1       4.173   4.527  -5.799  0.00  0.00     0.023 A 
ATOM      5  C4  UNL d   1       4.504   3.185  -5.993  0.00  0.00     0.048 A 
ATOM      6  C5  UNL d   1       3.520   2.204  -5.857  0.00  0.00     0.003 A 
ATOM      7  I   UNL d   1       5.635   5.991  -6.000  0.00  0.00    -0.146 I 
ENDROOT
TORSDOF 0
ENDMDL
