MODEL 1
REMARK minimizedAffinity -1.50393093
REMARK minimizedRMSD -1
REMARK  0 active torsions:
REMARK  status: ('A' for Active; 'I' for Inactive)
ROOT
ATOM      1  C   UNL d   1       5.795   4.088  -5.984  0.00  0.00     0.023 A 
ATOM      2  C1  UNL d   1       5.294   5.390  -6.000  0.00  0.00     0.003 A 
ATOM      3  C2  UNL d   1       3.915   5.608  -6.000  0.00  0.00     0.048 A 
ATOM      4  C3  UNL d   1       3.043   4.521  -5.984  0.00  0.00     0.023 A 
ATOM      5  C4  UNL d   1       3.540   3.216  -5.967  0.00  0.00     0.048 A 
ATOM      6  C5  UNL d   1       4.919   3.003  -5.968  0.00  0.00     0.003 A 
ATOM      7  I   UNL d   1       0.989   4.843  -5.984  0.00  0.00    -0.146 I 
ENDROOT
TORSDOF 0
ENDMDL
