MODEL 1
REMARK minimizedAffinity -1.66429412
REMARK minimizedRMSD -1
REMARK  0 active torsions:
REMARK  status: ('A' for Active; 'I' for Inactive)
ROOT
ATOM      1  C   UNL d   1       5.254   3.394  -5.607  0.00  0.00     0.023 A 
ATOM      2  C1  UNL d   1       4.161   2.627  -5.204  0.00  0.00     0.003 A 
ATOM      3  C2  UNL d   1       2.881   3.185  -5.188  0.00  0.00     0.048 A 
ATOM      4  C3  UNL d   1       2.701   4.512  -5.579  0.00  0.00     0.023 A 
ATOM      5  C4  UNL d   1       3.792   5.284  -5.984  0.00  0.00     0.048 A 
ATOM      6  C5  UNL d   1       5.069   4.721  -5.997  0.00  0.00     0.003 A 
ATOM      7  I   UNL d   1       0.798   5.346  -5.557  0.00  0.00    -0.146 I 
ENDROOT
TORSDOF 0
ENDMDL
