MODEL 1
REMARK minimizedAffinity -1.91728783
REMARK minimizedRMSD -1
REMARK  0 active torsions:
REMARK  status: ('A' for Active; 'I' for Inactive)
ROOT
ATOM      1  C   UNL d   1       2.645   5.974  -5.325  0.00  0.00     0.023 A 
ATOM      2  C1  UNL d   1       3.875   5.674  -5.910  0.00  0.00     0.003 A 
ATOM      3  C2  UNL d   1       4.302   4.347  -5.998  0.00  0.00     0.048 A 
ATOM      4  C3  UNL d   1       3.493   3.326  -5.500  0.00  0.00     0.023 A 
ATOM      5  C4  UNL d   1       2.261   3.622  -4.914  0.00  0.00     0.048 A 
ATOM      6  C5  UNL d   1       1.839   4.950  -4.828  0.00  0.00     0.003 A 
ATOM      7  I   UNL d   1       4.127   1.351  -5.630  0.00  0.00    -0.146 I 
ENDROOT
TORSDOF 0
ENDMDL
