MODEL 1
REMARK minimizedAffinity -1.24268794
REMARK minimizedRMSD -1
REMARK  0 active torsions:
REMARK  status: ('A' for Active; 'I' for Inactive)
ROOT
ATOM      1  C   UNL d   1       3.607   5.983  -5.961  0.00  0.00     0.023 A 
ATOM      2  C1  UNL d   1       4.886   5.427  -5.991  0.00  0.00     0.003 A 
ATOM      3  C2  UNL d   1       5.046   4.040  -6.000  0.00  0.00     0.048 A 
ATOM      4  C3  UNL d   1       3.923   3.214  -5.978  0.00  0.00     0.023 A 
ATOM      5  C4  UNL d   1       2.641   3.765  -5.949  0.00  0.00     0.048 A 
ATOM      6  C5  UNL d   1       2.486   5.153  -5.940  0.00  0.00     0.003 A 
ATOM      7  I   UNL d   1       4.159   1.149  -5.991  0.00  0.00    -0.146 I 
ENDROOT
TORSDOF 0
ENDMDL
