MODEL 1
REMARK minimizedAffinity -1.53771579
REMARK minimizedRMSD -1
REMARK  0 active torsions:
REMARK  status: ('A' for Active; 'I' for Inactive)
ROOT
ATOM      1  C   UNL d   1       5.981   3.236  -5.999  0.00  0.00     0.023 A 
ATOM      2  C1  UNL d   1       4.922   2.327  -6.000  0.00  0.00     0.003 A 
ATOM      3  C2  UNL d   1       3.604   2.789  -5.998  0.00  0.00     0.048 A 
ATOM      4  C3  UNL d   1       3.352   4.160  -5.996  0.00  0.00     0.023 A 
ATOM      5  C4  UNL d   1       4.408   5.073  -5.997  0.00  0.00     0.048 A 
ATOM      6  C5  UNL d   1       5.724   4.607  -5.998  0.00  0.00     0.003 A 
ATOM      7  I   UNL d   1       1.391   4.850  -5.993  0.00  0.00    -0.146 I 
ENDROOT
TORSDOF 0
ENDMDL
