MODEL 1
REMARK minimizedAffinity 9.74969292
REMARK minimizedRMSD -1
REMARK  0 active torsions:
REMARK  status: ('A' for Active; 'I' for Inactive)
ROOT
ATOM      1  C   UNL d   1      -2.320  -1.555  -4.054  0.00  0.00     0.023 A 
ATOM      2  C1  UNL d   1      -1.973  -2.633  -3.239  0.00  0.00     0.003 A 
ATOM      3  C2  UNL d   1      -1.387  -3.771  -3.795  0.00  0.00     0.048 A 
ATOM      4  C3  UNL d   1      -1.148  -3.825  -5.168  0.00  0.00     0.023 A 
ATOM      5  C4  UNL d   1      -1.492  -2.749  -5.988  0.00  0.00     0.048 A 
ATOM      6  C5  UNL d   1      -2.079  -1.613  -5.427  0.00  0.00     0.003 A 
ATOM      7  I   UNL d   1      -0.275  -5.518  -5.999  0.00  0.00    -0.146 I 
ENDROOT
TORSDOF 0
ENDMDL
