MODEL 1
REMARK minimizedAffinity -3.1420362
REMARK minimizedRMSD -1
REMARK  0 active torsions:
REMARK  status: ('A' for Active; 'I' for Inactive)
ROOT
ATOM      1  C   UNL d   1       5.257   2.551  -4.929  0.00  0.00     0.023 A 
ATOM      2  C1  UNL d   1       4.271   1.914  -5.684  0.00  0.00     0.003 A 
ATOM      3  C2  UNL d   1       3.083   2.580  -5.987  0.00  0.00     0.048 A 
ATOM      4  C3  UNL d   1       2.886   3.884  -5.534  0.00  0.00     0.023 A 
ATOM      5  C4  UNL d   1       3.869   4.526  -4.779  0.00  0.00     0.048 A 
ATOM      6  C5  UNL d   1       5.056   3.856  -4.478  0.00  0.00     0.003 A 
ATOM      7  I   UNL d   1       1.117   4.878  -5.984  0.00  0.00    -0.146 I 
ENDROOT
TORSDOF 0
ENDMDL
