MODEL 1
REMARK minimizedAffinity 6.6954236
REMARK minimizedRMSD -1
REMARK  3 active torsions:
REMARK  status: ('A' for Active; 'I' for Inactive)
REMARK    1  A    between atoms: C3'_2  and  C2'_3 
REMARK    2  A    between atoms: C2'_3  and  C1'_4 
REMARK    3  A    between atoms: C1'_4  and  C1_5 
ROOT
ATOM      1  C1  N4B d   1       1.314   0.346  -1.536  0.00  0.00    -0.075 A 
ATOM      2  C2  N4B d   1       2.056   1.473  -1.952  0.00  0.00     0.002 A 
ATOM      3  C3  N4B d   1       3.251   1.770  -1.344  0.00  0.00     0.002 A 
ATOM      4  C4  N4B d   1       3.712   0.970  -0.309  0.00  0.00    -0.004 A 
ATOM      5  C5  N4B d   1       3.002  -0.131   0.069  0.00  0.00     0.002 A 
ATOM      6  C6  N4B d   1       1.801  -0.445  -0.536  0.00  0.00     0.002 A 
ENDROOT
BRANCH   1   7
ATOM      7  C1' N4B d   1      -0.039   0.029  -2.113  0.00  0.00     0.057 C 
BRANCH   7   8
ATOM      8  C2' N4B d   1      -1.119   0.556  -1.173  0.00  0.00     0.009 C 
BRANCH   8   9
ATOM      9  C3' N4B d   1      -2.222   1.282  -1.925  0.00  0.00     0.004 C 
ATOM     10  C4' N4B d   1      -1.843   2.683  -2.301  0.00  0.00     0.003 C 
ENDBRANCH   8   9
ENDBRANCH   7   8
ENDBRANCH   1   7
TORSDOF 3
ENDMDL
