MODEL 1
REMARK minimizedAffinity -1.09638226
REMARK minimizedRMSD -1
REMARK  3 active torsions:
REMARK  status: ('A' for Active; 'I' for Inactive)
REMARK    1  A    between atoms: C3'_2  and  C2'_3 
REMARK    2  A    between atoms: C2'_3  and  C1'_4 
REMARK    3  A    between atoms: C1'_4  and  C1_5 
ROOT
ATOM      1  C1  N4B d   1      -0.033  -2.330   2.796  0.00  0.00    -0.075 A 
ATOM      2  C2  N4B d   1      -1.171  -3.004   3.291  0.00  0.00     0.002 A 
ATOM      3  C3  N4B d   1      -1.292  -4.362   3.121  0.00  0.00     0.002 A 
ATOM      4  C4  N4B d   1      -0.302  -5.060   2.446  0.00  0.00    -0.004 A 
ATOM      5  C5  N4B d   1       0.806  -4.405   1.993  0.00  0.00     0.002 A 
ATOM      6  C6  N4B d   1       0.943  -3.041   2.160  0.00  0.00     0.002 A 
ENDROOT
BRANCH   1   7
ATOM      7  C1' N4B d   1       0.103  -0.834   2.881  0.00  0.00     0.057 C 
BRANCH   7   8
ATOM      8  C2' N4B d   1       0.308  -0.269   1.479  0.00  0.00     0.009 C 
BRANCH   8   9
ATOM      9  C3' N4B d   1      -0.929  -0.437   0.613  0.00  0.00     0.004 C 
ATOM     10  C4' N4B d   1      -2.180   0.044   1.286  0.00  0.00     0.003 C 
ENDBRANCH   8   9
ENDBRANCH   7   8
ENDBRANCH   1   7
TORSDOF 3
ENDMDL
