MODEL 1
REMARK minimizedAffinity 6.94428062
REMARK minimizedRMSD -1
REMARK  3 active torsions:
REMARK  status: ('A' for Active; 'I' for Inactive)
REMARK    1  A    between atoms: C3'_2  and  C2'_3 
REMARK    2  A    between atoms: C2'_3  and  C1'_4 
REMARK    3  A    between atoms: C1'_4  and  C1_5 
ROOT
ATOM      1  C1  N4B d   1       0.114  -1.542   2.223  0.00  0.00    -0.075 A 
ATOM      2  C2  N4B d   1       0.600  -2.864   2.317  0.00  0.00     0.002 A 
ATOM      3  C3  N4B d   1      -0.151  -3.829   2.943  0.00  0.00     0.002 A 
ATOM      4  C4  N4B d   1      -1.377  -3.492   3.496  0.00  0.00    -0.004 A 
ATOM      5  C5  N4B d   1      -1.851  -2.218   3.379  0.00  0.00     0.002 A 
ATOM      6  C6  N4B d   1      -1.108  -1.239   2.749  0.00  0.00     0.002 A 
ENDROOT
BRANCH   1   7
ATOM      7  C1' N4B d   1       0.937  -0.434   1.625  0.00  0.00     0.057 C 
BRANCH   7   8
ATOM      8  C2' N4B d   1       1.712  -0.977   0.427  0.00  0.00     0.009 C 
BRANCH   8   9
ATOM      9  C3' N4B d   1       2.449   0.122  -0.318  0.00  0.00     0.004 C 
ATOM     10  C4' N4B d   1       3.805   0.406   0.257  0.00  0.00     0.003 C 
ENDBRANCH   8   9
ENDBRANCH   7   8
ENDBRANCH   1   7
TORSDOF 3
ENDMDL
