MODEL 1
REMARK minimizedAffinity 1.9488554
REMARK minimizedRMSD -1
REMARK  3 active torsions:
REMARK  status: ('A' for Active; 'I' for Inactive)
REMARK    1  A    between atoms: C3'_2  and  C2'_3 
REMARK    2  A    between atoms: C2'_3  and  C1'_4 
REMARK    3  A    between atoms: C1'_4  and  C1_5 
ROOT
ATOM      1  C1  N4B d   1      -0.459  -0.791   1.029  0.00  0.00    -0.075 A 
ATOM      2  C2  N4B d   1       0.352  -0.589  -0.109  0.00  0.00     0.002 A 
ATOM      3  C3  N4B d   1      -0.224  -0.267  -1.314  0.00  0.00     0.002 A 
ATOM      4  C4  N4B d   1      -1.603  -0.161  -1.408  0.00  0.00    -0.004 A 
ATOM      5  C5  N4B d   1      -2.378  -0.333  -0.298  0.00  0.00     0.002 A 
ATOM      6  C6  N4B d   1      -1.812  -0.652   0.920  0.00  0.00     0.002 A 
ENDROOT
BRANCH   1   7
ATOM      7  C1' N4B d   1       0.118  -1.228   2.348  0.00  0.00     0.057 C 
BRANCH   7   8
ATOM      8  C2' N4B d   1      -0.343  -2.651   2.649  0.00  0.00     0.009 C 
BRANCH   8   9
ATOM      9  C3' N4B d   1       0.813  -3.636   2.639  0.00  0.00     0.004 C 
ATOM     10  C4' N4B d   1       1.663  -3.523   1.409  0.00  0.00     0.003 C 
ENDBRANCH   8   9
ENDBRANCH   7   8
ENDBRANCH   1   7
TORSDOF 3
ENDMDL
