MODEL 1
REMARK minimizedAffinity -1.14664233
REMARK minimizedRMSD -1
REMARK  3 active torsions:
REMARK  status: ('A' for Active; 'I' for Inactive)
REMARK    1  A    between atoms: C3'_2  and  C2'_3 
REMARK    2  A    between atoms: C2'_3  and  C1'_4 
REMARK    3  A    between atoms: C1'_4  and  C1_5 
ROOT
ATOM      1  C1  N4B d   1       1.255  -2.418   1.185  0.00  0.00    -0.075 A 
ATOM      2  C2  N4B d   1       1.637  -1.760  -0.005  0.00  0.00     0.002 A 
ATOM      3  C3  N4B d   1       1.103  -0.533  -0.313  0.00  0.00     0.002 A 
ATOM      4  C4  N4B d   1       0.175   0.045   0.540  0.00  0.00    -0.004 A 
ATOM      5  C5  N4B d   1      -0.169  -0.584   1.700  0.00  0.00     0.002 A 
ATOM      6  C6  N4B d   1       0.362  -1.816   2.025  0.00  0.00     0.002 A 
ENDROOT
BRANCH   1   7
ATOM      7  C1' N4B d   1       1.746  -3.799   1.522  0.00  0.00     0.057 C 
BRANCH   7   8
ATOM      8  C2' N4B d   1       3.029  -4.078   0.745  0.00  0.00     0.009 C 
BRANCH   8   9
ATOM      9  C3' N4B d   1       3.805  -5.245   1.329  0.00  0.00     0.004 C 
ATOM     10  C4' N4B d   1       4.159  -5.044   2.772  0.00  0.00     0.003 C 
ENDBRANCH   8   9
ENDBRANCH   7   8
ENDBRANCH   1   7
TORSDOF 3
ENDMDL
