MODEL 1
REMARK minimizedAffinity -0.0996913016
REMARK minimizedRMSD -1
REMARK  3 active torsions:
REMARK  status: ('A' for Active; 'I' for Inactive)
REMARK    1  A    between atoms: C3'_2  and  C2'_3 
REMARK    2  A    between atoms: C2'_3  and  C1'_4 
REMARK    3  A    between atoms: C1'_4  and  C1_5 
ROOT
ATOM      1  C1  N4B d   1       0.877  -1.797   1.155  0.00  0.00    -0.075 A 
ATOM      2  C2  N4B d   1       0.163  -1.012   0.223  0.00  0.00     0.002 A 
ATOM      3  C3  N4B d   1      -0.917  -0.270   0.635  0.00  0.00     0.002 A 
ATOM      4  C4  N4B d   1      -1.312  -0.312   1.963  0.00  0.00    -0.004 A 
ATOM      5  C5  N4B d   1      -0.602  -1.053   2.862  0.00  0.00     0.002 A 
ATOM      6  C6  N4B d   1       0.488  -1.800   2.464  0.00  0.00     0.002 A 
ENDROOT
BRANCH   1   7
ATOM      7  C1' N4B d   1       2.011  -2.692   0.737  0.00  0.00     0.057 C 
BRANCH   7   8
ATOM      8  C2' N4B d   1       2.173  -3.809   1.763  0.00  0.00     0.009 C 
BRANCH   8   9
ATOM      9  C3' N4B d   1       2.738  -5.075   1.140  0.00  0.00     0.004 C 
ATOM     10  C4' N4B d   1       4.200  -4.965   0.827  0.00  0.00     0.003 C 
ENDBRANCH   8   9
ENDBRANCH   7   8
ENDBRANCH   1   7
TORSDOF 3
ENDMDL
