MODEL 1
REMARK minimizedAffinity 5.43029737
REMARK minimizedRMSD -1
REMARK  0 active torsions:
REMARK  status: ('A' for Active; 'I' for Inactive)
ROOT
ATOM      1  C2' OXE d   1      -0.226   1.860   2.802  0.00  0.00     0.078 C 
ATOM      2  C1' OXE d   1       1.649   0.839   0.980  0.00  0.00     0.078 C 
ATOM      3  C1  OXE d   1       0.682  -0.131   1.612  0.00  0.00    -0.078 A 
ATOM      4  C2  OXE d   1      -0.201   0.370   2.538  0.00  0.00    -0.078 A 
ATOM      5  C3  OXE d   1      -1.151  -0.472   3.110  0.00  0.00     0.003 A 
ATOM      6  C4  OXE d   1      -1.114  -1.850   2.868  0.00  0.00    -0.002 A 
ATOM      7  C5  OXE d   1      -0.196  -2.387   1.958  0.00  0.00    -0.002 A 
ATOM      8  C6  OXE d   1       0.679  -1.537   1.292  0.00  0.00     0.003 A 
ENDROOT
TORSDOF 0
ENDMDL
