MODEL 1
REMARK minimizedAffinity 6.16539431
REMARK minimizedRMSD -1
REMARK  0 active torsions:
REMARK  status: ('A' for Active; 'I' for Inactive)
ROOT
ATOM      1  C2' OXE d   1       1.682  -1.118   5.505  0.00  0.00     0.078 C 
ATOM      2  C1' OXE d   1      -1.001  -0.618   4.849  0.00  0.00     0.078 C 
ATOM      3  C1  OXE d   1      -0.023  -0.803   3.716  0.00  0.00    -0.078 A 
ATOM      4  C2  OXE d   1       1.296  -1.001   4.046  0.00  0.00    -0.078 A 
ATOM      5  C3  OXE d   1       2.231  -1.231   3.041  0.00  0.00     0.003 A 
ATOM      6  C4  OXE d   1       1.868  -1.111   1.694  0.00  0.00    -0.002 A 
ATOM      7  C5  OXE d   1       0.537  -0.871   1.336  0.00  0.00    -0.002 A 
ATOM      8  C6  OXE d   1      -0.426  -0.758   2.333  0.00  0.00     0.003 A 
ENDROOT
TORSDOF 0
ENDMDL
