MODEL 1
REMARK minimizedAffinity 12.615612
REMARK minimizedRMSD -1
REMARK  0 active torsions:
REMARK  status: ('A' for Active; 'I' for Inactive)
ROOT
ATOM      1  C2' OXE d   1       3.507  -0.247  -2.569  0.00  0.00     0.078 C 
ATOM      2  C1' OXE d   1       5.999   0.801  -3.325  0.00  0.00     0.078 C 
ATOM      3  C1  OXE d   1       5.226   1.528  -2.253  0.00  0.00    -0.078 A 
ATOM      4  C2  OXE d   1       3.987   1.034  -1.922  0.00  0.00    -0.078 A 
ATOM      5  C3  OXE d   1       3.256   1.635  -0.901  0.00  0.00     0.003 A 
ATOM      6  C4  OXE d   1       3.703   2.825  -0.315  0.00  0.00    -0.002 A 
ATOM      7  C5  OXE d   1       4.944   3.367  -0.666  0.00  0.00    -0.002 A 
ATOM      8  C6  OXE d   1       5.735   2.709  -1.600  0.00  0.00     0.003 A 
ENDROOT
TORSDOF 0
ENDMDL
