MODEL 1
REMARK minimizedAffinity 7.69417191
REMARK minimizedRMSD -1
REMARK  0 active torsions:
REMARK  status: ('A' for Active; 'I' for Inactive)
ROOT
ATOM      1  C2' OXE d   1       5.387   2.431   3.121  0.00  0.00     0.078 C 
ATOM      2  C1' OXE d   1       4.099   2.369   5.615  0.00  0.00     0.078 C 
ATOM      3  C1  OXE d   1       4.742   3.665   5.187  0.00  0.00    -0.078 A 
ATOM      4  C2  OXE d   1       5.410   3.673   3.986  0.00  0.00    -0.078 A 
ATOM      5  C3  OXE d   1       5.974   4.856   3.519  0.00  0.00     0.003 A 
ATOM      6  C4  OXE d   1       6.000   5.998   4.330  0.00  0.00    -0.002 A 
ATOM      7  C5  OXE d   1       5.359   6.000   5.574  0.00  0.00    -0.002 A 
ATOM      8  C6  OXE d   1       4.691   4.856   5.998  0.00  0.00     0.003 A 
ENDROOT
TORSDOF 0
ENDMDL
