MODEL 1
REMARK minimizedAffinity 5.85492659
REMARK minimizedRMSD -1
REMARK  0 active torsions:
REMARK  status: ('A' for Active; 'I' for Inactive)
ROOT
ATOM      1  C2' OXE d   1       5.818   2.937   5.326  0.00  0.00     0.078 C 
ATOM      2  C1' OXE d   1       5.989   5.637   4.577  0.00  0.00     0.078 C 
ATOM      3  C1  OXE d   1       4.663   5.131   5.087  0.00  0.00    -0.078 A 
ATOM      4  C2  OXE d   1       4.576   3.798   5.407  0.00  0.00    -0.078 A 
ATOM      5  C3  OXE d   1       3.391   3.292   5.934  0.00  0.00     0.003 A 
ATOM      6  C4  OXE d   1       2.244   4.092   5.997  0.00  0.00    -0.002 A 
ATOM      7  C5  OXE d   1       2.301   5.443   5.638  0.00  0.00    -0.002 A 
ATOM      8  C6  OXE d   1       3.511   5.988   5.223  0.00  0.00     0.003 A 
ENDROOT
TORSDOF 0
ENDMDL
