MODEL 1
REMARK minimizedAffinity 9.20072746
REMARK minimizedRMSD -1
REMARK  0 active torsions:
REMARK  status: ('A' for Active; 'I' for Inactive)
ROOT
ATOM      1  C2' OXE d   1       5.107   2.839   3.745  0.00  0.00     0.078 C 
ATOM      2  C1' OXE d   1       6.000   4.270   5.988  0.00  0.00     0.078 C 
ATOM      3  C1  OXE d   1       4.657   4.637   5.408  0.00  0.00    -0.078 A 
ATOM      4  C2  OXE d   1       4.249   3.963   4.282  0.00  0.00    -0.078 A 
ATOM      5  C3  OXE d   1       2.995   4.225   3.739  0.00  0.00     0.003 A 
ATOM      6  C4  OXE d   1       2.212   5.274   4.236  0.00  0.00    -0.002 A 
ATOM      7  C5  OXE d   1       2.626   6.000   5.358  0.00  0.00    -0.002 A 
ATOM      8  C6  OXE d   1       3.824   5.666   5.980  0.00  0.00     0.003 A 
ENDROOT
TORSDOF 0
ENDMDL
