MODEL 1
REMARK minimizedAffinity 16.276577
REMARK minimizedRMSD -1
REMARK  0 active torsions:
REMARK  status: ('A' for Active; 'I' for Inactive)
ROOT
ATOM      1  C2' OXE d   1       1.862   5.807   5.822  0.00  0.00     0.078 C 
ATOM      2  C1' OXE d   1       2.104   3.011   5.886  0.00  0.00     0.078 C 
ATOM      3  C1  OXE d   1       3.373   3.826   5.847  0.00  0.00    -0.078 A 
ATOM      4  C2  OXE d   1       3.244   5.192   5.768  0.00  0.00    -0.078 A 
ATOM      5  C3  OXE d   1       4.382   5.993   5.784  0.00  0.00     0.003 A 
ATOM      6  C4  OXE d   1       5.657   5.416   5.724  0.00  0.00    -0.002 A 
ATOM      7  C5  OXE d   1       5.809   4.026   5.763  0.00  0.00    -0.002 A 
ATOM      8  C6  OXE d   1       4.681   3.220   5.867  0.00  0.00     0.003 A 
ENDROOT
TORSDOF 0
ENDMDL
