MODEL 1
REMARK minimizedAffinity 6.5129981
REMARK minimizedRMSD -1
REMARK  0 active torsions:
REMARK  status: ('A' for Active; 'I' for Inactive)
ROOT
ATOM      1  C2' OXE d   1      -1.133   1.711  -3.268  0.00  0.00     0.078 C 
ATOM      2  C1' OXE d   1       0.539  -0.408  -2.498  0.00  0.00     0.078 C 
ATOM      3  C1  OXE d   1      -0.888  -0.424  -2.008  0.00  0.00    -0.078 A 
ATOM      4  C2  OXE d   1      -1.686   0.641  -2.351  0.00  0.00    -0.078 A 
ATOM      5  C3  OXE d   1      -3.025   0.650  -1.970  0.00  0.00     0.003 A 
ATOM      6  C4  OXE d   1      -3.525  -0.338  -1.114  0.00  0.00    -0.002 A 
ATOM      7  C5  OXE d   1      -2.718  -1.411  -0.720  0.00  0.00    -0.002 A 
ATOM      8  C6  OXE d   1      -1.412  -1.491  -1.192  0.00  0.00     0.003 A 
ENDROOT
TORSDOF 0
ENDMDL
