MODEL 1
REMARK minimizedAffinity -1.79869401
REMARK minimizedRMSD -1
REMARK  0 active torsions:
REMARK  status: ('A' for Active; 'I' for Inactive)
ROOT
ATOM      1  C2' OXE d   1       6.000   3.170   4.273  0.00  0.00     0.078 C 
ATOM      2  C1' OXE d   1       5.938   5.973   4.134  0.00  0.00     0.078 C 
ATOM      3  C1  OXE d   1       4.784   5.277   4.811  0.00  0.00    -0.078 A 
ATOM      4  C2  OXE d   1       4.800   3.903   4.833  0.00  0.00    -0.078 A 
ATOM      5  C3  OXE d   1       3.787   3.212   5.493  0.00  0.00     0.003 A 
ATOM      6  C4  OXE d   1       2.676   3.897   5.999  0.00  0.00    -0.002 A 
ATOM      7  C5  OXE d   1       2.621   5.294   5.952  0.00  0.00    -0.002 A 
ATOM      8  C6  OXE d   1       3.685   6.000   5.400  0.00  0.00     0.003 A 
ENDROOT
TORSDOF 0
ENDMDL
