MODEL 1
REMARK minimizedAffinity -5.07606792
REMARK minimizedRMSD -1
REMARK  0 active torsions:
REMARK  status: ('A' for Active; 'I' for Inactive)
ROOT
ATOM      1  C2' OXE d   1      -1.463   1.013  -1.532  0.00  0.00     0.078 C 
ATOM      2  C1' OXE d   1      -3.243  -0.493   0.032  0.00  0.00     0.078 C 
ATOM      3  C1  OXE d   1      -1.769  -0.615   0.329  0.00  0.00    -0.078 A 
ATOM      4  C2  OXE d   1      -0.902   0.089  -0.472  0.00  0.00    -0.078 A 
ATOM      5  C3  OXE d   1       0.464   0.055  -0.207  0.00  0.00     0.003 A 
ATOM      6  C4  OXE d   1       0.975  -0.809   0.769  0.00  0.00    -0.002 A 
ATOM      7  C5  OXE d   1       0.113  -1.565   1.570  0.00  0.00    -0.002 A 
ATOM      8  C6  OXE d   1      -1.261  -1.447   1.391  0.00  0.00     0.003 A 
ENDROOT
TORSDOF 0
ENDMDL
