MODEL 1
REMARK minimizedAffinity -3.24912572
REMARK minimizedRMSD -1
REMARK  0 active torsions:
REMARK  status: ('A' for Active; 'I' for Inactive)
ROOT
ATOM      1  C2' OXE d   1      -2.351  -0.805  -1.032  0.00  0.00     0.078 C 
ATOM      2  C1' OXE d   1      -0.292   0.478  -2.443  0.00  0.00     0.078 C 
ATOM      3  C1  OXE d   1       0.052  -0.156  -1.119  0.00  0.00    -0.078 A 
ATOM      4  C2  OXE d   1      -0.971  -0.742  -0.414  0.00  0.00    -0.078 A 
ATOM      5  C3  OXE d   1      -0.698  -1.389   0.788  0.00  0.00     0.003 A 
ATOM      6  C4  OXE d   1       0.579  -1.317   1.358  0.00  0.00    -0.002 A 
ATOM      7  C5  OXE d   1       1.627  -0.692   0.674  0.00  0.00    -0.002 A 
ATOM      8  C6  OXE d   1       1.391  -0.145  -0.582  0.00  0.00     0.003 A 
ENDROOT
TORSDOF 0
ENDMDL
