MODEL 1
REMARK minimizedAffinity 1.66527224
REMARK minimizedRMSD -1
REMARK  0 active torsions:
REMARK  status: ('A' for Active; 'I' for Inactive)
ROOT
ATOM      1  C2' OXE d   1       4.880  -1.602  -0.395  0.00  0.00     0.078 C 
ATOM      2  C1' OXE d   1       5.446  -1.425  -3.138  0.00  0.00     0.078 C 
ATOM      3  C1  OXE d   1       5.563  -0.168  -2.314  0.00  0.00    -0.078 A 
ATOM      4  C2  OXE d   1       5.239  -0.253  -0.981  0.00  0.00    -0.078 A 
ATOM      5  C3  OXE d   1       5.382   0.864  -0.164  0.00  0.00     0.003 A 
ATOM      6  C4  OXE d   1       5.704   2.110  -0.716  0.00  0.00    -0.002 A 
ATOM      7  C5  OXE d   1       6.000   2.227  -2.078  0.00  0.00    -0.002 A 
ATOM      8  C6  OXE d   1       5.975   1.092  -2.881  0.00  0.00     0.003 A 
ENDROOT
TORSDOF 0
ENDMDL
