MODEL 1
REMARK minimizedAffinity -3.13523698
REMARK minimizedRMSD -1
REMARK  0 active torsions:
REMARK  status: ('A' for Active; 'I' for Inactive)
ROOT
ATOM      1  C2' OXE d   1      -0.623   0.222  -1.140  0.00  0.00     0.078 C 
ATOM      2  C1' OXE d   1      -2.415  -1.381  -2.589  0.00  0.00     0.078 C 
ATOM      3  C1  OXE d   1      -2.428  -1.494  -1.085  0.00  0.00    -0.078 A 
ATOM      4  C2  OXE d   1      -1.516  -0.740  -0.386  0.00  0.00    -0.078 A 
ATOM      5  C3  OXE d   1      -1.522  -0.765   1.006  0.00  0.00     0.003 A 
ATOM      6  C4  OXE d   1      -2.344  -1.665   1.695  0.00  0.00    -0.002 A 
ATOM      7  C5  OXE d   1      -3.253  -2.471   1.000  0.00  0.00    -0.002 A 
ATOM      8  C6  OXE d   1      -3.337  -2.367  -0.384  0.00  0.00     0.003 A 
ENDROOT
TORSDOF 0
ENDMDL
