MODEL 1
REMARK minimizedAffinity -1.44293153
REMARK minimizedRMSD -1
REMARK  0 active torsions:
REMARK  status: ('A' for Active; 'I' for Inactive)
ROOT
ATOM      1  C2' OXE d   1      -1.087  -1.096   2.167  0.00  0.00     0.078 C 
ATOM      2  C1' OXE d   1      -2.961  -0.970   0.081  0.00  0.00     0.078 C 
ATOM      3  C1  OXE d   1      -1.525  -0.642  -0.243  0.00  0.00    -0.078 A 
ATOM      4  C2  OXE d   1      -0.623  -0.661   0.794  0.00  0.00    -0.078 A 
ATOM      5  C3  OXE d   1       0.724  -0.420   0.540  0.00  0.00     0.003 A 
ATOM      6  C4  OXE d   1       1.144  -0.008  -0.731  0.00  0.00    -0.002 A 
ATOM      7  C5  OXE d   1       0.234   0.056  -1.792  0.00  0.00    -0.002 A 
ATOM      8  C6  OXE d   1      -1.093  -0.298  -1.575  0.00  0.00     0.003 A 
ENDROOT
TORSDOF 0
ENDMDL
