MODEL 1
REMARK minimizedAffinity -3.88328385
REMARK minimizedRMSD -1
REMARK  0 active torsions:
REMARK  status: ('A' for Active; 'I' for Inactive)
ROOT
ATOM      1  C2' OXE d   1      -0.951  -2.181   1.829  0.00  0.00     0.078 C 
ATOM      2  C1' OXE d   1      -2.836  -1.471  -0.126  0.00  0.00     0.078 C 
ATOM      3  C1  OXE d   1      -1.458  -0.867  -0.226  0.00  0.00    -0.078 A 
ATOM      4  C2  OXE d   1      -0.556  -1.184   0.762  0.00  0.00    -0.078 A 
ATOM      5  C3  OXE d   1       0.746  -0.697   0.687  0.00  0.00     0.003 A 
ATOM      6  C4  OXE d   1       1.100   0.233  -0.297  0.00  0.00    -0.002 A 
ATOM      7  C5  OXE d   1       0.185   0.600  -1.290  0.00  0.00    -0.002 A 
ATOM      8  C6  OXE d   1      -1.082   0.027  -1.293  0.00  0.00     0.003 A 
ENDROOT
TORSDOF 0
ENDMDL
