MODEL 1
REMARK minimizedAffinity -1.614802
REMARK minimizedRMSD -1
REMARK  0 active torsions:
REMARK  status: ('A' for Active; 'I' for Inactive)
ROOT
ATOM      1  C2' OXE d   1      -2.153  -1.529   1.546  0.00  0.00     0.078 C 
ATOM      2  C1' OXE d   1      -2.805  -2.191  -1.103  0.00  0.00     0.078 C 
ATOM      3  C1  OXE d   1      -1.680  -1.212  -0.879  0.00  0.00    -0.078 A 
ATOM      4  C2  OXE d   1      -1.398  -0.858   0.419  0.00  0.00    -0.078 A 
ATOM      5  C3  OXE d   1      -0.334  -0.001   0.684  0.00  0.00     0.003 A 
ATOM      6  C4  OXE d   1       0.352   0.623  -0.365  0.00  0.00    -0.002 A 
ATOM      7  C5  OXE d   1       0.055   0.307  -1.695  0.00  0.00    -0.002 A 
ATOM      8  C6  OXE d   1      -0.928  -0.639  -1.967  0.00  0.00     0.003 A 
ENDROOT
TORSDOF 0
ENDMDL
