MODEL 1
REMARK minimizedAffinity 1.95162761
REMARK minimizedRMSD -1
REMARK  0 active torsions:
REMARK  status: ('A' for Active; 'I' for Inactive)
ROOT
ATOM      1  C2' OXE d   1       0.027  -1.188   1.203  0.00  0.00     0.078 C 
ATOM      2  C1' OXE d   1      -2.452  -2.001   0.167  0.00  0.00     0.078 C 
ATOM      3  C1  OXE d   1      -1.694  -0.932  -0.580  0.00  0.00    -0.078 A 
ATOM      4  C2  OXE d   1      -0.503  -0.507  -0.040  0.00  0.00    -0.078 A 
ATOM      5  C3  OXE d   1       0.262   0.437  -0.718  0.00  0.00     0.003 A 
ATOM      6  C4  OXE d   1      -0.240   1.069  -1.861  0.00  0.00    -0.002 A 
ATOM      7  C5  OXE d   1      -1.469   0.680  -2.406  0.00  0.00    -0.002 A 
ATOM      8  C6  OXE d   1      -2.187  -0.347  -1.802  0.00  0.00     0.003 A 
ENDROOT
TORSDOF 0
ENDMDL
