MODEL 1
REMARK minimizedAffinity -2.52086115
REMARK minimizedRMSD -1
REMARK  0 active torsions:
REMARK  status: ('A' for Active; 'I' for Inactive)
ROOT
ATOM      1  C2' OXE d   1      -0.101   0.483  -3.070  0.00  0.00     0.078 C 
ATOM      2  C1' OXE d   1       1.376   0.715  -0.694  0.00  0.00     0.078 C 
ATOM      3  C1  OXE d   1      -0.067   0.289  -0.587  0.00  0.00    -0.078 A 
ATOM      4  C2  OXE d   1      -0.795   0.223  -1.750  0.00  0.00    -0.078 A 
ATOM      5  C3  OXE d   1      -2.115  -0.217  -1.714  0.00  0.00     0.003 A 
ATOM      6  C4  OXE d   1      -2.753  -0.445  -0.488  0.00  0.00    -0.002 A 
ATOM      7  C5  OXE d   1      -2.040  -0.345   0.712  0.00  0.00    -0.002 A 
ATOM      8  C6  OXE d   1      -0.688  -0.022   0.677  0.00  0.00     0.003 A 
ENDROOT
TORSDOF 0
ENDMDL
