MODEL 1
REMARK minimizedAffinity -4.46021414
REMARK minimizedRMSD -1
REMARK  0 active torsions:
REMARK  status: ('A' for Active; 'I' for Inactive)
ROOT
ATOM      1  C2' OXE d   1      -2.930  -1.146  -0.199  0.00  0.00     0.078 C 
ATOM      2  C1' OXE d   1      -1.339  -2.268   1.823  0.00  0.00     0.078 C 
ATOM      3  C1  OXE d   1      -0.700  -1.255   0.905  0.00  0.00    -0.078 A 
ATOM      4  C2  OXE d   1      -1.473  -0.746  -0.110  0.00  0.00    -0.078 A 
ATOM      5  C3  OXE d   1      -0.950   0.231  -0.951  0.00  0.00     0.003 A 
ATOM      6  C4  OXE d   1       0.402   0.588  -0.868  0.00  0.00    -0.002 A 
ATOM      7  C5  OXE d   1       1.217   0.052   0.134  0.00  0.00    -0.002 A 
ATOM      8  C6  OXE d   1       0.672  -0.837   1.053  0.00  0.00     0.003 A 
ENDROOT
TORSDOF 0
ENDMDL
