MODEL 1
REMARK minimizedAffinity 1.89069712
REMARK minimizedRMSD -1
REMARK  1 active torsions:
REMARK  status: ('A' for Active; 'I' for Inactive)
REMARK    1  A    between atoms: C1_2  and  C2_3 
ROOT
ATOM      1  C2  UNL d   1      -1.113  -0.431   2.413  0.00  0.00    -0.073 A 
ATOM      2  C3  UNL d   1      -1.810  -1.608   2.116  0.00  0.00    -0.002 A 
ATOM      3  C4  UNL d   1      -2.443  -1.760   0.882  0.00  0.00     0.004 A 
ATOM      4  C5  UNL d   1      -2.380  -0.742  -0.069  0.00  0.00    -0.004 A 
ATOM      5  C6  UNL d   1      -1.679   0.437   0.204  0.00  0.00    -0.075 A 
ATOM      6  C7  UNL d   1      -1.604   1.542  -0.808  0.00  0.00     0.076 C 
ATOM      7  C8  UNL d   1      -1.048   0.583   1.447  0.00  0.00     0.001 A 
ENDROOT
BRANCH   1   8
ATOM      8  C1  UNL d   1      -0.422  -0.265   3.742  0.00  0.00     0.053 C 
ATOM      9  C   UNL d   1       0.557  -1.393   4.020  0.00  0.00     0.018 C 
ENDBRANCH   1   8
TORSDOF 1
ENDMDL
