MODEL 1
REMARK minimizedAffinity -0.0812200084
REMARK minimizedRMSD -1
REMARK  1 active torsions:
REMARK  status: ('A' for Active; 'I' for Inactive)
REMARK    1  A    between atoms: C1_2  and  C2_3 
ROOT
ATOM      1  C2  UNL d   1       0.727  -1.388   3.607  0.00  0.00    -0.073 A 
ATOM      2  C3  UNL d   1       1.140  -0.630   2.505  0.00  0.00    -0.002 A 
ATOM      3  C4  UNL d   1       0.201  -0.123   1.606  0.00  0.00     0.004 A 
ATOM      4  C5  UNL d   1      -1.159  -0.362   1.802  0.00  0.00    -0.004 A 
ATOM      5  C6  UNL d   1      -1.593  -1.107   2.904  0.00  0.00    -0.075 A 
ATOM      6  C7  UNL d   1      -3.052  -1.374   3.128  0.00  0.00     0.076 C 
ATOM      7  C8  UNL d   1      -0.644  -1.615   3.801  0.00  0.00     0.001 A 
ENDROOT
BRANCH   1   8
ATOM      8  C1  UNL d   1       1.736  -1.932   4.584  0.00  0.00     0.053 C 
ATOM      9  C   UNL d   1       1.705  -1.188   5.909  0.00  0.00     0.018 C 
ENDBRANCH   1   8
TORSDOF 1
ENDMDL
