MODEL 1
REMARK minimizedAffinity -3.87286568
REMARK minimizedRMSD -1
REMARK  1 active torsions:
REMARK  status: ('A' for Active; 'I' for Inactive)
REMARK    1  A    between atoms: C1_2  and  C2_3 
ROOT
ATOM      1  C2  UNL d   1      -0.722  -0.560   1.374  0.00  0.00    -0.073 A 
ATOM      2  C3  UNL d   1      -1.966  -0.836   1.951  0.00  0.00    -0.002 A 
ATOM      3  C4  UNL d   1      -2.045  -1.346   3.248  0.00  0.00     0.004 A 
ATOM      4  C5  UNL d   1      -0.882  -1.577   3.983  0.00  0.00    -0.004 A 
ATOM      5  C6  UNL d   1       0.370  -1.296   3.428  0.00  0.00    -0.075 A 
ATOM      6  C7  UNL d   1       1.631  -1.542   4.205  0.00  0.00     0.076 C 
ATOM      7  C8  UNL d   1       0.441  -0.788   2.124  0.00  0.00     0.001 A 
ENDROOT
BRANCH   1   8
ATOM      8  C1  UNL d   1      -0.632  -0.004  -0.023  0.00  0.00     0.053 C 
ATOM      9  C   UNL d   1      -1.598  -0.694  -0.974  0.00  0.00     0.018 C 
ENDBRANCH   1   8
TORSDOF 1
ENDMDL
