MODEL 1
REMARK minimizedAffinity -2.96887708
REMARK minimizedRMSD -1
REMARK  1 active torsions:
REMARK  status: ('A' for Active; 'I' for Inactive)
REMARK    1  A    between atoms: C1_2  and  C2_3 
ROOT
ATOM      1  C2  UNL d   1       1.432  -1.875   4.358  0.00  0.00    -0.073 A 
ATOM      2  C3  UNL d   1       0.094  -2.285   4.392  0.00  0.00    -0.002 A 
ATOM      3  C4  UNL d   1      -0.785  -1.907   3.376  0.00  0.00     0.004 A 
ATOM      4  C5  UNL d   1      -0.335  -1.124   2.313  0.00  0.00    -0.004 A 
ATOM      5  C6  UNL d   1       1.001  -0.715   2.255  0.00  0.00    -0.075 A 
ATOM      6  C7  UNL d   1       1.501   0.130   1.120  0.00  0.00     0.076 C 
ATOM      7  C8  UNL d   1       1.877  -1.096   3.281  0.00  0.00     0.001 A 
ENDROOT
BRANCH   1   8
ATOM      8  C1  UNL d   1       2.386  -2.286   5.449  0.00  0.00     0.053 C 
ATOM      9  C   UNL d   1       3.165  -1.102   6.000  0.00  0.00     0.018 C 
ENDBRANCH   1   8
TORSDOF 1
ENDMDL
