MODEL 1
REMARK minimizedAffinity 0.522664368
REMARK minimizedRMSD -1
REMARK  1 active torsions:
REMARK  status: ('A' for Active; 'I' for Inactive)
REMARK    1  A    between atoms: C1_2  and  C2_3 
ROOT
ATOM      1  C2  UNL d   1      -0.120  -0.251   1.669  0.00  0.00    -0.073 A 
ATOM      2  C3  UNL d   1      -1.245  -0.110   2.490  0.00  0.00    -0.002 A 
ATOM      3  C4  UNL d   1      -1.203  -0.529   3.821  0.00  0.00     0.004 A 
ATOM      4  C5  UNL d   1      -0.036  -1.085   4.346  0.00  0.00    -0.004 A 
ATOM      5  C6  UNL d   1       1.102  -1.223   3.544  0.00  0.00    -0.075 A 
ATOM      6  C7  UNL d   1       2.364  -1.822   4.092  0.00  0.00     0.076 C 
ATOM      7  C8  UNL d   1       1.051  -0.803   2.208  0.00  0.00     0.001 A 
ENDROOT
BRANCH   1   8
ATOM      8  C1  UNL d   1      -0.159   0.205   0.234  0.00  0.00     0.053 C 
ATOM      9  C   UNL d   1      -1.290  -0.450  -0.543  0.00  0.00     0.018 C 
ENDBRANCH   1   8
TORSDOF 1
ENDMDL
