MODEL 1
REMARK minimizedAffinity 2.08932853
REMARK minimizedRMSD -1
REMARK  1 active torsions:
REMARK  status: ('A' for Active; 'I' for Inactive)
REMARK    1  A    between atoms: C1_2  and  C2_3 
ROOT
ATOM      1  C2  UNL d   1       0.244  -0.963   2.723  0.00  0.00    -0.073 A 
ATOM      2  C3  UNL d   1      -0.849  -1.796   2.986  0.00  0.00    -0.002 A 
ATOM      3  C4  UNL d   1      -0.789  -2.733   4.019  0.00  0.00     0.004 A 
ATOM      4  C5  UNL d   1       0.360  -2.841   4.803  0.00  0.00    -0.004 A 
ATOM      5  C6  UNL d   1       1.458  -2.008   4.563  0.00  0.00    -0.075 A 
ATOM      6  C7  UNL d   1       2.702  -2.113   5.396  0.00  0.00     0.076 C 
ATOM      7  C8  UNL d   1       1.391  -1.072   3.522  0.00  0.00     0.001 A 
ENDROOT
BRANCH   1   8
ATOM      8  C1  UNL d   1       0.181   0.054   1.613  0.00  0.00     0.053 C 
ATOM      9  C   UNL d   1      -1.174   0.740   1.544  0.00  0.00     0.018 C 
ENDBRANCH   1   8
TORSDOF 1
ENDMDL
