MODEL 1
REMARK minimizedAffinity -5.01375771
REMARK minimizedRMSD -1
REMARK  0 active torsions:
REMARK  status: ('A' for Active; 'I' for Inactive)
ROOT
ATOM      1  C1  DEN d   1       0.052  -3.008  -0.490  0.00  0.00     0.130 A 
ATOM      2  C2  DEN d   1       0.951  -2.224  -1.333  0.00  0.00    -0.031 A 
ATOM      3  C3  DEN d   1       0.797  -0.802  -0.966  0.00  0.00     0.027 A 
ATOM      4  C4  DEN d   1      -0.736   0.256   0.818  0.00  0.00     0.027 A 
ATOM      5  C5  DEN d   1      -1.690  -0.006   1.777  0.00  0.00    -0.003 A 
ATOM      6  C6  DEN d   1      -2.151  -1.272   2.022  0.00  0.00     0.001 A 
ATOM      7  C7  DEN d   1      -1.625  -2.331   1.330  0.00  0.00     0.017 A 
ATOM      8  C8  DEN d   1      -0.669  -2.074   0.356  0.00  0.00    -0.094 A 
ATOM      9  C9  DEN d   1      -0.207  -0.788   0.132  0.00  0.00    -0.072 A 
ENDROOT
TORSDOF 0
ENDMDL
