MODEL 1
REMARK minimizedAffinity -2.00975919
REMARK minimizedRMSD -1
REMARK  0 active torsions:
REMARK  status: ('A' for Active; 'I' for Inactive)
ROOT
ATOM      1  C1  DEN d   1      -0.712  -3.094  -2.008  0.00  0.00     0.130 A 
ATOM      2  C2  DEN d   1      -0.091  -2.164  -2.947  0.00  0.00    -0.031 A 
ATOM      3  C3  DEN d   1       0.133  -0.886  -2.242  0.00  0.00     0.027 A 
ATOM      4  C4  DEN d   1      -0.415  -0.261   0.199  0.00  0.00     0.027 A 
ATOM      5  C5  DEN d   1      -0.959  -0.716   1.379  0.00  0.00    -0.003 A 
ATOM      6  C6  DEN d   1      -1.486  -1.975   1.503  0.00  0.00     0.001 A 
ATOM      7  C7  DEN d   1      -1.439  -2.837   0.439  0.00  0.00     0.017 A 
ATOM      8  C8  DEN d   1      -0.898  -2.382  -0.756  0.00  0.00    -0.094 A 
ATOM      9  C9  DEN d   1      -0.359  -1.111  -0.857  0.00  0.00    -0.072 A 
ENDROOT
TORSDOF 0
ENDMDL
