MODEL 1
REMARK minimizedAffinity -1.50179994
REMARK minimizedRMSD -1
REMARK  0 active torsions:
REMARK  status: ('A' for Active; 'I' for Inactive)
ROOT
ATOM      1  C1  DEN d   1      -0.094  -1.690  -2.526  0.00  0.00     0.130 A 
ATOM      2  C2  DEN d   1      -0.558  -3.026  -2.888  0.00  0.00    -0.031 A 
ATOM      3  C3  DEN d   1      -1.160  -3.641  -1.687  0.00  0.00     0.027 A 
ATOM      4  C4  DEN d   1      -1.421  -2.655   0.682  0.00  0.00     0.027 A 
ATOM      5  C5  DEN d   1      -1.170  -1.558   1.475  0.00  0.00    -0.003 A 
ATOM      6  C6  DEN d   1      -0.517  -0.450   1.003  0.00  0.00     0.001 A 
ATOM      7  C7  DEN d   1      -0.133  -0.397  -0.311  0.00  0.00     0.017 A 
ATOM      8  C8  DEN d   1      -0.377  -1.502  -1.115  0.00  0.00    -0.094 A 
ATOM      9  C9  DEN d   1      -1.049  -2.608  -0.622  0.00  0.00    -0.072 A 
ENDROOT
TORSDOF 0
ENDMDL
