MODEL 1
REMARK minimizedAffinity -2.63707638
REMARK minimizedRMSD -1
REMARK  0 active torsions:
REMARK  status: ('A' for Active; 'I' for Inactive)
ROOT
ATOM      1  C1  DEN d   1       0.078  -0.697  -2.196  0.00  0.00     0.130 A 
ATOM      2  C2  DEN d   1      -0.099   0.748  -2.087  0.00  0.00    -0.031 A 
ATOM      3  C3  DEN d   1      -0.697   1.036  -0.768  0.00  0.00     0.027 A 
ATOM      4  C4  DEN d   1      -1.357  -0.606   1.108  0.00  0.00     0.027 A 
ATOM      5  C5  DEN d   1      -1.407  -1.934   1.472  0.00  0.00    -0.003 A 
ATOM      6  C6  DEN d   1      -1.001  -2.936   0.632  0.00  0.00     0.001 A 
ATOM      7  C7  DEN d   1      -0.484  -2.624  -0.598  0.00  0.00     0.017 A 
ATOM      8  C8  DEN d   1      -0.437  -1.288  -0.974  0.00  0.00    -0.094 A 
ATOM      9  C9  DEN d   1      -0.841  -0.288  -0.106  0.00  0.00    -0.072 A 
ENDROOT
TORSDOF 0
ENDMDL
