MODEL 1
REMARK minimizedAffinity -4.09031916
REMARK minimizedRMSD -1
REMARK  0 active torsions:
REMARK  status: ('A' for Active; 'I' for Inactive)
ROOT
ATOM      1  C1  DEN d   1       0.770   0.531  -0.106  0.00  0.00     0.130 A 
ATOM      2  C2  DEN d   1      -0.309   1.402   0.352  0.00  0.00    -0.031 A 
ATOM      3  C3  DEN d   1      -1.399   0.547   0.864  0.00  0.00     0.027 A 
ATOM      4  C4  DEN d   1      -1.519  -2.026   0.995  0.00  0.00     0.027 A 
ATOM      5  C5  DEN d   1      -0.848  -3.196   0.716  0.00  0.00    -0.003 A 
ATOM      6  C6  DEN d   1       0.383  -3.208   0.118  0.00  0.00     0.001 A 
ATOM      7  C7  DEN d   1       1.004  -2.024  -0.181  0.00  0.00     0.017 A 
ATOM      8  C8  DEN d   1       0.331  -0.839   0.090  0.00  0.00    -0.094 A 
ATOM      9  C9  DEN d   1      -0.908  -0.849   0.707  0.00  0.00    -0.072 A 
ENDROOT
TORSDOF 0
ENDMDL
