MODEL 1
REMARK minimizedAffinity -3.85849094
REMARK minimizedRMSD -1
REMARK  0 active torsions:
REMARK  status: ('A' for Active; 'I' for Inactive)
ROOT
ATOM      1  C1  DEN d   1      -1.183  -1.325   1.316  0.00  0.00     0.130 A 
ATOM      2  C2  DEN d   1      -0.828  -2.741   1.283  0.00  0.00    -0.031 A 
ATOM      3  C3  DEN d   1      -0.117  -3.005   0.016  0.00  0.00     0.027 A 
ATOM      4  C4  DEN d   1       0.468  -1.365  -1.887  0.00  0.00     0.027 A 
ATOM      5  C5  DEN d   1       0.364  -0.060  -2.317  0.00  0.00    -0.003 A 
ATOM      6  C6  DEN d   1      -0.288   0.899  -1.587  0.00  0.00     0.001 A 
ATOM      7  C7  DEN d   1      -0.822   0.577  -0.367  0.00  0.00     0.017 A 
ATOM      8  C8  DEN d   1      -0.726  -0.737   0.069  0.00  0.00    -0.094 A 
ATOM      9  C9  DEN d   1      -0.053  -1.689  -0.677  0.00  0.00    -0.072 A 
ENDROOT
TORSDOF 0
ENDMDL
