MODEL 1
REMARK minimizedAffinity -5.75985289
REMARK minimizedRMSD -1
REMARK  0 active torsions:
REMARK  status: ('A' for Active; 'I' for Inactive)
ROOT
ATOM      1  C1  DEN d   1      -1.301  -2.940   1.170  0.00  0.00     0.130 A 
ATOM      2  C2  DEN d   1      -1.756  -1.942   2.133  0.00  0.00    -0.031 A 
ATOM      3  C3  DEN d   1      -1.377  -0.609   1.624  0.00  0.00     0.027 A 
ATOM      4  C4  DEN d   1      -0.139   0.003  -0.555  0.00  0.00     0.027 A 
ATOM      5  C5  DEN d   1       0.458  -0.505  -1.687  0.00  0.00    -0.003 A 
ATOM      6  C6  DEN d   1       0.541  -1.850  -1.928  0.00  0.00     0.001 A 
ATOM      7  C7  DEN d   1      -0.023  -2.734  -1.046  0.00  0.00     0.017 A 
ATOM      8  C8  DEN d   1      -0.621  -2.229   0.102  0.00  0.00    -0.094 A 
ATOM      9  C9  DEN d   1      -0.705  -0.865   0.321  0.00  0.00    -0.072 A 
ENDROOT
TORSDOF 0
ENDMDL
