MODEL 1
REMARK minimizedAffinity -5.14586067
REMARK minimizedRMSD -1
REMARK  0 active torsions:
REMARK  status: ('A' for Active; 'I' for Inactive)
ROOT
ATOM      1  C1  DEN d   1      -0.450  -3.062  -1.126  0.00  0.00     0.130 A 
ATOM      2  C2  DEN d   1       0.077  -2.805  -2.463  0.00  0.00    -0.031 A 
ATOM      3  C3  DEN d   1       0.314  -1.353  -2.589  0.00  0.00     0.027 A 
ATOM      4  C4  DEN d   1      -0.076   0.511  -0.849  0.00  0.00     0.027 A 
ATOM      5  C5  DEN d   1      -0.522   0.782   0.426  0.00  0.00    -0.003 A 
ATOM      6  C6  DEN d   1      -1.003  -0.197   1.254  0.00  0.00     0.001 A 
ATOM      7  C7  DEN d   1      -1.007  -1.501   0.833  0.00  0.00     0.017 A 
ATOM      8  C8  DEN d   1      -0.566  -1.780  -0.454  0.00  0.00    -0.094 A 
ATOM      9  C9  DEN d   1      -0.072  -0.778  -1.272  0.00  0.00    -0.072 A 
ENDROOT
TORSDOF 0
ENDMDL
