MODEL 1
REMARK minimizedAffinity -4.66466284
REMARK minimizedRMSD -1
REMARK  0 active torsions:
REMARK  status: ('A' for Active; 'I' for Inactive)
ROOT
ATOM      1  C1  DEN d   1       1.574   2.529  -0.073  0.00  0.00     0.130 A 
ATOM      2  C2  DEN d   1       2.758   2.665   0.770  0.00  0.00    -0.031 A 
ATOM      3  C3  DEN d   1       2.715   1.600   1.793  0.00  0.00     0.027 A 
ATOM      4  C4  DEN d   1       0.941  -0.238   2.148  0.00  0.00     0.027 A 
ATOM      5  C5  DEN d   1      -0.253  -0.750   1.688  0.00  0.00    -0.003 A 
ATOM      6  C6  DEN d   1      -0.932  -0.189   0.640  0.00  0.00     0.001 A 
ATOM      7  C7  DEN d   1      -0.401   0.891  -0.014  0.00  0.00     0.017 A 
ATOM      8  C8  DEN d   1       0.798   1.417   0.448  0.00  0.00    -0.094 A 
ATOM      9  C9  DEN d   1       1.476   0.829   1.502  0.00  0.00    -0.072 A 
ENDROOT
TORSDOF 0
ENDMDL
