MODEL 1
REMARK minimizedAffinity -5.6458993
REMARK minimizedRMSD -1
REMARK  0 active torsions:
REMARK  status: ('A' for Active; 'I' for Inactive)
ROOT
ATOM      1  C1  DEN d   1       0.100  -0.824  -2.264  0.00  0.00     0.130 A 
ATOM      2  C2  DEN d   1      -0.007  -2.194  -2.759  0.00  0.00    -0.031 A 
ATOM      3  C3  DEN d   1      -0.486  -3.044  -1.651  0.00  0.00     0.027 A 
ATOM      4  C4  DEN d   1      -1.074  -2.375   0.770  0.00  0.00     0.027 A 
ATOM      5  C5  DEN d   1      -1.130  -1.328   1.663  0.00  0.00    -0.003 A 
ATOM      6  C6  DEN d   1      -0.751  -0.057   1.322  0.00  0.00     0.001 A 
ATOM      7  C7  DEN d   1      -0.341   0.209   0.043  0.00  0.00     0.017 A 
ATOM      8  C8  DEN d   1      -0.275  -0.843  -0.862  0.00  0.00    -0.094 A 
ATOM      9  C9  DEN d   1      -0.674  -2.119  -0.501  0.00  0.00    -0.072 A 
ENDROOT
TORSDOF 0
ENDMDL
