MODEL 1
REMARK minimizedAffinity -0.229542434
REMARK minimizedRMSD -1
REMARK  0 active torsions:
REMARK  status: ('A' for Active; 'I' for Inactive)
ROOT
ATOM      1  C1  DEN d   1       0.262   1.118   0.918  0.00  0.00     0.130 A 
ATOM      2  C2  DEN d   1       0.608   1.485  -0.452  0.00  0.00    -0.031 A 
ATOM      3  C3  DEN d   1       0.260   0.350  -1.330  0.00  0.00     0.027 A 
ATOM      4  C4  DEN d   1      -0.782  -1.926  -0.704  0.00  0.00     0.027 A 
ATOM      5  C5  DEN d   1      -1.240  -2.702   0.338  0.00  0.00    -0.003 A 
ATOM      6  C6  DEN d   1      -1.198  -2.276   1.639  0.00  0.00     0.001 A 
ATOM      7  C7  DEN d   1      -0.729  -1.022   1.928  0.00  0.00     0.017 A 
ATOM      8  C8  DEN d   1      -0.259  -0.236   0.884  0.00  0.00    -0.094 A 
ATOM      9  C9  DEN d   1      -0.320  -0.680  -0.426  0.00  0.00    -0.072 A 
ENDROOT
TORSDOF 0
ENDMDL
