MODEL 1
REMARK minimizedAffinity -5.98113251
REMARK minimizedRMSD -1
REMARK  0 active torsions:
REMARK  status: ('A' for Active; 'I' for Inactive)
ROOT
ATOM      1  C1  DEN d   1       0.444  -3.173  -0.517  0.00  0.00     0.130 A 
ATOM      2  C2  DEN d   1       0.065  -3.035   0.887  0.00  0.00    -0.031 A 
ATOM      3  C3  DEN d   1      -0.406  -1.651   1.099  0.00  0.00     0.027 A 
ATOM      4  C4  DEN d   1      -0.588   0.279  -0.602  0.00  0.00     0.027 A 
ATOM      5  C5  DEN d   1      -0.372   0.645  -1.912  0.00  0.00    -0.003 A 
ATOM      6  C6  DEN d   1       0.159  -0.218  -2.833  0.00  0.00     0.001 A 
ATOM      7  C7  DEN d   1       0.449  -1.506  -2.468  0.00  0.00     0.017 A 
ATOM      8  C8  DEN d   1       0.241  -1.880  -1.147  0.00  0.00    -0.094 A 
ATOM      9  C9  DEN d   1      -0.307  -0.996  -0.233  0.00  0.00    -0.072 A 
ENDROOT
TORSDOF 0
ENDMDL
