MODEL 1
REMARK minimizedAffinity -1.79180026
REMARK minimizedRMSD -1
REMARK  0 active torsions:
REMARK  status: ('A' for Active; 'I' for Inactive)
ROOT
ATOM      1  C1  DEN d   1      -0.086  -0.518  -1.451  0.00  0.00     0.130 A 
ATOM      2  C2  DEN d   1      -0.030   0.938  -1.344  0.00  0.00    -0.031 A 
ATOM      3  C3  DEN d   1      -0.477   1.313   0.012  0.00  0.00     0.027 A 
ATOM      4  C4  DEN d   1      -1.241  -0.210   1.949  0.00  0.00     0.027 A 
ATOM      5  C5  DEN d   1      -1.467  -1.514   2.328  0.00  0.00    -0.003 A 
ATOM      6  C6  DEN d   1      -1.283  -2.567   1.472  0.00  0.00     0.001 A 
ATOM      7  C7  DEN d   1      -0.817  -2.337   0.204  0.00  0.00     0.017 A 
ATOM      8  C8  DEN d   1      -0.593  -1.024  -0.188  0.00  0.00    -0.094 A 
ATOM      9  C9  DEN d   1      -0.773   0.026   0.697  0.00  0.00    -0.072 A 
ENDROOT
TORSDOF 0
ENDMDL
