MODEL 1
REMARK minimizedAffinity -1.69614792
REMARK minimizedRMSD -1
REMARK  0 active torsions:
REMARK  status: ('A' for Active; 'I' for Inactive)
ROOT
ATOM      1  C1  DEN d   1      -0.654   1.385  -0.349  0.00  0.00     0.130 A 
ATOM      2  C2  DEN d   1       0.173   0.890  -1.446  0.00  0.00    -0.031 A 
ATOM      3  C3  DEN d   1       1.457   1.618  -1.414  0.00  0.00     0.027 A 
ATOM      4  C4  DEN d   1       2.243   3.451   0.221  0.00  0.00     0.027 A 
ATOM      5  C5  DEN d   1       1.883   4.212   1.311  0.00  0.00    -0.003 A 
ATOM      6  C6  DEN d   1       0.650   4.109   1.899  0.00  0.00     0.001 A 
ATOM      7  C7  DEN d   1      -0.252   3.193   1.426  0.00  0.00     0.017 A 
ATOM      8  C8  DEN d   1       0.100   2.427   0.323  0.00  0.00    -0.094 A 
ATOM      9  C9  DEN d   1       1.356   2.538  -0.250  0.00  0.00    -0.072 A 
ENDROOT
TORSDOF 0
ENDMDL
