MODEL 1
REMARK minimizedAffinity -4.38775396
REMARK minimizedRMSD -1
REMARK  0 active torsions:
REMARK  status: ('A' for Active; 'I' for Inactive)
ROOT
ATOM      1  C1  BNZ d   1       0.114  -0.266   1.648  0.00  0.00     0.000 A 
ATOM      2  C2  BNZ d   1      -0.307  -0.181   2.948  0.00  0.00     0.000 A 
ATOM      3  C3  BNZ d   1      -1.624   0.028   3.246  0.00  0.00     0.000 A 
ATOM      4  C4  BNZ d   1      -2.512   0.193   2.244  0.00  0.00     0.000 A 
ATOM      5  C5  BNZ d   1      -2.102   0.120   0.927  0.00  0.00     0.000 A 
ATOM      6  C6  BNZ d   1      -0.782  -0.130   0.632  0.00  0.00     0.000 A 
ENDROOT
TORSDOF 0
ENDMDL
