MODEL 1
REMARK minimizedAffinity -2.36517882
REMARK minimizedRMSD -1
REMARK  0 active torsions:
REMARK  status: ('A' for Active; 'I' for Inactive)
ROOT
ATOM      1  C1  BNZ d   1       0.304   0.344   2.239  0.00  0.00     0.000 A 
ATOM      2  C2  BNZ d   1       1.044   0.143   1.105  0.00  0.00     0.000 A 
ATOM      3  C3  BNZ d   1       0.468   0.231  -0.132  0.00  0.00     0.000 A 
ATOM      4  C4  BNZ d   1      -0.854   0.480  -0.231  0.00  0.00     0.000 A 
ATOM      5  C5  BNZ d   1      -1.616   0.676   0.904  0.00  0.00     0.000 A 
ATOM      6  C6  BNZ d   1      -1.024   0.625   2.146  0.00  0.00     0.000 A 
ENDROOT
TORSDOF 0
ENDMDL
