MODEL 1
REMARK minimizedAffinity -1.80998361
REMARK minimizedRMSD -1
REMARK  0 active torsions:
REMARK  status: ('A' for Active; 'I' for Inactive)
ROOT
ATOM      1  C1  BNZ d   1      -0.168   0.964  -0.596  0.00  0.00     0.000 A 
ATOM      2  C2  BNZ d   1       0.243   1.162   0.695  0.00  0.00     0.000 A 
ATOM      3  C3  BNZ d   1       0.928   0.190   1.369  0.00  0.00     0.000 A 
ATOM      4  C4  BNZ d   1       1.165  -0.993   0.766  0.00  0.00     0.000 A 
ATOM      5  C5  BNZ d   1       0.749  -1.211  -0.533  0.00  0.00     0.000 A 
ATOM      6  C6  BNZ d   1       0.094  -0.216  -1.221  0.00  0.00     0.000 A 
ENDROOT
TORSDOF 0
ENDMDL
