MODEL 1
REMARK minimizedAffinity -1.48775673
REMARK minimizedRMSD -1
REMARK  0 active torsions:
REMARK  status: ('A' for Active; 'I' for Inactive)
ROOT
ATOM      1  C1  BNZ d   1       0.364   0.802   1.165  0.00  0.00     0.000 A 
ATOM      2  C2  BNZ d   1      -0.422   0.837   0.043  0.00  0.00     0.000 A 
ATOM      3  C3  BNZ d   1      -0.172   0.005  -1.012  0.00  0.00     0.000 A 
ATOM      4  C4  BNZ d   1       0.885  -0.831  -0.962  0.00  0.00     0.000 A 
ATOM      5  C5  BNZ d   1       1.692  -0.871   0.158  0.00  0.00     0.000 A 
ATOM      6  C6  BNZ d   1       1.414  -0.060   1.234  0.00  0.00     0.000 A 
ENDROOT
TORSDOF 0
ENDMDL
