MODEL 1
REMARK minimizedAffinity -2.51903653
REMARK minimizedRMSD -1
REMARK  0 active torsions:
REMARK  status: ('A' for Active; 'I' for Inactive)
ROOT
ATOM      1  C1  BNZ d   1       1.149   0.201   2.185  0.00  0.00     0.000 A 
ATOM      2  C2  BNZ d   1       1.510   0.112   0.867  0.00  0.00     0.000 A 
ATOM      3  C3  BNZ d   1       0.589   0.303  -0.125  0.00  0.00     0.000 A 
ATOM      4  C4  BNZ d   1      -0.697   0.542   0.201  0.00  0.00     0.000 A 
ATOM      5  C5  BNZ d   1      -1.079   0.625   1.525  0.00  0.00     0.000 A 
ATOM      6  C6  BNZ d   1      -0.142   0.471   2.521  0.00  0.00     0.000 A 
ENDROOT
TORSDOF 0
ENDMDL
