MODEL 1
REMARK minimizedAffinity -2.00115442
REMARK minimizedRMSD -1
REMARK  0 active torsions:
REMARK  status: ('A' for Active; 'I' for Inactive)
ROOT
ATOM      1  C1  BNZ d   1       0.080   0.745  -0.409  0.00  0.00     0.000 A 
ATOM      2  C2  BNZ d   1      -1.256   1.026  -0.523  0.00  0.00     0.000 A 
ATOM      3  C3  BNZ d   1      -2.113   0.129  -1.097  0.00  0.00     0.000 A 
ATOM      4  C4  BNZ d   1      -1.629  -1.028  -1.591  0.00  0.00     0.000 A 
ATOM      5  C5  BNZ d   1      -0.283  -1.322  -1.493  0.00  0.00     0.000 A 
ATOM      6  C6  BNZ d   1       0.571  -0.434  -0.879  0.00  0.00     0.000 A 
ENDROOT
TORSDOF 0
ENDMDL
