MODEL 1
REMARK minimizedAffinity -3.44392133
REMARK minimizedRMSD -1
REMARK  0 active torsions:
REMARK  status: ('A' for Active; 'I' for Inactive)
ROOT
ATOM      1  C1  BNZ d   1       0.504   0.470  -0.419  0.00  0.00     0.000 A 
ATOM      2  C2  BNZ d   1       1.224   0.167   0.706  0.00  0.00     0.000 A 
ATOM      3  C3  BNZ d   1       0.638   0.195   1.941  0.00  0.00     0.000 A 
ATOM      4  C4  BNZ d   1      -0.654   0.564   2.054  0.00  0.00     0.000 A 
ATOM      5  C5  BNZ d   1      -1.391   0.882   0.930  0.00  0.00     0.000 A 
ATOM      6  C6  BNZ d   1      -0.808   0.815  -0.315  0.00  0.00     0.000 A 
ENDROOT
TORSDOF 0
ENDMDL
