MODEL 1
REMARK minimizedAffinity -3.07699871
REMARK minimizedRMSD -1
REMARK  0 active torsions:
REMARK  status: ('A' for Active; 'I' for Inactive)
ROOT
ATOM      1  C1  BNZ d   1       1.806  -0.683  -3.666  0.00  0.00     0.000 A 
ATOM      2  C2  BNZ d   1       1.699   0.195  -2.621  0.00  0.00     0.000 A 
ATOM      3  C3  BNZ d   1       0.911  -0.092  -1.543  0.00  0.00     0.000 A 
ATOM      4  C4  BNZ d   1       0.199  -1.238  -1.528  0.00  0.00     0.000 A 
ATOM      5  C5  BNZ d   1       0.289  -2.130  -2.579  0.00  0.00     0.000 A 
ATOM      6  C6  BNZ d   1       1.114  -1.855  -3.645  0.00  0.00     0.000 A 
ENDROOT
TORSDOF 0
ENDMDL
