MODEL 1
REMARK minimizedAffinity -4.62974119
REMARK minimizedRMSD -1
REMARK  0 active torsions:
REMARK  status: ('A' for Active; 'I' for Inactive)
ROOT
ATOM      1  C1  BNZ d   1      -2.277   0.210   1.587  0.00  0.00     0.000 A 
ATOM      2  C2  BNZ d   1      -1.884   0.378   0.286  0.00  0.00     0.000 A 
ATOM      3  C3  BNZ d   1      -0.561   0.498  -0.035  0.00  0.00     0.000 A 
ATOM      4  C4  BNZ d   1       0.363   0.490   0.946  0.00  0.00     0.000 A 
ATOM      5  C5  BNZ d   1      -0.018   0.331   2.264  0.00  0.00     0.000 A 
ATOM      6  C6  BNZ d   1      -1.347   0.171   2.580  0.00  0.00     0.000 A 
ENDROOT
TORSDOF 0
ENDMDL
