MODEL 1
REMARK minimizedAffinity -4.08124065
REMARK minimizedRMSD -1
REMARK  0 active torsions:
REMARK  status: ('A' for Active; 'I' for Inactive)
ROOT
ATOM      1  C1  BNZ d   1      -1.536   0.418   3.030  0.00  0.00     0.000 A 
ATOM      2  C2  BNZ d   1      -0.243   0.789   2.771  0.00  0.00     0.000 A 
ATOM      3  C3  BNZ d   1       0.506   0.117   1.846  0.00  0.00     0.000 A 
ATOM      4  C4  BNZ d   1      -0.024  -0.947   1.210  0.00  0.00     0.000 A 
ATOM      5  C5  BNZ d   1      -1.323  -1.339   1.466  0.00  0.00     0.000 A 
ATOM      6  C6  BNZ d   1      -2.087  -0.637   2.370  0.00  0.00     0.000 A 
ENDROOT
TORSDOF 0
ENDMDL
