MODEL 1
REMARK minimizedAffinity -5.3586607
REMARK minimizedRMSD -1
REMARK  0 active torsions:
REMARK  status: ('A' for Active; 'I' for Inactive)
ROOT
ATOM      1  C1  BNZ d   1      -2.241  -0.338   0.826  0.00  0.00     0.000 A 
ATOM      2  C2  BNZ d   1      -2.713   0.001   2.066  0.00  0.00     0.000 A 
ATOM      3  C3  BNZ d   1      -1.965  -0.228   3.187  0.00  0.00     0.000 A 
ATOM      4  C4  BNZ d   1      -0.764  -0.832   3.070  0.00  0.00     0.000 A 
ATOM      5  C5  BNZ d   1      -0.279  -1.188   1.827  0.00  0.00     0.000 A 
ATOM      6  C6  BNZ d   1      -1.018  -0.920   0.698  0.00  0.00     0.000 A 
ENDROOT
TORSDOF 0
ENDMDL
