MODEL 1
REMARK minimizedAffinity 6.80600405
REMARK minimizedRMSD -1
REMARK  0 active torsions:
REMARK  status: ('A' for Active; 'I' for Inactive)
ROOT
ATOM      1  C2' OXE d   1      -3.576   0.765   5.999  0.00  0.00     0.078 C 
ATOM      2  C1' OXE d   1      -2.334   0.844   3.483  0.00  0.00     0.078 C 
ATOM      3  C1  OXE d   1      -3.505  -0.089   3.660  0.00  0.00    -0.078 A 
ATOM      4  C2  OXE d   1      -4.077  -0.156   4.907  0.00  0.00    -0.078 A 
ATOM      5  C3  OXE d   1      -5.196  -0.960   5.111  0.00  0.00     0.003 A 
ATOM      6  C4  OXE d   1      -5.647  -1.816   4.099  0.00  0.00    -0.002 A 
ATOM      7  C5  OXE d   1      -5.053  -1.793   2.832  0.00  0.00    -0.002 A 
ATOM      8  C6  OXE d   1      -4.011  -0.906   2.584  0.00  0.00     0.003 A 
ENDROOT
TORSDOF 0
ENDMDL
