MODEL 1
REMARK minimizedAffinity 3.91106582
REMARK minimizedRMSD -1
REMARK  0 active torsions:
REMARK  status: ('A' for Active; 'I' for Inactive)
ROOT
ATOM      1  C2' OXE d   1      -2.476   1.029   5.141  0.00  0.00     0.078 C 
ATOM      2  C1' OXE d   1      -1.465   0.763   2.536  0.00  0.00     0.078 C 
ATOM      3  C1  OXE d   1      -2.681  -0.050   2.904  0.00  0.00    -0.078 A 
ATOM      4  C2  OXE d   1      -3.141   0.051   4.195  0.00  0.00    -0.078 A 
ATOM      5  C3  OXE d   1      -4.291  -0.635   4.573  0.00  0.00     0.003 A 
ATOM      6  C4  OXE d   1      -4.894  -1.545   3.695  0.00  0.00    -0.002 A 
ATOM      7  C5  OXE d   1      -4.417  -1.693   2.389  0.00  0.00    -0.002 A 
ATOM      8  C6  OXE d   1      -3.340  -0.923   1.965  0.00  0.00     0.003 A 
ENDROOT
TORSDOF 0
ENDMDL
