MODEL 1
REMARK minimizedAffinity 19.3138237
REMARK minimizedRMSD -1
REMARK  0 active torsions:
REMARK  status: ('A' for Active; 'I' for Inactive)
ROOT
ATOM      1  C2' OXE d   1      -6.000   0.328  -3.995  0.00  0.00     0.078 C 
ATOM      2  C1' OXE d   1      -5.298   2.585  -2.481  0.00  0.00     0.078 C 
ATOM      3  C1  OXE d   1      -5.481   1.278  -1.751  0.00  0.00    -0.078 A 
ATOM      4  C2  OXE d   1      -5.870   0.189  -2.493  0.00  0.00    -0.078 A 
ATOM      5  C3  OXE d   1      -6.000  -1.053  -1.878  0.00  0.00     0.003 A 
ATOM      6  C4  OXE d   1      -5.888  -1.171  -0.488  0.00  0.00    -0.002 A 
ATOM      7  C5  OXE d   1      -5.531  -0.065   0.292  0.00  0.00    -0.002 A 
ATOM      8  C6  OXE d   1      -5.283   1.154  -0.328  0.00  0.00     0.003 A 
ENDROOT
TORSDOF 0
ENDMDL
