MODEL 1
REMARK minimizedAffinity 18.303215
REMARK minimizedRMSD -1
REMARK  0 active torsions:
REMARK  status: ('A' for Active; 'I' for Inactive)
ROOT
ATOM      1  C2' OXE d   1      -1.484   0.410   2.450  0.00  0.00     0.078 C 
ATOM      2  C1' OXE d   1      -1.707  -1.966   0.972  0.00  0.00     0.078 C 
ATOM      3  C1  OXE d   1      -0.560  -1.848   1.944  0.00  0.00    -0.078 A 
ATOM      4  C2  OXE d   1      -0.431  -0.663   2.629  0.00  0.00    -0.078 A 
ATOM      5  C3  OXE d   1       0.577  -0.522   3.578  0.00  0.00     0.003 A 
ATOM      6  C4  OXE d   1       1.552  -1.515   3.730  0.00  0.00    -0.002 A 
ATOM      7  C5  OXE d   1       1.463  -2.713   3.013  0.00  0.00    -0.002 A 
ATOM      8  C6  OXE d   1       0.391  -2.912   2.150  0.00  0.00     0.003 A 
ENDROOT
TORSDOF 0
ENDMDL
