MODEL 1
REMARK minimizedAffinity 15.0164375
REMARK minimizedRMSD -1
REMARK  0 active torsions:
REMARK  status: ('A' for Active; 'I' for Inactive)
ROOT
ATOM      1  C2' OXE d   1      -3.444   1.858   4.654  0.00  0.00     0.078 C 
ATOM      2  C1' OXE d   1      -4.952   0.789   2.541  0.00  0.00     0.078 C 
ATOM      3  C1  OXE d   1      -3.549   0.272   2.736  0.00  0.00    -0.078 A 
ATOM      4  C2  OXE d   1      -2.802   0.834   3.743  0.00  0.00    -0.078 A 
ATOM      5  C3  OXE d   1      -1.520   0.355   4.001  0.00  0.00     0.003 A 
ATOM      6  C4  OXE d   1      -0.930  -0.585   3.147  0.00  0.00    -0.002 A 
ATOM      7  C5  OXE d   1      -1.660  -1.142   2.091  0.00  0.00    -0.002 A 
ATOM      8  C6  OXE d   1      -2.982  -0.756   1.898  0.00  0.00     0.003 A 
ENDROOT
TORSDOF 0
ENDMDL
