MODEL 1
REMARK minimizedAffinity 12.8281775
REMARK minimizedRMSD -1
REMARK  0 active torsions:
REMARK  status: ('A' for Active; 'I' for Inactive)
ROOT
ATOM      1  C2' OXE d   1      -3.676  -0.093   1.586  0.00  0.00     0.078 C 
ATOM      2  C1' OXE d   1      -1.863   0.882   3.495  0.00  0.00     0.078 C 
ATOM      3  C1  OXE d   1      -1.405  -0.242   2.600  0.00  0.00    -0.078 A 
ATOM      4  C2  OXE d   1      -2.314  -0.744   1.700  0.00  0.00    -0.078 A 
ATOM      5  C3  OXE d   1      -1.926  -1.744   0.813  0.00  0.00     0.003 A 
ATOM      6  C4  OXE d   1      -0.668  -2.347   0.932  0.00  0.00    -0.002 A 
ATOM      7  C5  OXE d   1       0.260  -1.878   1.868  0.00  0.00    -0.002 A 
ATOM      8  C6  OXE d   1      -0.078  -0.800   2.679  0.00  0.00     0.003 A 
ENDROOT
TORSDOF 0
ENDMDL
