MODEL 1
REMARK minimizedAffinity 17.0103588
REMARK minimizedRMSD -1
REMARK  0 active torsions:
REMARK  status: ('A' for Active; 'I' for Inactive)
ROOT
ATOM      1  C2' OXE d   1      -5.024  -3.209   5.994  0.00  0.00     0.078 C 
ATOM      2  C1' OXE d   1      -5.322  -5.999   5.937  0.00  0.00     0.078 C 
ATOM      3  C1  OXE d   1      -5.128  -5.286   4.623  0.00  0.00    -0.078 A 
ATOM      4  C2  OXE d   1      -5.029  -3.915   4.656  0.00  0.00    -0.078 A 
ATOM      5  C3  OXE d   1      -4.794  -3.212   3.478  0.00  0.00     0.003 A 
ATOM      6  C4  OXE d   1      -4.810  -3.872   2.243  0.00  0.00    -0.002 A 
ATOM      7  C5  OXE d   1      -4.949  -5.263   2.183  0.00  0.00    -0.002 A 
ATOM      8  C6  OXE d   1      -5.065  -5.988   3.365  0.00  0.00     0.003 A 
ENDROOT
TORSDOF 0
ENDMDL
