MODEL 1
REMARK minimizedAffinity 7.55991125
REMARK minimizedRMSD -1
REMARK  0 active torsions:
REMARK  status: ('A' for Active; 'I' for Inactive)
ROOT
ATOM      1  C2' OXE d   1      -0.849  -2.148   0.992  0.00  0.00     0.078 C 
ATOM      2  C1' OXE d   1       0.911  -1.764   3.145  0.00  0.00     0.078 C 
ATOM      3  C1  OXE d   1      -0.355  -0.945   3.116  0.00  0.00    -0.078 A 
ATOM      4  C2  OXE d   1      -1.188  -1.105   2.035  0.00  0.00    -0.078 A 
ATOM      5  C3  OXE d   1      -2.395  -0.414   1.986  0.00  0.00     0.003 A 
ATOM      6  C4  OXE d   1      -2.696   0.555   2.950  0.00  0.00    -0.002 A 
ATOM      7  C5  OXE d   1      -1.843   0.763   4.039  0.00  0.00    -0.002 A 
ATOM      8  C6  OXE d   1      -0.692  -0.007   4.159  0.00  0.00     0.003 A 
ENDROOT
TORSDOF 0
ENDMDL
