MODEL 1
REMARK minimizedAffinity 2.60734248
REMARK minimizedRMSD -1
REMARK  0 active torsions:
REMARK  status: ('A' for Active; 'I' for Inactive)
ROOT
ATOM      1  C2' OXE d   1      -5.901  -3.210   5.998  0.00  0.00     0.078 C 
ATOM      2  C1' OXE d   1      -5.591  -6.000   6.000  0.00  0.00     0.078 C 
ATOM      3  C1  OXE d   1      -5.324  -5.263   4.711  0.00  0.00    -0.078 A 
ATOM      4  C2  OXE d   1      -5.524  -3.904   4.707  0.00  0.00    -0.078 A 
ATOM      5  C3  OXE d   1      -5.240  -3.169   3.559  0.00  0.00     0.003 A 
ATOM      6  C4  OXE d   1      -4.901  -3.819   2.367  0.00  0.00    -0.002 A 
ATOM      7  C5  OXE d   1      -4.731  -5.208   2.339  0.00  0.00    -0.002 A 
ATOM      8  C6  OXE d   1      -4.897  -5.938   3.510  0.00  0.00     0.003 A 
ENDROOT
TORSDOF 0
ENDMDL
