MODEL 1
REMARK minimizedAffinity 13.0861816
REMARK minimizedRMSD -1
REMARK  0 active torsions:
REMARK  status: ('A' for Active; 'I' for Inactive)
ROOT
ATOM      1  C2' OXE d   1      -0.877  -0.044   5.462  0.00  0.00     0.078 C 
ATOM      2  C1' OXE d   1      -0.544  -1.364   3.007  0.00  0.00     0.078 C 
ATOM      3  C1  OXE d   1      -1.652  -0.345   3.114  0.00  0.00    -0.078 A 
ATOM      4  C2  OXE d   1      -1.837   0.262   4.333  0.00  0.00    -0.078 A 
ATOM      5  C3  OXE d   1      -2.809   1.248   4.470  0.00  0.00     0.003 A 
ATOM      6  C4  OXE d   1      -3.699   1.517   3.424  0.00  0.00    -0.002 A 
ATOM      7  C5  OXE d   1      -3.553   0.881   2.186  0.00  0.00    -0.002 A 
ATOM      8  C6  OXE d   1      -2.510  -0.019   2.002  0.00  0.00     0.003 A 
ENDROOT
TORSDOF 0
ENDMDL
