MODEL 1
REMARK minimizedAffinity 3.3741281
REMARK minimizedRMSD -1
REMARK  0 active torsions:
REMARK  status: ('A' for Active; 'I' for Inactive)
ROOT
ATOM      1  C2' OXE d   1       0.385  -3.984   1.289  0.00  0.00     0.078 C 
ATOM      2  C1' OXE d   1       0.965  -2.984   3.847  0.00  0.00     0.078 C 
ATOM      3  C1  OXE d   1      -0.099  -2.281   3.042  0.00  0.00    -0.078 A 
ATOM      4  C2  OXE d   1      -0.344  -2.749   1.773  0.00  0.00    -0.078 A 
ATOM      5  C3  OXE d   1      -1.354  -2.171   1.009  0.00  0.00     0.003 A 
ATOM      6  C4  OXE d   1      -2.016  -1.023   1.460  0.00  0.00    -0.002 A 
ATOM      7  C5  OXE d   1      -1.754  -0.507   2.734  0.00  0.00    -0.002 A 
ATOM      8  C6  OXE d   1      -0.831  -1.148   3.553  0.00  0.00     0.003 A 
ENDROOT
TORSDOF 0
ENDMDL
