MODEL 1
REMARK minimizedAffinity 13.0567169
REMARK minimizedRMSD -1
REMARK  0 active torsions:
REMARK  status: ('A' for Active; 'I' for Inactive)
ROOT
ATOM      1  C2' OXE d   1      -1.008  -2.755   0.643  0.00  0.00     0.078 C 
ATOM      2  C1' OXE d   1       0.717  -0.725   1.527  0.00  0.00     0.078 C 
ATOM      3  C1  OXE d   1      -0.768  -0.478   1.622  0.00  0.00    -0.078 A 
ATOM      4  C2  OXE d   1      -1.604  -1.458   1.144  0.00  0.00    -0.078 A 
ATOM      5  C3  OXE d   1      -2.983  -1.304   1.258  0.00  0.00     0.003 A 
ATOM      6  C4  OXE d   1      -3.526  -0.097   1.713  0.00  0.00    -0.002 A 
ATOM      7  C5  OXE d   1      -2.692   0.930   2.168  0.00  0.00    -0.002 A 
ATOM      8  C6  OXE d   1      -1.315   0.740   2.169  0.00  0.00     0.003 A 
ENDROOT
TORSDOF 0
ENDMDL
