MODEL 1
REMARK minimizedAffinity 15.5138855
REMARK minimizedRMSD -1
REMARK  0 active torsions:
REMARK  status: ('A' for Active; 'I' for Inactive)
ROOT
ATOM      1  C2' OXE d   1       2.232   3.010  -3.773  0.00  0.00     0.078 C 
ATOM      2  C1' OXE d   1       3.913   3.345  -5.996  0.00  0.00     0.078 C 
ATOM      3  C1  OXE d   1       4.381   3.892  -4.670  0.00  0.00    -0.078 A 
ATOM      4  C2  OXE d   1       3.532   3.765  -3.598  0.00  0.00    -0.078 A 
ATOM      5  C3  OXE d   1       3.938   4.203  -2.341  0.00  0.00     0.003 A 
ATOM      6  C4  OXE d   1       5.137   4.909  -2.190  0.00  0.00    -0.002 A 
ATOM      7  C5  OXE d   1       5.999   5.085  -3.277  0.00  0.00    -0.002 A 
ATOM      8  C6  OXE d   1       5.657   4.547  -4.512  0.00  0.00     0.003 A 
ENDROOT
TORSDOF 0
ENDMDL
