MODEL 1
REMARK minimizedAffinity 5.41509771
REMARK minimizedRMSD -1
REMARK  0 active torsions:
REMARK  status: ('A' for Active; 'I' for Inactive)
ROOT
ATOM      1  C2' OXE d   1      -4.247  -2.466   3.221  0.00  0.00     0.078 C 
ATOM      2  C1' OXE d   1      -4.278  -5.004   2.021  0.00  0.00     0.078 C 
ATOM      3  C1  OXE d   1      -4.846  -4.877   3.412  0.00  0.00    -0.078 A 
ATOM      4  C2  OXE d   1      -4.784  -3.641   4.010  0.00  0.00    -0.078 A 
ATOM      5  C3  OXE d   1      -5.344  -3.456   5.271  0.00  0.00     0.003 A 
ATOM      6  C4  OXE d   1      -5.829  -4.550   5.998  0.00  0.00    -0.002 A 
ATOM      7  C5  OXE d   1      -5.865  -5.825   5.423  0.00  0.00    -0.002 A 
ATOM      8  C6  OXE d   1      -5.417  -5.997   4.118  0.00  0.00     0.003 A 
ENDROOT
TORSDOF 0
ENDMDL
