MODEL 1
REMARK minimizedAffinity 13.5526142
REMARK minimizedRMSD -1
REMARK  0 active torsions:
REMARK  status: ('A' for Active; 'I' for Inactive)
ROOT
ATOM      1  C2' OXE d   1      -3.579   1.772   3.769  0.00  0.00     0.078 C 
ATOM      2  C1' OXE d   1      -4.623   0.637   1.424  0.00  0.00     0.078 C 
ATOM      3  C1  OXE d   1      -3.333   0.073   1.965  0.00  0.00    -0.078 A 
ATOM      4  C2  OXE d   1      -2.805   0.665   3.087  0.00  0.00    -0.078 A 
ATOM      5  C3  OXE d   1      -1.646   0.149   3.658  0.00  0.00     0.003 A 
ATOM      6  C4  OXE d   1      -0.931  -0.869   3.015  0.00  0.00    -0.002 A 
ATOM      7  C5  OXE d   1      -1.430  -1.460   1.850  0.00  0.00    -0.002 A 
ATOM      8  C6  OXE d   1      -2.649  -1.030   1.336  0.00  0.00     0.003 A 
ENDROOT
TORSDOF 0
ENDMDL
