MODEL 1
REMARK minimizedAffinity 13.3266754
REMARK minimizedRMSD -1
REMARK  0 active torsions:
REMARK  status: ('A' for Active; 'I' for Inactive)
ROOT
ATOM      1  C2' OXE d   1       4.416   4.705  -2.623  0.00  0.00     0.078 C 
ATOM      2  C1' OXE d   1       2.829   2.907  -4.083  0.00  0.00     0.078 C 
ATOM      3  C1  OXE d   1       2.128   3.991  -3.303  0.00  0.00    -0.078 A 
ATOM      4  C2  OXE d   1       2.910   4.838  -2.554  0.00  0.00    -0.078 A 
ATOM      5  C3  OXE d   1       2.318   5.889  -1.859  0.00  0.00     0.003 A 
ATOM      6  C4  OXE d   1       0.924   5.999  -1.793  0.00  0.00    -0.002 A 
ATOM      7  C5  OXE d   1       0.107   5.122  -2.516  0.00  0.00    -0.002 A 
ATOM      8  C6  OXE d   1       0.694   4.142  -3.308  0.00  0.00     0.003 A 
ENDROOT
TORSDOF 0
ENDMDL
