MODEL 1
REMARK minimizedAffinity 10.6374569
REMARK minimizedRMSD -1
REMARK  0 active torsions:
REMARK  status: ('A' for Active; 'I' for Inactive)
ROOT
ATOM      1  C2' OXE d   1       4.125   2.570  -5.605  0.00  0.00     0.078 C 
ATOM      2  C1' OXE d   1       6.000   4.343  -4.500  0.00  0.00     0.078 C 
ATOM      3  C1  OXE d   1       4.667   4.207  -3.807  0.00  0.00    -0.078 A 
ATOM      4  C2  OXE d   1       3.739   3.372  -4.380  0.00  0.00    -0.078 A 
ATOM      5  C3  OXE d   1       2.514   3.168  -3.752  0.00  0.00     0.003 A 
ATOM      6  C4  OXE d   1       2.161   3.921  -2.625  0.00  0.00    -0.002 A 
ATOM      7  C5  OXE d   1       3.077   4.806  -2.048  0.00  0.00    -0.002 A 
ATOM      8  C6  OXE d   1       4.347   4.929  -2.600  0.00  0.00     0.003 A 
ENDROOT
TORSDOF 0
ENDMDL
