MODEL 1
REMARK minimizedAffinity -3.76644611
REMARK minimizedRMSD -1
REMARK  0 active torsions:
REMARK  status: ('A' for Active; 'I' for Inactive)
ROOT
ATOM      1  C   UNL d   1      -0.735   0.351  -3.229  0.00  0.00     0.020 A 
ATOM      2  C1  UNL d   1      -1.585   1.377  -2.818  0.00  0.00     0.020 A 
ATOM      3  C2  UNL d   1      -1.635   1.746  -1.472  0.00  0.00     0.034 A 
ATOM      4  C3  UNL d   1      -0.833   1.088  -0.532  0.00  0.00     0.017 A 
ATOM      5  C4  UNL d   1       0.020   0.058  -0.945  0.00  0.00     0.017 A 
ATOM      6  C5  UNL d   1       0.065  -0.307  -2.294  0.00  0.00     0.034 A 
ATOM      7 Cl   UNL d   1       1.038  -0.800   0.156  0.00  0.00    -0.070 Cl
ATOM      8 Cl1  UNL d   1      -0.946   1.596   1.116  0.00  0.00    -0.070 Cl
ENDROOT
TORSDOF 0
ENDMDL
