MODEL 1
REMARK minimizedAffinity -4.88663816
REMARK minimizedRMSD -1
REMARK  0 active torsions:
REMARK  status: ('A' for Active; 'I' for Inactive)
ROOT
ATOM      1  C   UNL d   1      -0.306  -2.437   2.286  0.00  0.00     0.020 A 
ATOM      2  C1  UNL d   1       1.023  -2.689   1.949  0.00  0.00     0.020 A 
ATOM      3  C2  UNL d   1       1.653  -1.918   0.969  0.00  0.00     0.034 A 
ATOM      4  C3  UNL d   1       0.954  -0.891   0.324  0.00  0.00     0.017 A 
ATOM      5  C4  UNL d   1      -0.380  -0.639   0.663  0.00  0.00     0.017 A 
ATOM      6  C5  UNL d   1      -1.006  -1.414   1.645  0.00  0.00     0.034 A 
ATOM      7 Cl   UNL d   1      -1.308   0.610  -0.089  0.00  0.00    -0.070 Cl
ATOM      8 Cl1  UNL d   1       1.796   0.022  -0.877  0.00  0.00    -0.070 Cl
ENDROOT
TORSDOF 0
ENDMDL
