MODEL 1
REMARK minimizedAffinity -5.25856686
REMARK minimizedRMSD -1
REMARK  0 active torsions:
REMARK  status: ('A' for Active; 'I' for Inactive)
ROOT
ATOM      1  C   UNL d   1       0.189  -3.212   2.380  0.00  0.00     0.020 A 
ATOM      2  C1  UNL d   1       1.003  -3.353   1.257  0.00  0.00     0.020 A 
ATOM      3  C2  UNL d   1       1.091  -2.317   0.324  0.00  0.00     0.034 A 
ATOM      4  C3  UNL d   1       0.363  -1.137   0.512  0.00  0.00     0.017 A 
ATOM      5  C4  UNL d   1      -0.454  -0.997   1.639  0.00  0.00     0.017 A 
ATOM      6  C5  UNL d   1      -0.538  -2.036   2.570  0.00  0.00     0.034 A 
ATOM      7 Cl   UNL d   1      -1.382   0.430   1.940  0.00  0.00    -0.070 Cl
ATOM      8 Cl1  UNL d   1       0.519   0.102  -0.682  0.00  0.00    -0.070 Cl
ENDROOT
TORSDOF 0
ENDMDL
