MODEL 1
REMARK minimizedAffinity -4.40515614
REMARK minimizedRMSD -1
REMARK  0 active torsions:
REMARK  status: ('A' for Active; 'I' for Inactive)
ROOT
ATOM      1  C   UNL d   1       1.724  -2.440   0.187  0.00  0.00     0.020 A 
ATOM      2  C1  UNL d   1       1.966  -1.762  -1.008  0.00  0.00     0.020 A 
ATOM      3  C2  UNL d   1       1.198  -0.646  -1.345  0.00  0.00     0.034 A 
ATOM      4  C3  UNL d   1       0.184  -0.204  -0.488  0.00  0.00     0.017 A 
ATOM      5  C4  UNL d   1      -0.058  -0.884   0.711  0.00  0.00     0.017 A 
ATOM      6  C5  UNL d   1       0.714  -2.001   1.044  0.00  0.00     0.034 A 
ATOM      7 Cl   UNL d   1      -1.291  -0.398   1.820  0.00  0.00    -0.070 Cl
ATOM      8 Cl1  UNL d   1      -0.726   1.184  -0.969  0.00  0.00    -0.070 Cl
ENDROOT
TORSDOF 0
ENDMDL
