MODEL 1
REMARK minimizedAffinity -0.796772718
REMARK minimizedRMSD -1
REMARK  0 active torsions:
REMARK  status: ('A' for Active; 'I' for Inactive)
ROOT
ATOM      1  C   UNL d   1       1.063  -0.269  -0.726  0.00  0.00     0.020 A 
ATOM      2  C1  UNL d   1       2.172  -0.928  -0.197  0.00  0.00     0.020 A 
ATOM      3  C2  UNL d   1       2.138  -1.410   1.113  0.00  0.00     0.034 A 
ATOM      4  C3  UNL d   1       0.993  -1.235   1.899  0.00  0.00     0.017 A 
ATOM      5  C4  UNL d   1      -0.120  -0.573   1.366  0.00  0.00     0.017 A 
ATOM      6  C5  UNL d   1      -0.080  -0.092   0.054  0.00  0.00     0.034 A 
ATOM      7 Cl   UNL d   1      -1.569  -0.319   2.274  0.00  0.00    -0.070 Cl
ATOM      8 Cl1  UNL d   1       1.020  -1.857   3.510  0.00  0.00    -0.070 Cl
ENDROOT
TORSDOF 0
ENDMDL
