MODEL 1
REMARK minimizedAffinity 1.25226462
REMARK minimizedRMSD -1
REMARK  0 active torsions:
REMARK  status: ('A' for Active; 'I' for Inactive)
ROOT
ATOM      1  C   UNL d   1       0.451  -1.052  -1.121  0.00  0.00     0.020 A 
ATOM      2  C1  UNL d   1       0.779  -0.763   0.203  0.00  0.00     0.020 A 
ATOM      3  C2  UNL d   1       0.116   0.264   0.879  0.00  0.00     0.034 A 
ATOM      4  C3  UNL d   1      -0.879   1.005   0.231  0.00  0.00     0.017 A 
ATOM      5  C4  UNL d   1      -1.208   0.714  -1.098  0.00  0.00     0.017 A 
ATOM      6  C5  UNL d   1      -0.540  -0.315  -1.770  0.00  0.00     0.034 A 
ATOM      7 Cl   UNL d   1      -2.424   1.585  -1.964  0.00  0.00    -0.070 Cl
ATOM      8 Cl1  UNL d   1      -1.658   2.260   1.127  0.00  0.00    -0.070 Cl
ENDROOT
TORSDOF 0
ENDMDL
