MODEL 1
REMARK minimizedAffinity -4.57875776
REMARK minimizedRMSD -1
REMARK  0 active torsions:
REMARK  status: ('A' for Active; 'I' for Inactive)
ROOT
ATOM      1  C   UNL d   1      -0.209  -2.967   2.314  0.00  0.00     0.020 A 
ATOM      2  C1  UNL d   1       0.983  -3.182   1.623  0.00  0.00     0.020 A 
ATOM      3  C2  UNL d   1       1.530  -2.163   0.839  0.00  0.00     0.034 A 
ATOM      4  C3  UNL d   1       0.884  -0.925   0.745  0.00  0.00     0.017 A 
ATOM      5  C4  UNL d   1      -0.312  -0.710   1.440  0.00  0.00     0.017 A 
ATOM      6  C5  UNL d   1      -0.854  -1.733   2.222  0.00  0.00     0.034 A 
ATOM      7 Cl   UNL d   1      -1.165   0.792   1.373  0.00  0.00    -0.070 Cl
ATOM      8 Cl1  UNL d   1       1.617   0.290  -0.241  0.00  0.00    -0.070 Cl
ENDROOT
TORSDOF 0
ENDMDL
