MODEL 1
REMARK minimizedAffinity -4.26168013
REMARK minimizedRMSD -1
REMARK  0 active torsions:
REMARK  status: ('A' for Active; 'I' for Inactive)
ROOT
ATOM      1  C   UNL d   1      -0.970   1.129   0.869  0.00  0.00     0.020 A 
ATOM      2  C1  UNL d   1      -1.318   0.114   1.760  0.00  0.00     0.020 A 
ATOM      3  C2  UNL d   1      -0.587  -1.076   1.783  0.00  0.00     0.034 A 
ATOM      4  C3  UNL d   1       0.495  -1.254   0.913  0.00  0.00     0.017 A 
ATOM      5  C4  UNL d   1       0.843  -0.235   0.019  0.00  0.00     0.017 A 
ATOM      6  C5  UNL d   1       0.108   0.955   0.001  0.00  0.00     0.034 A 
ATOM      7 Cl   UNL d   1       2.165  -0.381  -1.084  0.00  0.00    -0.070 Cl
ATOM      8 Cl1  UNL d   1       1.354  -2.751   0.996  0.00  0.00    -0.070 Cl
ENDROOT
TORSDOF 0
ENDMDL
