MODEL 1
REMARK minimizedAffinity -3.23693323
REMARK minimizedRMSD -1
REMARK  0 active torsions:
REMARK  status: ('A' for Active; 'I' for Inactive)
ROOT
ATOM      1  C   UNL d   1       1.388  -2.400   1.149  0.00  0.00     0.020 A 
ATOM      2  C1  UNL d   1       0.001  -2.317   1.265  0.00  0.00     0.020 A 
ATOM      3  C2  UNL d   1      -0.691  -1.274   0.644  0.00  0.00     0.034 A 
ATOM      4  C3  UNL d   1       0.005  -0.310  -0.095  0.00  0.00     0.017 A 
ATOM      5  C4  UNL d   1       1.397  -0.394  -0.211  0.00  0.00     0.017 A 
ATOM      6  C5  UNL d   1       2.084  -1.441   0.413  0.00  0.00     0.034 A 
ATOM      7 Cl   UNL d   1       2.324   0.757  -1.106  0.00  0.00    -0.070 Cl
ATOM      8 Cl1  UNL d   1      -0.914   0.951  -0.836  0.00  0.00    -0.070 Cl
ENDROOT
TORSDOF 0
ENDMDL
