MODEL 1
REMARK minimizedAffinity -2.14640999
REMARK minimizedRMSD -1
REMARK  0 active torsions:
REMARK  status: ('A' for Active; 'I' for Inactive)
ROOT
ATOM      1  C   UNL d   1       0.482   0.620  -0.579  0.00  0.00     0.020 A 
ATOM      2  C1  UNL d   1      -0.554   1.336   0.021  0.00  0.00     0.020 A 
ATOM      3  C2  UNL d   1      -1.375   0.716   0.964  0.00  0.00     0.034 A 
ATOM      4  C3  UNL d   1      -1.163  -0.623   1.311  0.00  0.00     0.017 A 
ATOM      5  C4  UNL d   1      -0.124  -1.341   0.708  0.00  0.00     0.017 A 
ATOM      6  C5  UNL d   1       0.696  -0.715  -0.236  0.00  0.00     0.034 A 
ATOM      7 Cl   UNL d   1       0.200  -2.996   1.084  0.00  0.00    -0.070 Cl
ATOM      8 Cl1  UNL d   1      -2.218  -1.326   2.485  0.00  0.00    -0.070 Cl
ENDROOT
TORSDOF 0
ENDMDL
