MODEL 1
REMARK minimizedAffinity -0.931138635
REMARK minimizedRMSD -1
REMARK  0 active torsions:
REMARK  status: ('A' for Active; 'I' for Inactive)
ROOT
ATOM      1  C   UNL d   1      -1.737   1.117  -1.944  0.00  0.00     0.020 A 
ATOM      2  C1  UNL d   1      -2.237  -0.115  -1.525  0.00  0.00     0.020 A 
ATOM      3  C2  UNL d   1      -1.472  -0.930  -0.688  0.00  0.00     0.034 A 
ATOM      4  C3  UNL d   1      -0.203  -0.514  -0.267  0.00  0.00     0.017 A 
ATOM      5  C4  UNL d   1       0.297   0.723  -0.689  0.00  0.00     0.017 A 
ATOM      6  C5  UNL d   1      -0.473   1.535  -1.527  0.00  0.00     0.034 A 
ATOM      7 Cl   UNL d   1       1.854   1.304  -0.212  0.00  0.00    -0.070 Cl
ATOM      8 Cl1  UNL d   1       0.687  -1.573   0.768  0.00  0.00    -0.070 Cl
ENDROOT
TORSDOF 0
ENDMDL
