MODEL 1
REMARK minimizedAffinity -2.59942842
REMARK minimizedRMSD -1
REMARK  0 active torsions:
REMARK  status: ('A' for Active; 'I' for Inactive)
ROOT
ATOM      1  C   UNL d   1      -1.160   0.454   1.039  0.00  0.00     0.020 A 
ATOM      2  C1  UNL d   1      -0.575   1.339   0.134  0.00  0.00     0.020 A 
ATOM      3  C2  UNL d   1       0.652   1.025  -0.455  0.00  0.00     0.034 A 
ATOM      4  C3  UNL d   1       1.298  -0.176  -0.139  0.00  0.00     0.017 A 
ATOM      5  C4  UNL d   1       0.710  -1.063   0.770  0.00  0.00     0.017 A 
ATOM      6  C5  UNL d   1      -0.518  -0.744   1.356  0.00  0.00     0.034 A 
ATOM      7 Cl   UNL d   1       1.447  -2.563   1.209  0.00  0.00    -0.070 Cl
ATOM      8 Cl1  UNL d   1       2.813  -0.499  -0.905  0.00  0.00    -0.070 Cl
ENDROOT
TORSDOF 0
ENDMDL
