MODEL 1
REMARK minimizedAffinity -2.20852542
REMARK minimizedRMSD -1
REMARK  0 active torsions:
REMARK  status: ('A' for Active; 'I' for Inactive)
ROOT
ATOM      1  C   UNL d   1       1.399  -0.693  -0.027  0.00  0.00     0.020 A 
ATOM      2  C1  UNL d   1       0.857  -1.257  -1.181  0.00  0.00     0.020 A 
ATOM      3  C2  UNL d   1      -0.281  -0.697  -1.764  0.00  0.00     0.034 A 
ATOM      4  C3  UNL d   1      -0.881   0.432  -1.193  0.00  0.00     0.017 A 
ATOM      5  C4  UNL d   1      -0.336   0.997  -0.034  0.00  0.00     0.017 A 
ATOM      6  C5  UNL d   1       0.804   0.432   0.545  0.00  0.00     0.034 A 
ATOM      7 Cl   UNL d   1      -1.021   2.389   0.728  0.00  0.00    -0.070 Cl
ATOM      8 Cl1  UNL d   1      -2.287   1.072  -1.967  0.00  0.00    -0.070 Cl
ENDROOT
TORSDOF 0
ENDMDL
