MODEL 1
REMARK minimizedAffinity 0.506932974
REMARK minimizedRMSD -1
REMARK  0 active torsions:
REMARK  status: ('A' for Active; 'I' for Inactive)
ROOT
ATOM      1  C   UNL d   1      -1.366   0.162  -0.446  0.00  0.00     0.020 A 
ATOM      2  C1  UNL d   1      -1.216   1.531  -0.665  0.00  0.00     0.020 A 
ATOM      3  C2  UNL d   1       0.016   2.145  -0.432  0.00  0.00     0.034 A 
ATOM      4  C3  UNL d   1       1.104   1.390   0.022  0.00  0.00     0.017 A 
ATOM      5  C4  UNL d   1       0.953   0.016   0.241  0.00  0.00     0.017 A 
ATOM      6  C5  UNL d   1      -0.284  -0.594   0.006  0.00  0.00     0.034 A 
ATOM      7 Cl   UNL d   1       2.249  -0.982   0.800  0.00  0.00    -0.070 Cl
ATOM      8 Cl1  UNL d   1       2.599   2.214   0.288  0.00  0.00    -0.070 Cl
ENDROOT
TORSDOF 0
ENDMDL
