MODEL 1
REMARK minimizedAffinity -0.73235178
REMARK minimizedRMSD -1
REMARK  0 active torsions:
REMARK  status: ('A' for Active; 'I' for Inactive)
ROOT
ATOM      1  C   UNL d   1      -2.200   2.262  -3.024  0.00  0.00     0.020 A 
ATOM      2  C1  UNL d   1      -1.775   1.065  -3.600  0.00  0.00     0.020 A 
ATOM      3  C2  UNL d   1      -1.148   0.097  -2.813  0.00  0.00     0.034 A 
ATOM      4  C3  UNL d   1      -0.944   0.323  -1.447  0.00  0.00     0.017 A 
ATOM      5  C4  UNL d   1      -1.372   1.524  -0.870  0.00  0.00     0.017 A 
ATOM      6  C5  UNL d   1      -1.999   2.491  -1.663  0.00  0.00     0.034 A 
ATOM      7 Cl   UNL d   1      -1.156   1.875   0.808  0.00  0.00    -0.070 Cl
ATOM      8 Cl1  UNL d   1      -0.162  -0.919  -0.535  0.00  0.00    -0.070 Cl
ENDROOT
TORSDOF 0
ENDMDL
