MODEL 1
REMARK minimizedAffinity 1.10979712
REMARK minimizedRMSD -1
REMARK  0 active torsions:
REMARK  status: ('A' for Active; 'I' for Inactive)
ROOT
ATOM      1  C2' OXE d   1       0.406  -1.383   0.557  0.00  0.00     0.078 C 
ATOM      2  C1' OXE d   1       2.531   0.166   1.540  0.00  0.00     0.078 C 
ATOM      3  C1  OXE d   1       2.216  -1.128   2.249  0.00  0.00    -0.078 A 
ATOM      4  C2  OXE d   1       1.145  -1.856   1.790  0.00  0.00    -0.078 A 
ATOM      5  C3  OXE d   1       0.845  -3.084   2.373  0.00  0.00     0.003 A 
ATOM      6  C4  OXE d   1       1.527  -3.509   3.519  0.00  0.00    -0.002 A 
ATOM      7  C5  OXE d   1       2.595  -2.763   4.028  0.00  0.00    -0.002 A 
ATOM      8  C6  OXE d   1       2.979  -1.594   3.380  0.00  0.00     0.003 A 
ENDROOT
TORSDOF 0
ENDMDL
