MODEL 1
REMARK minimizedAffinity 5.18847752
REMARK minimizedRMSD -1
REMARK  0 active torsions:
REMARK  status: ('A' for Active; 'I' for Inactive)
ROOT
ATOM      1  C2' OXE d   1       2.680   1.507   1.656  0.00  0.00     0.078 C 
ATOM      2  C1' OXE d   1       1.906   1.712   4.347  0.00  0.00     0.078 C 
ATOM      3  C1  OXE d   1       1.984   0.333   3.740  0.00  0.00    -0.078 A 
ATOM      4  C2  OXE d   1       2.318   0.246   2.410  0.00  0.00    -0.078 A 
ATOM      5  C3  OXE d   1       2.458  -1.005   1.815  0.00  0.00     0.003 A 
ATOM      6  C4  OXE d   1       2.111  -2.166   2.516  0.00  0.00    -0.002 A 
ATOM      7  C5  OXE d   1       1.730  -2.097   3.860  0.00  0.00    -0.002 A 
ATOM      8  C6  OXE d   1       1.702  -0.861   4.498  0.00  0.00     0.003 A 
ENDROOT
TORSDOF 0
ENDMDL
