MODEL 1
REMARK minimizedAffinity 2.5824759
REMARK minimizedRMSD -1
REMARK  0 active torsions:
REMARK  status: ('A' for Active; 'I' for Inactive)
ROOT
ATOM      1  C2' OXE d   1       3.111   2.690   3.933  0.00  0.00     0.078 C 
ATOM      2  C1' OXE d   1       2.797   2.160   1.194  0.00  0.00     0.078 C 
ATOM      3  C1  OXE d   1       2.521   1.038   2.164  0.00  0.00    -0.078 A 
ATOM      4  C2  OXE d   1       2.723   1.293   3.499  0.00  0.00    -0.078 A 
ATOM      5  C3  OXE d   1       2.430   0.310   4.441  0.00  0.00     0.003 A 
ATOM      6  C4  OXE d   1       2.081  -0.982   4.031  0.00  0.00    -0.002 A 
ATOM      7  C5  OXE d   1       1.909  -1.274   2.673  0.00  0.00    -0.002 A 
ATOM      8  C6  OXE d   1       2.084  -0.266   1.732  0.00  0.00     0.003 A 
ENDROOT
TORSDOF 0
ENDMDL
