MODEL 1
REMARK minimizedAffinity 2.3381865
REMARK minimizedRMSD -1
REMARK  0 active torsions:
REMARK  status: ('A' for Active; 'I' for Inactive)
ROOT
ATOM      1  C2' OXE d   1       3.277   2.362   2.979  0.00  0.00     0.078 C 
ATOM      2  C1' OXE d   1       2.564   2.030   0.284  0.00  0.00     0.078 C 
ATOM      3  C1  OXE d   1       2.373   0.856   1.211  0.00  0.00    -0.078 A 
ATOM      4  C2  OXE d   1       2.769   1.013   2.518  0.00  0.00    -0.078 A 
ATOM      5  C3  OXE d   1       2.564  -0.021   3.428  0.00  0.00     0.003 A 
ATOM      6  C4  OXE d   1       2.103  -1.268   2.992  0.00  0.00    -0.002 A 
ATOM      7  C5  OXE d   1       1.731  -1.461   1.657  0.00  0.00    -0.002 A 
ATOM      8  C6  OXE d   1       1.820  -0.398   0.765  0.00  0.00     0.003 A 
ENDROOT
TORSDOF 0
ENDMDL
