MODEL 1
REMARK minimizedAffinity 2.56578302
REMARK minimizedRMSD -1
REMARK  0 active torsions:
REMARK  status: ('A' for Active; 'I' for Inactive)
ROOT
ATOM      1  C2' OXE d   1       1.980   1.059   1.474  0.00  0.00     0.078 C 
ATOM      2  C1' OXE d   1      -0.701   1.882   1.376  0.00  0.00     0.078 C 
ATOM      3  C1  OXE d   1       0.316   2.708   0.630  0.00  0.00    -0.078 A 
ATOM      4  C2  OXE d   1       1.632   2.324   0.721  0.00  0.00    -0.078 A 
ATOM      5  C3  OXE d   1       2.604   3.019   0.007  0.00  0.00     0.003 A 
ATOM      6  C4  OXE d   1       2.275   4.195  -0.678  0.00  0.00    -0.002 A 
ATOM      7  C5  OXE d   1       0.947   4.626  -0.752  0.00  0.00    -0.002 A 
ATOM      8  C6  OXE d   1      -0.049   3.872  -0.140  0.00  0.00     0.003 A 
ENDROOT
TORSDOF 0
ENDMDL
