MODEL 1
REMARK minimizedAffinity 7.19764471
REMARK minimizedRMSD -1
REMARK  0 active torsions:
REMARK  status: ('A' for Active; 'I' for Inactive)
ROOT
ATOM      1  C2' OXE d   1      -5.997   3.593  -0.384  0.00  0.00     0.078 C 
ATOM      2  C1' OXE d   1      -3.750   1.912  -0.317  0.00  0.00     0.078 C 
ATOM      3  C1  OXE d   1      -4.329   2.259  -1.666  0.00  0.00    -0.078 A 
ATOM      4  C2  OXE d   1      -5.457   3.044  -1.687  0.00  0.00    -0.078 A 
ATOM      5  C3  OXE d   1      -6.000   3.438  -2.906  0.00  0.00     0.003 A 
ATOM      6  C4  OXE d   1      -5.500   2.918  -4.106  0.00  0.00    -0.002 A 
ATOM      7  C5  OXE d   1      -4.376   2.085  -4.105  0.00  0.00    -0.002 A 
ATOM      8  C6  OXE d   1      -3.755   1.781  -2.899  0.00  0.00     0.003 A 
ENDROOT
TORSDOF 0
ENDMDL
