MODEL 1
REMARK minimizedAffinity 3.89159799
REMARK minimizedRMSD -1
REMARK  0 active torsions:
REMARK  status: ('A' for Active; 'I' for Inactive)
ROOT
ATOM      1  C2' OXE d   1       3.501  -0.048   0.445  0.00  0.00     0.078 C 
ATOM      2  C1' OXE d   1       1.227  -0.676   1.967  0.00  0.00     0.078 C 
ATOM      3  C1  OXE d   1       1.328   0.716   1.395  0.00  0.00    -0.078 A 
ATOM      4  C2  OXE d   1       2.466   1.029   0.691  0.00  0.00    -0.078 A 
ATOM      5  C3  OXE d   1       2.586   2.281   0.096  0.00  0.00     0.003 A 
ATOM      6  C4  OXE d   1       1.629   3.275   0.336  0.00  0.00    -0.002 A 
ATOM      7  C5  OXE d   1       0.482   2.989   1.084  0.00  0.00    -0.002 A 
ATOM      8  C6  OXE d   1       0.296   1.705   1.583  0.00  0.00     0.003 A 
ENDROOT
TORSDOF 0
ENDMDL
