MODEL 1
REMARK minimizedAffinity 8.24573231
REMARK minimizedRMSD -1
REMARK  0 active torsions:
REMARK  status: ('A' for Active; 'I' for Inactive)
ROOT
ATOM      1  C2' OXE d   1       5.254  -2.108   2.727  0.00  0.00     0.078 C 
ATOM      2  C1' OXE d   1       2.832  -2.843   3.942  0.00  0.00     0.078 C 
ATOM      3  C1  OXE d   1       2.804  -1.712   2.945  0.00  0.00    -0.078 A 
ATOM      4  C2  OXE d   1       4.001  -1.328   2.390  0.00  0.00    -0.078 A 
ATOM      5  C3  OXE d   1       4.023  -0.327   1.423  0.00  0.00     0.003 A 
ATOM      6  C4  OXE d   1       2.862   0.396   1.124  0.00  0.00    -0.002 A 
ATOM      7  C5  OXE d   1       1.639   0.048   1.708  0.00  0.00    -0.002 A 
ATOM      8  C6  OXE d   1       1.585  -1.029   2.586  0.00  0.00     0.003 A 
ENDROOT
TORSDOF 0
ENDMDL
