MODEL 1
REMARK minimizedAffinity 3.33720088
REMARK minimizedRMSD -1
REMARK  0 active torsions:
REMARK  status: ('A' for Active; 'I' for Inactive)
ROOT
ATOM      1  C2' OXE d   1      -0.282  -1.342   1.468  0.00  0.00     0.078 C 
ATOM      2  C1' OXE d   1       1.939  -1.952   3.074  0.00  0.00     0.078 C 
ATOM      3  C1  OXE d   1       1.837  -0.555   2.515  0.00  0.00    -0.078 A 
ATOM      4  C2  OXE d   1       0.772  -0.278   1.692  0.00  0.00    -0.078 A 
ATOM      5  C3  OXE d   1       0.601   1.010   1.194  0.00  0.00     0.003 A 
ATOM      6  C4  OXE d   1       1.585   1.985   1.398  0.00  0.00    -0.002 A 
ATOM      7  C5  OXE d   1       2.699   1.713   2.200  0.00  0.00    -0.002 A 
ATOM      8  C6  OXE d   1       2.818   0.464   2.800  0.00  0.00     0.003 A 
ENDROOT
TORSDOF 0
ENDMDL
