MODEL 1
REMARK minimizedAffinity 0.786552846
REMARK minimizedRMSD -1
REMARK  1 active torsions:
REMARK  status: ('A' for Active; 'I' for Inactive)
REMARK    1  A    between atoms: N_2  and  C1_3 
ROOT
ATOM      1  C1  UNL d   1       2.049  -3.602   3.080  0.00  0.00     0.143 A 
ATOM      2  C2  UNL d   1       1.515  -3.245   1.837  0.00  0.00    -0.057 A 
ATOM      3  C3  UNL d   1       1.053  -1.946   1.591  0.00  0.00     0.033 A 
ATOM      4  C4  UNL d   1       1.089  -0.987   2.598  0.00  0.00    -0.042 A 
ATOM      5  C5  UNL d   1       1.592  -1.326   3.849  0.00  0.00     0.033 A 
ATOM      6  C6  UNL d   1       2.059  -2.623   4.086  0.00  0.00    -0.057 A 
ENDROOT
BRANCH   1   7
ATOM      7  N   UNL d   1       2.434  -4.902   3.417  0.00  0.00    -0.732 N 
ATOM      8  C   UNL d   1       1.867  -5.563   4.573  0.00  0.00     0.284 C 
ATOM      9  H3  UNL d   1       2.530  -5.502   2.601  0.00  0.00     0.395 HD
ENDBRANCH   1   7
TORSDOF 1
ENDMDL
