MODEL 1
REMARK minimizedAffinity 11.0658169
REMARK minimizedRMSD -1
REMARK  1 active torsions:
REMARK  status: ('A' for Active; 'I' for Inactive)
REMARK    1  A    between atoms: N_2  and  C1_3 
ROOT
ATOM      1  C1  UNL d   1      -4.845  -2.282  -4.197  0.00  0.00     0.143 A 
ATOM      2  C2  UNL d   1      -5.811  -1.997  -3.225  0.00  0.00    -0.057 A 
ATOM      3  C3  UNL d   1      -5.681  -0.893  -2.374  0.00  0.00     0.033 A 
ATOM      4  C4  UNL d   1      -4.564  -0.068  -2.461  0.00  0.00    -0.042 A 
ATOM      5  C5  UNL d   1      -3.579  -0.347  -3.402  0.00  0.00     0.033 A 
ATOM      6  C6  UNL d   1      -3.718  -1.447  -4.253  0.00  0.00    -0.057 A 
ENDROOT
BRANCH   1   7
ATOM      7  N   UNL d   1      -4.869  -3.420  -5.006  0.00  0.00    -0.732 N 
ATOM      8  C   UNL d   1      -6.000  -3.689  -5.868  0.00  0.00     0.284 C 
ATOM      9  H3  UNL d   1      -3.966  -3.611  -5.434  0.00  0.00     0.395 HD
ENDBRANCH   1   7
TORSDOF 1
ENDMDL
