MODEL 1
REMARK minimizedAffinity 4.59921551
REMARK minimizedRMSD -1
REMARK  1 active torsions:
REMARK  status: ('A' for Active; 'I' for Inactive)
REMARK    1  A    between atoms: N_2  and  C1_3 
ROOT
ATOM      1  C1  UNL d   1       1.615  -2.815   0.235  0.00  0.00     0.143 A 
ATOM      2  C2  UNL d   1       1.768  -2.141  -0.982  0.00  0.00    -0.057 A 
ATOM      3  C3  UNL d   1       1.476  -2.766  -2.200  0.00  0.00     0.033 A 
ATOM      4  C4  UNL d   1       1.052  -4.091  -2.225  0.00  0.00    -0.042 A 
ATOM      5  C5  UNL d   1       0.917  -4.788  -1.030  0.00  0.00     0.033 A 
ATOM      6  C6  UNL d   1       1.204  -4.156   0.184  0.00  0.00    -0.057 A 
ENDROOT
BRANCH   1   7
ATOM      7  N   UNL d   1       1.982  -2.280   1.472  0.00  0.00    -0.732 N 
ATOM      8  C   UNL d   1       1.081  -1.409   2.195  0.00  0.00     0.284 C 
ATOM      9  H3  UNL d   1       2.468  -2.956   2.058  0.00  0.00     0.395 HD
ENDBRANCH   1   7
TORSDOF 1
ENDMDL
