MODEL 1
REMARK minimizedAffinity -3.39609838
REMARK minimizedRMSD -1
REMARK  1 active torsions:
REMARK  status: ('A' for Active; 'I' for Inactive)
REMARK    1  A    between atoms: N_2  and  C1_3 
ROOT
ATOM      1  C1  UNL d   1       1.614  -2.249   3.747  0.00  0.00     0.143 A 
ATOM      2  C2  UNL d   1       1.387  -2.551   5.094  0.00  0.00    -0.057 A 
ATOM      3  C3  UNL d   1       2.418  -3.024   5.916  0.00  0.00     0.033 A 
ATOM      4  C4  UNL d   1       3.691  -3.231   5.395  0.00  0.00    -0.042 A 
ATOM      5  C5  UNL d   1       3.933  -2.962   4.053  0.00  0.00     0.033 A 
ATOM      6  C6  UNL d   1       2.902  -2.484   3.239  0.00  0.00    -0.057 A 
ENDROOT
BRANCH   1   7
ATOM      7  N   UNL d   1       0.608  -1.870   2.855  0.00  0.00    -0.732 N 
ATOM      8  C   UNL d   1       0.920  -1.071   1.689  0.00  0.00     0.284 C 
ATOM      9  H3  UNL d   1      -0.058  -2.618   2.680  0.00  0.00     0.395 HD
ENDBRANCH   1   7
TORSDOF 1
ENDMDL
