MODEL 1
REMARK minimizedAffinity -2.95770431
REMARK minimizedRMSD -1
REMARK  1 active torsions:
REMARK  status: ('A' for Active; 'I' for Inactive)
REMARK    1  A    between atoms: N_2  and  C1_3 
ROOT
ATOM      1  C1  UNL d   1       1.089  -4.178   2.594  0.00  0.00     0.143 A 
ATOM      2  C2  UNL d   1       1.836  -3.646   1.537  0.00  0.00    -0.057 A 
ATOM      3  C3  UNL d   1       1.778  -2.283   1.220  0.00  0.00     0.033 A 
ATOM      4  C4  UNL d   1       0.946  -1.431   1.939  0.00  0.00    -0.042 A 
ATOM      5  C5  UNL d   1       0.176  -1.942   2.978  0.00  0.00     0.033 A 
ATOM      6  C6  UNL d   1       0.243  -3.303   3.293  0.00  0.00    -0.057 A 
ENDROOT
BRANCH   1   7
ATOM      7  N   UNL d   1       1.029  -5.540   2.895  0.00  0.00    -0.732 N 
ATOM      8  C   UNL d   1       1.109  -5.997   4.266  0.00  0.00     0.284 C 
ATOM      9  H3  UNL d   1       0.338  -6.032   2.333  0.00  0.00     0.395 HD
ENDBRANCH   1   7
TORSDOF 1
ENDMDL
