MODEL 1
REMARK minimizedAffinity 11.0611801
REMARK minimizedRMSD -1
REMARK  1 active torsions:
REMARK  status: ('A' for Active; 'I' for Inactive)
REMARK    1  A    between atoms: N_2  and  C1_3 
ROOT
ATOM      1  C1  UNL d   1       3.697  -3.224   3.833  0.00  0.00     0.143 A 
ATOM      2  C2  UNL d   1       2.721  -3.698   4.716  0.00  0.00    -0.057 A 
ATOM      3  C3  UNL d   1       1.368  -3.380   4.542  0.00  0.00     0.033 A 
ATOM      4  C4  UNL d   1       0.971  -2.554   3.495  0.00  0.00    -0.042 A 
ATOM      5  C5  UNL d   1       1.927  -2.051   2.620  0.00  0.00     0.033 A 
ATOM      6  C6  UNL d   1       3.275  -2.379   2.795  0.00  0.00    -0.057 A 
ENDROOT
BRANCH   1   7
ATOM      7  N   UNL d   1       5.068  -3.425   4.009  0.00  0.00    -0.732 N 
ATOM      8  C   UNL d   1       6.000  -3.127   2.943  0.00  0.00     0.284 C 
ATOM      9  H3  UNL d   1       5.387  -3.139   4.932  0.00  0.00     0.395 HD
ENDBRANCH   1   7
TORSDOF 1
ENDMDL
