MODEL 1
REMARK minimizedAffinity 7.00346041
REMARK minimizedRMSD -1
REMARK  1 active torsions:
REMARK  status: ('A' for Active; 'I' for Inactive)
REMARK    1  A    between atoms: N_2  and  C1_3 
ROOT
ATOM      1  C1  UNL d   1      -4.414  -3.009  -4.639  0.00  0.00     0.143 A 
ATOM      2  C2  UNL d   1      -5.591  -3.080  -5.392  0.00  0.00    -0.057 A 
ATOM      3  C3  UNL d   1      -5.996  -4.277  -5.995  0.00  0.00     0.033 A 
ATOM      4  C4  UNL d   1      -5.212  -5.421  -5.880  0.00  0.00    -0.042 A 
ATOM      5  C5  UNL d   1      -4.026  -5.367  -5.158  0.00  0.00     0.033 A 
ATOM      6  C6  UNL d   1      -3.630  -4.171  -4.552  0.00  0.00    -0.057 A 
ENDROOT
BRANCH   1   7
ATOM      7  N   UNL d   1      -3.907  -1.826  -4.097  0.00  0.00    -0.732 N 
ATOM      8  C   UNL d   1      -4.799  -0.822  -3.557  0.00  0.00     0.284 C 
ATOM      9  H3  UNL d   1      -3.069  -1.980  -3.541  0.00  0.00     0.395 HD
ENDBRANCH   1   7
TORSDOF 1
ENDMDL
