MODEL 1
REMARK minimizedAffinity 15.0040512
REMARK minimizedRMSD -1
REMARK  0 active torsions:
REMARK  status: ('A' for Active; 'I' for Inactive)
ROOT
ATOM      1  C1  DEN d   1       1.204  -0.554  -2.614  0.00  0.00     0.130 A 
ATOM      2  C2  DEN d   1       2.120  -0.038  -1.600  0.00  0.00    -0.031 A 
ATOM      3  C3  DEN d   1       2.071  -0.945  -0.436  0.00  0.00     0.027 A 
ATOM      4  C4  DEN d   1       0.674  -3.089  -0.107  0.00  0.00     0.027 A 
ATOM      5  C5  DEN d   1      -0.259  -3.920  -0.686  0.00  0.00    -0.003 A 
ATOM      6  C6  DEN d   1      -0.791  -3.672  -1.924  0.00  0.00     0.001 A 
ATOM      7  C7  DEN d   1      -0.359  -2.588  -2.643  0.00  0.00     0.017 A 
ATOM      8  C8  DEN d   1       0.576  -1.741  -2.063  0.00  0.00    -0.094 A 
ATOM      9  C9  DEN d   1       1.110  -2.016  -0.815  0.00  0.00    -0.072 A 
ENDROOT
TORSDOF 0
ENDMDL
