MODEL 1
REMARK minimizedAffinity 16.6020355
REMARK minimizedRMSD -1
REMARK  0 active torsions:
REMARK  status: ('A' for Active; 'I' for Inactive)
ROOT
ATOM      1  C1  DEN d   1       4.231   0.264  -0.448  0.00  0.00     0.130 A 
ATOM      2  C2  DEN d   1       3.852   1.550  -1.027  0.00  0.00    -0.031 A 
ATOM      3  C3  DEN d   1       2.571   1.370  -1.739  0.00  0.00     0.027 A 
ATOM      4  C4  DEN d   1       1.142  -0.762  -1.996  0.00  0.00     0.027 A 
ATOM      5  C5  DEN d   1       1.060  -2.102  -1.689  0.00  0.00    -0.003 A 
ATOM      6  C6  DEN d   1       2.038  -2.750  -0.982  0.00  0.00     0.001 A 
ATOM      7  C7  DEN d   1       3.120  -2.048  -0.519  0.00  0.00     0.017 A 
ATOM      8  C8  DEN d   1       3.213  -0.698  -0.831  0.00  0.00    -0.094 A 
ATOM      9  C9  DEN d   1       2.207  -0.058  -1.536  0.00  0.00    -0.072 A 
ENDROOT
TORSDOF 0
ENDMDL
