MODEL 1
REMARK minimizedAffinity 20.2574501
REMARK minimizedRMSD -1
REMARK  0 active torsions:
REMARK  status: ('A' for Active; 'I' for Inactive)
ROOT
ATOM      1  C1  DEN d   1       0.488  -0.818  -1.909  0.00  0.00     0.130 A 
ATOM      2  C2  DEN d   1       1.452  -1.538  -1.082  0.00  0.00    -0.031 A 
ATOM      3  C3  DEN d   1       0.854  -2.835  -0.708  0.00  0.00     0.027 A 
ATOM      4  C4  DEN d   1      -1.458  -3.796  -1.330  0.00  0.00     0.027 A 
ATOM      5  C5  DEN d   1      -2.632  -3.546  -2.005  0.00  0.00    -0.003 A 
ATOM      6  C6  DEN d   1      -2.861  -2.366  -2.662  0.00  0.00     0.001 A 
ATOM      7  C7  DEN d   1      -1.882  -1.407  -2.695  0.00  0.00     0.017 A 
ATOM      8  C8  DEN d   1      -0.698  -1.649  -2.011  0.00  0.00    -0.094 A 
ATOM      9  C9  DEN d   1      -0.482  -2.853  -1.364  0.00  0.00    -0.072 A 
ENDROOT
TORSDOF 0
ENDMDL
