MODEL 1
REMARK minimizedAffinity 19.3549767
REMARK minimizedRMSD -1
REMARK  0 active torsions:
REMARK  status: ('A' for Active; 'I' for Inactive)
ROOT
ATOM      1  C1  DEN d   1      -4.097   2.664   5.042  0.00  0.00     0.130 A 
ATOM      2  C2  DEN d   1      -5.348   2.286   5.694  0.00  0.00    -0.031 A 
ATOM      3  C3  DEN d   1      -5.835   1.044   5.062  0.00  0.00     0.027 A 
ATOM      4  C4  DEN d   1      -4.777  -0.327   3.150  0.00  0.00     0.027 A 
ATOM      5  C5  DEN d   1      -3.720  -0.396   2.270  0.00  0.00    -0.003 A 
ATOM      6  C6  DEN d   1      -2.741   0.561   2.228  0.00  0.00     0.001 A 
ATOM      7  C7  DEN d   1      -2.774   1.605   3.115  0.00  0.00     0.017 A 
ATOM      8  C8  DEN d   1      -3.840   1.684   4.001  0.00  0.00    -0.094 A 
ATOM      9  C9  DEN d   1      -4.814   0.701   4.035  0.00  0.00    -0.072 A 
ENDROOT
TORSDOF 0
ENDMDL
