MODEL 1
REMARK minimizedAffinity 15.0343246
REMARK minimizedRMSD -1
REMARK  0 active torsions:
REMARK  status: ('A' for Active; 'I' for Inactive)
ROOT
ATOM      1  C1  DEN d   1       1.499  -0.050  -1.826  0.00  0.00     0.130 A 
ATOM      2  C2  DEN d   1       2.312   0.979  -1.183  0.00  0.00    -0.031 A 
ATOM      3  C3  DEN d   1       3.512   0.328  -0.620  0.00  0.00     0.027 A 
ATOM      4  C4  DEN d   1       4.189  -2.160  -0.687  0.00  0.00     0.027 A 
ATOM      5  C5  DEN d   1       3.812  -3.415  -1.111  0.00  0.00    -0.003 A 
ATOM      6  C6  DEN d   1       2.632  -3.640  -1.768  0.00  0.00     0.001 A 
ATOM      7  C7  DEN d   1       1.806  -2.586  -2.060  0.00  0.00     0.017 A 
ATOM      8  C8  DEN d   1       2.176  -1.319  -1.629  0.00  0.00    -0.094 A 
ATOM      9  C9  DEN d   1       3.379  -1.111  -0.977  0.00  0.00    -0.072 A 
ENDROOT
TORSDOF 0
ENDMDL
