MODEL 1
REMARK minimizedAffinity 6.38333893
REMARK minimizedRMSD -1
REMARK  0 active torsions:
REMARK  status: ('A' for Active; 'I' for Inactive)
ROOT
ATOM      1  C1  DEN d   1      -4.278   2.772   4.745  0.00  0.00     0.130 A 
ATOM      2  C2  DEN d   1      -5.262   2.983   5.803  0.00  0.00    -0.031 A 
ATOM      3  C3  DEN d   1      -5.999   1.718   5.999  0.00  0.00     0.027 A 
ATOM      4  C4  DEN d   1      -5.710  -0.535   4.777  0.00  0.00     0.027 A 
ATOM      5  C5  DEN d   1      -5.009  -1.196   3.794  0.00  0.00    -0.003 A 
ATOM      6  C6  DEN d   1      -4.047  -0.577   3.041  0.00  0.00     0.001 A 
ATOM      7  C7  DEN d   1      -3.727   0.731   3.291  0.00  0.00     0.017 A 
ATOM      8  C8  DEN d   1      -4.435   1.407   4.276  0.00  0.00    -0.094 A 
ATOM      9  C9  DEN d   1      -5.396   0.760   5.035  0.00  0.00    -0.072 A 
ENDROOT
TORSDOF 0
ENDMDL
