MODEL 1
REMARK minimizedAffinity 5.77756453
REMARK minimizedRMSD -1
REMARK  0 active torsions:
REMARK  status: ('A' for Active; 'I' for Inactive)
ROOT
ATOM      1  C1  DEN d   1      -3.387  -5.962  -3.393  0.00  0.00     0.130 A 
ATOM      2  C2  DEN d   1      -2.565  -4.888  -2.842  0.00  0.00    -0.031 A 
ATOM      3  C3  DEN d   1      -2.992  -3.620  -3.467  0.00  0.00     0.027 A 
ATOM      4  C4  DEN d   1      -4.840  -3.216  -5.220  0.00  0.00     0.027 A 
ATOM      5  C5  DEN d   1      -5.801  -3.823  -5.998  0.00  0.00    -0.003 A 
ATOM      6  C6  DEN d   1      -6.000  -5.178  -5.989  0.00  0.00     0.001 A 
ATOM      7  C7  DEN d   1      -5.257  -5.967  -5.150  0.00  0.00     0.017 A 
ATOM      8  C8  DEN d   1      -4.282  -5.363  -4.368  0.00  0.00    -0.094 A 
ATOM      9  C9  DEN d   1      -4.104  -3.990  -4.383  0.00  0.00    -0.072 A 
ENDROOT
TORSDOF 0
ENDMDL
