MODEL 1
REMARK minimizedAffinity 11.8683186
REMARK minimizedRMSD -1
REMARK  0 active torsions:
REMARK  status: ('A' for Active; 'I' for Inactive)
ROOT
ATOM      1  C1  DEN d   1      -2.960   1.572   4.223  0.00  0.00     0.130 A 
ATOM      2  C2  DEN d   1      -3.663   1.351   2.962  0.00  0.00    -0.031 A 
ATOM      3  C3  DEN d   1      -2.696   0.803   1.990  0.00  0.00     0.027 A 
ATOM      4  C4  DEN d   1      -0.193   0.273   2.315  0.00  0.00     0.027 A 
ATOM      5  C5  DEN d   1       0.855   0.303   3.209  0.00  0.00    -0.003 A 
ATOM      6  C6  DEN d   1       0.713   0.787   4.483  0.00  0.00     0.001 A 
ATOM      7  C7  DEN d   1      -0.514   1.218   4.913  0.00  0.00     0.017 A 
ATOM      8  C8  DEN d   1      -1.573   1.197   4.015  0.00  0.00    -0.094 A 
ATOM      9  C9  DEN d   1      -1.413   0.693   2.735  0.00  0.00    -0.072 A 
ENDROOT
TORSDOF 0
ENDMDL
