MODEL 1
REMARK minimizedAffinity 0.455272853
REMARK minimizedRMSD -1
REMARK  0 active torsions:
REMARK  status: ('A' for Active; 'I' for Inactive)
ROOT
ATOM      1  C1  DEN d   1       1.473  -2.320  -2.013  0.00  0.00     0.130 A 
ATOM      2  C2  DEN d   1       2.360  -1.506  -1.187  0.00  0.00    -0.031 A 
ATOM      3  C3  DEN d   1       3.463  -2.367  -0.716  0.00  0.00     0.027 A 
ATOM      4  C4  DEN d   1       3.883  -4.868  -1.186  0.00  0.00     0.027 A 
ATOM      5  C5  DEN d   1       3.397  -5.987  -1.824  0.00  0.00    -0.003 A 
ATOM      6  C6  DEN d   1       2.227  -5.971  -2.536  0.00  0.00     0.001 A 
ATOM      7  C7  DEN d   1       1.526  -4.801  -2.665  0.00  0.00     0.017 A 
ATOM      8  C8  DEN d   1       2.007  -3.670  -2.018  0.00  0.00    -0.094 A 
ATOM      9  C9  DEN d   1       3.198  -3.704  -1.313  0.00  0.00    -0.072 A 
ENDROOT
TORSDOF 0
ENDMDL
