MODEL 1
REMARK minimizedAffinity 14.1977692
REMARK minimizedRMSD -1
REMARK  0 active torsions:
REMARK  status: ('A' for Active; 'I' for Inactive)
ROOT
ATOM      1  C1  DEN d   1       2.654   1.687  -0.758  0.00  0.00     0.130 A 
ATOM      2  C2  DEN d   1       2.796   1.207   0.614  0.00  0.00    -0.031 A 
ATOM      3  C3  DEN d   1       2.133   2.177   1.508  0.00  0.00     0.027 A 
ATOM      4  C4  DEN d   1       0.901   4.361   0.904  0.00  0.00     0.027 A 
ATOM      5  C5  DEN d   1       0.530   5.191  -0.130  0.00  0.00    -0.003 A 
ATOM      6  C6  DEN d   1       0.867   4.932  -1.432  0.00  0.00     0.001 A 
ATOM      7  C7  DEN d   1       1.559   3.790  -1.739  0.00  0.00     0.017 A 
ATOM      8  C8  DEN d   1       1.943   2.951  -0.700  0.00  0.00    -0.094 A 
ATOM      9  C9  DEN d   1       1.581   3.225   0.608  0.00  0.00    -0.072 A 
ENDROOT
TORSDOF 0
ENDMDL
