MODEL 1
REMARK minimizedAffinity 13.4678679
REMARK minimizedRMSD -1
REMARK  0 active torsions:
REMARK  status: ('A' for Active; 'I' for Inactive)
ROOT
ATOM      1  C1  DEN d   1      -0.535  -1.257  -2.763  0.00  0.00     0.130 A 
ATOM      2  C2  DEN d   1      -1.335  -0.340  -3.569  0.00  0.00    -0.031 A 
ATOM      3  C3  DEN d   1      -2.522  -1.073  -4.053  0.00  0.00     0.027 A 
ATOM      4  C4  DEN d   1      -3.198  -3.526  -3.630  0.00  0.00     0.027 A 
ATOM      5  C5  DEN d   1      -2.829  -4.702  -3.015  0.00  0.00    -0.003 A 
ATOM      6  C6  DEN d   1      -1.662  -4.821  -2.308  0.00  0.00     0.001 A 
ATOM      7  C7  DEN d   1      -0.844  -3.732  -2.159  0.00  0.00     0.017 A 
ATOM      8  C8  DEN d   1      -1.206  -2.545  -2.782  0.00  0.00    -0.094 A 
ATOM      9  C9  DEN d   1      -2.396  -2.441  -3.483  0.00  0.00    -0.072 A 
ENDROOT
TORSDOF 0
ENDMDL
