MODEL 1
REMARK minimizedAffinity 25.6345997
REMARK minimizedRMSD -1
REMARK  0 active torsions:
REMARK  status: ('A' for Active; 'I' for Inactive)
ROOT
ATOM      1  C1  DEN d   1       0.293   0.665   4.195  0.00  0.00     0.130 A 
ATOM      2  C2  DEN d   1       0.933   0.438   2.902  0.00  0.00    -0.031 A 
ATOM      3  C3  DEN d   1      -0.090   0.607   1.851  0.00  0.00     0.027 A 
ATOM      4  C4  DEN d   1      -2.588   1.199   2.097  0.00  0.00     0.027 A 
ATOM      5  C5  DEN d   1      -3.593   1.474   2.998  0.00  0.00    -0.003 A 
ATOM      6  C6  DEN d   1      -3.383   1.465   4.351  0.00  0.00     0.001 A 
ATOM      7  C7  DEN d   1      -2.128   1.220   4.842  0.00  0.00     0.017 A 
ATOM      8  C8  DEN d   1      -1.111   0.935   3.940  0.00  0.00    -0.094 A 
ATOM      9  C9  DEN d   1      -1.341   0.960   2.575  0.00  0.00    -0.072 A 
ENDROOT
TORSDOF 0
ENDMDL
