MODEL 1
REMARK minimizedAffinity 9.14043713
REMARK minimizedRMSD -1
REMARK  0 active torsions:
REMARK  status: ('A' for Active; 'I' for Inactive)
ROOT
ATOM      1  C1  DEN d   1      -4.208  -0.376   4.251  0.00  0.00     0.130 A 
ATOM      2  C2  DEN d   1      -4.417  -0.464   2.808  0.00  0.00    -0.031 A 
ATOM      3  C3  DEN d   1      -3.606   0.590   2.165  0.00  0.00     0.027 A 
ATOM      4  C4  DEN d   1      -2.054   2.336   3.257  0.00  0.00     0.027 A 
ATOM      5  C5  DEN d   1      -1.564   2.810   4.454  0.00  0.00    -0.003 A 
ATOM      6  C6  DEN d   1      -1.944   2.281   5.659  0.00  0.00     0.001 A 
ATOM      7  C7  DEN d   1      -2.806   1.217   5.692  0.00  0.00     0.017 A 
ATOM      8  C8  DEN d   1      -3.310   0.739   4.490  0.00  0.00    -0.094 A 
ATOM      9  C9  DEN d   1      -2.904   1.278   3.281  0.00  0.00    -0.072 A 
ENDROOT
TORSDOF 0
ENDMDL
