MODEL 1
REMARK minimizedAffinity 19.0850983
REMARK minimizedRMSD -1
REMARK  0 active torsions:
REMARK  status: ('A' for Active; 'I' for Inactive)
ROOT
ATOM      1  C1  DEN d   1       3.375   0.414   0.151  0.00  0.00     0.130 A 
ATOM      2  C2  DEN d   1       3.561   1.862   0.130  0.00  0.00    -0.031 A 
ATOM      3  C3  DEN d   1       2.938   2.385  -1.102  0.00  0.00     0.027 A 
ATOM      4  C4  DEN d   1       1.707   1.099  -2.969  0.00  0.00     0.027 A 
ATOM      5  C5  DEN d   1       1.308  -0.147  -3.398  0.00  0.00    -0.003 A 
ATOM      6  C6  DEN d   1       1.597  -1.288  -2.698  0.00  0.00     0.001 A 
ATOM      7  C7  DEN d   1       2.266  -1.201  -1.506  0.00  0.00     0.017 A 
ATOM      8  C8  DEN d   1       2.679   0.051  -1.070  0.00  0.00    -0.094 A 
ATOM      9  C9  DEN d   1       2.366   1.194  -1.786  0.00  0.00    -0.072 A 
ENDROOT
TORSDOF 0
ENDMDL
