MODEL 1
REMARK minimizedAffinity 12.3332129
REMARK minimizedRMSD -1
REMARK  0 active torsions:
REMARK  status: ('A' for Active; 'I' for Inactive)
ROOT
ATOM      1  C1  DEN d   1       3.106  -1.635  -4.921  0.00  0.00     0.130 A 
ATOM      2  C2  DEN d   1       3.932  -2.730  -5.422  0.00  0.00    -0.031 A 
ATOM      3  C3  DEN d   1       4.225  -3.635  -4.293  0.00  0.00     0.027 A 
ATOM      4  C4  DEN d   1       3.481  -3.450  -1.830  0.00  0.00     0.027 A 
ATOM      5  C5  DEN d   1       2.778  -2.687  -0.924  0.00  0.00    -0.003 A 
ATOM      6  C6  DEN d   1       2.169  -1.511  -1.276  0.00  0.00     0.001 A 
ATOM      7  C7  DEN d   1       2.213  -1.088  -2.578  0.00  0.00     0.017 A 
ATOM      8  C8  DEN d   1       2.926  -1.849  -3.496  0.00  0.00    -0.094 A 
ATOM      9  C9  DEN d   1       3.524  -3.040  -3.123  0.00  0.00    -0.072 A 
ENDROOT
TORSDOF 0
ENDMDL
