MODEL 1
REMARK minimizedAffinity 9.0933733
REMARK minimizedRMSD -1
REMARK  1 active torsions:
REMARK  status: ('A' for Active; 'I' for Inactive)
REMARK    1  A    between atoms: C1_2  and  C2_3 
ROOT
ATOM      1  C2  UNL d   1       0.277  -5.915  -1.503  0.00  0.00    -0.076 A 
ATOM      2  C3  UNL d   1       0.687  -5.859  -0.160  0.00  0.00     0.004 A 
ATOM      3  C4  UNL d   1       2.038  -5.806   0.176  0.00  0.00    -0.003 A 
ATOM      4  C5  UNL d   1       3.002  -5.806  -0.826  0.00  0.00     0.000 A 
ATOM      5  C6  UNL d   1       2.613  -5.844  -2.164  0.00  0.00     0.000 A 
ATOM      6  C7  UNL d   1       1.254  -5.882  -2.521  0.00  0.00    -0.073 A 
ATOM      7  C8  UNL d   1       0.891  -5.927  -3.980  0.00  0.00     0.078 C 
ENDROOT
BRANCH   1   8
ATOM      8  C1  UNL d   1      -1.202  -6.000  -1.806  0.00  0.00     0.053 C 
ATOM      9  C   UNL d   1      -2.063  -5.801  -0.568  0.00  0.00     0.018 C 
ENDBRANCH   1   8
TORSDOF 1
ENDMDL
