MODEL 1
REMARK minimizedAffinity 9.69224739
REMARK minimizedRMSD -1
REMARK  1 active torsions:
REMARK  status: ('A' for Active; 'I' for Inactive)
REMARK    1  A    between atoms: C1_2  and  C2_3 
ROOT
ATOM      1  C2  UNL d   1      -3.797   0.531  -3.060  0.00  0.00    -0.076 A 
ATOM      2  C3  UNL d   1      -3.806   1.771  -3.724  0.00  0.00     0.004 A 
ATOM      3  C4  UNL d   1      -4.898   2.631  -3.623  0.00  0.00    -0.003 A 
ATOM      4  C5  UNL d   1      -5.998   2.267  -2.856  0.00  0.00     0.000 A 
ATOM      5  C6  UNL d   1      -6.000   1.049  -2.176  0.00  0.00     0.000 A 
ATOM      6  C7  UNL d   1      -4.900   0.177  -2.254  0.00  0.00    -0.073 A 
ATOM      7  C8  UNL d   1      -4.958  -1.126  -1.506  0.00  0.00     0.078 C 
ENDROOT
BRANCH   1   8
ATOM      8  C1  UNL d   1      -2.597  -0.372  -3.229  0.00  0.00     0.053 C 
ATOM      9  C   UNL d   1      -1.450   0.004  -2.304  0.00  0.00     0.018 C 
ENDBRANCH   1   8
TORSDOF 1
ENDMDL
