MODEL 1
REMARK minimizedAffinity 6.65522146
REMARK minimizedRMSD -1
REMARK  1 active torsions:
REMARK  status: ('A' for Active; 'I' for Inactive)
REMARK    1  A    between atoms: C1_2  and  C2_3 
ROOT
ATOM      1  C2  UNL d   1       3.343  -5.787  -3.530  0.00  0.00    -0.076 A 
ATOM      2  C3  UNL d   1       2.644  -5.985  -4.734  0.00  0.00     0.004 A 
ATOM      3  C4  UNL d   1       3.311  -5.994  -5.958  0.00  0.00    -0.003 A 
ATOM      4  C5  UNL d   1       4.688  -5.807  -5.998  0.00  0.00     0.000 A 
ATOM      5  C6  UNL d   1       5.400  -5.626  -4.812  0.00  0.00     0.000 A 
ATOM      6  C7  UNL d   1       4.745  -5.630  -3.569  0.00  0.00    -0.073 A 
ATOM      7  C8  UNL d   1       5.561  -5.425  -2.322  0.00  0.00     0.078 C 
ENDROOT
BRANCH   1   8
ATOM      8  C1  UNL d   1       2.562  -5.759  -2.236  0.00  0.00     0.053 C 
ATOM      9  C   UNL d   1       3.158  -4.801  -1.216  0.00  0.00     0.018 C 
ENDBRANCH   1   8
TORSDOF 1
ENDMDL
