MODEL 1
REMARK minimizedAffinity 2.72123909
REMARK minimizedRMSD -1
REMARK  1 active torsions:
REMARK  status: ('A' for Active; 'I' for Inactive)
REMARK    1  A    between atoms: C1_2  and  C2_3 
ROOT
ATOM      1  C2  UNL d   1       2.318  -2.322   3.175  0.00  0.00    -0.076 A 
ATOM      2  C3  UNL d   1       2.423  -3.559   2.516  0.00  0.00     0.004 A 
ATOM      3  C4  UNL d   1       1.771  -4.690   3.004  0.00  0.00    -0.003 A 
ATOM      4  C5  UNL d   1       1.003  -4.602   4.160  0.00  0.00     0.000 A 
ATOM      5  C6  UNL d   1       0.873  -3.379   4.817  0.00  0.00     0.000 A 
ATOM      6  C7  UNL d   1       1.510  -2.225   4.328  0.00  0.00    -0.073 A 
ATOM      7  C8  UNL d   1       1.341  -0.934   5.080  0.00  0.00     0.078 C 
ENDROOT
BRANCH   1   8
ATOM      8  C1  UNL d   1       3.070  -1.136   2.613  0.00  0.00     0.053 C 
ATOM      9  C   UNL d   1       2.182  -0.226   1.778  0.00  0.00     0.018 C 
ENDBRANCH   1   8
TORSDOF 1
ENDMDL
