MODEL 1
REMARK minimizedAffinity 5.65500402
REMARK minimizedRMSD -1
REMARK  1 active torsions:
REMARK  status: ('A' for Active; 'I' for Inactive)
REMARK    1  A    between atoms: C1_2  and  C2_3 
ROOT
ATOM      1  C2  UNL d   1       3.139  -5.847  -3.030  0.00  0.00    -0.076 A 
ATOM      2  C3  UNL d   1       4.479  -5.778  -3.450  0.00  0.00     0.004 A 
ATOM      3  C4  UNL d   1       4.810  -5.826  -4.804  0.00  0.00    -0.003 A 
ATOM      4  C5  UNL d   1       3.806  -5.944  -5.759  0.00  0.00     0.000 A 
ATOM      5  C6  UNL d   1       2.471  -5.996  -5.361  0.00  0.00     0.000 A 
ATOM      6  C7  UNL d   1       2.119  -5.932  -4.001  0.00  0.00    -0.073 A 
ATOM      7  C8  UNL d   1       0.663  -5.999  -3.628  0.00  0.00     0.078 C 
ENDROOT
BRANCH   1   8
ATOM      8  C1  UNL d   1       2.843  -5.817  -1.548  0.00  0.00     0.053 C 
ATOM      9  C   UNL d   1       4.106  -5.752  -0.702  0.00  0.00     0.018 C 
ENDBRANCH   1   8
TORSDOF 1
ENDMDL
