MODEL 1
REMARK minimizedAffinity 3.99528694
REMARK minimizedRMSD -1
REMARK  1 active torsions:
REMARK  status: ('A' for Active; 'I' for Inactive)
REMARK    1  A    between atoms: C1_2  and  C2_3 
ROOT
ATOM      1  C2  UNL d   1       2.436  -5.977  -3.201  0.00  0.00    -0.076 A 
ATOM      2  C3  UNL d   1       1.310  -5.992  -4.041  0.00  0.00     0.004 A 
ATOM      3  C4  UNL d   1       1.450  -5.992  -5.428  0.00  0.00    -0.003 A 
ATOM      4  C5  UNL d   1       2.718  -5.977  -5.997  0.00  0.00     0.000 A 
ATOM      5  C6  UNL d   1       3.847  -5.979  -5.178  0.00  0.00     0.000 A 
ATOM      6  C7  UNL d   1       3.724  -5.996  -3.778  0.00  0.00    -0.073 A 
ATOM      7  C8  UNL d   1       4.975  -5.993  -2.943  0.00  0.00     0.078 C 
ENDROOT
BRANCH   1   8
ATOM      8  C1  UNL d   1       2.223  -5.951  -1.704  0.00  0.00     0.053 C 
ATOM      9  C   UNL d   1       3.465  -5.509  -0.946  0.00  0.00     0.018 C 
ENDBRANCH   1   8
TORSDOF 1
ENDMDL
