MODEL 1
REMARK minimizedAffinity 9.82369709
REMARK minimizedRMSD -1
REMARK  1 active torsions:
REMARK  status: ('A' for Active; 'I' for Inactive)
REMARK    1  A    between atoms: C1_2  and  C2_3 
ROOT
ATOM      1  C2  UNL d   1       2.102  -2.447   3.645  0.00  0.00    -0.076 A 
ATOM      2  C3  UNL d   1       0.911  -3.157   3.411  0.00  0.00     0.004 A 
ATOM      3  C4  UNL d   1       0.804  -4.507   3.740  0.00  0.00    -0.003 A 
ATOM      4  C5  UNL d   1       1.886  -5.170   4.308  0.00  0.00     0.000 A 
ATOM      5  C6  UNL d   1       3.069  -4.478   4.564  0.00  0.00     0.000 A 
ATOM      6  C7  UNL d   1       3.189  -3.112   4.253  0.00  0.00    -0.073 A 
ATOM      7  C8  UNL d   1       4.490  -2.417   4.545  0.00  0.00     0.078 C 
ENDROOT
BRANCH   1   8
ATOM      8  C1  UNL d   1       2.169  -0.991   3.243  0.00  0.00     0.053 C 
ATOM      9  C   UNL d   1       1.603  -0.744   1.853  0.00  0.00     0.018 C 
ENDBRANCH   1   8
TORSDOF 1
ENDMDL
