MODEL 1
REMARK minimizedAffinity 2.13665104
REMARK minimizedRMSD -1
REMARK  1 active torsions:
REMARK  status: ('A' for Active; 'I' for Inactive)
REMARK    1  A    between atoms: C1_2  and  C2_3 
ROOT
ATOM      1  C2  UNL d   1       3.608  -2.356   3.090  0.00  0.00    -0.076 A 
ATOM      2  C3  UNL d   1       3.308  -3.599   3.674  0.00  0.00     0.004 A 
ATOM      3  C4  UNL d   1       1.989  -4.029   3.809  0.00  0.00    -0.003 A 
ATOM      4  C5  UNL d   1       0.948  -3.223   3.362  0.00  0.00     0.000 A 
ATOM      5  C6  UNL d   1       1.228  -1.994   2.764  0.00  0.00     0.000 A 
ATOM      6  C7  UNL d   1       2.553  -1.553   2.605  0.00  0.00    -0.073 A 
ATOM      7  C8  UNL d   1       2.796  -0.217   1.959  0.00  0.00     0.078 C 
ENDROOT
BRANCH   1   8
ATOM      8  C1  UNL d   1       5.055  -1.930   2.995  0.00  0.00     0.053 C 
ATOM      9  C   UNL d   1       5.997  -2.914   3.672  0.00  0.00     0.018 C 
ENDBRANCH   1   8
TORSDOF 1
ENDMDL
