MODEL 1
REMARK minimizedAffinity -1.93545997
REMARK minimizedRMSD -1
REMARK  2 active torsions:
REMARK  status: ('A' for Active; 'I' for Inactive)
REMARK    1  A    between atoms: C1_2  and  C2_3 
REMARK    2  A    between atoms: C2_3  and  C3_4 
ROOT
ATOM      1  C3  UNL d   1       0.851  -0.412   0.155  0.00  0.00    -0.075 A 
ATOM      2  C4  UNL d   1       1.095  -1.053  -1.069  0.00  0.00     0.002 A 
ATOM      3  C5  UNL d   1       2.401  -1.319  -1.481  0.00  0.00     0.002 A 
ATOM      4  C6  UNL d   1       3.477  -0.940  -0.682  0.00  0.00    -0.004 A 
ATOM      5  C7  UNL d   1       3.247  -0.288   0.527  0.00  0.00     0.002 A 
ATOM      6  C8  UNL d   1       1.941  -0.024   0.944  0.00  0.00     0.002 A 
ENDROOT
BRANCH   1   7
ATOM      7  C2  UNL d   1      -0.561  -0.147   0.620  0.00  0.00     0.056 C 
BRANCH   7   8
ATOM      8  C1  UNL d   1      -1.056  -1.119   1.696  0.00  0.00     0.007 C 
ATOM      9  C   UNL d   1       0.063  -1.662   2.575  0.00  0.00     0.009 C 
ENDBRANCH   7   8
ENDBRANCH   1   7
TORSDOF 2
ENDMDL
