MODEL 1
REMARK minimizedAffinity -0.582648098
REMARK minimizedRMSD -1
REMARK  2 active torsions:
REMARK  status: ('A' for Active; 'I' for Inactive)
REMARK    1  A    between atoms: C1_2  and  C2_3 
REMARK    2  A    between atoms: C2_3  and  C3_4 
ROOT
ATOM      1  C3  UNL d   1       0.108  -1.165   0.226  0.00  0.00    -0.075 A 
ATOM      2  C4  UNL d   1      -1.134  -0.711   0.694  0.00  0.00     0.002 A 
ATOM      3  C5  UNL d   1      -2.141  -0.355  -0.203  0.00  0.00     0.002 A 
ATOM      4  C6  UNL d   1      -1.917  -0.436  -1.576  0.00  0.00    -0.004 A 
ATOM      5  C7  UNL d   1      -0.681  -0.870  -2.051  0.00  0.00     0.002 A 
ATOM      6  C8  UNL d   1       0.327  -1.232  -1.156  0.00  0.00     0.002 A 
ENDROOT
BRANCH   1   7
ATOM      7  C2  UNL d   1       1.192  -1.581   1.192  0.00  0.00     0.056 C 
BRANCH   7   8
ATOM      8  C1  UNL d   1       0.891  -2.880   1.946  0.00  0.00     0.007 C 
ATOM      9  C   UNL d   1       1.760  -4.049   1.501  0.00  0.00     0.009 C 
ENDBRANCH   7   8
ENDBRANCH   1   7
TORSDOF 2
ENDMDL
