MODEL 1
REMARK minimizedAffinity 3.7807982
REMARK minimizedRMSD -1
REMARK  2 active torsions:
REMARK  status: ('A' for Active; 'I' for Inactive)
REMARK    1  A    between atoms: C1_2  and  C2_3 
REMARK    2  A    between atoms: C2_3  and  C3_4 
ROOT
ATOM      1  C3  UNL d   1       1.748  -2.996   1.028  0.00  0.00    -0.075 A 
ATOM      2  C4  UNL d   1       1.407  -1.833   0.322  0.00  0.00     0.002 A 
ATOM      3  C5  UNL d   1       0.504  -0.916   0.861  0.00  0.00     0.002 A 
ATOM      4  C6  UNL d   1      -0.077  -1.155   2.105  0.00  0.00    -0.004 A 
ATOM      5  C7  UNL d   1       0.242  -2.315   2.807  0.00  0.00     0.002 A 
ATOM      6  C8  UNL d   1       1.149  -3.231   2.272  0.00  0.00     0.002 A 
ENDROOT
BRANCH   1   7
ATOM      7  C2  UNL d   1       2.747  -3.977   0.463  0.00  0.00     0.056 C 
BRANCH   7   8
ATOM      8  C1  UNL d   1       3.890  -4.325   1.422  0.00  0.00     0.007 C 
ATOM      9  C   UNL d   1       4.856  -5.357   0.856  0.00  0.00     0.009 C 
ENDBRANCH   7   8
ENDBRANCH   1   7
TORSDOF 2
ENDMDL
