MODEL 1
REMARK minimizedAffinity 8.82768345
REMARK minimizedRMSD -1
REMARK  2 active torsions:
REMARK  status: ('A' for Active; 'I' for Inactive)
REMARK    1  A    between atoms: C1_2  and  C2_3 
REMARK    2  A    between atoms: C2_3  and  C3_4 
ROOT
ATOM      1  C3  UNL d   1       2.433   5.492   3.481  0.00  0.00    -0.075 A 
ATOM      2  C4  UNL d   1       3.230   5.504   4.635  0.00  0.00     0.002 A 
ATOM      3  C5  UNL d   1       2.662   5.747   5.886  0.00  0.00     0.002 A 
ATOM      4  C6  UNL d   1       1.295   5.990   5.998  0.00  0.00    -0.004 A 
ATOM      5  C7  UNL d   1       0.496   5.997   4.857  0.00  0.00     0.002 A 
ATOM      6  C8  UNL d   1       1.061   5.750   3.604  0.00  0.00     0.002 A 
ENDROOT
BRANCH   1   7
ATOM      7  C2  UNL d   1       3.037   5.201   2.128  0.00  0.00     0.056 C 
BRANCH   7   8
ATOM      8  C1  UNL d   1       3.324   3.717   1.880  0.00  0.00     0.007 C 
ATOM      9  C   UNL d   1       3.706   3.412   0.437  0.00  0.00     0.009 C 
ENDBRANCH   7   8
ENDBRANCH   1   7
TORSDOF 2
ENDMDL
