MODEL 1
REMARK minimizedAffinity 3.85856223
REMARK minimizedRMSD -1
REMARK  2 active torsions:
REMARK  status: ('A' for Active; 'I' for Inactive)
REMARK    1  A    between atoms: C1_2  and  C2_3 
REMARK    2  A    between atoms: C2_3  and  C3_4 
ROOT
ATOM      1  C3  UNL d   1       0.163  -1.262   1.040  0.00  0.00    -0.075 A 
ATOM      2  C4  UNL d   1      -0.162  -1.049   2.387  0.00  0.00     0.002 A 
ATOM      3  C5  UNL d   1      -1.343  -0.393   2.737  0.00  0.00     0.002 A 
ATOM      4  C6  UNL d   1      -2.207   0.066   1.746  0.00  0.00    -0.004 A 
ATOM      5  C7  UNL d   1      -1.887  -0.125   0.403  0.00  0.00     0.002 A 
ATOM      6  C8  UNL d   1      -0.708  -0.785   0.051  0.00  0.00     0.002 A 
ENDROOT
BRANCH   1   7
ATOM      7  C2  UNL d   1       1.424  -1.997   0.656  0.00  0.00     0.056 C 
BRANCH   7   8
ATOM      8  C1  UNL d   1       1.681  -3.266   1.475  0.00  0.00     0.007 C 
ATOM      9  C   UNL d   1       2.924  -4.026   1.031  0.00  0.00     0.009 C 
ENDBRANCH   7   8
ENDBRANCH   1   7
TORSDOF 2
ENDMDL
