MODEL 1
REMARK minimizedAffinity -2.45933723
REMARK minimizedRMSD -1
REMARK  2 active torsions:
REMARK  status: ('A' for Active; 'I' for Inactive)
REMARK    1  A    between atoms: C1_2  and  C2_3 
REMARK    2  A    between atoms: C2_3  and  C3_4 
ROOT
ATOM      1  C3  UNL d   1       1.181  -2.185   1.830  0.00  0.00    -0.075 A 
ATOM      2  C4  UNL d   1       0.080  -1.908   2.652  0.00  0.00     0.002 A 
ATOM      3  C5  UNL d   1      -0.916  -1.026   2.229  0.00  0.00     0.002 A 
ATOM      4  C6  UNL d   1      -0.818  -0.404   0.987  0.00  0.00    -0.004 A 
ATOM      5  C7  UNL d   1       0.281  -0.659   0.169  0.00  0.00     0.002 A 
ATOM      6  C8  UNL d   1       1.276  -1.544   0.587  0.00  0.00     0.002 A 
ENDROOT
BRANCH   1   7
ATOM      7  C2  UNL d   1       2.247  -3.160   2.269  0.00  0.00     0.056 C 
BRANCH   7   8
ATOM      8  C1  UNL d   1       2.204  -4.504   1.533  0.00  0.00     0.007 C 
ATOM      9  C   UNL d   1       3.316  -4.660   0.504  0.00  0.00     0.009 C 
ENDBRANCH   7   8
ENDBRANCH   1   7
TORSDOF 2
ENDMDL
