MODEL 1
REMARK minimizedAffinity -5.3291111
REMARK minimizedRMSD -1
REMARK  0 active torsions:
REMARK  status: ('A' for Active; 'I' for Inactive)
ROOT
ATOM      1  C   UNL d   1      -3.171   0.930  -5.593  0.00  0.00    -0.002 A 
ATOM      2  C1  UNL d   1      -4.543   0.815  -5.772  0.00  0.00     0.010 A 
ATOM      3  C2  UNL d   1      -5.144  -0.443  -5.861  0.00  0.00     0.041 A 
ATOM      4  C3  UNL d   1      -4.336  -1.593  -5.765  0.00  0.00    -0.075 A 
ATOM      5  S   UNL d   1      -4.852  -3.236  -5.845  0.00  0.00     0.015 SA
ATOM      6  C4  UNL d   1      -3.265  -3.823  -5.644  0.00  0.00     0.022 A 
ATOM      7  C5  UNL d   1      -2.351  -2.804  -5.517  0.00  0.00     0.026 A 
ATOM      8  C6  UNL d   1      -2.953  -1.502  -5.584  0.00  0.00    -0.082 A 
ATOM      9  C7  UNL d   1      -2.373  -0.213  -5.498  0.00  0.00     0.045 A 
ENDROOT
TORSDOF 0
ENDMDL
