MODEL 1
REMARK minimizedAffinity 2.76154923
REMARK minimizedRMSD -1
REMARK  0 active torsions:
REMARK  status: ('A' for Active; 'I' for Inactive)
ROOT
ATOM      1  C   UNL d   1       3.700   3.726   3.635  0.00  0.00    -0.002 A 
ATOM      2  C1  UNL d   1       3.008   4.729   2.971  0.00  0.00     0.010 A 
ATOM      3  C2  UNL d   1       2.045   4.412   2.011  0.00  0.00     0.041 A 
ATOM      4  C3  UNL d   1       1.786   3.056   1.728  0.00  0.00    -0.075 A 
ATOM      5  S   UNL d   1       0.650   2.430   0.592  0.00  0.00     0.015 SA
ATOM      6  C4  UNL d   1       1.056   0.817   0.963  0.00  0.00     0.022 A 
ATOM      7  C5  UNL d   1       2.032   0.739   1.927  0.00  0.00     0.026 A 
ATOM      8  C6  UNL d   1       2.469   2.028   2.385  0.00  0.00    -0.082 A 
ATOM      9  C7  UNL d   1       3.440   2.383   3.352  0.00  0.00     0.045 A 
ENDROOT
TORSDOF 0
ENDMDL
