MODEL 1
REMARK minimizedAffinity 7.37122536
REMARK minimizedRMSD -1
REMARK  0 active torsions:
REMARK  status: ('A' for Active; 'I' for Inactive)
ROOT
ATOM      1  C   UNL d   1      -0.583  -2.972  -3.713  0.00  0.00    -0.002 A 
ATOM      2  C1  UNL d   1      -0.623  -4.338  -3.955  0.00  0.00     0.010 A 
ATOM      3  C2  UNL d   1      -1.772  -4.934  -4.479  0.00  0.00     0.041 A 
ATOM      4  C3  UNL d   1      -2.890  -4.125  -4.761  0.00  0.00    -0.075 A 
ATOM      5  S   UNL d   1      -4.405  -4.635  -5.408  0.00  0.00     0.015 SA
ATOM      6  C4  UNL d   1      -5.034  -3.051  -5.380  0.00  0.00     0.022 A 
ATOM      7  C5  UNL d   1      -4.125  -2.143  -4.892  0.00  0.00     0.026 A 
ATOM      8  C6  UNL d   1      -2.874  -2.747  -4.528  0.00  0.00    -0.082 A 
ATOM      9  C7  UNL d   1      -1.694  -2.173  -3.995  0.00  0.00     0.045 A 
ENDROOT
TORSDOF 0
ENDMDL
