MODEL 1
REMARK minimizedAffinity 0.217782468
REMARK minimizedRMSD -1
REMARK  0 active torsions:
REMARK  status: ('A' for Active; 'I' for Inactive)
ROOT
ATOM      1  C   UNL d   1      -1.314   3.845  -5.512  0.00  0.00    -0.002 A 
ATOM      2  C1  UNL d   1      -1.641   5.193  -5.562  0.00  0.00     0.010 A 
ATOM      3  C2  UNL d   1      -2.970   5.597  -5.708  0.00  0.00     0.041 A 
ATOM      4  C3  UNL d   1      -3.974   4.613  -5.802  0.00  0.00    -0.075 A 
ATOM      5  S   UNL d   1      -5.669   4.873  -5.984  0.00  0.00     0.015 SA
ATOM      6  C4  UNL d   1      -5.999   3.201  -5.999  0.00  0.00     0.022 A 
ATOM      7  C5  UNL d   1      -4.856   2.448  -5.870  0.00  0.00     0.026 A 
ATOM      8  C6  UNL d   1      -3.670   3.250  -5.753  0.00  0.00    -0.082 A 
ATOM      9  C7  UNL d   1      -2.313   2.873  -5.606  0.00  0.00     0.045 A 
ENDROOT
TORSDOF 0
ENDMDL
