MODEL 1
REMARK minimizedAffinity -2.26929808
REMARK minimizedRMSD -1
REMARK  0 active torsions:
REMARK  status: ('A' for Active; 'I' for Inactive)
ROOT
ATOM      1  C   UNL d   1      -1.772  -5.049  -4.561  0.00  0.00    -0.002 A 
ATOM      2  C1  UNL d   1      -1.516  -3.756  -4.129  0.00  0.00     0.010 A 
ATOM      3  C2  UNL d   1      -2.462  -2.745  -4.312  0.00  0.00     0.041 A 
ATOM      4  C3  UNL d   1      -3.682  -3.060  -4.942  0.00  0.00    -0.075 A 
ATOM      5  S   UNL d   1      -4.989  -1.985  -5.273  0.00  0.00     0.015 SA
ATOM      6  C4  UNL d   1      -5.918  -3.218  -5.995  0.00  0.00     0.022 A 
ATOM      7  C5  UNL d   1      -5.263  -4.426  -5.993  0.00  0.00     0.026 A 
ATOM      8  C6  UNL d   1      -3.963  -4.356  -5.386  0.00  0.00    -0.082 A 
ATOM      9  C7  UNL d   1      -2.984  -5.358  -5.186  0.00  0.00     0.045 A 
ENDROOT
TORSDOF 0
ENDMDL
