MODEL 1
REMARK minimizedAffinity 4.73186874
REMARK minimizedRMSD -1
REMARK  0 active torsions:
REMARK  status: ('A' for Active; 'I' for Inactive)
ROOT
ATOM      1  C   UNL d   1      -3.012   1.551  -5.630  0.00  0.00    -0.002 A 
ATOM      2  C1  UNL d   1      -4.349   1.199  -5.747  0.00  0.00     0.010 A 
ATOM      3  C2  UNL d   1      -5.339   2.181  -5.806  0.00  0.00     0.041 A 
ATOM      4  C3  UNL d   1      -4.959   3.537  -5.748  0.00  0.00    -0.075 A 
ATOM      5  S   UNL d   1      -5.998   4.911  -5.805  0.00  0.00     0.015 SA
ATOM      6  C4  UNL d   1      -4.691   5.998  -5.677  0.00  0.00     0.022 A 
ATOM      7  C5  UNL d   1      -3.484   5.345  -5.592  0.00  0.00     0.026 A 
ATOM      8  C6  UNL d   1      -3.619   3.916  -5.632  0.00  0.00    -0.082 A 
ATOM      9  C7  UNL d   1      -2.638   2.896  -5.573  0.00  0.00     0.045 A 
ENDROOT
TORSDOF 0
ENDMDL
