MODEL 1
REMARK minimizedAffinity 9.08357048
REMARK minimizedRMSD -1
REMARK  0 active torsions:
REMARK  status: ('A' for Active; 'I' for Inactive)
ROOT
ATOM      1  C   UNL d   1      -1.612  -3.355  -3.909  0.00  0.00    -0.002 A 
ATOM      2  C1  UNL d   1      -1.656  -4.720  -4.154  0.00  0.00     0.010 A 
ATOM      3  C2  UNL d   1      -2.791  -5.304  -4.720  0.00  0.00     0.041 A 
ATOM      4  C3  UNL d   1      -3.890  -4.484  -5.042  0.00  0.00    -0.075 A 
ATOM      5  S   UNL d   1      -5.385  -4.979  -5.744  0.00  0.00     0.015 SA
ATOM      6  C4  UNL d   1      -6.000  -3.389  -5.738  0.00  0.00     0.022 A 
ATOM      7  C5  UNL d   1      -5.100  -2.491  -5.216  0.00  0.00     0.026 A 
ATOM      8  C6  UNL d   1      -3.869  -3.107  -4.807  0.00  0.00    -0.082 A 
ATOM      9  C7  UNL d   1      -2.704  -2.545  -4.230  0.00  0.00     0.045 A 
ENDROOT
TORSDOF 0
ENDMDL
