MODEL 1
REMARK minimizedAffinity 10.6844826
REMARK minimizedRMSD -1
REMARK  0 active torsions:
REMARK  status: ('A' for Active; 'I' for Inactive)
ROOT
ATOM      1  C   UNL d   1       5.365  -3.439  -4.802  0.00  0.00    -0.002 A 
ATOM      2  C1  UNL d   1       4.813  -2.458  -5.613  0.00  0.00     0.010 A 
ATOM      3  C2  UNL d   1       4.377  -1.249  -5.069  0.00  0.00     0.041 A 
ATOM      4  C3  UNL d   1       4.507  -1.039  -3.682  0.00  0.00    -0.075 A 
ATOM      5  S   UNL d   1       4.043   0.364  -2.794  0.00  0.00     0.015 SA
ATOM      6  C4  UNL d   1       4.567  -0.305  -1.317  0.00  0.00     0.022 A 
ATOM      7  C5  UNL d   1       5.086  -1.568  -1.479  0.00  0.00     0.026 A 
ATOM      8  C6  UNL d   1       5.061  -2.011  -2.844  0.00  0.00    -0.082 A 
ATOM      9  C7  UNL d   1       5.493  -3.227  -3.426  0.00  0.00     0.045 A 
ENDROOT
TORSDOF 0
ENDMDL
