MODEL 1
REMARK minimizedAffinity 6.6304369
REMARK minimizedRMSD -1
REMARK  0 active torsions:
REMARK  status: ('A' for Active; 'I' for Inactive)
ROOT
ATOM      1  C   UNL d   1       1.263   1.852   1.485  0.00  0.00    -0.002 A 
ATOM      2  C1  UNL d   1       1.284   2.822   0.492  0.00  0.00     0.010 A 
ATOM      3  C2  UNL d   1       0.930   2.503  -0.820  0.00  0.00     0.041 A 
ATOM      4  C3  UNL d   1       0.551   1.180  -1.121  0.00  0.00    -0.075 A 
ATOM      5  S   UNL d   1       0.077   0.558  -2.658  0.00  0.00     0.015 SA
ATOM      6  C4  UNL d   1      -0.164  -1.009  -2.033  0.00  0.00     0.022 A 
ATOM      7  C5  UNL d   1       0.106  -1.074  -0.687  0.00  0.00     0.026 A 
ATOM      8  C6  UNL d   1       0.522   0.186  -0.139  0.00  0.00    -0.082 A 
ATOM      9  C7  UNL d   1       0.887   0.541   1.182  0.00  0.00     0.045 A 
ENDROOT
TORSDOF 0
ENDMDL
