MODEL 1
REMARK minimizedAffinity 9.33717823
REMARK minimizedRMSD -1
REMARK  0 active torsions:
REMARK  status: ('A' for Active; 'I' for Inactive)
ROOT
ATOM      1  C   UNL d   1       1.904   1.634   1.214  0.00  0.00    -0.002 A 
ATOM      2  C1  UNL d   1       1.997   2.579   0.202  0.00  0.00     0.010 A 
ATOM      3  C2  UNL d   1       1.383   2.360  -1.033  0.00  0.00     0.041 A 
ATOM      4  C3  UNL d   1       0.665   1.165  -1.235  0.00  0.00    -0.075 A 
ATOM      5  S   UNL d   1      -0.170   0.682  -2.664  0.00  0.00     0.015 SA
ATOM      6  C4  UNL d   1      -0.671  -0.789  -1.965  0.00  0.00     0.022 A 
ATOM      7  C5  UNL d   1      -0.220  -0.926  -0.673  0.00  0.00     0.026 A 
ATOM      8  C6  UNL d   1       0.556   0.199  -0.230  0.00  0.00    -0.082 A 
ATOM      9  C7  UNL d   1       1.191   0.449   1.010  0.00  0.00     0.045 A 
ENDROOT
TORSDOF 0
ENDMDL
