MODEL 1
REMARK minimizedAffinity 5.63958406
REMARK minimizedRMSD -1
REMARK  0 active torsions:
REMARK  status: ('A' for Active; 'I' for Inactive)
ROOT
ATOM      1  C   UNL d   1       1.050   1.916   0.281  0.00  0.00    -0.002 A 
ATOM      2  C1  UNL d   1       0.926   1.941  -1.101  0.00  0.00     0.010 A 
ATOM      3  C2  UNL d   1       0.399   0.844  -1.787  0.00  0.00     0.041 A 
ATOM      4  C3  UNL d   1      -0.006  -0.288  -1.053  0.00  0.00    -0.075 A 
ATOM      5  S   UNL d   1      -0.680  -1.746  -1.679  0.00  0.00     0.015 SA
ATOM      6  C4  UNL d   1      -0.820  -2.436  -0.127  0.00  0.00     0.022 A 
ATOM      7  C5  UNL d   1      -0.368  -1.589   0.857  0.00  0.00     0.026 A 
ATOM      8  C6  UNL d   1       0.108  -0.336   0.340  0.00  0.00    -0.082 A 
ATOM      9  C7  UNL d   1       0.646   0.791   1.006  0.00  0.00     0.045 A 
ENDROOT
TORSDOF 0
ENDMDL
