MODEL 1
REMARK minimizedAffinity 19.3165379
REMARK minimizedRMSD -1
REMARK  2 active torsions:
REMARK  status: ('A' for Active; 'I' for Inactive)
REMARK    1  A    between atoms: C2'_3  and  C1'_4 
REMARK    2  A    between atoms: C1'_4  and  C1_5 
ROOT
ATOM      1  C1  I4B d   1       0.950  -1.254   3.661  0.00  0.00    -0.075 A 
ATOM      2  C2  I4B d   1       1.860  -2.268   3.826  0.00  0.00     0.003 A 
ATOM      3  C3  I4B d   1       2.618  -2.359   5.018  0.00  0.00     0.002 A 
ATOM      4  C4  I4B d   1       2.471  -1.392   5.992  0.00  0.00    -0.004 A 
ATOM      5  C5  I4B d   1       1.531  -0.378   5.833  0.00  0.00     0.002 A 
ATOM      6  C6  I4B d   1       0.757  -0.315   4.666  0.00  0.00     0.003 A 
ENDROOT
BRANCH   1   7
ATOM      7  C1' I4B d   1       0.190  -1.170   2.375  0.00  0.00     0.060 C 
BRANCH   7   8
ATOM      8  C2' I4B d   1      -0.960  -0.204   2.576  0.00  0.00    -0.013 C 
ATOM      9  C4' I4B d   1      -0.602   1.178   2.097  0.00  0.00     0.013 C 
ATOM     10  C3' I4B d   1      -2.150  -0.742   1.837  0.00  0.00     0.013 C 
ENDBRANCH   7   8
ENDBRANCH   1   7
TORSDOF 2
ENDMDL
