MODEL 1
REMARK minimizedAffinity 5.53906155
REMARK minimizedRMSD -1
REMARK  2 active torsions:
REMARK  status: ('A' for Active; 'I' for Inactive)
REMARK    1  A    between atoms: C2'_3  and  C1'_4 
REMARK    2  A    between atoms: C1'_4  and  C1_5 
ROOT
ATOM      1  C1  I4B d   1       5.666  -1.799  -3.292  0.00  0.00    -0.075 A 
ATOM      2  C2  I4B d   1       5.134  -3.004  -3.678  0.00  0.00     0.003 A 
ATOM      3  C3  I4B d   1       4.910  -3.277  -5.049  0.00  0.00     0.002 A 
ATOM      4  C4  I4B d   1       5.184  -2.305  -5.989  0.00  0.00    -0.004 A 
ATOM      5  C5  I4B d   1       5.745  -1.093  -5.598  0.00  0.00     0.002 A 
ATOM      6  C6  I4B d   1       6.000  -0.842  -4.242  0.00  0.00     0.003 A 
ENDROOT
BRANCH   1   7
ATOM      7  C1' I4B d   1       5.859  -1.530  -1.833  0.00  0.00     0.060 C 
BRANCH   7   8
ATOM      8  C2' I4B d   1       4.544  -1.028  -1.273  0.00  0.00    -0.013 C 
ATOM      9  C4' I4B d   1       3.705  -2.164  -0.748  0.00  0.00     0.013 C 
ATOM     10  C3' I4B d   1       4.849  -0.036  -0.191  0.00  0.00     0.013 C 
ENDBRANCH   7   8
ENDBRANCH   1   7
TORSDOF 2
ENDMDL
