MODEL 1
REMARK minimizedAffinity 10.0374928
REMARK minimizedRMSD -1
REMARK  2 active torsions:
REMARK  status: ('A' for Active; 'I' for Inactive)
REMARK    1  A    between atoms: C2'_3  and  C1'_4 
REMARK    2  A    between atoms: C1'_4  and  C1_5 
ROOT
ATOM      1  C1  I4B d   1       2.251  -1.554   4.162  0.00  0.00    -0.075 A 
ATOM      2  C2  I4B d   1       3.498  -1.988   3.785  0.00  0.00     0.003 A 
ATOM      3  C3  I4B d   1       4.640  -1.605   4.528  0.00  0.00     0.002 A 
ATOM      4  C4  I4B d   1       4.497  -0.751   5.603  0.00  0.00    -0.004 A 
ATOM      5  C5  I4B d   1       3.230  -0.330   5.997  0.00  0.00     0.002 A 
ATOM      6  C6  I4B d   1       2.098  -0.744   5.280  0.00  0.00     0.003 A 
ENDROOT
BRANCH   1   7
ATOM      7  C1' I4B d   1       1.069  -1.952   3.335  0.00  0.00     0.060 C 
BRANCH   7   8
ATOM      8  C2' I4B d   1       0.822  -0.857   2.318  0.00  0.00    -0.013 C 
ATOM      9  C4' I4B d   1       0.047   0.284   2.923  0.00  0.00     0.013 C 
ATOM     10  C3' I4B d   1       2.152  -0.394   1.802  0.00  0.00     0.013 C 
ENDBRANCH   7   8
ENDBRANCH   1   7
TORSDOF 2
ENDMDL
