MODEL 1
REMARK minimizedAffinity 9.33850765
REMARK minimizedRMSD -1
REMARK  2 active torsions:
REMARK  status: ('A' for Active; 'I' for Inactive)
REMARK    1  A    between atoms: C2'_3  and  C1'_4 
REMARK    2  A    between atoms: C1'_4  and  C1_5 
ROOT
ATOM      1  C1  I4B d   1       0.871   4.684  -0.934  0.00  0.00    -0.075 A 
ATOM      2  C2  I4B d   1       0.124   5.773  -0.558  0.00  0.00     0.003 A 
ATOM      3  C3  I4B d   1      -1.149   5.998  -1.136  0.00  0.00     0.002 A 
ATOM      4  C4  I4B d   1      -1.611   5.144  -2.117  0.00  0.00    -0.004 A 
ATOM      5  C5  I4B d   1      -0.862   4.029  -2.480  0.00  0.00     0.002 A 
ATOM      6  C6  I4B d   1       0.381   3.790  -1.876  0.00  0.00     0.003 A 
ENDROOT
BRANCH   1   7
ATOM      7  C1' I4B d   1       2.225   4.495  -0.327  0.00  0.00     0.060 C 
BRANCH   7   8
ATOM      8  C2' I4B d   1       2.034   4.081   1.118  0.00  0.00    -0.013 C 
ATOM      9  C4' I4B d   1       0.602   3.707   1.394  0.00  0.00     0.013 C 
ATOM     10  C3' I4B d   1       2.957   2.931   1.396  0.00  0.00     0.013 C 
ENDBRANCH   7   8
ENDBRANCH   1   7
TORSDOF 2
ENDMDL
