MODEL 1
REMARK minimizedAffinity -2.43285394
REMARK minimizedRMSD -1
REMARK  0 active torsions:
REMARK  status: ('A' for Active; 'I' for Inactive)
ROOT
ATOM      1  C1  BNZ d   1      -1.540   0.271   1.674  0.00  0.00     0.000 A 
ATOM      2  C2  BNZ d   1      -0.669   0.181   0.622  0.00  0.00     0.000 A 
ATOM      3  C3  BNZ d   1       0.680   0.280   0.820  0.00  0.00     0.000 A 
ATOM      4  C4  BNZ d   1       1.153   0.508   2.062  0.00  0.00     0.000 A 
ATOM      5  C5  BNZ d   1       0.286   0.610   3.132  0.00  0.00     0.000 A 
ATOM      6  C6  BNZ d   1      -1.068   0.471   2.935  0.00  0.00     0.000 A 
ENDROOT
TORSDOF 0
ENDMDL
