MODEL 1
REMARK minimizedAffinity -3.8489666
REMARK minimizedRMSD -1
REMARK  0 active torsions:
REMARK  status: ('A' for Active; 'I' for Inactive)
ROOT
ATOM      1  C1  BNZ d   1       0.126  -0.269  -3.259  0.00  0.00     0.000 A 
ATOM      2  C2  BNZ d   1       1.169   0.389  -2.662  0.00  0.00     0.000 A 
ATOM      3  C3  BNZ d   1       2.447  -0.081  -2.771  0.00  0.00     0.000 A 
ATOM      4  C4  BNZ d   1       2.677  -1.229  -3.442  0.00  0.00     0.000 A 
ATOM      5  C5  BNZ d   1       1.636  -1.908  -4.041  0.00  0.00     0.000 A 
ATOM      6  C6  BNZ d   1       0.355  -1.412  -3.962  0.00  0.00     0.000 A 
ENDROOT
TORSDOF 0
ENDMDL
