MODEL 1
REMARK minimizedAffinity -5.27113581
REMARK minimizedRMSD -1
REMARK  0 active torsions:
REMARK  status: ('A' for Active; 'I' for Inactive)
ROOT
ATOM      1  C1  BNZ d   1      -1.082  -0.589   3.575  0.00  0.00     0.000 A 
ATOM      2  C2  BNZ d   1       0.088  -1.041   3.027  0.00  0.00     0.000 A 
ATOM      3  C3  BNZ d   1       0.348  -0.874   1.696  0.00  0.00     0.000 A 
ATOM      4  C4  BNZ d   1      -0.579  -0.293   0.907  0.00  0.00     0.000 A 
ATOM      5  C5  BNZ d   1      -1.768   0.159   1.443  0.00  0.00     0.000 A 
ATOM      6  C6  BNZ d   1      -2.010   0.025   2.791  0.00  0.00     0.000 A 
ENDROOT
TORSDOF 0
ENDMDL
