MODEL 1
REMARK minimizedAffinity -4.66218328
REMARK minimizedRMSD -1
REMARK  0 active torsions:
REMARK  status: ('A' for Active; 'I' for Inactive)
ROOT
ATOM      1  C1  BNZ d   1      -0.554  -0.152   2.754  0.00  0.00     0.000 A 
ATOM      2  C2  BNZ d   1      -1.276  -0.200   1.592  0.00  0.00     0.000 A 
ATOM      3  C3  BNZ d   1      -0.662  -0.054   0.379  0.00  0.00     0.000 A 
ATOM      4  C4  BNZ d   1       0.665   0.178   0.332  0.00  0.00     0.000 A 
ATOM      5  C5  BNZ d   1       1.406   0.239   1.496  0.00  0.00     0.000 A 
ATOM      6  C6  BNZ d   1       0.791   0.053   2.712  0.00  0.00     0.000 A 
ENDROOT
TORSDOF 0
ENDMDL
