MODEL 1
REMARK minimizedAffinity -3.83505416
REMARK minimizedRMSD -1
REMARK  0 active torsions:
REMARK  status: ('A' for Active; 'I' for Inactive)
ROOT
ATOM      1  C1  BNZ d   1       1.622   0.389  -0.279  0.00  0.00     0.000 A 
ATOM      2  C2  BNZ d   1       2.032   0.476   1.025  0.00  0.00     0.000 A 
ATOM      3  C3  BNZ d   1       1.124   0.619   2.037  0.00  0.00     0.000 A 
ATOM      4  C4  BNZ d   1      -0.188   0.715   1.741  0.00  0.00     0.000 A 
ATOM      5  C5  BNZ d   1      -0.617   0.638   0.431  0.00  0.00     0.000 A 
ATOM      6  C6  BNZ d   1       0.297   0.455  -0.582  0.00  0.00     0.000 A 
ENDROOT
TORSDOF 0
ENDMDL
