MODEL 1
REMARK minimizedAffinity -5.16935873
REMARK minimizedRMSD -1
REMARK  0 active torsions:
REMARK  status: ('A' for Active; 'I' for Inactive)
ROOT
ATOM      1  C1  BNZ d   1      -1.500  -0.018   2.606  0.00  0.00     0.000 A 
ATOM      2  C2  BNZ d   1      -0.263  -0.351   2.121  0.00  0.00     0.000 A 
ATOM      3  C3  BNZ d   1      -0.015  -0.348   0.776  0.00  0.00     0.000 A 
ATOM      4  C4  BNZ d   1      -1.013  -0.053  -0.081  0.00  0.00     0.000 A 
ATOM      5  C5  BNZ d   1      -2.268   0.275   0.392  0.00  0.00     0.000 A 
ATOM      6  C6  BNZ d   1      -2.504   0.310   1.747  0.00  0.00     0.000 A 
ENDROOT
TORSDOF 0
ENDMDL
