MODEL 1
REMARK minimizedAffinity -4.0048542
REMARK minimizedRMSD -1
REMARK  0 active torsions:
REMARK  status: ('A' for Active; 'I' for Inactive)
ROOT
ATOM      1  C1  BNZ d   1       0.977   0.272   1.719  0.00  0.00     0.000 A 
ATOM      2  C2  BNZ d   1       1.494   0.718   0.532  0.00  0.00     0.000 A 
ATOM      3  C3  BNZ d   1       0.700   0.842  -0.574  0.00  0.00     0.000 A 
ATOM      4  C4  BNZ d   1      -0.598   0.482  -0.503  0.00  0.00     0.000 A 
ATOM      5  C5  BNZ d   1      -1.131   0.022   0.684  0.00  0.00     0.000 A 
ATOM      6  C6  BNZ d   1      -0.339  -0.064   1.806  0.00  0.00     0.000 A 
ENDROOT
TORSDOF 0
ENDMDL
