MODEL 1
REMARK minimizedAffinity -4.92784405
REMARK minimizedRMSD -1
REMARK  0 active torsions:
REMARK  status: ('A' for Active; 'I' for Inactive)
ROOT
ATOM      1  C1  BNZ d   1      -0.621  -0.940   1.569  0.00  0.00     0.000 A 
ATOM      2  C2  BNZ d   1      -0.648  -0.132   0.464  0.00  0.00     0.000 A 
ATOM      3  C3  BNZ d   1       0.307   0.827   0.274  0.00  0.00     0.000 A 
ATOM      4  C4  BNZ d   1       1.264   1.003   1.208  0.00  0.00     0.000 A 
ATOM      5  C5  BNZ d   1       1.300   0.203   2.332  0.00  0.00     0.000 A 
ATOM      6  C6  BNZ d   1       0.359  -0.787   2.501  0.00  0.00     0.000 A 
ENDROOT
TORSDOF 0
ENDMDL
