MODEL 1
REMARK minimizedAffinity -2.9702177
REMARK minimizedRMSD -1
REMARK  0 active torsions:
REMARK  status: ('A' for Active; 'I' for Inactive)
ROOT
ATOM      1  C1  BNZ d   1       1.934   0.799   1.454  0.00  0.00     0.000 A 
ATOM      2  C2  BNZ d   1       1.495   0.249   0.279  0.00  0.00     0.000 A 
ATOM      3  C3  BNZ d   1       0.239  -0.283   0.183  0.00  0.00     0.000 A 
ATOM      4  C4  BNZ d   1      -0.559  -0.301   1.270  0.00  0.00     0.000 A 
ATOM      5  C5  BNZ d   1      -0.126   0.242   2.463  0.00  0.00     0.000 A 
ATOM      6  C6  BNZ d   1       1.123   0.811   2.546  0.00  0.00     0.000 A 
ENDROOT
TORSDOF 0
ENDMDL
