MODEL 1
REMARK minimizedAffinity -0.0711668357
REMARK minimizedRMSD -1
REMARK  0 active torsions:
REMARK  status: ('A' for Active; 'I' for Inactive)
ROOT
ATOM      1  C1  BNZ d   1       2.379   0.595   0.968  0.00  0.00     0.000 A 
ATOM      2  C2  BNZ d   1       2.314   0.778   2.323  0.00  0.00     0.000 A 
ATOM      3  C3  BNZ d   1       1.129   1.085   2.932  0.00  0.00     0.000 A 
ATOM      4  C4  BNZ d   1       0.021   1.248   2.181  0.00  0.00     0.000 A 
ATOM      5  C5  BNZ d   1       0.073   1.076   0.812  0.00  0.00     0.000 A 
ATOM      6  C6  BNZ d   1       1.259   0.729   0.207  0.00  0.00     0.000 A 
ENDROOT
TORSDOF 0
ENDMDL
