MODEL 1
REMARK minimizedAffinity 0.574877262
REMARK minimizedRMSD -1
REMARK  0 active torsions:
REMARK  status: ('A' for Active; 'I' for Inactive)
ROOT
ATOM      1  C1  BNZ d   1       1.609  -0.349   0.045  0.00  0.00     0.000 A 
ATOM      2  C2  BNZ d   1       0.843   0.786   0.027  0.00  0.00     0.000 A 
ATOM      3  C3  BNZ d   1       0.858   1.658   1.080  0.00  0.00     0.000 A 
ATOM      4  C4  BNZ d   1       1.607   1.374   2.165  0.00  0.00     0.000 A 
ATOM      5  C5  BNZ d   1       2.378   0.229   2.202  0.00  0.00     0.000 A 
ATOM      6  C6  BNZ d   1       2.390  -0.626   1.125  0.00  0.00     0.000 A 
ENDROOT
TORSDOF 0
ENDMDL
