MODEL 1
REMARK minimizedAffinity 1.55517733
REMARK minimizedRMSD -1
REMARK  0 active torsions:
REMARK  status: ('A' for Active; 'I' for Inactive)
ROOT
ATOM      1  C1  BNZ d   1       0.599   0.473   1.464  0.00  0.00     0.000 A 
ATOM      2  C2  BNZ d   1       1.626   0.884   0.657  0.00  0.00     0.000 A 
ATOM      3  C3  BNZ d   1       2.577   1.749   1.120  0.00  0.00     0.000 A 
ATOM      4  C4  BNZ d   1       2.479   2.232   2.375  0.00  0.00     0.000 A 
ATOM      5  C5  BNZ d   1       1.444   1.835   3.198  0.00  0.00     0.000 A 
ATOM      6  C6  BNZ d   1       0.510   0.934   2.741  0.00  0.00     0.000 A 
ENDROOT
TORSDOF 0
ENDMDL
