MODEL 1
REMARK minimizedAffinity -4.76634693
REMARK minimizedRMSD -1
REMARK  0 active torsions:
REMARK  status: ('A' for Active; 'I' for Inactive)
ROOT
ATOM      1  C1  BNZ d   1       1.278   0.760   1.820  0.00  0.00     0.000 A 
ATOM      2  C2  BNZ d   1       0.679   0.463   3.015  0.00  0.00     0.000 A 
ATOM      3  C3  BNZ d   1      -0.498  -0.231   3.055  0.00  0.00     0.000 A 
ATOM      4  C4  BNZ d   1      -1.095  -0.592   1.900  0.00  0.00     0.000 A 
ATOM      5  C5  BNZ d   1      -0.508  -0.292   0.687  0.00  0.00     0.000 A 
ATOM      6  C6  BNZ d   1       0.696   0.373   0.652  0.00  0.00     0.000 A 
ENDROOT
TORSDOF 0
ENDMDL
