MODEL 1
REMARK minimizedAffinity -5.03863573
REMARK minimizedRMSD -1
REMARK  0 active torsions:
REMARK  status: ('A' for Active; 'I' for Inactive)
ROOT
ATOM      1  C1  BNZ d   1      -1.562  -0.906   2.345  0.00  0.00     0.000 A 
ATOM      2  C2  BNZ d   1      -0.739  -0.367   3.298  0.00  0.00     0.000 A 
ATOM      3  C3  BNZ d   1       0.420   0.265   2.945  0.00  0.00     0.000 A 
ATOM      4  C4  BNZ d   1       0.775   0.321   1.645  0.00  0.00     0.000 A 
ATOM      5  C5  BNZ d   1      -0.039  -0.226   0.674  0.00  0.00     0.000 A 
ATOM      6  C6  BNZ d   1      -1.224  -0.827   1.029  0.00  0.00     0.000 A 
ENDROOT
TORSDOF 0
ENDMDL
