MODEL 1
REMARK minimizedAffinity 4.87527418
REMARK minimizedRMSD -1
REMARK  0 active torsions:
REMARK  status: ('A' for Active; 'I' for Inactive)
ROOT
ATOM      1  C1  BNZ d   1       0.096   1.513   2.267  0.00  0.00     0.000 A 
ATOM      2  C2  BNZ d   1      -0.581   1.110   1.147  0.00  0.00     0.000 A 
ATOM      3  C3  BNZ d   1       0.093   0.685   0.037  0.00  0.00     0.000 A 
ATOM      4  C4  BNZ d   1       1.442   0.701   0.034  0.00  0.00     0.000 A 
ATOM      5  C5  BNZ d   1       2.139   1.113   1.152  0.00  0.00     0.000 A 
ATOM      6  C6  BNZ d   1       1.457   1.503   2.281  0.00  0.00     0.000 A 
ENDROOT
TORSDOF 0
ENDMDL
