MODEL 1
REMARK minimizedAffinity -5.32646751
REMARK minimizedRMSD -1
REMARK  0 active torsions:
REMARK  status: ('A' for Active; 'I' for Inactive)
ROOT
ATOM      1  C   UNL d   1      -1.148   2.489   1.810  0.00  0.00     0.078 C 
ATOM      2  C1  UNL d   1      -0.730   1.638   0.649  0.00  0.00    -0.077 A 
ATOM      3  C2  UNL d   1      -0.086   0.411   0.849  0.00  0.00    -0.001 A 
ATOM      4  C3  UNL d   1       0.306  -0.367  -0.242  0.00  0.00     0.003 A 
ATOM      5  C4  UNL d   1       0.059   0.074  -1.541  0.00  0.00    -0.005 A 
ATOM      6  C5  UNL d   1      -0.580   1.295  -1.750  0.00  0.00     0.003 A 
ATOM      7  C6  UNL d   1      -0.972   2.074  -0.660  0.00  0.00    -0.001 A 
ENDROOT
TORSDOF 0
ENDMDL
