MODEL 1
REMARK minimizedAffinity -4.61826658
REMARK minimizedRMSD -1
REMARK  0 active torsions:
REMARK  status: ('A' for Active; 'I' for Inactive)
ROOT
ATOM      1  C   UNL d   1       0.542  -1.501  -1.174  0.00  0.00     0.078 C 
ATOM      2  C1  UNL d   1       0.193  -0.463  -0.150  0.00  0.00    -0.077 A 
ATOM      3  C2  UNL d   1       0.878  -0.393   1.069  0.00  0.00    -0.001 A 
ATOM      4  C3  UNL d   1       0.536   0.573   2.017  0.00  0.00     0.003 A 
ATOM      5  C4  UNL d   1      -0.493   1.476   1.756  0.00  0.00    -0.005 A 
ATOM      6  C5  UNL d   1      -1.182   1.413   0.546  0.00  0.00     0.003 A 
ATOM      7  C6  UNL d   1      -0.841   0.448  -0.403  0.00  0.00    -0.001 A 
ENDROOT
TORSDOF 0
ENDMDL
