MODEL 1
REMARK minimizedAffinity -5.40389061
REMARK minimizedRMSD -1
REMARK  0 active torsions:
REMARK  status: ('A' for Active; 'I' for Inactive)
ROOT
ATOM      1  C   UNL d   1       0.517  -0.791  -0.698  0.00  0.00     0.078 C 
ATOM      2  C1  UNL d   1      -0.073   0.346   0.081  0.00  0.00    -0.077 A 
ATOM      3  C2  UNL d   1      -0.862   1.318  -0.547  0.00  0.00    -0.001 A 
ATOM      4  C3  UNL d   1      -1.396   2.377   0.189  0.00  0.00     0.003 A 
ATOM      5  C4  UNL d   1      -1.146   2.475   1.556  0.00  0.00    -0.005 A 
ATOM      6  C5  UNL d   1      -0.359   1.515   2.189  0.00  0.00     0.003 A 
ATOM      7  C6  UNL d   1       0.176   0.455   1.455  0.00  0.00    -0.001 A 
ENDROOT
TORSDOF 0
ENDMDL
