MODEL 1
REMARK minimizedAffinity -4.17057848
REMARK minimizedRMSD -1
REMARK  0 active torsions:
REMARK  status: ('A' for Active; 'I' for Inactive)
ROOT
ATOM      1  C   UNL d   1      -0.484  -1.209  -0.499  0.00  0.00     0.078 C 
ATOM      2  C1  UNL d   1      -0.562   0.152   0.126  0.00  0.00    -0.077 A 
ATOM      3  C2  UNL d   1      -1.458   1.115  -0.353  0.00  0.00    -0.001 A 
ATOM      4  C3  UNL d   1      -1.513   2.381   0.232  0.00  0.00     0.003 A 
ATOM      5  C4  UNL d   1      -0.675   2.696   1.300  0.00  0.00    -0.005 A 
ATOM      6  C5  UNL d   1       0.221   1.744   1.782  0.00  0.00     0.003 A 
ATOM      7  C6  UNL d   1       0.278   0.478   1.198  0.00  0.00    -0.001 A 
ENDROOT
TORSDOF 0
ENDMDL
