MODEL 1
REMARK minimizedAffinity -4.9473424
REMARK minimizedRMSD -1
REMARK  0 active torsions:
REMARK  status: ('A' for Active; 'I' for Inactive)
ROOT
ATOM      1  C   UNL d   1      -0.069  -1.272  -0.399  0.00  0.00     0.078 C 
ATOM      2  C1  UNL d   1      -0.442  -0.007   0.314  0.00  0.00    -0.077 A 
ATOM      3  C2  UNL d   1       0.395   0.542   1.293  0.00  0.00    -0.001 A 
ATOM      4  C3  UNL d   1       0.031   1.715   1.956  0.00  0.00     0.003 A 
ATOM      5  C4  UNL d   1      -1.172   2.349   1.647  0.00  0.00    -0.005 A 
ATOM      6  C5  UNL d   1      -2.012   1.809   0.676  0.00  0.00     0.003 A 
ATOM      7  C6  UNL d   1      -1.649   0.635   0.012  0.00  0.00    -0.001 A 
ENDROOT
TORSDOF 0
ENDMDL
