MODEL 1
REMARK minimizedAffinity -1.6147995
REMARK minimizedRMSD -1
REMARK  0 active torsions:
REMARK  status: ('A' for Active; 'I' for Inactive)
ROOT
ATOM      1  C   UNL d   1      -1.738   1.342   1.077  0.00  0.00     0.078 C 
ATOM      2  C1  UNL d   1      -0.978   0.861  -0.123  0.00  0.00    -0.077 A 
ATOM      3  C2  UNL d   1      -0.183  -0.290  -0.059  0.00  0.00    -0.001 A 
ATOM      4  C3  UNL d   1       0.527  -0.721  -1.181  0.00  0.00     0.003 A 
ATOM      5  C4  UNL d   1       0.450  -0.006  -2.374  0.00  0.00    -0.005 A 
ATOM      6  C5  UNL d   1      -0.337   1.141  -2.447  0.00  0.00     0.003 A 
ATOM      7  C6  UNL d   1      -1.048   1.573  -1.326  0.00  0.00    -0.001 A 
ENDROOT
TORSDOF 0
ENDMDL
