MODEL 1
REMARK minimizedAffinity -5.88000727
REMARK minimizedRMSD -1
REMARK  3 active torsions:
REMARK  status: ('A' for Active; 'I' for Inactive)
REMARK    1  A    between atoms: C3'_2  and  C2'_3 
REMARK    2  A    between atoms: C2'_3  and  C1'_4 
REMARK    3  A    between atoms: C1'_4  and  C1_5 
ROOT
ATOM      1  C1  N4B d   1      -0.028   0.942  -0.224  0.00  0.00    -0.075 A 
ATOM      2  C2  N4B d   1      -0.831   0.728   0.917  0.00  0.00     0.002 A 
ATOM      3  C3  N4B d   1      -0.629  -0.381   1.701  0.00  0.00     0.002 A 
ATOM      4  C4  N4B d   1       0.354  -1.296   1.354  0.00  0.00    -0.004 A 
ATOM      5  C5  N4B d   1       1.142  -1.070   0.265  0.00  0.00     0.002 A 
ATOM      6  C6  N4B d   1       0.953   0.043  -0.530  0.00  0.00     0.002 A 
ENDROOT
BRANCH   1   7
ATOM      7  C1' N4B d   1      -0.268   2.095  -1.160  0.00  0.00     0.057 C 
BRANCH   7   8
ATOM      8  C2' N4B d   1      -1.674   1.985  -1.740  0.00  0.00     0.009 C 
BRANCH   8   9
ATOM      9  C3' N4B d   1      -1.946   3.059  -2.779  0.00  0.00     0.004 C 
ATOM     10  C4' N4B d   1      -0.785   3.988  -2.972  0.00  0.00     0.003 C 
ENDBRANCH   8   9
ENDBRANCH   7   8
ENDBRANCH   1   7
TORSDOF 3
ENDMDL
