MODEL 1
REMARK minimizedAffinity -6.81298494
REMARK minimizedRMSD -1
REMARK  3 active torsions:
REMARK  status: ('A' for Active; 'I' for Inactive)
REMARK    1  A    between atoms: C3'_2  and  C2'_3 
REMARK    2  A    between atoms: C2'_3  and  C1'_4 
REMARK    3  A    between atoms: C1'_4  and  C1_5 
ROOT
ATOM      1  C1  N4B d   1       0.198   0.629   0.090  0.00  0.00    -0.075 A 
ATOM      2  C2  N4B d   1      -0.206  -0.469   0.881  0.00  0.00     0.002 A 
ATOM      3  C3  N4B d   1       0.714  -1.410   1.272  0.00  0.00     0.002 A 
ATOM      4  C4  N4B d   1       2.035  -1.286   0.868  0.00  0.00    -0.004 A 
ATOM      5  C5  N4B d   1       2.423  -0.210   0.125  0.00  0.00     0.002 A 
ATOM      6  C6  N4B d   1       1.509   0.746  -0.271  0.00  0.00     0.002 A 
ENDROOT
BRANCH   1   7
ATOM      7  C1' N4B d   1      -0.788   1.637  -0.433  0.00  0.00     0.057 C 
BRANCH   7   8
ATOM      8  C2' N4B d   1      -0.030   2.849  -0.967  0.00  0.00     0.009 C 
BRANCH   8   9
ATOM      9  C3' N4B d   1      -0.421   3.180  -2.396  0.00  0.00     0.004 C 
ATOM     10  C4' N4B d   1       0.227   4.435  -2.901  0.00  0.00     0.003 C 
ENDBRANCH   8   9
ENDBRANCH   7   8
ENDBRANCH   1   7
TORSDOF 3
ENDMDL
