MODEL 1
REMARK minimizedAffinity -3.42468548
REMARK minimizedRMSD -1
REMARK  3 active torsions:
REMARK  status: ('A' for Active; 'I' for Inactive)
REMARK    1  A    between atoms: C3'_2  and  C2'_3 
REMARK    2  A    between atoms: C2'_3  and  C1'_4 
REMARK    3  A    between atoms: C1'_4  and  C1_5 
ROOT
ATOM      1  C1  N4B d   1       0.216  -1.163   0.595  0.00  0.00    -0.075 A 
ATOM      2  C2  N4B d   1       0.619  -0.164  -0.318  0.00  0.00     0.002 A 
ATOM      3  C3  N4B d   1      -0.094   1.006  -0.414  0.00  0.00     0.002 A 
ATOM      4  C4  N4B d   1      -1.220   1.190   0.375  0.00  0.00    -0.004 A 
ATOM      5  C5  N4B d   1      -1.587   0.230   1.272  0.00  0.00     0.002 A 
ATOM      6  C6  N4B d   1      -0.877  -0.948   1.383  0.00  0.00     0.002 A 
ENDROOT
BRANCH   1   7
ATOM      7  C1' N4B d   1       0.914  -2.493   0.675  0.00  0.00     0.057 C 
BRANCH   7   8
ATOM      8  C2' N4B d   1       2.081  -2.389   1.653  0.00  0.00     0.009 C 
BRANCH   8   9
ATOM      9  C3' N4B d   1       2.897  -1.127   1.431  0.00  0.00     0.004 C 
ATOM     10  C4' N4B d   1       3.887  -0.875   2.529  0.00  0.00     0.003 C 
ENDBRANCH   8   9
ENDBRANCH   7   8
ENDBRANCH   1   7
TORSDOF 3
ENDMDL
