MODEL 1
REMARK minimizedAffinity -3.66845465
REMARK minimizedRMSD -1
REMARK  3 active torsions:
REMARK  status: ('A' for Active; 'I' for Inactive)
REMARK    1  A    between atoms: C3'_2  and  C2'_3 
REMARK    2  A    between atoms: C2'_3  and  C1'_4 
REMARK    3  A    between atoms: C1'_4  and  C1_5 
ROOT
ATOM      1  C1  N4B d   1       0.057  -0.254  -0.334  0.00  0.00    -0.075 A 
ATOM      2  C2  N4B d   1       1.418   0.101  -0.457  0.00  0.00     0.002 A 
ATOM      3  C3  N4B d   1       2.390  -0.705   0.085  0.00  0.00     0.002 A 
ATOM      4  C4  N4B d   1       2.024  -1.855   0.767  0.00  0.00    -0.004 A 
ATOM      5  C5  N4B d   1       0.708  -2.204   0.860  0.00  0.00     0.002 A 
ATOM      6  C6  N4B d   1      -0.278  -1.406   0.317  0.00  0.00     0.002 A 
ENDROOT
BRANCH   1   7
ATOM      7  C1' N4B d   1      -1.045   0.640  -0.835  0.00  0.00     0.057 C 
BRANCH   7   8
ATOM      8  C2' N4B d   1      -0.844   0.894  -2.326  0.00  0.00     0.009 C 
BRANCH   8   9
ATOM      9  C3' N4B d   1      -1.900   1.829  -2.890  0.00  0.00     0.004 C 
ATOM     10  C4' N4B d   1      -1.428   3.249  -2.984  0.00  0.00     0.003 C 
ENDBRANCH   8   9
ENDBRANCH   7   8
ENDBRANCH   1   7
TORSDOF 3
ENDMDL
