MODEL 1
REMARK minimizedAffinity -4.56459522
REMARK minimizedRMSD -1
REMARK  3 active torsions:
REMARK  status: ('A' for Active; 'I' for Inactive)
REMARK    1  A    between atoms: C3'_2  and  C2'_3 
REMARK    2  A    between atoms: C2'_3  and  C1'_4 
REMARK    3  A    between atoms: C1'_4  and  C1_5 
ROOT
ATOM      1  C1  N4B d   1      -0.969   0.535  -0.010  0.00  0.00    -0.075 A 
ATOM      2  C2  N4B d   1      -1.551  -0.041   1.141  0.00  0.00     0.002 A 
ATOM      3  C3  N4B d   1      -1.025  -1.191   1.674  0.00  0.00     0.002 A 
ATOM      4  C4  N4B d   1       0.067  -1.793   1.067  0.00  0.00    -0.004 A 
ATOM      5  C5  N4B d   1       0.639  -1.217  -0.030  0.00  0.00     0.002 A 
ATOM      6  C6  N4B d   1       0.123  -0.058  -0.574  0.00  0.00     0.002 A 
ENDROOT
BRANCH   1   7
ATOM      7  C1' N4B d   1      -1.561   1.744  -0.680  0.00  0.00     0.057 C 
BRANCH   7   8
ATOM      8  C2' N4B d   1      -0.894   1.942  -2.038  0.00  0.00     0.009 C 
BRANCH   8   9
ATOM      9  C3' N4B d   1      -1.538   3.067  -2.829  0.00  0.00     0.004 C 
ATOM     10  C4' N4B d   1      -0.544   3.862  -3.623  0.00  0.00     0.003 C 
ENDBRANCH   8   9
ENDBRANCH   7   8
ENDBRANCH   1   7
TORSDOF 3
ENDMDL
