MODEL 1
REMARK minimizedAffinity -0.130590275
REMARK minimizedRMSD -1
REMARK  3 active torsions:
REMARK  status: ('A' for Active; 'I' for Inactive)
REMARK    1  A    between atoms: C3'_2  and  C2'_3 
REMARK    2  A    between atoms: C2'_3  and  C1'_4 
REMARK    3  A    between atoms: C1'_4  and  C1_5 
ROOT
ATOM      1  C1  N4B d   1       1.574  -0.219   0.402  0.00  0.00    -0.075 A 
ATOM      2  C2  N4B d   1       0.547   0.684   0.047  0.00  0.00     0.002 A 
ATOM      3  C3  N4B d   1      -0.739   0.231  -0.115  0.00  0.00     0.002 A 
ATOM      4  C4  N4B d   1      -1.019  -1.117   0.053  0.00  0.00    -0.004 A 
ATOM      5  C5  N4B d   1      -0.026  -1.978   0.420  0.00  0.00     0.002 A 
ATOM      6  C6  N4B d   1       1.270  -1.537   0.590  0.00  0.00     0.002 A 
ENDROOT
BRANCH   1   7
ATOM      7  C1' N4B d   1       3.011   0.213   0.506  0.00  0.00     0.057 C 
BRANCH   7   8
ATOM      8  C2' N4B d   1       3.216   1.475  -0.327  0.00  0.00     0.009 C 
BRANCH   8   9
ATOM      9  C3' N4B d   1       4.297   1.292  -1.378  0.00  0.00     0.004 C 
ATOM     10  C4' N4B d   1       4.926   2.588  -1.797  0.00  0.00     0.003 C 
ENDBRANCH   8   9
ENDBRANCH   7   8
ENDBRANCH   1   7
TORSDOF 3
ENDMDL
