MODEL 1
REMARK minimizedAffinity -5.73703957
REMARK minimizedRMSD -1
REMARK  3 active torsions:
REMARK  status: ('A' for Active; 'I' for Inactive)
REMARK    1  A    between atoms: C3'_2  and  C2'_3 
REMARK    2  A    between atoms: C2'_3  and  C1'_4 
REMARK    3  A    between atoms: C1'_4  and  C1_5 
ROOT
ATOM      1  C1  N4B d   1       0.236  -0.538   0.102  0.00  0.00    -0.075 A 
ATOM      2  C2  N4B d   1       1.510   0.069   0.148  0.00  0.00     0.002 A 
ATOM      3  C3  N4B d   1       2.618  -0.683   0.455  0.00  0.00     0.002 A 
ATOM      4  C4  N4B d   1       2.474  -2.033   0.737  0.00  0.00    -0.004 A 
ATOM      5  C5  N4B d   1       1.243  -2.617   0.664  0.00  0.00     0.002 A 
ATOM      6  C6  N4B d   1       0.121  -1.874   0.353  0.00  0.00     0.002 A 
ENDROOT
BRANCH   1   7
ATOM      7  C1' N4B d   1      -1.015   0.260  -0.145  0.00  0.00     0.057 C 
BRANCH   7   8
ATOM      8  C2' N4B d   1      -0.633   1.640  -0.674  0.00  0.00     0.009 C 
BRANCH   8   9
ATOM      9  C3' N4B d   1      -1.314   1.950  -1.996  0.00  0.00     0.004 C 
ATOM     10  C4' N4B d   1      -1.034   3.341  -2.481  0.00  0.00     0.003 C 
ENDBRANCH   8   9
ENDBRANCH   7   8
ENDBRANCH   1   7
TORSDOF 3
ENDMDL
