MODEL 1
REMARK minimizedAffinity -4.26390028
REMARK minimizedRMSD -1
REMARK  0 active torsions:
REMARK  status: ('A' for Active; 'I' for Inactive)
ROOT
ATOM      1  O1  BZF d   1      -0.774   1.039   0.092  0.00  0.00    -0.204 OA
ATOM      2  C2  BZF d   1      -1.746   0.061   0.016  0.00  0.00     0.174 A 
ATOM      3  C3  BZF d   1      -1.191  -1.168   0.028  0.00  0.00    -0.012 A 
ATOM      4  C3A BZF d   1       0.211  -0.945   0.211  0.00  0.00    -0.107 A 
ATOM      5  C4  BZF d   1       1.287  -1.778   0.320  0.00  0.00     0.055 A 
ATOM      6  C5  BZF d   1       2.532  -1.241   0.418  0.00  0.00    -0.016 A 
ATOM      7  C6  BZF d   1       2.736   0.124   0.404  0.00  0.00     0.022 A 
ATOM      8  C7  BZF d   1       1.699   0.990   0.302  0.00  0.00     0.029 A 
ATOM      9  C7A BZF d   1       0.437   0.450   0.237  0.00  0.00     0.058 A 
ENDROOT
TORSDOF 0
ENDMDL
