MODEL 1
REMARK minimizedAffinity -3.92671895
REMARK minimizedRMSD -1
REMARK  0 active torsions:
REMARK  status: ('A' for Active; 'I' for Inactive)
ROOT
ATOM      1  O1  BZF d   1      -0.491  -1.056  -0.077  0.00  0.00    -0.204 OA
ATOM      2  C2  BZF d   1      -1.185   0.061  -0.503  0.00  0.00     0.174 A 
ATOM      3  C3  BZF d   1      -0.416   1.165  -0.413  0.00  0.00    -0.012 A 
ATOM      4  C3A BZF d   1       0.867   0.696   0.014  0.00  0.00    -0.107 A 
ATOM      5  C4  BZF d   1       2.057   1.317   0.268  0.00  0.00     0.055 A 
ATOM      6  C5  BZF d   1       3.098   0.583   0.741  0.00  0.00    -0.016 A 
ATOM      7  C6  BZF d   1       2.983  -0.772   0.975  0.00  0.00     0.022 A 
ATOM      8  C7  BZF d   1       1.825  -1.433   0.734  0.00  0.00     0.029 A 
ATOM      9  C7A BZF d   1       0.781  -0.699   0.225  0.00  0.00     0.058 A 
ENDROOT
TORSDOF 0
ENDMDL
