MODEL 1
REMARK minimizedAffinity 3.38784814
REMARK minimizedRMSD -1
REMARK  0 active torsions:
REMARK  status: ('A' for Active; 'I' for Inactive)
ROOT
ATOM      1  O1  BZF d   1       0.904  -0.645   1.646  0.00  0.00    -0.204 OA
ATOM      2  C2  BZF d   1       1.280  -1.974   1.659  0.00  0.00     0.174 A 
ATOM      3  C3  BZF d   1       2.418  -2.157   0.958  0.00  0.00    -0.012 A 
ATOM      4  C3A BZF d   1       2.825  -0.846   0.555  0.00  0.00    -0.107 A 
ATOM      5  C4  BZF d   1       3.890  -0.371  -0.155  0.00  0.00     0.055 A 
ATOM      6  C5  BZF d   1       3.956   0.957  -0.439  0.00  0.00    -0.016 A 
ATOM      7  C6  BZF d   1       2.973   1.835  -0.033  0.00  0.00     0.022 A 
ATOM      8  C7  BZF d   1       1.900   1.412   0.678  0.00  0.00     0.029 A 
ATOM      9  C7A BZF d   1       1.847   0.076   0.994  0.00  0.00     0.058 A 
ENDROOT
TORSDOF 0
ENDMDL
