MODEL 1
REMARK minimizedAffinity -5.4201026
REMARK minimizedRMSD -1
REMARK  0 active torsions:
REMARK  status: ('A' for Active; 'I' for Inactive)
ROOT
ATOM      1  O1  BZF d   1      -0.774  -0.840   0.177  0.00  0.00    -0.204 OA
ATOM      2  C2  BZF d   1      -0.894   0.366  -0.485  0.00  0.00     0.174 A 
ATOM      3  C3  BZF d   1       0.179   1.149  -0.252  0.00  0.00    -0.012 A 
ATOM      4  C3A BZF d   1       1.065   0.348   0.535  0.00  0.00    -0.107 A 
ATOM      5  C4  BZF d   1       2.304   0.565   1.069  0.00  0.00     0.055 A 
ATOM      6  C5  BZF d   1       2.864  -0.397   1.849  0.00  0.00    -0.016 A 
ATOM      7  C6  BZF d   1       2.214  -1.582   2.120  0.00  0.00     0.022 A 
ATOM      8  C7  BZF d   1       0.986  -1.845   1.610  0.00  0.00     0.029 A 
ATOM      9  C7A BZF d   1       0.431  -0.889   0.794  0.00  0.00     0.058 A 
ENDROOT
TORSDOF 0
ENDMDL
