MODEL 1
REMARK minimizedAffinity -5.71761608
REMARK minimizedRMSD -1
REMARK  0 active torsions:
REMARK  status: ('A' for Active; 'I' for Inactive)
ROOT
ATOM      1  O1  BZF d   1       3.142   0.593   0.788  0.00  0.00    -0.204 OA
ATOM      2  C2  BZF d   1       3.211  -0.786   0.735  0.00  0.00     0.174 A 
ATOM      3  C3  BZF d   1       1.989  -1.319   0.529  0.00  0.00    -0.012 A 
ATOM      4  C3A BZF d   1       1.115  -0.199   0.356  0.00  0.00    -0.107 A 
ATOM      5  C4  BZF d   1      -0.222  -0.083   0.103  0.00  0.00     0.055 A 
ATOM      6  C5  BZF d   1      -0.781   1.155   0.065  0.00  0.00    -0.016 A 
ATOM      7  C6  BZF d   1      -0.035   2.296   0.278  0.00  0.00     0.022 A 
ATOM      8  C7  BZF d   1       1.295   2.231   0.527  0.00  0.00     0.029 A 
ATOM      9  C7A BZF d   1       1.870   0.983   0.535  0.00  0.00     0.058 A 
ENDROOT
TORSDOF 0
ENDMDL
