MODEL 1
REMARK minimizedAffinity -5.1378026
REMARK minimizedRMSD -1
REMARK  0 active torsions:
REMARK  status: ('A' for Active; 'I' for Inactive)
ROOT
ATOM      1  O1  BZF d   1      -0.226  -1.567   0.544  0.00  0.00    -0.204 OA
ATOM      2  C2  BZF d   1      -1.042  -0.784  -0.249  0.00  0.00     0.174 A 
ATOM      3  C3  BZF d   1      -0.436   0.382  -0.556  0.00  0.00    -0.012 A 
ATOM      4  C3A BZF d   1       0.875   0.284   0.010  0.00  0.00    -0.107 A 
ATOM      5  C4  BZF d   1       1.954   1.120   0.029  0.00  0.00     0.055 A 
ATOM      6  C5  BZF d   1       3.059   0.757   0.731  0.00  0.00    -0.016 A 
ATOM      7  C6  BZF d   1       3.118  -0.431   1.429  0.00  0.00     0.022 A 
ATOM      8  C7  BZF d   1       2.074  -1.296   1.436  0.00  0.00     0.029 A 
ATOM      9  C7A BZF d   1       0.968  -0.946   0.701  0.00  0.00     0.058 A 
ENDROOT
TORSDOF 0
ENDMDL
