MODEL 1
REMARK minimizedAffinity -3.98083234
REMARK minimizedRMSD -1
REMARK  0 active torsions:
REMARK  status: ('A' for Active; 'I' for Inactive)
ROOT
ATOM      1  O1  BZF d   1      -0.100   1.555   0.444  0.00  0.00    -0.204 OA
ATOM      2  C2  BZF d   1      -1.059   0.804  -0.207  0.00  0.00     0.174 A 
ATOM      3  C3  BZF d   1      -0.579  -0.418  -0.518  0.00  0.00    -0.012 A 
ATOM      4  C3A BZF d   1       0.733  -0.463   0.051  0.00  0.00    -0.107 A 
ATOM      5  C4  BZF d   1       1.706  -1.420   0.092  0.00  0.00     0.055 A 
ATOM      6  C5  BZF d   1       2.902  -1.122   0.664  0.00  0.00    -0.016 A 
ATOM      7  C6  BZF d   1       3.161   0.123   1.198  0.00  0.00     0.022 A 
ATOM      8  C7  BZF d   1       2.225   1.104   1.185  0.00  0.00     0.029 A 
ATOM      9  C7A BZF d   1       1.004   0.795   0.638  0.00  0.00     0.058 A 
ENDROOT
TORSDOF 0
ENDMDL
