MODEL 1
REMARK minimizedAffinity 4.20240879
REMARK minimizedRMSD -1
REMARK  1 active torsions:
REMARK  status: ('A' for Active; 'I' for Inactive)
REMARK    1  A    between atoms: C1_2  and  C2_3 
ROOT
ATOM      1  C2  UNL d   1      -1.377   0.964   2.532  0.00  0.00    -0.077 A 
ATOM      2  C3  UNL d   1      -1.866  -0.326   2.781  0.00  0.00     0.002 A 
ATOM      3  C4  UNL d   1      -3.110  -0.503   3.390  0.00  0.00     0.002 A 
ATOM      4  C5  UNL d   1      -3.876   0.603   3.751  0.00  0.00    -0.004 A 
ATOM      5  C6  UNL d   1      -3.396   1.890   3.510  0.00  0.00     0.002 A 
ATOM      6  C7  UNL d   1      -2.153   2.070   2.902  0.00  0.00     0.002 A 
ENDROOT
BRANCH   1   7
ATOM      7  C1  UNL d   1      -0.058   1.158   1.831  0.00  0.00     0.055 C 
ATOM      8  C   UNL d   1      -0.201   0.988   0.326  0.00  0.00     0.019 C 
ENDBRANCH   1   7
TORSDOF 1
ENDMDL
