MODEL 1
REMARK minimizedAffinity 9.67356205
REMARK minimizedRMSD -1
REMARK  1 active torsions:
REMARK  status: ('A' for Active; 'I' for Inactive)
REMARK    1  A    between atoms: C1_2  and  C2_3 
ROOT
ATOM      1  C2  UNL d   1      -3.293   0.441   3.074  0.00  0.00    -0.077 A 
ATOM      2  C3  UNL d   1      -3.255   1.838   3.187  0.00  0.00     0.002 A 
ATOM      3  C4  UNL d   1      -4.353   2.535   3.697  0.00  0.00     0.002 A 
ATOM      4  C5  UNL d   1      -5.493   1.844   4.101  0.00  0.00    -0.004 A 
ATOM      5  C6  UNL d   1      -5.540   0.454   3.990  0.00  0.00     0.002 A 
ATOM      6  C7  UNL d   1      -4.445  -0.244   3.480  0.00  0.00     0.002 A 
ENDROOT
BRANCH   1   7
ATOM      7  C1  UNL d   1      -2.092  -0.316   2.570  0.00  0.00     0.055 C 
ATOM      8  C   UNL d   1      -1.032   0.628   2.022  0.00  0.00     0.019 C 
ENDBRANCH   1   7
TORSDOF 1
ENDMDL
