MODEL 1
REMARK minimizedAffinity 1.85672998
REMARK minimizedRMSD -1
REMARK  1 active torsions:
REMARK  status: ('A' for Active; 'I' for Inactive)
REMARK    1  A    between atoms: C1_2  and  C2_3 
ROOT
ATOM      1  C2  UNL d   1       0.286  -0.493   1.723  0.00  0.00    -0.077 A 
ATOM      2  C3  UNL d   1       1.582  -1.026   1.767  0.00  0.00     0.002 A 
ATOM      3  C4  UNL d   1       2.694  -0.191   1.644  0.00  0.00     0.002 A 
ATOM      4  C5  UNL d   1       2.521   1.182   1.481  0.00  0.00    -0.004 A 
ATOM      5  C6  UNL d   1       1.237   1.722   1.435  0.00  0.00     0.002 A 
ATOM      6  C7  UNL d   1       0.124   0.888   1.556  0.00  0.00     0.002 A 
ENDROOT
BRANCH   1   7
ATOM      7  C1  UNL d   1      -0.914  -1.386   1.905  0.00  0.00     0.055 C 
ATOM      8  C   UNL d   1      -1.910  -0.783   2.885  0.00  0.00     0.019 C 
ENDBRANCH   1   7
TORSDOF 1
ENDMDL
