MODEL 1
REMARK minimizedAffinity 3.12992167
REMARK minimizedRMSD -1
REMARK  1 active torsions:
REMARK  status: ('A' for Active; 'I' for Inactive)
REMARK    1  A    between atoms: C1_2  and  C2_3 
ROOT
ATOM      1  C2  UNL d   1      -0.051   0.557   1.885  0.00  0.00    -0.077 A 
ATOM      2  C3  UNL d   1      -0.397  -0.748   2.262  0.00  0.00     0.002 A 
ATOM      3  C4  UNL d   1      -1.535  -0.981   3.037  0.00  0.00     0.002 A 
ATOM      4  C5  UNL d   1      -2.338   0.085   3.437  0.00  0.00    -0.004 A 
ATOM      5  C6  UNL d   1      -2.000   1.387   3.069  0.00  0.00     0.002 A 
ATOM      6  C7  UNL d   1      -0.863   1.622   2.296  0.00  0.00     0.002 A 
ENDROOT
BRANCH   1   7
ATOM      7  C1  UNL d   1       1.149   0.805   1.009  0.00  0.00     0.055 C 
ATOM      8  C   UNL d   1       0.733   1.232  -0.391  0.00  0.00     0.019 C 
ENDBRANCH   1   7
TORSDOF 1
ENDMDL
