MODEL 1
REMARK minimizedAffinity 6.74951553
REMARK minimizedRMSD -1
REMARK  1 active torsions:
REMARK  status: ('A' for Active; 'I' for Inactive)
REMARK    1  A    between atoms: C1_2  and  C2_3 
ROOT
ATOM      1  C2  UNL d   1      -0.813  -2.224  -4.392  0.00  0.00    -0.077 A 
ATOM      2  C3  UNL d   1      -1.362  -1.388  -3.409  0.00  0.00     0.002 A 
ATOM      3  C4  UNL d   1      -2.630  -1.650  -2.887  0.00  0.00     0.002 A 
ATOM      4  C5  UNL d   1      -3.358  -2.749  -3.338  0.00  0.00    -0.004 A 
ATOM      5  C6  UNL d   1      -2.822  -3.585  -4.317  0.00  0.00     0.002 A 
ATOM      6  C7  UNL d   1      -1.555  -3.324  -4.841  0.00  0.00     0.002 A 
ENDROOT
BRANCH   1   7
ATOM      7  C1  UNL d   1       0.574  -1.972  -4.921  0.00  0.00     0.055 C 
ATOM      8  C   UNL d   1       1.502  -1.469  -3.824  0.00  0.00     0.019 C 
ENDBRANCH   1   7
TORSDOF 1
ENDMDL
