MODEL 1
REMARK minimizedAffinity 5.44382143
REMARK minimizedRMSD -1
REMARK  1 active torsions:
REMARK  status: ('A' for Active; 'I' for Inactive)
REMARK    1  A    between atoms: C1_2  and  C2_3 
ROOT
ATOM      1  C2  UNL d   1       2.301  -0.690  -2.196  0.00  0.00    -0.077 A 
ATOM      2  C3  UNL d   1       1.558  -1.352  -3.183  0.00  0.00     0.002 A 
ATOM      3  C4  UNL d   1       1.874  -1.189  -4.533  0.00  0.00     0.002 A 
ATOM      4  C5  UNL d   1       2.936  -0.368  -4.908  0.00  0.00    -0.004 A 
ATOM      5  C6  UNL d   1       3.680   0.297  -3.933  0.00  0.00     0.002 A 
ATOM      6  C7  UNL d   1       3.364   0.136  -2.583  0.00  0.00     0.002 A 
ENDROOT
BRANCH   1   7
ATOM      7  C1  UNL d   1       1.993  -0.903  -0.737  0.00  0.00     0.055 C 
ATOM      8  C   UNL d   1       0.581  -0.448  -0.397  0.00  0.00     0.019 C 
ENDBRANCH   1   7
TORSDOF 1
ENDMDL
