MODEL 1
REMARK minimizedAffinity 10.0619812
REMARK minimizedRMSD -1
REMARK  1 active torsions:
REMARK  status: ('A' for Active; 'I' for Inactive)
REMARK    1  A    between atoms: C1_2  and  C2_3 
ROOT
ATOM      1  C2  UNL d   1       3.961   0.890  -4.067  0.00  0.00    -0.077 A 
ATOM      2  C3  UNL d   1       5.339   1.117  -3.943  0.00  0.00     0.002 A 
ATOM      3  C4  UNL d   1       6.000   1.956  -4.842  0.00  0.00     0.002 A 
ATOM      4  C5  UNL d   1       5.290   2.578  -5.867  0.00  0.00    -0.004 A 
ATOM      5  C6  UNL d   1       3.920   2.357  -6.000  0.00  0.00     0.002 A 
ATOM      6  C7  UNL d   1       3.258   1.517  -5.103  0.00  0.00     0.002 A 
ENDROOT
BRANCH   1   7
ATOM      7  C1  UNL d   1       3.238   0.023  -3.069  0.00  0.00     0.055 C 
ATOM      8  C   UNL d   1       2.975  -1.366  -3.630  0.00  0.00     0.019 C 
ENDBRANCH   1   7
TORSDOF 1
ENDMDL
