MODEL 1
REMARK minimizedAffinity 4.75784111
REMARK minimizedRMSD -1
REMARK  1 active torsions:
REMARK  status: ('A' for Active; 'I' for Inactive)
REMARK    1  A    between atoms: C1_2  and  C2_3 
ROOT
ATOM      1  C2  UNL d   1      -0.096  -2.207  -3.531  0.00  0.00    -0.077 A 
ATOM      2  C3  UNL d   1      -0.665  -1.202  -2.737  0.00  0.00     0.002 A 
ATOM      3  C4  UNL d   1      -1.991  -1.301  -2.314  0.00  0.00     0.002 A 
ATOM      4  C5  UNL d   1      -2.759  -2.406  -2.676  0.00  0.00    -0.004 A 
ATOM      5  C6  UNL d   1      -2.204  -3.410  -3.468  0.00  0.00     0.002 A 
ATOM      6  C7  UNL d   1      -0.878  -3.312  -3.893  0.00  0.00     0.002 A 
ENDROOT
BRANCH   1   7
ATOM      7  C1  UNL d   1       1.349  -2.126  -3.948  0.00  0.00     0.055 C 
ATOM      8  C   UNL d   1       2.144  -1.225  -3.014  0.00  0.00     0.019 C 
ENDBRANCH   1   7
TORSDOF 1
ENDMDL
