MODEL 1
REMARK minimizedAffinity 0.422268629
REMARK minimizedRMSD -1
REMARK  1 active torsions:
REMARK  status: ('A' for Active; 'I' for Inactive)
REMARK    1  A    between atoms: C1_2  and  C2_3 
ROOT
ATOM      1  C2  UNL d   1      -0.326  -1.833  -4.019  0.00  0.00    -0.077 A 
ATOM      2  C3  UNL d   1      -1.050  -0.668  -3.727  0.00  0.00     0.002 A 
ATOM      3  C4  UNL d   1      -2.413  -0.739  -3.432  0.00  0.00     0.002 A 
ATOM      4  C5  UNL d   1      -3.062  -1.971  -3.422  0.00  0.00    -0.004 A 
ATOM      5  C6  UNL d   1      -2.351  -3.135  -3.713  0.00  0.00     0.002 A 
ATOM      6  C7  UNL d   1      -0.989  -3.067  -4.009  0.00  0.00     0.002 A 
ENDROOT
BRANCH   1   7
ATOM      7  C1  UNL d   1       1.154  -1.764  -4.289  0.00  0.00     0.055 C 
ATOM      8  C   UNL d   1       1.852  -0.828  -3.313  0.00  0.00     0.019 C 
ENDBRANCH   1   7
TORSDOF 1
ENDMDL
