MODEL 1
REMARK minimizedAffinity 1.12854707
REMARK minimizedRMSD -1
REMARK  1 active torsions:
REMARK  status: ('A' for Active; 'I' for Inactive)
REMARK    1  A    between atoms: C1_2  and  C2_3 
ROOT
ATOM      1  C2  UNL d   1      -2.332  -5.958   2.449  0.00  0.00    -0.077 A 
ATOM      2  C3  UNL d   1      -1.324  -5.977   1.475  0.00  0.00     0.002 A 
ATOM      3  C4  UNL d   1       0.021  -5.996   1.849  0.00  0.00     0.002 A 
ATOM      4  C5  UNL d   1       0.370  -5.999   3.198  0.00  0.00    -0.004 A 
ATOM      5  C6  UNL d   1      -0.625  -5.978   4.175  0.00  0.00     0.002 A 
ATOM      6  C7  UNL d   1      -1.969  -5.958   3.802  0.00  0.00     0.002 A 
ENDROOT
BRANCH   1   7
ATOM      7  C1  UNL d   1      -3.783  -5.988   2.048  0.00  0.00     0.055 C 
ATOM      8  C   UNL d   1      -4.695  -6.000   3.266  0.00  0.00     0.019 C 
ENDBRANCH   1   7
TORSDOF 1
ENDMDL
