MODEL 1
REMARK minimizedAffinity 7.19924164
REMARK minimizedRMSD -1
REMARK  1 active torsions:
REMARK  status: ('A' for Active; 'I' for Inactive)
REMARK    1  A    between atoms: C1_2  and  C2_3 
ROOT
ATOM      1  C2  UNL d   1      -0.733  -2.048  -3.988  0.00  0.00    -0.077 A 
ATOM      2  C3  UNL d   1      -0.908  -0.786  -3.402  0.00  0.00     0.002 A 
ATOM      3  C4  UNL d   1      -2.117  -0.455  -2.787  0.00  0.00     0.002 A 
ATOM      4  C5  UNL d   1      -3.157  -1.381  -2.748  0.00  0.00    -0.004 A 
ATOM      5  C6  UNL d   1      -2.993  -2.637  -3.329  0.00  0.00     0.002 A 
ATOM      6  C7  UNL d   1      -1.786  -2.970  -3.945  0.00  0.00     0.002 A 
ENDROOT
BRANCH   1   7
ATOM      7  C1  UNL d   1       0.587  -2.425  -4.608  0.00  0.00     0.055 C 
ATOM      8  C   UNL d   1       1.754  -1.857  -3.814  0.00  0.00     0.019 C 
ENDBRANCH   1   7
TORSDOF 1
ENDMDL
