MODEL 1
REMARK minimizedAffinity 7.11316633
REMARK minimizedRMSD -1
REMARK  1 active torsions:
REMARK  status: ('A' for Active; 'I' for Inactive)
REMARK    1  A    between atoms: C1_2  and  C2_3 
ROOT
ATOM      1  C2  UNL d   1      -0.212  -5.964   1.521  0.00  0.00    -0.077 A 
ATOM      2  C3  UNL d   1       1.036  -5.975   2.160  0.00  0.00     0.002 A 
ATOM      3  C4  UNL d   1       1.115  -5.988   3.554  0.00  0.00     0.002 A 
ATOM      4  C5  UNL d   1      -0.049  -5.996   4.320  0.00  0.00    -0.004 A 
ATOM      5  C6  UNL d   1      -1.295  -5.983   3.693  0.00  0.00     0.002 A 
ATOM      6  C7  UNL d   1      -1.376  -5.968   2.300  0.00  0.00     0.002 A 
ENDROOT
BRANCH   1   7
ATOM      7  C1  UNL d   1      -0.299  -5.999   0.017  0.00  0.00     0.055 C 
ATOM      8  C   UNL d   1      -1.745  -5.943  -0.455  0.00  0.00     0.019 C 
ENDBRANCH   1   7
TORSDOF 1
ENDMDL
