MODEL 1
REMARK minimizedAffinity 0.00744077843
REMARK minimizedRMSD -1
REMARK  1 active torsions:
REMARK  status: ('A' for Active; 'I' for Inactive)
REMARK    1  A    between atoms: C1_2  and  C2_3 
ROOT
ATOM      1  C2  UNL d   1       2.001  -5.958   4.613  0.00  0.00    -0.077 A 
ATOM      2  C3  UNL d   1       0.601  -5.934   4.562  0.00  0.00     0.002 A 
ATOM      3  C4  UNL d   1      -0.061  -5.942   3.333  0.00  0.00     0.002 A 
ATOM      4  C5  UNL d   1       0.669  -5.978   2.147  0.00  0.00    -0.004 A 
ATOM      5  C6  UNL d   1       2.062  -6.000   2.187  0.00  0.00     0.002 A 
ATOM      6  C7  UNL d   1       2.726  -5.991   3.415  0.00  0.00     0.002 A 
ENDROOT
BRANCH   1   7
ATOM      7  C1  UNL d   1       2.716  -6.000   5.939  0.00  0.00     0.055 C 
ATOM      8  C   UNL d   1       4.224  -5.894   5.758  0.00  0.00     0.019 C 
ENDBRANCH   1   7
TORSDOF 1
ENDMDL
