MODEL 1
REMARK minimizedAffinity 16.681036
REMARK minimizedRMSD -1
REMARK  1 active torsions:
REMARK  status: ('A' for Active; 'I' for Inactive)
REMARK    1  A    between atoms: C1_2  and  C2_3 
ROOT
ATOM      1  C2  UNL d   1      -0.100   2.889  -0.406  0.00  0.00    -0.076 A 
ATOM      2  C3  UNL d   1       0.689   3.608   0.510  0.00  0.00     0.004 A 
ATOM      3  C4  UNL d   1       1.235   4.845   0.171  0.00  0.00    -0.003 A 
ATOM      4  C5  UNL d   1       1.000   5.384  -1.090  0.00  0.00     0.000 A 
ATOM      5  C6  UNL d   1       0.206   4.693  -2.004  0.00  0.00     0.000 A 
ATOM      6  C7  UNL d   1      -0.366   3.452  -1.672  0.00  0.00    -0.073 A 
ATOM      7  C8  UNL d   1      -1.209   2.748  -2.699  0.00  0.00     0.078 C 
ENDROOT
BRANCH   1   8
ATOM      8  C1  UNL d   1      -0.642   1.540   0.009  0.00  0.00     0.053 C 
ATOM      9  C   UNL d   1      -0.131   1.100   1.372  0.00  0.00     0.018 C 
ENDBRANCH   1   8
TORSDOF 1
ENDMDL
