MODEL 1
REMARK minimizedAffinity 10.1513309
REMARK minimizedRMSD -1
REMARK  1 active torsions:
REMARK  status: ('A' for Active; 'I' for Inactive)
REMARK    1  A    between atoms: C1_2  and  C2_3 
ROOT
ATOM      1  C2  UNL d   1      -0.156   2.660  -0.344  0.00  0.00    -0.076 A 
ATOM      2  C3  UNL d   1       0.624   3.411   0.552  0.00  0.00     0.004 A 
ATOM      3  C4  UNL d   1       1.242   4.593   0.148  0.00  0.00    -0.003 A 
ATOM      4  C5  UNL d   1       1.089   5.044  -1.158  0.00  0.00     0.000 A 
ATOM      5  C6  UNL d   1       0.305   4.321  -2.056  0.00  0.00     0.000 A 
ATOM      6  C7  UNL d   1      -0.339   3.135  -1.660  0.00  0.00    -0.073 A 
ATOM      7  C8  UNL d   1      -1.168   2.392  -2.672  0.00  0.00     0.078 C 
ENDROOT
BRANCH   1   8
ATOM      8  C1  UNL d   1      -0.780   1.371   0.143  0.00  0.00     0.053 C 
ATOM      9  C   UNL d   1      -0.594   1.162   1.638  0.00  0.00     0.018 C 
ENDBRANCH   1   8
TORSDOF 1
ENDMDL
