MODEL 1
REMARK minimizedAffinity 6.76628017
REMARK minimizedRMSD -1
REMARK  1 active torsions:
REMARK  status: ('A' for Active; 'I' for Inactive)
REMARK    1  A    between atoms: C1_2  and  C2_3 
ROOT
ATOM      1  C2  UNL d   1      -0.636   2.618   0.770  0.00  0.00    -0.076 A 
ATOM      2  C3  UNL d   1      -1.205   1.868  -0.273  0.00  0.00     0.004 A 
ATOM      3  C4  UNL d   1      -1.170   2.327  -1.589  0.00  0.00    -0.003 A 
ATOM      4  C5  UNL d   1      -0.564   3.543  -1.883  0.00  0.00     0.000 A 
ATOM      5  C6  UNL d   1       0.022   4.292  -0.863  0.00  0.00     0.000 A 
ATOM      6  C7  UNL d   1       0.009   3.836   0.466  0.00  0.00    -0.073 A 
ATOM      7  C8  UNL d   1       0.651   4.688   1.527  0.00  0.00     0.078 C 
ENDROOT
BRANCH   1   8
ATOM      8  C1  UNL d   1      -0.728   2.084   2.181  0.00  0.00     0.053 C 
ATOM      9  C   UNL d   1      -1.872   1.097   2.356  0.00  0.00     0.018 C 
ENDBRANCH   1   8
TORSDOF 1
ENDMDL
