MODEL 1
REMARK minimizedAffinity 2.73928213
REMARK minimizedRMSD -1
REMARK  1 active torsions:
REMARK  status: ('A' for Active; 'I' for Inactive)
REMARK    1  A    between atoms: C1_2  and  C2_3 
ROOT
ATOM      1  C2  UNL d   1      -4.497  -3.009   4.507  0.00  0.00    -0.076 A 
ATOM      2  C3  UNL d   1      -4.687  -3.531   5.798  0.00  0.00     0.004 A 
ATOM      3  C4  UNL d   1      -5.433  -4.691   6.000  0.00  0.00    -0.003 A 
ATOM      4  C5  UNL d   1      -6.000  -5.348   4.913  0.00  0.00     0.000 A 
ATOM      5  C6  UNL d   1      -5.807  -4.854   3.624  0.00  0.00     0.000 A 
ATOM      6  C7  UNL d   1      -5.044  -3.695   3.401  0.00  0.00    -0.073 A 
ATOM      7  C8  UNL d   1      -4.873  -3.203   1.990  0.00  0.00     0.078 C 
ENDROOT
BRANCH   1   8
ATOM      8  C1  UNL d   1      -3.701  -1.732   4.352  0.00  0.00     0.053 C 
ATOM      9  C   UNL d   1      -3.038  -1.298   5.650  0.00  0.00     0.018 C 
ENDBRANCH   1   8
TORSDOF 1
ENDMDL
