MODEL 1
REMARK minimizedAffinity 12.8615227
REMARK minimizedRMSD -1
REMARK  1 active torsions:
REMARK  status: ('A' for Active; 'I' for Inactive)
REMARK    1  A    between atoms: C1_2  and  C2_3 
ROOT
ATOM      1  C2  UNL d   1       3.618  -3.251  -3.957  0.00  0.00    -0.076 A 
ATOM      2  C3  UNL d   1       4.934  -3.143  -4.439  0.00  0.00     0.004 A 
ATOM      3  C4  UNL d   1       6.000  -3.721  -3.751  0.00  0.00    -0.003 A 
ATOM      4  C5  UNL d   1       5.766  -4.418  -2.570  0.00  0.00     0.000 A 
ATOM      5  C6  UNL d   1       4.465  -4.550  -2.087  0.00  0.00     0.000 A 
ATOM      6  C7  UNL d   1       3.377  -3.987  -2.777  0.00  0.00    -0.073 A 
ATOM      7  C8  UNL d   1       1.995  -4.155  -2.208  0.00  0.00     0.078 C 
ENDROOT
BRANCH   1   8
ATOM      8  C1  UNL d   1       2.506  -2.580  -4.732  0.00  0.00     0.053 C 
ATOM      9  C   UNL d   1       3.007  -1.897  -5.995  0.00  0.00     0.018 C 
ENDBRANCH   1   8
TORSDOF 1
ENDMDL
