MODEL 1
REMARK minimizedAffinity 7.49279118
REMARK minimizedRMSD -1
REMARK  1 active torsions:
REMARK  status: ('A' for Active; 'I' for Inactive)
REMARK    1  A    between atoms: C1_2  and  C2_3 
ROOT
ATOM      1  C2  UNL d   1      -4.609  -3.351   4.773  0.00  0.00    -0.076 A 
ATOM      2  C3  UNL d   1      -4.537  -2.585   3.596  0.00  0.00     0.004 A 
ATOM      3  C4  UNL d   1      -5.177  -3.000   2.430  0.00  0.00    -0.003 A 
ATOM      4  C5  UNL d   1      -5.901  -4.187   2.421  0.00  0.00     0.000 A 
ATOM      5  C6  UNL d   1      -5.998  -4.951   3.584  0.00  0.00     0.000 A 
ATOM      6  C7  UNL d   1      -5.371  -4.539   4.773  0.00  0.00    -0.073 A 
ATOM      7  C8  UNL d   1      -5.504  -5.404   5.996  0.00  0.00     0.078 C 
ENDROOT
BRANCH   1   8
ATOM      8  C1  UNL d   1      -3.871  -2.865   5.999  0.00  0.00     0.053 C 
ATOM      9  C   UNL d   1      -3.015  -1.640   5.717  0.00  0.00     0.018 C 
ENDBRANCH   1   8
TORSDOF 1
ENDMDL
