MODEL 1
REMARK minimizedAffinity -2.84719133
REMARK minimizedRMSD -1
REMARK  1 active torsions:
REMARK  status: ('A' for Active; 'I' for Inactive)
REMARK    1  A    between atoms: C1_2  and  C2_3 
ROOT
ATOM      1  C2  UNL d   1      -4.392  -3.739   4.152  0.00  0.00    -0.076 A 
ATOM      2  C3  UNL d   1      -3.092  -3.768   3.618  0.00  0.00     0.004 A 
ATOM      3  C4  UNL d   1      -2.059  -3.039   4.206  0.00  0.00    -0.003 A 
ATOM      4  C5  UNL d   1      -2.309  -2.271   5.337  0.00  0.00     0.000 A 
ATOM      5  C6  UNL d   1      -3.589  -2.245   5.890  0.00  0.00     0.000 A 
ATOM      6  C7  UNL d   1      -4.638  -2.986   5.320  0.00  0.00    -0.073 A 
ATOM      7  C8  UNL d   1      -6.000  -2.916   5.954  0.00  0.00     0.078 C 
ENDROOT
BRANCH   1   8
ATOM      8  C1  UNL d   1      -5.478  -4.528   3.456  0.00  0.00     0.053 C 
ATOM      9  C   UNL d   1      -5.605  -4.170   1.983  0.00  0.00     0.018 C 
ENDBRANCH   1   8
TORSDOF 1
ENDMDL
