MODEL 1
REMARK minimizedAffinity 1.48115373
REMARK minimizedRMSD -1
REMARK  1 active torsions:
REMARK  status: ('A' for Active; 'I' for Inactive)
REMARK    1  A    between atoms: C1_2  and  C2_3 
ROOT
ATOM      1  C2  UNL d   1      -5.434  -1.587  -1.177  0.00  0.00    -0.076 A 
ATOM      2  C3  UNL d   1      -5.996  -2.869  -1.054  0.00  0.00     0.004 A 
ATOM      3  C4  UNL d   1      -5.694  -3.684   0.035  0.00  0.00    -0.003 A 
ATOM      4  C5  UNL d   1      -4.824  -3.230   1.021  0.00  0.00     0.000 A 
ATOM      5  C6  UNL d   1      -4.271  -1.953   0.924  0.00  0.00     0.000 A 
ATOM      6  C7  UNL d   1      -4.578  -1.113  -0.160  0.00  0.00    -0.073 A 
ATOM      7  C8  UNL d   1      -3.947   0.252  -0.216  0.00  0.00     0.078 C 
ENDROOT
BRANCH   1   8
ATOM      8  C1  UNL d   1      -5.777  -0.759  -2.394  0.00  0.00     0.053 C 
ATOM      9  C   UNL d   1      -4.598   0.064  -2.891  0.00  0.00     0.018 C 
ENDBRANCH   1   8
TORSDOF 1
ENDMDL
