MODEL 1
REMARK minimizedAffinity 3.91908073
REMARK minimizedRMSD -1
REMARK  1 active torsions:
REMARK  status: ('A' for Active; 'I' for Inactive)
REMARK    1  A    between atoms: C1_2  and  C2_3 
ROOT
ATOM      1  C2  UNL d   1      -0.816   1.262   1.801  0.00  0.00    -0.076 A 
ATOM      2  C3  UNL d   1      -0.924   1.148   0.404  0.00  0.00     0.004 A 
ATOM      3  C4  UNL d   1      -0.385   2.118  -0.439  0.00  0.00    -0.003 A 
ATOM      4  C5  UNL d   1       0.272   3.218   0.101  0.00  0.00     0.000 A 
ATOM      5  C6  UNL d   1       0.404   3.338   1.484  0.00  0.00     0.000 A 
ATOM      6  C7  UNL d   1      -0.119   2.361   2.348  0.00  0.00    -0.073 A 
ATOM      7  C8  UNL d   1       0.047   2.545   3.831  0.00  0.00     0.078 C 
ENDROOT
BRANCH   1   8
ATOM      8  C1  UNL d   1      -1.444   0.193   2.666  0.00  0.00     0.053 C 
ATOM      9  C   UNL d   1      -0.610  -1.078   2.720  0.00  0.00     0.018 C 
ENDBRANCH   1   8
TORSDOF 1
ENDMDL
