MODEL 1
REMARK minimizedAffinity 1.74833179
REMARK minimizedRMSD -1
REMARK  0 active torsions:
REMARK  status: ('A' for Active; 'I' for Inactive)
ROOT
ATOM      1  C2' OXE d   1       0.257   1.597   1.168  0.00  0.00     0.078 C 
ATOM      2  C1' OXE d   1      -1.257  -0.432   2.380  0.00  0.00     0.078 C 
ATOM      3  C1  OXE d   1      -1.959   0.484   1.409  0.00  0.00    -0.078 A 
ATOM      4  C2  OXE d   1      -1.221   1.503   0.856  0.00  0.00    -0.078 A 
ATOM      5  C3  OXE d   1      -1.805   2.344  -0.088  0.00  0.00     0.003 A 
ATOM      6  C4  OXE d   1      -3.175   2.256  -0.363  0.00  0.00    -0.002 A 
ATOM      7  C5  OXE d   1      -3.954   1.250   0.220  0.00  0.00    -0.002 A 
ATOM      8  C6  OXE d   1      -3.353   0.332   1.073  0.00  0.00     0.003 A 
ENDROOT
TORSDOF 0
ENDMDL
