MODEL 1
REMARK minimizedAffinity 4.60438251
REMARK minimizedRMSD -1
REMARK  0 active torsions:
REMARK  status: ('A' for Active; 'I' for Inactive)
ROOT
ATOM      1  C2' OXE d   1      -1.080  -5.406   1.492  0.00  0.00     0.078 C 
ATOM      2  C1' OXE d   1      -2.293  -3.827  -0.487  0.00  0.00     0.078 C 
ATOM      3  C1  OXE d   1      -1.998  -3.183   0.845  0.00  0.00    -0.078 A 
ATOM      4  C2  OXE d   1      -1.448  -3.976   1.823  0.00  0.00    -0.078 A 
ATOM      5  C3  OXE d   1      -1.106  -3.418   3.051  0.00  0.00     0.003 A 
ATOM      6  C4  OXE d   1      -1.459  -2.097   3.352  0.00  0.00    -0.002 A 
ATOM      7  C5  OXE d   1      -2.056  -1.283   2.384  0.00  0.00    -0.002 A 
ATOM      8  C6  OXE d   1      -2.293  -1.797   1.114  0.00  0.00     0.003 A 
ENDROOT
TORSDOF 0
ENDMDL
