MODEL 1
REMARK minimizedAffinity 2.48752904
REMARK minimizedRMSD -1
REMARK  0 active torsions:
REMARK  status: ('A' for Active; 'I' for Inactive)
ROOT
ATOM      1  C2' OXE d   1      -4.784   1.838  -0.133  0.00  0.00     0.078 C 
ATOM      2  C1' OXE d   1      -4.244  -0.511   1.307  0.00  0.00     0.078 C 
ATOM      3  C1  OXE d   1      -3.100   0.440   1.058  0.00  0.00    -0.078 A 
ATOM      4  C2  OXE d   1      -3.363   1.564   0.312  0.00  0.00    -0.078 A 
ATOM      5  C3  OXE d   1      -2.357   2.501   0.099  0.00  0.00     0.003 A 
ATOM      6  C4  OXE d   1      -1.043   2.236   0.505  0.00  0.00    -0.002 A 
ATOM      7  C5  OXE d   1      -0.745   1.078   1.232  0.00  0.00    -0.002 A 
ATOM      8  C6  OXE d   1      -1.768   0.193   1.552  0.00  0.00     0.003 A 
ENDROOT
TORSDOF 0
ENDMDL
