MODEL 1
REMARK minimizedAffinity -5.04681778
REMARK minimizedRMSD -1
REMARK  0 active torsions:
REMARK  status: ('A' for Active; 'I' for Inactive)
ROOT
ATOM      1  C2' OXE d   1       0.270   1.481  -0.106  0.00  0.00     0.078 C 
ATOM      2  C1' OXE d   1      -1.305  -0.292   1.395  0.00  0.00     0.078 C 
ATOM      3  C1  OXE d   1      -2.009   0.805   0.638  0.00  0.00    -0.078 A 
ATOM      4  C2  OXE d   1      -1.227   1.697  -0.057  0.00  0.00    -0.078 A 
ATOM      5  C3  OXE d   1      -1.829   2.695  -0.817  0.00  0.00     0.003 A 
ATOM      6  C4  OXE d   1      -3.214   2.894  -0.757  0.00  0.00    -0.002 A 
ATOM      7  C5  OXE d   1      -4.025   2.022  -0.024  0.00  0.00    -0.002 A 
ATOM      8  C6  OXE d   1      -3.444   0.949   0.643  0.00  0.00     0.003 A 
ENDROOT
TORSDOF 0
ENDMDL
