MODEL 1
REMARK minimizedAffinity 5.59558392
REMARK minimizedRMSD -1
REMARK  0 active torsions:
REMARK  status: ('A' for Active; 'I' for Inactive)
ROOT
ATOM      1  C2' OXE d   1       4.881   5.747  -0.711  0.00  0.00     0.078 C 
ATOM      2  C1' OXE d   1       2.349   5.752   0.501  0.00  0.00     0.078 C 
ATOM      3  C1  OXE d   1       3.558   5.852   1.397  0.00  0.00    -0.078 A 
ATOM      4  C2  OXE d   1       4.794   5.802   0.799  0.00  0.00    -0.078 A 
ATOM      5  C3  OXE d   1       5.941   5.946   1.574  0.00  0.00     0.003 A 
ATOM      6  C4  OXE d   1       5.852   5.986   2.971  0.00  0.00    -0.002 A 
ATOM      7  C5  OXE d   1       4.604   5.998   3.603  0.00  0.00    -0.002 A 
ATOM      8  C6  OXE d   1       3.449   5.975   2.830  0.00  0.00     0.003 A 
ENDROOT
TORSDOF 0
ENDMDL
