MODEL 1
REMARK minimizedAffinity 7.93675089
REMARK minimizedRMSD -1
REMARK  0 active torsions:
REMARK  status: ('A' for Active; 'I' for Inactive)
ROOT
ATOM      1  C2' OXE d   1      -0.722   3.400   3.051  0.00  0.00     0.078 C 
ATOM      2  C1' OXE d   1       1.662   4.289   1.866  0.00  0.00     0.078 C 
ATOM      3  C1  OXE d   1       1.202   2.887   1.555  0.00  0.00    -0.078 A 
ATOM      4  C2  OXE d   1       0.059   2.444   2.176  0.00  0.00    -0.078 A 
ATOM      5  C3  OXE d   1      -0.440   1.178   1.881  0.00  0.00     0.003 A 
ATOM      6  C4  OXE d   1       0.294   0.296   1.078  0.00  0.00    -0.002 A 
ATOM      7  C5  OXE d   1       1.482   0.714   0.467  0.00  0.00    -0.002 A 
ATOM      8  C6  OXE d   1       1.926   2.017   0.661  0.00  0.00     0.003 A 
ENDROOT
TORSDOF 0
ENDMDL
