MODEL 1
REMARK minimizedAffinity 3.67260385
REMARK minimizedRMSD -1
REMARK  0 active torsions:
REMARK  status: ('A' for Active; 'I' for Inactive)
ROOT
ATOM      1  C2' OXE d   1      -1.881  -2.094   1.934  0.00  0.00     0.078 C 
ATOM      2  C1' OXE d   1      -2.507  -4.298   0.311  0.00  0.00     0.078 C 
ATOM      3  C1  OXE d   1      -1.651  -4.541   1.528  0.00  0.00    -0.078 A 
ATOM      4  C2  OXE d   1      -1.311  -3.450   2.291  0.00  0.00    -0.078 A 
ATOM      5  C3  OXE d   1      -0.569  -3.626   3.455  0.00  0.00     0.003 A 
ATOM      6  C4  OXE d   1      -0.037  -4.882   3.773  0.00  0.00    -0.002 A 
ATOM      7  C5  OXE d   1      -0.338  -6.000   2.988  0.00  0.00    -0.002 A 
ATOM      8  C6  OXE d   1      -1.176  -5.855   1.889  0.00  0.00     0.003 A 
ENDROOT
TORSDOF 0
ENDMDL
