MODEL 1
REMARK minimizedAffinity 1.29023349
REMARK minimizedRMSD -1
REMARK  0 active torsions:
REMARK  status: ('A' for Active; 'I' for Inactive)
ROOT
ATOM      1  C2' OXE d   1      -0.654   3.025   3.128  0.00  0.00     0.078 C 
ATOM      2  C1' OXE d   1       2.067   3.420   3.695  0.00  0.00     0.078 C 
ATOM      3  C1  OXE d   1       1.711   2.451   2.595  0.00  0.00    -0.078 A 
ATOM      4  C2  OXE d   1       0.376   2.229   2.356  0.00  0.00    -0.078 A 
ATOM      5  C3  OXE d   1      -0.007   1.387   1.316  0.00  0.00     0.003 A 
ATOM      6  C4  OXE d   1       0.952   0.647   0.613  0.00  0.00    -0.002 A 
ATOM      7  C5  OXE d   1       2.315   0.828   0.868  0.00  0.00    -0.002 A 
ATOM      8  C6  OXE d   1       2.712   1.756   1.824  0.00  0.00     0.003 A 
ENDROOT
TORSDOF 0
ENDMDL
