MODEL 1
REMARK minimizedAffinity 2.85640097
REMARK minimizedRMSD -1
REMARK  0 active torsions:
REMARK  status: ('A' for Active; 'I' for Inactive)
ROOT
ATOM      1  C2' OXE d   1       3.158   2.071   1.849  0.00  0.00     0.078 C 
ATOM      2  C1' OXE d   1       1.112   0.978   0.267  0.00  0.00     0.078 C 
ATOM      3  C1  OXE d   1       0.711   1.831   1.445  0.00  0.00    -0.078 A 
ATOM      4  C2  OXE d   1       1.718   2.324   2.241  0.00  0.00    -0.078 A 
ATOM      5  C3  OXE d   1       1.406   3.161   3.308  0.00  0.00     0.003 A 
ATOM      6  C4  OXE d   1       0.072   3.382   3.669  0.00  0.00    -0.002 A 
ATOM      7  C5  OXE d   1      -0.969   2.858   2.895  0.00  0.00    -0.002 A 
ATOM      8  C6  OXE d   1      -0.667   2.117   1.758  0.00  0.00     0.003 A 
ENDROOT
TORSDOF 0
ENDMDL
