MODEL 1
REMARK minimizedAffinity 2.06309032
REMARK minimizedRMSD -1
REMARK  0 active torsions:
REMARK  status: ('A' for Active; 'I' for Inactive)
ROOT
ATOM      1  C2' OXE d   1       2.381   6.000   0.744  0.00  0.00     0.078 C 
ATOM      2  C1' OXE d   1       3.057   6.000   3.468  0.00  0.00     0.078 C 
ATOM      3  C1  OXE d   1       2.043   4.989   2.995  0.00  0.00    -0.078 A 
ATOM      4  C2  OXE d   1       1.683   5.026   1.669  0.00  0.00    -0.078 A 
ATOM      5  C3  OXE d   1       0.793   4.080   1.169  0.00  0.00     0.003 A 
ATOM      6  C4  OXE d   1       0.145   3.190   2.034  0.00  0.00    -0.002 A 
ATOM      7  C5  OXE d   1       0.467   3.161   3.395  0.00  0.00    -0.002 A 
ATOM      8  C6  OXE d   1       1.443   4.023   3.883  0.00  0.00     0.003 A 
ENDROOT
TORSDOF 0
ENDMDL
