MODEL 1
REMARK minimizedAffinity 2.78943515
REMARK minimizedRMSD -1
REMARK  0 active torsions:
REMARK  status: ('A' for Active; 'I' for Inactive)
ROOT
ATOM      1  C2' OXE d   1       2.969   2.205   1.988  0.00  0.00     0.078 C 
ATOM      2  C1' OXE d   1       1.282   0.759   0.273  0.00  0.00     0.078 C 
ATOM      3  C1  OXE d   1       0.639   1.640   1.315  0.00  0.00    -0.078 A 
ATOM      4  C2  OXE d   1       1.472   2.308   2.180  0.00  0.00    -0.078 A 
ATOM      5  C3  OXE d   1       0.932   3.176   3.125  0.00  0.00     0.003 A 
ATOM      6  C4  OXE d   1      -0.454   3.257   3.302  0.00  0.00    -0.002 A 
ATOM      7  C5  OXE d   1      -1.321   2.555   2.458  0.00  0.00    -0.002 A 
ATOM      8  C6  OXE d   1      -0.792   1.777   1.434  0.00  0.00     0.003 A 
ENDROOT
TORSDOF 0
ENDMDL
