MODEL 1
REMARK minimizedAffinity 4.82933092
REMARK minimizedRMSD -1
REMARK  0 active torsions:
REMARK  status: ('A' for Active; 'I' for Inactive)
ROOT
ATOM      1  C2' OXE d   1      -1.474   3.143   2.636  0.00  0.00     0.078 C 
ATOM      2  C1' OXE d   1       1.227   3.284   3.389  0.00  0.00     0.078 C 
ATOM      3  C1  OXE d   1       0.848   2.301   2.309  0.00  0.00    -0.078 A 
ATOM      4  C2  OXE d   1      -0.483   2.206   1.980  0.00  0.00    -0.078 A 
ATOM      5  C3  OXE d   1      -0.880   1.354   0.953  0.00  0.00     0.003 A 
ATOM      6  C4  OXE d   1       0.042   0.483   0.359  0.00  0.00    -0.002 A 
ATOM      7  C5  OXE d   1       1.396   0.536   0.707  0.00  0.00    -0.002 A 
ATOM      8  C6  OXE d   1       1.821   1.467   1.648  0.00  0.00     0.003 A 
ENDROOT
TORSDOF 0
ENDMDL
