MODEL 1
REMARK minimizedAffinity 6.69989347
REMARK minimizedRMSD -1
REMARK  0 active torsions:
REMARK  status: ('A' for Active; 'I' for Inactive)
ROOT
ATOM      1  C2' OXE d   1      -0.188   1.601   0.646  0.00  0.00     0.078 C 
ATOM      2  C1' OXE d   1       2.488   0.783   0.872  0.00  0.00     0.078 C 
ATOM      3  C1  OXE d   1       1.983   1.168  -0.496  0.00  0.00    -0.078 A 
ATOM      4  C2  OXE d   1       0.660   1.523  -0.605  0.00  0.00    -0.078 A 
ATOM      5  C3  OXE d   1       0.156   1.940  -1.834  0.00  0.00     0.003 A 
ATOM      6  C4  OXE d   1       0.944   1.854  -2.989  0.00  0.00    -0.002 A 
ATOM      7  C5  OXE d   1       2.283   1.458  -2.906  0.00  0.00    -0.002 A 
ATOM      8  C6  OXE d   1       2.829   1.153  -1.664  0.00  0.00     0.003 A 
ENDROOT
TORSDOF 0
ENDMDL
