MODEL 1
REMARK minimizedAffinity 2.266922
REMARK minimizedRMSD -1
REMARK  0 active torsions:
REMARK  status: ('A' for Active; 'I' for Inactive)
ROOT
ATOM      1  C2' OXE d   1      -1.398  -5.999   1.869  0.00  0.00     0.078 C 
ATOM      2  C1' OXE d   1       1.358  -5.984   1.338  0.00  0.00     0.078 C 
ATOM      3  C1  OXE d   1       0.920  -5.982   2.781  0.00  0.00    -0.078 A 
ATOM      4  C2  OXE d   1      -0.431  -5.942   3.032  0.00  0.00    -0.078 A 
ATOM      5  C3  OXE d   1      -0.890  -5.995   4.345  0.00  0.00     0.003 A 
ATOM      6  C4  OXE d   1       0.012  -5.932   5.414  0.00  0.00    -0.002 A 
ATOM      7  C5  OXE d   1       1.391  -5.931   5.181  0.00  0.00    -0.002 A 
ATOM      8  C6  OXE d   1       1.861  -5.999   3.874  0.00  0.00     0.003 A 
ENDROOT
TORSDOF 0
ENDMDL
