MODEL 1
REMARK minimizedAffinity 1.42634714
REMARK minimizedRMSD -1
REMARK  0 active torsions:
REMARK  status: ('A' for Active; 'I' for Inactive)
ROOT
ATOM      1  C2' OXE d   1       1.456   1.236  -0.724  0.00  0.00     0.078 C 
ATOM      2  C1' OXE d   1      -1.281   1.064  -0.127  0.00  0.00     0.078 C 
ATOM      3  C1  OXE d   1      -0.372   1.676   0.909  0.00  0.00    -0.078 A 
ATOM      4  C2  OXE d   1       0.972   1.714   0.628  0.00  0.00    -0.078 A 
ATOM      5  C3  OXE d   1       1.848   2.317   1.526  0.00  0.00     0.003 A 
ATOM      6  C4  OXE d   1       1.393   2.747   2.778  0.00  0.00    -0.002 A 
ATOM      7  C5  OXE d   1       0.034   2.681   3.101  0.00  0.00    -0.002 A 
ATOM      8  C6  OXE d   1      -0.866   2.189   2.163  0.00  0.00     0.003 A 
ENDROOT
TORSDOF 0
ENDMDL
