MODEL 1
REMARK minimizedAffinity 1.19764817
REMARK minimizedRMSD -1
REMARK  0 active torsions:
REMARK  status: ('A' for Active; 'I' for Inactive)
ROOT
ATOM      1  C2' OXE d   1      -1.368   3.178   3.026  0.00  0.00     0.078 C 
ATOM      2  C1' OXE d   1       1.407   3.276   3.441  0.00  0.00     0.078 C 
ATOM      3  C1  OXE d   1       0.892   2.385   2.339  0.00  0.00    -0.078 A 
ATOM      4  C2  OXE d   1      -0.470   2.307   2.174  0.00  0.00    -0.078 A 
ATOM      5  C3  OXE d   1      -0.996   1.542   1.136  0.00  0.00     0.003 A 
ATOM      6  C4  OXE d   1      -0.160   0.731   0.359  0.00  0.00    -0.002 A 
ATOM      7  C5  OXE d   1       1.227   0.765   0.537  0.00  0.00    -0.002 A 
ATOM      8  C6  OXE d   1       1.771   1.617   1.493  0.00  0.00     0.003 A 
ENDROOT
TORSDOF 0
ENDMDL
