MODEL 1
REMARK minimizedAffinity 10.3582573
REMARK minimizedRMSD -1
REMARK  1 active torsions:
REMARK  status: ('A' for Active; 'I' for Inactive)
REMARK    1  A    between atoms: C3_4  and  O_7 
ROOT
ATOM      1  C   UNL d   1       5.130   1.843  -0.584  0.00  0.00    -0.033 A 
ATOM      2  C1  UNL d   1       6.000   2.747  -1.197  0.00  0.00     0.039 A 
ATOM      3  C2  UNL d   1       5.971   4.097  -0.842  0.00  0.00    -0.080 A 
ATOM      4  C3  UNL d   1       5.069   4.529   0.127  0.00  0.00     0.150 A 
ATOM      5  C4  UNL d   1       4.203   3.634   0.745  0.00  0.00    -0.007 A 
ATOM      6  C5  UNL d   1       4.233   2.286   0.388  0.00  0.00     0.039 A 
ENDROOT
BRANCH   4   7
ATOM      7  O   UNL d   1       5.000   5.838   0.503  0.00  0.00    -0.526 OA
ATOM      8  H5  UNL d   1       5.637   6.345  -0.028  0.00  0.00     0.418 HD
ENDBRANCH   4   7
TORSDOF 1
ENDMDL
