MODEL 1
REMARK minimizedAffinity 5.05343342
REMARK minimizedRMSD -1
REMARK  1 active torsions:
REMARK  status: ('A' for Active; 'I' for Inactive)
REMARK    1  A    between atoms: C3_4  and  O_7 
ROOT
ATOM      1  C   UNL d   1      -1.913  -3.066   4.575  0.00  0.00    -0.033 A 
ATOM      2  C1  UNL d   1      -1.227  -2.290   5.512  0.00  0.00     0.039 A 
ATOM      3  C2  UNL d   1      -1.800  -1.114   6.000  0.00  0.00    -0.080 A 
ATOM      4  C3  UNL d   1      -3.057  -0.726   5.545  0.00  0.00     0.150 A 
ATOM      5  C4  UNL d   1      -3.748  -1.496   4.615  0.00  0.00    -0.007 A 
ATOM      6  C5  UNL d   1      -3.174  -2.670   4.128  0.00  0.00     0.039 A 
ENDROOT
BRANCH   4   7
ATOM      7  O   UNL d   1      -3.654   0.416   5.988  0.00  0.00    -0.526 OA
ATOM      8  H5  UNL d   1      -3.049   0.861   6.605  0.00  0.00     0.418 HD
ENDBRANCH   4   7
TORSDOF 1
ENDMDL
