MODEL 1
REMARK minimizedAffinity 5.94282913
REMARK minimizedRMSD -1
REMARK  1 active torsions:
REMARK  status: ('A' for Active; 'I' for Inactive)
REMARK    1  A    between atoms: C3_4  and  O_7 
ROOT
ATOM      1  C   UNL d   1       6.000   0.403  -4.114  0.00  0.00    -0.033 A 
ATOM      2  C1  UNL d   1       5.640  -0.850  -3.614  0.00  0.00     0.039 A 
ATOM      3  C2  UNL d   1       4.418  -1.017  -2.958  0.00  0.00    -0.080 A 
ATOM      4  C3  UNL d   1       3.568   0.075  -2.810  0.00  0.00     0.150 A 
ATOM      5  C4  UNL d   1       3.919   1.325  -3.308  0.00  0.00    -0.007 A 
ATOM      6  C5  UNL d   1       5.139   1.490  -3.962  0.00  0.00     0.039 A 
ENDROOT
BRANCH   4   7
ATOM      7  O   UNL d   1       2.368  -0.039  -2.172  0.00  0.00    -0.526 OA
ATOM      8  H5  UNL d   1       2.272  -0.952  -1.856  0.00  0.00     0.418 HD
ENDBRANCH   4   7
TORSDOF 1
ENDMDL
