MODEL 1
REMARK minimizedAffinity 6.66599894
REMARK minimizedRMSD -1
REMARK  1 active torsions:
REMARK  status: ('A' for Active; 'I' for Inactive)
REMARK    1  A    between atoms: C3_4  and  O_7 
ROOT
ATOM      1  C   UNL d   1      -4.912   0.617   5.891  0.00  0.00    -0.033 A 
ATOM      2  C1  UNL d   1      -5.975   1.518   5.965  0.00  0.00     0.039 A 
ATOM      3  C2  UNL d   1      -5.727   2.892   5.999  0.00  0.00    -0.080 A 
ATOM      4  C3  UNL d   1      -4.413   3.350   5.958  0.00  0.00     0.150 A 
ATOM      5  C4  UNL d   1      -3.349   2.458   5.881  0.00  0.00    -0.007 A 
ATOM      6  C5  UNL d   1      -3.599   1.086   5.848  0.00  0.00     0.039 A 
ENDROOT
BRANCH   4   7
ATOM      7  O   UNL d   1      -4.121   4.681   5.994  0.00  0.00    -0.526 OA
ATOM      8  H5  UNL d   1      -4.953   5.177   6.077  0.00  0.00     0.418 HD
ENDBRANCH   4   7
TORSDOF 1
ENDMDL
