MODEL 1
REMARK minimizedAffinity 3.70617342
REMARK minimizedRMSD -1
REMARK  1 active torsions:
REMARK  status: ('A' for Active; 'I' for Inactive)
REMARK    1  A    between atoms: C3_4  and  O_7 
ROOT
ATOM      1  C   UNL d   1       2.669   1.879   0.365  0.00  0.00    -0.033 A 
ATOM      2  C1  UNL d   1       3.455   2.720   1.156  0.00  0.00     0.039 A 
ATOM      3  C2  UNL d   1       4.302   3.654   0.556  0.00  0.00    -0.080 A 
ATOM      4  C3  UNL d   1       4.354   3.737  -0.832  0.00  0.00     0.150 A 
ATOM      5  C4  UNL d   1       3.571   2.905  -1.626  0.00  0.00    -0.007 A 
ATOM      6  C5  UNL d   1       2.726   1.972  -1.025  0.00  0.00     0.039 A 
ENDROOT
BRANCH   4   7
ATOM      7  O   UNL d   1       5.169   4.630  -1.463  0.00  0.00    -0.526 OA
ATOM      8  H5  UNL d   1       5.671   5.117  -0.789  0.00  0.00     0.418 HD
ENDBRANCH   4   7
TORSDOF 1
ENDMDL
