MODEL 1
REMARK minimizedAffinity 3.72814751
REMARK minimizedRMSD -1
REMARK  1 active torsions:
REMARK  status: ('A' for Active; 'I' for Inactive)
REMARK    1  A    between atoms: C3_4  and  O_7 
ROOT
ATOM      1  C   UNL d   1      -5.652   1.300   6.000  0.00  0.00    -0.033 A 
ATOM      2  C1  UNL d   1      -5.633  -0.084   5.821  0.00  0.00     0.039 A 
ATOM      3  C2  UNL d   1      -4.420  -0.750   5.635  0.00  0.00    -0.080 A 
ATOM      4  C3  UNL d   1      -3.234  -0.020   5.631  0.00  0.00     0.150 A 
ATOM      5  C4  UNL d   1      -3.245   1.359   5.813  0.00  0.00    -0.007 A 
ATOM      6  C5  UNL d   1      -4.458   2.022   5.997  0.00  0.00     0.039 A 
ENDROOT
BRANCH   4   7
ATOM      7  O   UNL d   1      -2.026  -0.625   5.449  0.00  0.00    -0.526 OA
ATOM      8  H5  UNL d   1      -2.176  -1.575   5.308  0.00  0.00     0.418 HD
ENDBRANCH   4   7
TORSDOF 1
ENDMDL
