MODEL 1
REMARK minimizedAffinity 3.13163638
REMARK minimizedRMSD -1
REMARK  1 active torsions:
REMARK  status: ('A' for Active; 'I' for Inactive)
REMARK    1  A    between atoms: C3_4  and  O_7 
ROOT
ATOM      1  C   UNL d   1      -2.081  -1.673   1.270  0.00  0.00    -0.033 A 
ATOM      2  C1  UNL d   1      -2.181  -2.779   2.117  0.00  0.00     0.039 A 
ATOM      3  C2  UNL d   1      -1.353  -3.886   1.923  0.00  0.00    -0.080 A 
ATOM      4  C3  UNL d   1      -0.429  -3.875   0.881  0.00  0.00     0.150 A 
ATOM      5  C4  UNL d   1      -0.321  -2.775   0.037  0.00  0.00    -0.007 A 
ATOM      6  C5  UNL d   1      -1.149  -1.670   0.231  0.00  0.00     0.039 A 
ENDROOT
BRANCH   4   7
ATOM      7  O   UNL d   1       0.397  -4.934   0.650  0.00  0.00    -0.526 OA
ATOM      8  H5  UNL d   1       0.189  -5.632   1.293  0.00  0.00     0.418 HD
ENDBRANCH   4   7
TORSDOF 1
ENDMDL
