MODEL 1
REMARK minimizedAffinity 5.55897379
REMARK minimizedRMSD -1
REMARK  1 active torsions:
REMARK  status: ('A' for Active; 'I' for Inactive)
REMARK    1  A    between atoms: C3_4  and  O_7 
ROOT
ATOM      1  C   UNL d   1      -5.862   1.335   5.998  0.00  0.00    -0.033 A 
ATOM      2  C1  UNL d   1      -4.604   1.941   5.995  0.00  0.00     0.039 A 
ATOM      3  C2  UNL d   1      -3.475   1.208   5.624  0.00  0.00    -0.080 A 
ATOM      4  C3  UNL d   1      -3.618  -0.127   5.258  0.00  0.00     0.150 A 
ATOM      5  C4  UNL d   1      -4.868  -0.736   5.255  0.00  0.00    -0.007 A 
ATOM      6  C5  UNL d   1      -5.994  -0.003   5.627  0.00  0.00     0.039 A 
ENDROOT
BRANCH   4   7
ATOM      7  O   UNL d   1      -2.544  -0.884   4.893  0.00  0.00    -0.526 OA
ATOM      8  H5  UNL d   1      -1.743  -0.340   4.970  0.00  0.00     0.418 HD
ENDBRANCH   4   7
TORSDOF 1
ENDMDL
