MODEL 1
REMARK minimizedAffinity 11.2399101
REMARK minimizedRMSD -1
REMARK  1 active torsions:
REMARK  status: ('A' for Active; 'I' for Inactive)
REMARK    1  A    between atoms: C3_4  and  O_7 
ROOT
ATOM      1  C   UNL d   1      -5.797   5.999  -5.182  0.00  0.00    -0.033 A 
ATOM      2  C1  UNL d   1      -5.998   4.885  -6.000  0.00  0.00     0.039 A 
ATOM      3  C2  UNL d   1      -5.225   3.737  -5.820  0.00  0.00    -0.080 A 
ATOM      4  C3  UNL d   1      -4.257   3.714  -4.820  0.00  0.00     0.150 A 
ATOM      5  C4  UNL d   1      -4.054   4.819  -3.999  0.00  0.00    -0.007 A 
ATOM      6  C5  UNL d   1      -4.826   5.965  -4.181  0.00  0.00     0.039 A 
ENDROOT
BRANCH   4   7
ATOM      7  O   UNL d   1      -3.475   2.617  -4.609  0.00  0.00    -0.526 OA
ATOM      8  H5  UNL d   1      -3.707   1.943  -5.269  0.00  0.00     0.418 HD
ENDBRANCH   4   7
TORSDOF 1
ENDMDL
