MODEL 1
REMARK minimizedAffinity 6.63747263
REMARK minimizedRMSD -1
REMARK  1 active torsions:
REMARK  status: ('A' for Active; 'I' for Inactive)
REMARK    1  A    between atoms: C3_4  and  O_7 
ROOT
ATOM      1  C   UNL d   1      -0.750  -1.817  -1.823  0.00  0.00    -0.033 A 
ATOM      2  C1  UNL d   1      -1.185  -2.027  -0.513  0.00  0.00     0.039 A 
ATOM      3  C2  UNL d   1      -2.425  -1.537  -0.101  0.00  0.00    -0.080 A 
ATOM      4  C3  UNL d   1      -3.221  -0.841  -1.007  0.00  0.00     0.150 A 
ATOM      5  C4  UNL d   1      -2.795  -0.632  -2.315  0.00  0.00    -0.007 A 
ATOM      6  C5  UNL d   1      -1.556  -1.121  -2.724  0.00  0.00     0.039 A 
ENDROOT
BRANCH   4   7
ATOM      7  O   UNL d   1      -4.437  -0.340  -0.649  0.00  0.00    -0.526 OA
ATOM      8  H5  UNL d   1      -4.586  -0.536   0.291  0.00  0.00     0.418 HD
ENDBRANCH   4   7
TORSDOF 1
ENDMDL
