MODEL 1
REMARK minimizedAffinity -1.97675383
REMARK minimizedRMSD -1
REMARK  1 active torsions:
REMARK  status: ('A' for Active; 'I' for Inactive)
REMARK    1  A    between atoms: C3_4  and  O_7 
ROOT
ATOM      1  C   UNL d   1      -5.657   4.491   1.105  0.00  0.00    -0.033 A 
ATOM      2  C1  UNL d   1      -4.517   3.752   0.781  0.00  0.00     0.039 A 
ATOM      3  C2  UNL d   1      -3.718   4.134  -0.298  0.00  0.00    -0.080 A 
ATOM      4  C3  UNL d   1      -4.068   5.256  -1.044  0.00  0.00     0.150 A 
ATOM      5  C4  UNL d   1      -5.200   5.999  -0.725  0.00  0.00    -0.007 A 
ATOM      6  C5  UNL d   1      -5.998   5.615   0.352  0.00  0.00     0.039 A 
ENDROOT
BRANCH   4   7
ATOM      7  O   UNL d   1      -3.322   5.665  -2.109  0.00  0.00    -0.526 OA
ATOM      8  H5  UNL d   1      -2.587   5.040  -2.228  0.00  0.00     0.418 HD
ENDBRANCH   4   7
TORSDOF 1
ENDMDL
