MODEL 1
REMARK minimizedAffinity 4.15801287
REMARK minimizedRMSD -1
REMARK  1 active torsions:
REMARK  status: ('A' for Active; 'I' for Inactive)
REMARK    1  A    between atoms: C3_4  and  O_7 
ROOT
ATOM      1  C   UNL d   1      -4.831   0.291   5.997  0.00  0.00    -0.033 A 
ATOM      2  C1  UNL d   1      -3.505   0.730   5.990  0.00  0.00     0.039 A 
ATOM      3  C2  UNL d   1      -3.220   2.097   5.981  0.00  0.00    -0.080 A 
ATOM      4  C3  UNL d   1      -4.268   3.013   5.981  0.00  0.00     0.150 A 
ATOM      5  C4  UNL d   1      -5.591   2.583   5.992  0.00  0.00    -0.007 A 
ATOM      6  C5  UNL d   1      -5.874   1.218   6.000  0.00  0.00     0.039 A 
ENDROOT
BRANCH   4   7
ATOM      7  O   UNL d   1      -4.040   4.357   5.967  0.00  0.00    -0.526 OA
ATOM      8  H5  UNL d   1      -3.080   4.505   5.931  0.00  0.00     0.418 HD
ENDBRANCH   4   7
TORSDOF 1
ENDMDL
