MODEL 1
REMARK minimizedAffinity -0.931000888
REMARK minimizedRMSD -1
REMARK  1 active torsions:
REMARK  status: ('A' for Active; 'I' for Inactive)
REMARK    1  A    between atoms: N_2  and  C1_3 
ROOT
ATOM      1  C1  UNL d   1       1.716   0.309  -0.541  0.00  0.00     0.143 A 
ATOM      2  C2  UNL d   1       2.095  -1.033  -0.433  0.00  0.00    -0.057 A 
ATOM      3  C3  UNL d   1       1.146  -2.061  -0.477  0.00  0.00     0.033 A 
ATOM      4  C4  UNL d   1      -0.207  -1.763  -0.600  0.00  0.00    -0.042 A 
ATOM      5  C5  UNL d   1      -0.609  -0.434  -0.684  0.00  0.00     0.033 A 
ATOM      6  C6  UNL d   1       0.344   0.588  -0.647  0.00  0.00    -0.057 A 
ENDROOT
BRANCH   1   7
ATOM      7  N   UNL d   1       2.602   1.381  -0.406  0.00  0.00    -0.732 N 
ATOM      8  C   UNL d   1       4.031   1.170  -0.483  0.00  0.00     0.284 C 
ATOM      9  H3  UNL d   1       2.278   2.216  -0.890  0.00  0.00     0.395 HD
ENDBRANCH   1   7
TORSDOF 1
ENDMDL
