MODEL 1
REMARK minimizedAffinity -4.71227074
REMARK minimizedRMSD -1
REMARK  1 active torsions:
REMARK  status: ('A' for Active; 'I' for Inactive)
REMARK    1  A    between atoms: N_2  and  C1_3 
ROOT
ATOM      1  C1  UNL d   1      -0.110  -0.270  -0.306  0.00  0.00     0.143 A 
ATOM      2  C2  UNL d   1       0.369  -1.496  -0.780  0.00  0.00    -0.057 A 
ATOM      3  C3  UNL d   1       1.527  -2.077  -0.250  0.00  0.00     0.033 A 
ATOM      4  C4  UNL d   1       2.244  -1.427   0.749  0.00  0.00    -0.042 A 
ATOM      5  C5  UNL d   1       1.801  -0.195   1.218  0.00  0.00     0.033 A 
ATOM      6  C6  UNL d   1       0.640   0.377   0.689  0.00  0.00    -0.057 A 
ENDROOT
BRANCH   1   7
ATOM      7  N   UNL d   1      -1.199   0.407  -0.860  0.00  0.00    -0.732 N 
ATOM      8  C   UNL d   1      -2.497   0.363  -0.222  0.00  0.00     0.284 C 
ATOM      9  H3  UNL d   1      -0.944   1.324  -1.221  0.00  0.00     0.395 HD
ENDBRANCH   1   7
TORSDOF 1
ENDMDL
