MODEL 1
REMARK minimizedAffinity -4.25310421
REMARK minimizedRMSD -1
REMARK  1 active torsions:
REMARK  status: ('A' for Active; 'I' for Inactive)
REMARK    1  A    between atoms: N_2  and  C1_3 
ROOT
ATOM      1  C1  UNL d   1       0.026  -0.045  -0.340  0.00  0.00     0.143 A 
ATOM      2  C2  UNL d   1       0.227  -1.355  -0.789  0.00  0.00    -0.057 A 
ATOM      3  C3  UNL d   1       1.355  -2.090  -0.403  0.00  0.00     0.033 A 
ATOM      4  C4  UNL d   1       2.320  -1.514   0.418  0.00  0.00    -0.042 A 
ATOM      5  C5  UNL d   1       2.153  -0.205   0.855  0.00  0.00     0.033 A 
ATOM      6  C6  UNL d   1       1.021   0.520   0.472  0.00  0.00    -0.057 A 
ENDROOT
BRANCH   1   7
ATOM      7  N   UNL d   1      -1.025   0.770  -0.767  0.00  0.00    -0.732 N 
ATOM      8  C   UNL d   1      -2.270   0.814  -0.031  0.00  0.00     0.284 C 
ATOM      9  H3  UNL d   1      -0.703   1.678  -1.095  0.00  0.00     0.395 HD
ENDBRANCH   1   7
TORSDOF 1
ENDMDL
