MODEL 1
REMARK minimizedAffinity -3.7549684
REMARK minimizedRMSD -1
REMARK  1 active torsions:
REMARK  status: ('A' for Active; 'I' for Inactive)
REMARK    1  A    between atoms: N_2  and  C1_3 
ROOT
ATOM      1  C1  UNL d   1       0.170  -0.186  -0.036  0.00  0.00     0.143 A 
ATOM      2  C2  UNL d   1       1.335   0.402   0.468  0.00  0.00    -0.057 A 
ATOM      3  C3  UNL d   1       2.436  -0.377   0.845  0.00  0.00     0.033 A 
ATOM      4  C4  UNL d   1       2.380  -1.763   0.752  0.00  0.00    -0.042 A 
ATOM      5  C5  UNL d   1       1.223  -2.371   0.277  0.00  0.00     0.033 A 
ATOM      6  C6  UNL d   1       0.129  -1.588  -0.104  0.00  0.00    -0.057 A 
ENDROOT
BRANCH   1   7
ATOM      7  N   UNL d   1      -0.994   0.526  -0.335  0.00  0.00    -0.732 N 
ATOM      8  C   UNL d   1      -2.061   0.637   0.636  0.00  0.00     0.284 C 
ATOM      9  H3  UNL d   1      -0.802   1.388  -0.842  0.00  0.00     0.395 HD
ENDBRANCH   1   7
TORSDOF 1
ENDMDL
