MODEL 1
REMARK minimizedAffinity -3.53270698
REMARK minimizedRMSD -1
REMARK  1 active torsions:
REMARK  status: ('A' for Active; 'I' for Inactive)
REMARK    1  A    between atoms: N_2  and  C1_3 
ROOT
ATOM      1  C1  UNL d   1       1.461   0.445  -0.471  0.00  0.00     0.143 A 
ATOM      2  C2  UNL d   1       2.243   1.278   0.336  0.00  0.00    -0.057 A 
ATOM      3  C3  UNL d   1       3.539   0.909   0.718  0.00  0.00     0.033 A 
ATOM      4  C4  UNL d   1       4.065  -0.316   0.321  0.00  0.00    -0.042 A 
ATOM      5  C5  UNL d   1       3.296  -1.170  -0.460  0.00  0.00     0.033 A 
ATOM      6  C6  UNL d   1       2.005  -0.794  -0.844  0.00  0.00    -0.057 A 
ENDROOT
BRANCH   1   7
ATOM      7  N   UNL d   1       0.130   0.711  -0.803  0.00  0.00    -0.732 N 
ATOM      8  C   UNL d   1      -0.947  -0.026  -0.178  0.00  0.00     0.284 C 
ATOM      9  H3  UNL d   1      -0.053   1.707  -0.906  0.00  0.00     0.395 HD
ENDBRANCH   1   7
TORSDOF 1
ENDMDL
