MODEL 1
REMARK minimizedAffinity 2.92473888
REMARK minimizedRMSD -1
REMARK  0 active torsions:
REMARK  status: ('A' for Active; 'I' for Inactive)
ROOT
ATOM      1  O1  BZF d   1       1.520   3.875  -1.199  0.00  0.00    -0.204 OA
ATOM      2  C2  BZF d   1       0.373   3.847  -1.967  0.00  0.00     0.174 A 
ATOM      3  C3  BZF d   1      -0.635   3.247  -1.301  0.00  0.00    -0.012 A 
ATOM      4  C3A BZF d   1      -0.108   2.959  -0.002  0.00  0.00    -0.107 A 
ATOM      5  C4  BZF d   1      -0.634   2.380   1.117  0.00  0.00     0.055 A 
ATOM      6  C5  BZF d   1       0.167   2.181   2.196  0.00  0.00    -0.016 A 
ATOM      7  C6  BZF d   1       1.498   2.542   2.189  0.00  0.00     0.022 A 
ATOM      8  C7  BZF d   1       2.064   3.124   1.104  0.00  0.00     0.029 A 
ATOM      9  C7A BZF d   1       1.249   3.357   0.023  0.00  0.00     0.058 A 
ENDROOT
TORSDOF 0
ENDMDL
