MODEL 1
REMARK minimizedAffinity 2.2409718
REMARK minimizedRMSD -1
REMARK  0 active torsions:
REMARK  status: ('A' for Active; 'I' for Inactive)
ROOT
ATOM      1  O1  BZF d   1      -2.222  -3.956  -4.877  0.00  0.00    -0.204 OA
ATOM      2  C2  BZF d   1      -1.700  -5.051  -4.215  0.00  0.00     0.174 A 
ATOM      3  C3  BZF d   1      -2.644  -5.999  -4.041  0.00  0.00    -0.012 A 
ATOM      4  C3A BZF d   1      -3.804  -5.502  -4.714  0.00  0.00    -0.107 A 
ATOM      5  C4  BZF d   1      -5.061  -6.000  -4.909  0.00  0.00     0.055 A 
ATOM      6  C5  BZF d   1      -5.983  -5.233  -5.548  0.00  0.00    -0.016 A 
ATOM      7  C6  BZF d   1      -5.685  -3.964  -6.000  0.00  0.00     0.022 A 
ATOM      8  C7  BZF d   1      -4.450  -3.430  -5.834  0.00  0.00     0.029 A 
ATOM      9  C7A BZF d   1      -3.507  -4.215  -5.218  0.00  0.00     0.058 A 
ENDROOT
TORSDOF 0
ENDMDL
