MODEL 1
REMARK minimizedAffinity 5.49893427
REMARK minimizedRMSD -1
REMARK  0 active torsions:
REMARK  status: ('A' for Active; 'I' for Inactive)
ROOT
ATOM      1  O1  BZF d   1       0.354  -4.239  -1.076  0.00  0.00    -0.204 OA
ATOM      2  C2  BZF d   1       1.523  -4.106  -0.352  0.00  0.00     0.174 A 
ATOM      3  C3  BZF d   1       2.593  -4.071  -1.173  0.00  0.00    -0.012 A 
ATOM      4  C3A BZF d   1       2.052  -4.096  -2.497  0.00  0.00    -0.107 A 
ATOM      5  C4  BZF d   1       2.614  -4.065  -3.742  0.00  0.00     0.055 A 
ATOM      6  C5  BZF d   1       1.810  -4.179  -4.832  0.00  0.00    -0.016 A 
ATOM      7  C6  BZF d   1       0.444  -4.328  -4.715  0.00  0.00     0.022 A 
ATOM      8  C7  BZF d   1      -0.160  -4.359  -3.501  0.00  0.00     0.029 A 
ATOM      9  C7A BZF d   1       0.646  -4.211  -2.399  0.00  0.00     0.058 A 
ENDROOT
TORSDOF 0
ENDMDL
