MODEL 1
REMARK minimizedAffinity 16.4941425
REMARK minimizedRMSD -1
REMARK  0 active torsions:
REMARK  status: ('A' for Active; 'I' for Inactive)
ROOT
ATOM      1  O1  BZF d   1       3.086   3.438   0.957  0.00  0.00    -0.204 OA
ATOM      2  C2  BZF d   1       2.171   2.408   1.055  0.00  0.00     0.174 A 
ATOM      3  C3  BZF d   1       1.382   2.363  -0.039  0.00  0.00    -0.012 A 
ATOM      4  C3A BZF d   1       1.894   3.373  -0.913  0.00  0.00    -0.107 A 
ATOM      5  C4  BZF d   1       1.541   3.801  -2.161  0.00  0.00     0.055 A 
ATOM      6  C5  BZF d   1       2.196   4.859  -2.707  0.00  0.00    -0.016 A 
ATOM      7  C6  BZF d   1       3.205   5.515  -2.031  0.00  0.00     0.022 A 
ATOM      8  C7  BZF d   1       3.593   5.124  -0.793  0.00  0.00     0.029 A 
ATOM      9  C7A BZF d   1       2.955   4.034  -0.253  0.00  0.00     0.058 A 
ENDROOT
TORSDOF 0
ENDMDL
