MODEL 1
REMARK minimizedAffinity 15.2967205
REMARK minimizedRMSD -1
REMARK  0 active torsions:
REMARK  status: ('A' for Active; 'I' for Inactive)
ROOT
ATOM      1  O1  BZF d   1       0.567  -1.818   5.101  0.00  0.00    -0.204 OA
ATOM      2  C2  BZF d   1       1.634  -2.665   4.872  0.00  0.00     0.174 A 
ATOM      3  C3  BZF d   1       2.417  -2.191   3.881  0.00  0.00    -0.012 A 
ATOM      4  C3A BZF d   1       1.852  -0.925   3.528  0.00  0.00    -0.107 A 
ATOM      5  C4  BZF d   1       2.193   0.034   2.618  0.00  0.00     0.055 A 
ATOM      6  C5  BZF d   1       1.390   1.121   2.471  0.00  0.00    -0.016 A 
ATOM      7  C6  BZF d   1       0.238   1.278   3.213  0.00  0.00     0.022 A 
ATOM      8  C7  BZF d   1      -0.139   0.355   4.132  0.00  0.00     0.029 A 
ATOM      9  C7A BZF d   1       0.687  -0.728   4.306  0.00  0.00     0.058 A 
ENDROOT
TORSDOF 0
ENDMDL
