MODEL 1
REMARK minimizedAffinity 14.2892399
REMARK minimizedRMSD -1
REMARK  0 active torsions:
REMARK  status: ('A' for Active; 'I' for Inactive)
ROOT
ATOM      1  O1  BZF d   1       1.642   3.336  -1.241  0.00  0.00    -0.204 OA
ATOM      2  C2  BZF d   1       0.846   3.989  -2.162  0.00  0.00     0.174 A 
ATOM      3  C3  BZF d   1      -0.456   3.889  -1.826  0.00  0.00    -0.012 A 
ATOM      4  C3A BZF d   1      -0.469   3.204  -0.569  0.00  0.00    -0.107 A 
ATOM      5  C4  BZF d   1      -1.466   2.820   0.281  0.00  0.00     0.055 A 
ATOM      6  C5  BZF d   1      -1.148   2.103   1.391  0.00  0.00    -0.016 A 
ATOM      7  C6  BZF d   1       0.154   1.748   1.678  0.00  0.00     0.022 A 
ATOM      8  C7  BZF d   1       1.178   2.110   0.867  0.00  0.00     0.029 A 
ATOM      9  C7A BZF d   1       0.863   2.863  -0.238  0.00  0.00     0.058 A 
ENDROOT
TORSDOF 0
ENDMDL
