MODEL 1
REMARK minimizedAffinity 14.5312824
REMARK minimizedRMSD -1
REMARK  0 active torsions:
REMARK  status: ('A' for Active; 'I' for Inactive)
ROOT
ATOM      1  O1  BZF d   1       3.318  -3.938   5.975  0.00  0.00    -0.204 OA
ATOM      2  C2  BZF d   1       4.469  -3.176   6.000  0.00  0.00     0.174 A 
ATOM      3  C3  BZF d   1       4.174  -1.861   5.959  0.00  0.00    -0.012 A 
ATOM      4  C3A BZF d   1       2.745  -1.795   5.998  0.00  0.00    -0.107 A 
ATOM      5  C4  BZF d   1       1.852  -0.762   5.999  0.00  0.00     0.055 A 
ATOM      6  C5  BZF d   1       0.522  -1.038   5.968  0.00  0.00    -0.016 A 
ATOM      7  C6  BZF d   1       0.050  -2.333   5.931  0.00  0.00     0.022 A 
ATOM      8  C7  BZF d   1       0.897  -3.391   5.933  0.00  0.00     0.029 A 
ATOM      9  C7A BZF d   1       2.241  -3.116   5.997  0.00  0.00     0.058 A 
ENDROOT
TORSDOF 0
ENDMDL
