MODEL 1
REMARK minimizedAffinity 15.7346678
REMARK minimizedRMSD -1
REMARK  0 active torsions:
REMARK  status: ('A' for Active; 'I' for Inactive)
ROOT
ATOM      1  O1  BZF d   1       2.684   3.949  -0.591  0.00  0.00    -0.204 OA
ATOM      2  C2  BZF d   1       2.470   4.717  -1.719  0.00  0.00     0.174 A 
ATOM      3  C3  BZF d   1       1.197   4.593  -2.148  0.00  0.00    -0.012 A 
ATOM      4  C3A BZF d   1       0.551   3.765  -1.176  0.00  0.00    -0.107 A 
ATOM      5  C4  BZF d   1      -0.724   3.296  -1.040  0.00  0.00     0.055 A 
ATOM      6  C5  BZF d   1      -1.011   2.449  -0.017  0.00  0.00    -0.016 A 
ATOM      7  C6  BZF d   1      -0.047   2.047   0.885  0.00  0.00     0.022 A 
ATOM      8  C7  BZF d   1       1.231   2.489   0.794  0.00  0.00     0.029 A 
ATOM      9  C7A BZF d   1       1.516   3.371  -0.219  0.00  0.00     0.058 A 
ENDROOT
TORSDOF 0
ENDMDL
