MODEL 1
REMARK minimizedAffinity 10.1142359
REMARK minimizedRMSD -1
REMARK  0 active torsions:
REMARK  status: ('A' for Active; 'I' for Inactive)
ROOT
ATOM      1  O1  BZF d   1      -0.822   1.382   2.857  0.00  0.00    -0.204 OA
ATOM      2  C2  BZF d   1       0.433   1.135   3.381  0.00  0.00     0.174 A 
ATOM      3  C3  BZF d   1       1.394   1.622   2.570  0.00  0.00    -0.012 A 
ATOM      4  C3A BZF d   1       0.695   2.290   1.516  0.00  0.00    -0.107 A 
ATOM      5  C4  BZF d   1       1.101   2.986   0.413  0.00  0.00     0.055 A 
ATOM      6  C5  BZF d   1       0.166   3.450  -0.456  0.00  0.00    -0.016 A 
ATOM      7  C6  BZF d   1      -1.182   3.233  -0.257  0.00  0.00     0.022 A 
ATOM      8  C7  BZF d   1      -1.633   2.553   0.824  0.00  0.00     0.029 A 
ATOM      9  C7A BZF d   1      -0.693   2.111   1.722  0.00  0.00     0.058 A 
ENDROOT
TORSDOF 0
ENDMDL
