MODEL 1
REMARK minimizedAffinity 14.2116461
REMARK minimizedRMSD -1
REMARK  0 active torsions:
REMARK  status: ('A' for Active; 'I' for Inactive)
ROOT
ATOM      1  O1  BZF d   1      -5.234   1.117  -4.427  0.00  0.00    -0.204 OA
ATOM      2  C2  BZF d   1      -4.865   1.190  -5.756  0.00  0.00     0.174 A 
ATOM      3  C3  BZF d   1      -4.175   2.323  -5.999  0.00  0.00    -0.012 A 
ATOM      4  C3A BZF d   1      -4.029   2.955  -4.725  0.00  0.00    -0.107 A 
ATOM      5  C4  BZF d   1      -3.422   4.107  -4.312  0.00  0.00     0.055 A 
ATOM      6  C5  BZF d   1      -3.523   4.477  -3.009  0.00  0.00    -0.016 A 
ATOM      7  C6  BZF d   1      -4.228   3.724  -2.093  0.00  0.00     0.022 A 
ATOM      8  C7  BZF d   1      -4.843   2.571  -2.454  0.00  0.00     0.029 A 
ATOM      9  C7A BZF d   1      -4.714   2.177  -3.763  0.00  0.00     0.058 A 
ENDROOT
TORSDOF 0
ENDMDL
