MODEL 1
REMARK minimizedAffinity 13.6944532
REMARK minimizedRMSD -1
REMARK  0 active torsions:
REMARK  status: ('A' for Active; 'I' for Inactive)
ROOT
ATOM      1  O1  BZF d   1       2.346   3.337  -1.946  0.00  0.00    -0.204 OA
ATOM      2  C2  BZF d   1       1.884   4.449  -2.624  0.00  0.00     0.174 A 
ATOM      3  C3  BZF d   1       0.571   4.644  -2.384  0.00  0.00    -0.012 A 
ATOM      4  C3A BZF d   1       0.210   3.642  -1.428  0.00  0.00    -0.107 A 
ATOM      5  C4  BZF d   1      -0.955   3.332  -0.787  0.00  0.00     0.055 A 
ATOM      6  C5  BZF d   1      -0.991   2.248   0.032  0.00  0.00    -0.016 A 
ATOM      7  C6  BZF d   1       0.117   1.450   0.228  0.00  0.00     0.022 A 
ATOM      8  C7  BZF d   1       1.297   1.721  -0.382  0.00  0.00     0.029 A 
ATOM      9  C7A BZF d   1       1.345   2.835  -1.184  0.00  0.00     0.058 A 
ENDROOT
TORSDOF 0
ENDMDL
