MODEL 1
REMARK minimizedAffinity 20.5053349
REMARK minimizedRMSD -1
REMARK  0 active torsions:
REMARK  status: ('A' for Active; 'I' for Inactive)
ROOT
ATOM      1  O1  BZF d   1      -5.443   2.653  -5.039  0.00  0.00    -0.204 OA
ATOM      2  C2  BZF d   1      -4.301   2.179  -5.656  0.00  0.00     0.174 A 
ATOM      3  C3  BZF d   1      -3.205   2.798  -5.172  0.00  0.00    -0.012 A 
ATOM      4  C3A BZF d   1      -3.683   3.650  -4.128  0.00  0.00    -0.107 A 
ATOM      5  C4  BZF d   1      -3.069   4.509  -3.261  0.00  0.00     0.055 A 
ATOM      6  C5  BZF d   1      -3.831   5.246  -2.411  0.00  0.00    -0.016 A 
ATOM      7  C6  BZF d   1      -5.207   5.154  -2.404  0.00  0.00     0.022 A 
ATOM      8  C7  BZF d   1      -5.861   4.313  -3.241  0.00  0.00     0.029 A 
ATOM      9  C7A BZF d   1      -5.092   3.542  -4.079  0.00  0.00     0.058 A 
ENDROOT
TORSDOF 0
ENDMDL
