MODEL 1
REMARK minimizedAffinity 4.75959444
REMARK minimizedRMSD -1
REMARK  2 active torsions:
REMARK  status: ('A' for Active; 'I' for Inactive)
REMARK    1  A    between atoms: C1_2  and  C2_3 
REMARK    2  A    between atoms: C2_3  and  C3_4 
ROOT
ATOM      1  C3  UNL d   1      -0.158   1.526   0.096  0.00  0.00    -0.075 A 
ATOM      2  C4  UNL d   1      -0.287   2.191  -1.132  0.00  0.00     0.002 A 
ATOM      3  C5  UNL d   1      -0.532   3.564  -1.172  0.00  0.00     0.002 A 
ATOM      4  C6  UNL d   1      -0.661   4.287   0.012  0.00  0.00    -0.004 A 
ATOM      5  C7  UNL d   1      -0.551   3.634   1.238  0.00  0.00     0.002 A 
ATOM      6  C8  UNL d   1      -0.302   2.261   1.281  0.00  0.00     0.002 A 
ENDROOT
BRANCH   1   7
ATOM      7  C2  UNL d   1       0.136   0.046   0.147  0.00  0.00     0.056 C 
BRANCH   7   8
ATOM      8  C1  UNL d   1       1.629  -0.295   0.103  0.00  0.00     0.007 C 
ATOM      9  C   UNL d   1       1.904  -1.792   0.137  0.00  0.00     0.009 C 
ENDBRANCH   7   8
ENDBRANCH   1   7
TORSDOF 2
ENDMDL
