MODEL 1
REMARK minimizedAffinity 9.25605679
REMARK minimizedRMSD -1
REMARK  2 active torsions:
REMARK  status: ('A' for Active; 'I' for Inactive)
REMARK    1  A    between atoms: C1_2  and  C2_3 
REMARK    2  A    between atoms: C2_3  and  C3_4 
ROOT
ATOM      1  C3  UNL d   1      -0.345   3.612   0.043  0.00  0.00    -0.075 A 
ATOM      2  C4  UNL d   1       0.374   3.736  -1.155  0.00  0.00     0.002 A 
ATOM      3  C5  UNL d   1       0.337   4.925  -1.884  0.00  0.00     0.002 A 
ATOM      4  C6  UNL d   1      -0.425   6.000  -1.431  0.00  0.00    -0.004 A 
ATOM      5  C7  UNL d   1      -1.157   5.882  -0.251  0.00  0.00     0.002 A 
ATOM      6  C8  UNL d   1      -1.118   4.695   0.482  0.00  0.00     0.002 A 
ENDROOT
BRANCH   1   7
ATOM      7  C2  UNL d   1      -0.286   2.339   0.851  0.00  0.00     0.056 C 
BRANCH   7   8
ATOM      8  C1  UNL d   1       0.875   2.287   1.849  0.00  0.00     0.007 C 
ATOM      9  C   UNL d   1       0.495   1.652   3.181  0.00  0.00     0.009 C 
ENDBRANCH   7   8
ENDBRANCH   1   7
TORSDOF 2
ENDMDL
