MODEL 1
REMARK minimizedAffinity 5.88856792
REMARK minimizedRMSD -1
REMARK  2 active torsions:
REMARK  status: ('A' for Active; 'I' for Inactive)
REMARK    1  A    between atoms: C1_2  and  C2_3 
REMARK    2  A    between atoms: C2_3  and  C3_4 
ROOT
ATOM      1  C3  UNL d   1      -1.193   4.924  -1.784  0.00  0.00    -0.075 A 
ATOM      2  C4  UNL d   1      -1.248   3.707  -1.089  0.00  0.00     0.002 A 
ATOM      3  C5  UNL d   1      -0.181   3.300  -0.287  0.00  0.00     0.002 A 
ATOM      4  C6  UNL d   1       0.955   4.098  -0.177  0.00  0.00    -0.004 A 
ATOM      5  C7  UNL d   1       1.027   5.302  -0.876  0.00  0.00     0.002 A 
ATOM      6  C8  UNL d   1      -0.040   5.713  -1.676  0.00  0.00     0.002 A 
ENDROOT
BRANCH   1   7
ATOM      7  C2  UNL d   1      -2.356   5.384  -2.630  0.00  0.00     0.056 C 
BRANCH   7   8
ATOM      8  C1  UNL d   1      -3.461   4.334  -2.795  0.00  0.00     0.007 C 
ATOM      9  C   UNL d   1      -3.958   4.207  -4.229  0.00  0.00     0.009 C 
ENDBRANCH   7   8
ENDBRANCH   1   7
TORSDOF 2
ENDMDL
