MODEL 1
REMARK minimizedAffinity 4.76727962
REMARK minimizedRMSD -1
REMARK  2 active torsions:
REMARK  status: ('A' for Active; 'I' for Inactive)
REMARK    1  A    between atoms: C1_2  and  C2_3 
REMARK    2  A    between atoms: C2_3  and  C3_4 
ROOT
ATOM      1  C3  UNL d   1      -0.275   4.737  -1.717  0.00  0.00    -0.075 A 
ATOM      2  C4  UNL d   1      -1.664   4.707  -1.908  0.00  0.00     0.002 A 
ATOM      3  C5  UNL d   1      -2.238   5.306  -3.029  0.00  0.00     0.002 A 
ATOM      4  C6  UNL d   1      -1.433   5.950  -3.967  0.00  0.00    -0.004 A 
ATOM      5  C7  UNL d   1      -0.054   5.999  -3.779  0.00  0.00     0.002 A 
ATOM      6  C8  UNL d   1       0.523   5.397  -2.660  0.00  0.00     0.002 A 
ENDROOT
BRANCH   1   7
ATOM      7  C2  UNL d   1       0.354   4.065  -0.520  0.00  0.00     0.056 C 
BRANCH   7   8
ATOM      8  C1  UNL d   1      -0.136   2.633  -0.279  0.00  0.00     0.007 C 
ATOM      9  C   UNL d   1      -0.112   2.229   1.189  0.00  0.00     0.009 C 
ENDBRANCH   7   8
ENDBRANCH   1   7
TORSDOF 2
ENDMDL
