MODEL 1
REMARK minimizedAffinity 5.47570229
REMARK minimizedRMSD -1
REMARK  2 active torsions:
REMARK  status: ('A' for Active; 'I' for Inactive)
REMARK    1  A    between atoms: C1_2  and  C2_3 
REMARK    2  A    between atoms: C2_3  and  C3_4 
ROOT
ATOM      1  C3  UNL d   1      -1.286   4.709  -1.944  0.00  0.00    -0.075 A 
ATOM      2  C4  UNL d   1      -0.289   5.647  -2.250  0.00  0.00     0.002 A 
ATOM      3  C5  UNL d   1       1.042   5.402  -1.912  0.00  0.00     0.002 A 
ATOM      4  C6  UNL d   1       1.392   4.223  -1.256  0.00  0.00    -0.004 A 
ATOM      5  C7  UNL d   1       0.407   3.292  -0.932  0.00  0.00     0.002 A 
ATOM      6  C8  UNL d   1      -0.925   3.533  -1.273  0.00  0.00     0.002 A 
ENDROOT
BRANCH   1   7
ATOM      7  C2  UNL d   1      -2.724   4.955  -2.334  0.00  0.00     0.056 C 
BRANCH   7   8
ATOM      8  C1  UNL d   1      -3.316   3.875  -3.246  0.00  0.00     0.007 C 
ATOM      9  C   UNL d   1      -4.495   3.141  -2.621  0.00  0.00     0.009 C 
ENDBRANCH   7   8
ENDBRANCH   1   7
TORSDOF 2
ENDMDL
