MODEL 1
REMARK minimizedAffinity 2.36004043
REMARK minimizedRMSD -1
REMARK  2 active torsions:
REMARK  status: ('A' for Active; 'I' for Inactive)
REMARK    1  A    between atoms: C1_2  and  C2_3 
REMARK    2  A    between atoms: C2_3  and  C3_4 
ROOT
ATOM      1  C3  UNL d   1      -1.658   5.920  -0.059  0.00  0.00    -0.075 A 
ATOM      2  C4  UNL d   1      -1.888   5.966   1.324  0.00  0.00     0.002 A 
ATOM      3  C5  UNL d   1      -3.190   5.999   1.825  0.00  0.00     0.002 A 
ATOM      4  C6  UNL d   1      -4.275   5.997   0.951  0.00  0.00    -0.004 A 
ATOM      5  C7  UNL d   1      -4.058   5.969  -0.424  0.00  0.00     0.002 A 
ATOM      6  C8  UNL d   1      -2.756   5.931  -0.928  0.00  0.00     0.002 A 
ENDROOT
BRANCH   1   7
ATOM      7  C2  UNL d   1      -0.252   5.855  -0.606  0.00  0.00     0.056 C 
BRANCH   7   8
ATOM      8  C1  UNL d   1       0.147   4.474  -1.137  0.00  0.00     0.007 C 
ATOM      9  C   UNL d   1      -0.023   3.363  -0.110  0.00  0.00     0.009 C 
ENDBRANCH   7   8
ENDBRANCH   1   7
TORSDOF 2
ENDMDL
