MODEL 1
REMARK minimizedAffinity 6.26977396
REMARK minimizedRMSD -1
REMARK  2 active torsions:
REMARK  status: ('A' for Active; 'I' for Inactive)
REMARK    1  A    between atoms: C1_2  and  C2_3 
REMARK    2  A    between atoms: C2_3  and  C3_4 
ROOT
ATOM      1  C3  UNL d   1      -0.948   4.442  -0.003  0.00  0.00    -0.075 A 
ATOM      2  C4  UNL d   1      -0.748   3.249   0.707  0.00  0.00     0.002 A 
ATOM      3  C5  UNL d   1       0.279   2.375   0.350  0.00  0.00     0.002 A 
ATOM      4  C6  UNL d   1       1.111   2.676  -0.726  0.00  0.00    -0.004 A 
ATOM      5  C7  UNL d   1       0.911   3.850  -1.450  0.00  0.00     0.002 A 
ATOM      6  C8  UNL d   1      -0.113   4.728  -1.092  0.00  0.00     0.002 A 
ENDROOT
BRANCH   1   7
ATOM      7  C2  UNL d   1      -2.039   5.406   0.397  0.00  0.00     0.056 C 
BRANCH   7   8
ATOM      8  C1  UNL d   1      -1.864   6.000   1.798  0.00  0.00     0.007 C 
ATOM      9  C   UNL d   1      -3.149   5.999   2.616  0.00  0.00     0.009 C 
ENDBRANCH   7   8
ENDBRANCH   1   7
TORSDOF 2
ENDMDL
