MODEL 1
REMARK minimizedAffinity 15.9756422
REMARK minimizedRMSD -1
REMARK  2 active torsions:
REMARK  status: ('A' for Active; 'I' for Inactive)
REMARK    1  A    between atoms: C1_2  and  C2_3 
REMARK    2  A    between atoms: C2_3  and  C3_4 
ROOT
ATOM      1  C3  UNL d   1       0.959  -4.509  -2.142  0.00  0.00    -0.075 A 
ATOM      2  C4  UNL d   1       0.778  -3.379  -1.331  0.00  0.00     0.002 A 
ATOM      3  C5  UNL d   1       1.333  -3.329  -0.052  0.00  0.00     0.002 A 
ATOM      4  C6  UNL d   1       2.065  -4.409   0.435  0.00  0.00    -0.004 A 
ATOM      5  C7  UNL d   1       2.238  -5.543  -0.355  0.00  0.00     0.002 A 
ATOM      6  C8  UNL d   1       1.688  -5.594  -1.637  0.00  0.00     0.002 A 
ENDROOT
BRANCH   1   7
ATOM      7  C2  UNL d   1       0.386  -4.558  -3.539  0.00  0.00     0.056 C 
BRANCH   7   8
ATOM      8  C1  UNL d   1       1.438  -4.448  -4.648  0.00  0.00     0.007 C 
ATOM      9  C   UNL d   1       0.847  -4.070  -6.000  0.00  0.00     0.009 C 
ENDBRANCH   7   8
ENDBRANCH   1   7
TORSDOF 2
ENDMDL
