MODEL 1
REMARK minimizedAffinity 0.470313251
REMARK minimizedRMSD -1
REMARK  1 active torsions:
REMARK  status: ('A' for Active; 'I' for Inactive)
REMARK    1  A    between atoms: C3_4  and  O_7 
ROOT
ATOM      1  C   UNL d   1      -2.601  -2.129   1.735  0.00  0.00    -0.033 A 
ATOM      2  C1  UNL d   1      -2.365  -2.963   0.641  0.00  0.00     0.039 A 
ATOM      3  C2  UNL d   1      -1.685  -2.476  -0.477  0.00  0.00    -0.080 A 
ATOM      4  C3  UNL d   1      -1.244  -1.156  -0.487  0.00  0.00     0.150 A 
ATOM      5  C4  UNL d   1      -1.471  -0.320   0.601  0.00  0.00    -0.007 A 
ATOM      6  C5  UNL d   1      -2.152  -0.808   1.716  0.00  0.00     0.039 A 
ENDROOT
BRANCH   4   7
ATOM      7  O   UNL d   1      -0.579  -0.635  -1.557  0.00  0.00    -0.526 OA
ATOM      8  H5  UNL d   1      -0.520  -1.318  -2.245  0.00  0.00     0.418 HD
ENDBRANCH   4   7
TORSDOF 1
ENDMDL
