MODEL 1
REMARK minimizedAffinity 2.40185499
REMARK minimizedRMSD -1
REMARK  1 active torsions:
REMARK  status: ('A' for Active; 'I' for Inactive)
REMARK    1  A    between atoms: C3_4  and  O_7 
ROOT
ATOM      1  C   UNL d   1       3.883  -4.622   6.000  0.00  0.00    -0.033 A 
ATOM      2  C1  UNL d   1       5.271  -4.678   5.858  0.00  0.00     0.039 A 
ATOM      3  C2  UNL d   1       6.000  -3.508   5.635  0.00  0.00    -0.080 A 
ATOM      4  C3  UNL d   1       5.330  -2.290   5.556  0.00  0.00     0.150 A 
ATOM      5  C4  UNL d   1       3.948  -2.226   5.700  0.00  0.00    -0.007 A 
ATOM      6  C5  UNL d   1       3.222  -3.396   5.922  0.00  0.00     0.039 A 
ENDROOT
BRANCH   4   7
ATOM      7  O   UNL d   1       5.998  -1.123   5.334  0.00  0.00    -0.526 OA
ATOM      8  H5  UNL d   1       6.943  -1.324   5.227  0.00  0.00     0.418 HD
ENDBRANCH   4   7
TORSDOF 1
ENDMDL
