MODEL 1
REMARK minimizedAffinity -3.71515083
REMARK minimizedRMSD -1
REMARK  1 active torsions:
REMARK  status: ('A' for Active; 'I' for Inactive)
REMARK    1  A    between atoms: C3_4  and  O_7 
ROOT
ATOM      1  C   UNL d   1      -0.938  -0.671   1.152  0.00  0.00    -0.033 A 
ATOM      2  C1  UNL d   1      -1.060  -1.851   0.415  0.00  0.00     0.039 A 
ATOM      3  C2  UNL d   1      -0.647  -1.889  -0.918  0.00  0.00    -0.080 A 
ATOM      4  C3  UNL d   1      -0.114  -0.743  -1.502  0.00  0.00     0.150 A 
ATOM      5  C4  UNL d   1       0.014   0.434  -0.772  0.00  0.00    -0.007 A 
ATOM      6  C5  UNL d   1      -0.400   0.471   0.559  0.00  0.00     0.039 A 
ENDROOT
BRANCH   4   7
ATOM      7  O   UNL d   1       0.299  -0.731  -2.801  0.00  0.00    -0.526 OA
ATOM      8  H5  UNL d   1       0.123  -1.605  -3.188  0.00  0.00     0.418 HD
ENDBRANCH   4   7
TORSDOF 1
ENDMDL
