MODEL 1
REMARK minimizedAffinity -4.39846277
REMARK minimizedRMSD -1
REMARK  1 active torsions:
REMARK  status: ('A' for Active; 'I' for Inactive)
REMARK    1  A    between atoms: C3_4  and  O_7 
ROOT
ATOM      1  C   UNL d   1      -0.858  -0.137   0.607  0.00  0.00    -0.033 A 
ATOM      2  C1  UNL d   1      -1.787  -1.102   1.000  0.00  0.00     0.039 A 
ATOM      3  C2  UNL d   1      -1.430  -2.451   1.018  0.00  0.00    -0.080 A 
ATOM      4  C3  UNL d   1      -0.141  -2.822   0.643  0.00  0.00     0.150 A 
ATOM      5  C4  UNL d   1       0.791  -1.866   0.255  0.00  0.00    -0.007 A 
ATOM      6  C5  UNL d   1       0.432  -0.519   0.236  0.00  0.00     0.039 A 
ENDROOT
BRANCH   4   7
ATOM      7  O   UNL d   1       0.252  -4.127   0.641  0.00  0.00    -0.526 OA
ATOM      8  H5  UNL d   1      -0.505  -4.678   0.904  0.00  0.00     0.418 HD
ENDBRANCH   4   7
TORSDOF 1
ENDMDL
