MODEL 1
REMARK minimizedAffinity -5.16085863
REMARK minimizedRMSD -1
REMARK  1 active torsions:
REMARK  status: ('A' for Active; 'I' for Inactive)
REMARK    1  A    between atoms: C3_4  and  O_7 
ROOT
ATOM      1  C   UNL d   1      -0.552  -2.835   0.326  0.00  0.00    -0.033 A 
ATOM      2  C1  UNL d   1       0.726  -2.405  -0.036  0.00  0.00     0.039 A 
ATOM      3  C2  UNL d   1       1.074  -1.059   0.091  0.00  0.00    -0.080 A 
ATOM      4  C3  UNL d   1       0.136  -0.154   0.582  0.00  0.00     0.150 A 
ATOM      5  C4  UNL d   1      -1.138  -0.576   0.948  0.00  0.00    -0.007 A 
ATOM      6  C5  UNL d   1      -1.483  -1.921   0.820  0.00  0.00     0.039 A 
ENDROOT
BRANCH   4   7
ATOM      7  O   UNL d   1       0.428   1.171   0.719  0.00  0.00    -0.526 OA
ATOM      8  H5  UNL d   1       1.333   1.321   0.400  0.00  0.00     0.418 HD
ENDBRANCH   4   7
TORSDOF 1
ENDMDL
