MODEL 1
REMARK minimizedAffinity -3.56015444
REMARK minimizedRMSD -1
REMARK  1 active torsions:
REMARK  status: ('A' for Active; 'I' for Inactive)
REMARK    1  A    between atoms: C3_4  and  O_7 
ROOT
ATOM      1  C   UNL d   1       0.047   0.331  -0.568  0.00  0.00    -0.033 A 
ATOM      2  C1  UNL d   1      -0.801  -0.016   0.486  0.00  0.00     0.039 A 
ATOM      3  C2  UNL d   1      -0.750  -1.300   1.031  0.00  0.00    -0.080 A 
ATOM      4  C3  UNL d   1       0.153  -2.226   0.516  0.00  0.00     0.150 A 
ATOM      5  C4  UNL d   1       1.003  -1.886  -0.532  0.00  0.00    -0.007 A 
ATOM      6  C5  UNL d   1       0.950  -0.603  -1.076  0.00  0.00     0.039 A 
ENDROOT
BRANCH   4   7
ATOM      7  O   UNL d   1       0.236  -3.493   1.012  0.00  0.00    -0.526 OA
ATOM      8  H5  UNL d   1      -0.430  -3.593   1.712  0.00  0.00     0.418 HD
ENDBRANCH   4   7
TORSDOF 1
ENDMDL
