MODEL 1
REMARK minimizedAffinity -4.60285521
REMARK minimizedRMSD -1
REMARK  1 active torsions:
REMARK  status: ('A' for Active; 'I' for Inactive)
REMARK    1  A    between atoms: C3_4  and  O_7 
ROOT
ATOM      1  C   UNL d   1       0.479  -0.947  -0.274  0.00  0.00    -0.033 A 
ATOM      2  C1  UNL d   1      -0.456  -0.212   0.457  0.00  0.00     0.039 A 
ATOM      3  C2  UNL d   1      -1.522  -0.862   1.084  0.00  0.00    -0.080 A 
ATOM      4  C3  UNL d   1      -1.640  -2.244   0.973  0.00  0.00     0.150 A 
ATOM      5  C4  UNL d   1      -0.709  -2.983   0.250  0.00  0.00    -0.007 A 
ATOM      6  C5  UNL d   1       0.353  -2.333  -0.376  0.00  0.00     0.039 A 
ENDROOT
BRANCH   4   7
ATOM      7  O   UNL d   1      -2.665  -2.922   1.563  0.00  0.00    -0.526 OA
ATOM      8  H5  UNL d   1      -3.245  -2.279   2.004  0.00  0.00     0.418 HD
ENDBRANCH   4   7
TORSDOF 1
ENDMDL
