MODEL 1
REMARK minimizedAffinity -4.97692966
REMARK minimizedRMSD -1
REMARK  1 active torsions:
REMARK  status: ('A' for Active; 'I' for Inactive)
REMARK    1  A    between atoms: C3_4  and  O_7 
ROOT
ATOM      1  C   UNL d   1      -0.073   0.192  -0.461  0.00  0.00    -0.033 A 
ATOM      2  C1  UNL d   1      -0.838  -0.052   0.681  0.00  0.00     0.039 A 
ATOM      3  C2  UNL d   1      -0.977  -1.354   1.166  0.00  0.00    -0.080 A 
ATOM      4  C3  UNL d   1      -0.345  -2.401   0.502  0.00  0.00     0.150 A 
ATOM      5  C4  UNL d   1       0.422  -2.166  -0.634  0.00  0.00    -0.007 A 
ATOM      6  C5  UNL d   1       0.559  -0.865  -1.118  0.00  0.00     0.039 A 
ENDROOT
BRANCH   4   7
ATOM      7  O   UNL d   1      -0.455  -3.689   0.936  0.00  0.00    -0.526 OA
ATOM      8  H5  UNL d   1      -1.039  -3.704   1.713  0.00  0.00     0.418 HD
ENDBRANCH   4   7
TORSDOF 1
ENDMDL
