MODEL 1
REMARK minimizedAffinity -4.36218596
REMARK minimizedRMSD -1
REMARK  1 active torsions:
REMARK  status: ('A' for Active; 'I' for Inactive)
REMARK    1  A    between atoms: C3_4  and  O_7 
ROOT
ATOM      1  C   UNL d   1      -0.694   0.108   0.387  0.00  0.00    -0.033 A 
ATOM      2  C1  UNL d   1      -1.595  -0.877   0.799  0.00  0.00     0.039 A 
ATOM      3  C2  UNL d   1      -1.171  -2.200   0.937  0.00  0.00    -0.080 A 
ATOM      4  C3  UNL d   1       0.155  -2.524   0.662  0.00  0.00     0.150 A 
ATOM      5  C4  UNL d   1       1.058  -1.548   0.255  0.00  0.00    -0.007 A 
ATOM      6  C5  UNL d   1       0.633  -0.227   0.117  0.00  0.00     0.039 A 
ENDROOT
BRANCH   4   7
ATOM      7  O   UNL d   1       0.614  -3.803   0.777  0.00  0.00    -0.526 OA
ATOM      8  H5  UNL d   1      -0.127  -4.374   1.039  0.00  0.00     0.418 HD
ENDBRANCH   4   7
TORSDOF 1
ENDMDL
