MODEL 1
REMARK minimizedAffinity -4.31722498
REMARK minimizedRMSD -1
REMARK  1 active torsions:
REMARK  status: ('A' for Active; 'I' for Inactive)
REMARK    1  A    between atoms: C3_4  and  O_7 
ROOT
ATOM      1  C   UNL d   1      -0.636   0.012  -0.009  0.00  0.00    -0.033 A 
ATOM      2  C1  UNL d   1       0.239  -0.691  -0.838  0.00  0.00     0.039 A 
ATOM      3  C2  UNL d   1       0.632  -1.988  -0.501  0.00  0.00    -0.080 A 
ATOM      4  C3  UNL d   1       0.142  -2.569   0.665  0.00  0.00     0.150 A 
ATOM      5  C4  UNL d   1      -0.734  -1.875   1.494  0.00  0.00    -0.007 A 
ATOM      6  C5  UNL d   1      -1.124  -0.580   1.156  0.00  0.00     0.039 A 
ENDROOT
BRANCH   4   7
ATOM      7  O   UNL d   1       0.501  -3.830   1.038  0.00  0.00    -0.526 OA
ATOM      8  H5  UNL d   1       1.132  -4.176   0.386  0.00  0.00     0.418 HD
ENDBRANCH   4   7
TORSDOF 1
ENDMDL
