MODEL 1
REMARK minimizedAffinity -4.40892935
REMARK minimizedRMSD -1
REMARK  1 active torsions:
REMARK  status: ('A' for Active; 'I' for Inactive)
REMARK    1  A    between atoms: C3_4  and  O_7 
ROOT
ATOM      1  C   UNL d   1      -1.109  -3.404   0.073  0.00  0.00    -0.033 A 
ATOM      2  C1  UNL d   1      -1.323  -2.664   1.237  0.00  0.00     0.039 A 
ATOM      3  C2  UNL d   1      -0.992  -1.308   1.276  0.00  0.00    -0.080 A 
ATOM      4  C3  UNL d   1      -0.449  -0.705   0.145  0.00  0.00     0.150 A 
ATOM      5  C4  UNL d   1      -0.236  -1.435  -1.020  0.00  0.00    -0.007 A 
ATOM      6  C5  UNL d   1      -0.567  -2.789  -1.056  0.00  0.00     0.039 A 
ENDROOT
BRANCH   4   7
ATOM      7  O   UNL d   1      -0.106   0.614   0.136  0.00  0.00    -0.526 OA
ATOM      8  H5  UNL d   1      -0.282   0.984   1.017  0.00  0.00     0.418 HD
ENDBRANCH   4   7
TORSDOF 1
ENDMDL
