MODEL 1
REMARK minimizedAffinity -4.00630236
REMARK minimizedRMSD -1
REMARK  1 active torsions:
REMARK  status: ('A' for Active; 'I' for Inactive)
REMARK    1  A    between atoms: C3_4  and  O_7 
ROOT
ATOM      1  C   UNL d   1      -0.799   0.265   0.154  0.00  0.00    -0.033 A 
ATOM      2  C1  UNL d   1       0.247  -0.370  -0.518  0.00  0.00     0.039 A 
ATOM      3  C2  UNL d   1       0.576  -1.692  -0.211  0.00  0.00    -0.080 A 
ATOM      4  C3  UNL d   1      -0.149  -2.367   0.768  0.00  0.00     0.150 A 
ATOM      5  C4  UNL d   1      -1.195  -1.742   1.439  0.00  0.00    -0.007 A 
ATOM      6  C5  UNL d   1      -1.521  -0.421   1.132  0.00  0.00     0.039 A 
ENDROOT
BRANCH   4   7
ATOM      7  O   UNL d   1       0.138  -3.656   1.105  0.00  0.00    -0.526 OA
ATOM      8  H5  UNL d   1       0.902  -3.949   0.580  0.00  0.00     0.418 HD
ENDBRANCH   4   7
TORSDOF 1
ENDMDL
