MODEL 1
REMARK minimizedAffinity -5.34113312
REMARK minimizedRMSD -1
REMARK  1 active torsions:
REMARK  status: ('A' for Active; 'I' for Inactive)
REMARK    1  A    between atoms: C3_4  and  O_7 
ROOT
ATOM      1  C   UNL d   1      -0.250  -2.943   0.003  0.00  0.00    -0.033 A 
ATOM      2  C1  UNL d   1      -0.872  -2.249   1.043  0.00  0.00     0.039 A 
ATOM      3  C2  UNL d   1      -0.878  -0.853   1.047  0.00  0.00    -0.080 A 
ATOM      4  C3  UNL d   1      -0.260  -0.164   0.007  0.00  0.00     0.150 A 
ATOM      5  C4  UNL d   1       0.358  -0.849  -1.034  0.00  0.00    -0.007 A 
ATOM      6  C5  UNL d   1       0.364  -2.243  -1.036  0.00  0.00     0.039 A 
ENDROOT
BRANCH   4   7
ATOM      7  O   UNL d   1      -0.236   1.199  -0.030  0.00  0.00    -0.526 OA
ATOM      8  H5  UNL d   1      -0.676   1.536   0.768  0.00  0.00     0.418 HD
ENDBRANCH   4   7
TORSDOF 1
ENDMDL
