MODEL 1
REMARK minimizedAffinity -5.15383673
REMARK minimizedRMSD -1
REMARK  1 active torsions:
REMARK  status: ('A' for Active; 'I' for Inactive)
REMARK    1  A    between atoms: C3_4  and  O_7 
ROOT
ATOM      1  C   UNL d   1       0.683  -1.616  -1.773  0.00  0.00    -0.033 A 
ATOM      2  C1  UNL d   1       0.308  -2.952  -1.613  0.00  0.00     0.039 A 
ATOM      3  C2  UNL d   1      -0.385  -3.352  -0.469  0.00  0.00    -0.080 A 
ATOM      4  C3  UNL d   1      -0.698  -2.409   0.506  0.00  0.00     0.150 A 
ATOM      5  C4  UNL d   1      -0.331  -1.076   0.351  0.00  0.00    -0.007 A 
ATOM      6  C5  UNL d   1       0.363  -0.678  -0.791  0.00  0.00     0.039 A 
ENDROOT
BRANCH   4   7
ATOM      7  O   UNL d   1      -1.369  -2.753   1.641  0.00  0.00    -0.526 OA
ATOM      8  H5  UNL d   1      -1.532  -3.711   1.624  0.00  0.00     0.418 HD
ENDBRANCH   4   7
TORSDOF 1
ENDMDL
