MODEL 1
REMARK minimizedAffinity -5.30097866
REMARK minimizedRMSD -1
REMARK  1 active torsions:
REMARK  status: ('A' for Active; 'I' for Inactive)
REMARK    1  A    between atoms: C3_4  and  O_7 
ROOT
ATOM      1  C   UNL d   1      -0.121  -2.561   1.196  0.00  0.00    -0.033 A 
ATOM      2  C1  UNL d   1       0.011  -1.227   0.808  0.00  0.00     0.039 A 
ATOM      3  C2  UNL d   1       0.127  -0.899  -0.544  0.00  0.00    -0.080 A 
ATOM      4  C3  UNL d   1       0.109  -1.914  -1.497  0.00  0.00     0.150 A 
ATOM      5  C4  UNL d   1      -0.027  -3.245  -1.118  0.00  0.00    -0.007 A 
ATOM      6  C5  UNL d   1      -0.142  -3.570   0.233  0.00  0.00     0.039 A 
ENDROOT
BRANCH   4   7
ATOM      7  O   UNL d   1       0.224  -1.643  -2.828  0.00  0.00    -0.526 OA
ATOM      8  H5  UNL d   1       0.339  -0.684  -2.938  0.00  0.00     0.418 HD
ENDBRANCH   4   7
TORSDOF 1
ENDMDL
