MODEL 1
REMARK minimizedAffinity -4.77968454
REMARK minimizedRMSD -1
REMARK  1 active torsions:
REMARK  status: ('A' for Active; 'I' for Inactive)
REMARK    1  A    between atoms: C3_4  and  O_7 
ROOT
ATOM      1  C   UNL d   1       1.673   2.697  -0.111  0.00  0.00    -0.033 A 
ATOM      2  C1  UNL d   1       2.578   3.053   0.891  0.00  0.00     0.039 A 
ATOM      3  C2  UNL d   1       2.112   3.533   2.117  0.00  0.00    -0.080 A 
ATOM      4  C3  UNL d   1       0.742   3.652   2.328  0.00  0.00     0.150 A 
ATOM      5  C4  UNL d   1      -0.166   3.296   1.335  0.00  0.00    -0.007 A 
ATOM      6  C5  UNL d   1       0.301   2.817   0.112  0.00  0.00     0.039 A 
ENDROOT
BRANCH   4   7
ATOM      7  O   UNL d   1       0.240   4.121   3.505  0.00  0.00    -0.526 OA
ATOM      8  H5  UNL d   1       0.984   4.354   4.086  0.00  0.00     0.418 HD
ENDBRANCH   4   7
TORSDOF 1
ENDMDL
