MODEL 1
REMARK minimizedAffinity -4.03854895
REMARK minimizedRMSD -1
REMARK  1 active torsions:
REMARK  status: ('A' for Active; 'I' for Inactive)
REMARK    1  A    between atoms: C3_4  and  O_7 
ROOT
ATOM      1  C   UNL d   1       1.252   1.644  -0.791  0.00  0.00    -0.033 A 
ATOM      2  C1  UNL d   1       2.216   2.564  -0.371  0.00  0.00     0.039 A 
ATOM      3  C2  UNL d   1       1.919   3.473   0.646  0.00  0.00    -0.080 A 
ATOM      4  C3  UNL d   1       0.658   3.452   1.235  0.00  0.00     0.150 A 
ATOM      5  C4  UNL d   1      -0.305   2.536   0.824  0.00  0.00    -0.007 A 
ATOM      6  C5  UNL d   1      -0.008   1.630  -0.193  0.00  0.00     0.039 A 
ENDROOT
BRANCH   4   7
ATOM      7  O   UNL d   1       0.320   4.323   2.228  0.00  0.00    -0.526 OA
ATOM      8  H5  UNL d   1       1.074   4.915   2.388  0.00  0.00     0.418 HD
ENDBRANCH   4   7
TORSDOF 1
ENDMDL
