MODEL 1
REMARK minimizedAffinity 11.4594469
REMARK minimizedRMSD -1
REMARK  0 active torsions:
REMARK  status: ('A' for Active; 'I' for Inactive)
ROOT
ATOM      1  N1  IND d   1       2.476   5.055  -1.117  0.00  0.00    -0.196 N 
ATOM      2  C2  IND d   1       1.921   5.998  -1.936  0.00  0.00     0.054 A 
ATOM      3  C3  IND d   1       0.575   6.000  -1.808  0.00  0.00    -0.031 A 
ATOM      4  C4  IND d   1      -0.920   4.611  -0.239  0.00  0.00     0.051 A 
ATOM      5  C5  IND d   1      -0.874   3.592   0.670  0.00  0.00    -0.031 A 
ATOM      6  C6  IND d   1       0.315   2.997   1.039  0.00  0.00     0.015 A 
ATOM      7  C7  IND d   1       1.510   3.410   0.519  0.00  0.00    -0.016 A 
ATOM      8  C8  IND d   1       1.466   4.441  -0.409  0.00  0.00    -0.047 A 
ATOM      9  C9  IND d   1       0.258   5.019  -0.819  0.00  0.00    -0.096 A 
ATOM     10  HN1 IND d   1       3.314   4.875  -1.054  0.00  0.00     0.298 HD
ENDROOT
TORSDOF 0
ENDMDL
