MODEL 1
REMARK minimizedAffinity 5.30267096
REMARK minimizedRMSD -1
REMARK  0 active torsions:
REMARK  status: ('A' for Active; 'I' for Inactive)
ROOT
ATOM      1  N1  IND d   1      -5.976   2.046  -4.196  0.00  0.00    -0.196 N 
ATOM      2  C2  IND d   1      -5.059   1.479  -3.356  0.00  0.00     0.054 A 
ATOM      3  C3  IND d   1      -3.954   2.254  -3.273  0.00  0.00    -0.031 A 
ATOM      4  C4  IND d   1      -3.478   4.543  -4.350  0.00  0.00     0.051 A 
ATOM      5  C5  IND d   1      -4.000   5.450  -5.229  0.00  0.00    -0.031 A 
ATOM      6  C6  IND d   1      -5.234   5.266  -5.818  0.00  0.00     0.015 A 
ATOM      7  C7  IND d   1      -6.000   4.169  -5.541  0.00  0.00    -0.016 A 
ATOM      8  C8  IND d   1      -5.469   3.243  -4.654  0.00  0.00    -0.047 A 
ATOM      9  C9  IND d   1      -4.199   3.403  -4.085  0.00  0.00    -0.096 A 
ATOM     10  HN1 IND d   1      -6.740   1.712  -4.404  0.00  0.00     0.298 HD
ENDROOT
TORSDOF 0
ENDMDL
