MODEL 1
REMARK minimizedAffinity 13.3870411
REMARK minimizedRMSD -1
REMARK  0 active torsions:
REMARK  status: ('A' for Active; 'I' for Inactive)
ROOT
ATOM      1  N1  IND d   1      -4.810   5.587  -5.335  0.00  0.00    -0.196 N 
ATOM      2  C2  IND d   1      -5.995   4.969  -5.627  0.00  0.00     0.054 A 
ATOM      3  C3  IND d   1      -6.000   3.707  -5.141  0.00  0.00    -0.031 A 
ATOM      4  C4  IND d   1      -4.214   2.484  -3.748  0.00  0.00     0.051 A 
ATOM      5  C5  IND d   1      -2.945   2.626  -3.259  0.00  0.00    -0.031 A 
ATOM      6  C6  IND d   1      -2.220   3.786  -3.439  0.00  0.00     0.015 A 
ATOM      7  C7  IND d   1      -2.743   4.857  -4.107  0.00  0.00    -0.016 A 
ATOM      8  C8  IND d   1      -4.028   4.714  -4.611  0.00  0.00    -0.047 A 
ATOM      9  C9  IND d   1      -4.753   3.524  -4.468  0.00  0.00    -0.096 A 
ATOM     10  HN1 IND d   1      -4.591   6.386  -5.565  0.00  0.00     0.298 HD
ENDROOT
TORSDOF 0
ENDMDL
