MODEL 1
REMARK minimizedAffinity 3.84288144
REMARK minimizedRMSD -1
REMARK  0 active torsions:
REMARK  status: ('A' for Active; 'I' for Inactive)
ROOT
ATOM      1  N1  IND d   1       0.892   1.002  -0.790  0.00  0.00    -0.196 N 
ATOM      2  C2  IND d   1       1.289   0.490   0.414  0.00  0.00     0.054 A 
ATOM      3  C3  IND d   1       1.325  -0.860   0.362  0.00  0.00    -0.031 A 
ATOM      4  C4  IND d   1       0.874  -2.434  -1.624  0.00  0.00     0.051 A 
ATOM      5  C5  IND d   1       0.446  -2.435  -2.922  0.00  0.00    -0.031 A 
ATOM      6  C6  IND d   1       0.140  -1.267  -3.590  0.00  0.00     0.015 A 
ATOM      7  C7  IND d   1       0.264  -0.048  -2.986  0.00  0.00    -0.016 A 
ATOM      8  C8  IND d   1       0.692  -0.043  -1.666  0.00  0.00    -0.047 A 
ATOM      9  C9  IND d   1       0.962  -1.228  -0.969  0.00  0.00    -0.096 A 
ATOM     10  HN1 IND d   1       0.786   1.836  -0.971  0.00  0.00     0.298 HD
ENDROOT
TORSDOF 0
ENDMDL
