MODEL 1
REMARK minimizedAffinity 4.4724741
REMARK minimizedRMSD -1
REMARK  0 active torsions:
REMARK  status: ('A' for Active; 'I' for Inactive)
ROOT
ATOM      1  N1  IND d   1       1.604  -0.452  -1.946  0.00  0.00    -0.196 N 
ATOM      2  C2  IND d   1       2.160  -0.582  -0.704  0.00  0.00     0.054 A 
ATOM      3  C3  IND d   1       1.613   0.310   0.152  0.00  0.00    -0.031 A 
ATOM      4  C4  IND d   1      -0.280   2.008  -0.243  0.00  0.00     0.051 A 
ATOM      5  C5  IND d   1      -1.079   2.522  -1.227  0.00  0.00    -0.031 A 
ATOM      6  C6  IND d   1      -1.024   2.059  -2.526  0.00  0.00     0.015 A 
ATOM      7  C7  IND d   1      -0.174   1.054  -2.889  0.00  0.00    -0.016 A 
ATOM      8  C8  IND d   1       0.643   0.534  -1.895  0.00  0.00    -0.047 A 
ATOM      9  C9  IND d   1       0.623   1.029  -0.584  0.00  0.00    -0.096 A 
ATOM     10  HN1 IND d   1       1.818  -0.908  -2.642  0.00  0.00     0.298 HD
ENDROOT
TORSDOF 0
ENDMDL
