MODEL 1
REMARK minimizedAffinity 8.34165764
REMARK minimizedRMSD -1
REMARK  0 active torsions:
REMARK  status: ('A' for Active; 'I' for Inactive)
ROOT
ATOM      1  N1  IND d   1       1.788   4.824  -1.962  0.00  0.00    -0.196 N 
ATOM      2  C2  IND d   1       2.229   5.999  -1.421  0.00  0.00     0.054 A 
ATOM      3  C3  IND d   1       2.045   6.000  -0.082  0.00  0.00    -0.031 A 
ATOM      4  C4  IND d   1       1.132   4.138   1.444  0.00  0.00     0.051 A 
ATOM      5  C5  IND d   1       0.567   2.894   1.406  0.00  0.00    -0.031 A 
ATOM      6  C6  IND d   1       0.378   2.215   0.219  0.00  0.00     0.015 A 
ATOM      7  C7  IND d   1       0.760   2.753  -0.978  0.00  0.00    -0.016 A 
ATOM      8  C8  IND d   1       1.328   4.018  -0.943  0.00  0.00    -0.047 A 
ATOM      9  C9  IND d   1       1.483   4.730   0.253  0.00  0.00    -0.096 A 
ATOM     10  HN1 IND d   1       1.796   4.622  -2.798  0.00  0.00     0.298 HD
ENDROOT
TORSDOF 0
ENDMDL
