MODEL 1
REMARK minimizedAffinity 13.6112881
REMARK minimizedRMSD -1
REMARK  0 active torsions:
REMARK  status: ('A' for Active; 'I' for Inactive)
ROOT
ATOM      1  C   UNL d   1      -4.089   5.603  -4.976  0.00  0.00    -0.002 A 
ATOM      2  C1  UNL d   1      -4.577   4.768  -5.971  0.00  0.00     0.010 A 
ATOM      3  C2  UNL d   1      -4.229   3.416  -5.999  0.00  0.00     0.041 A 
ATOM      4  C3  UNL d   1      -3.375   2.912  -4.999  0.00  0.00    -0.075 A 
ATOM      5  S   UNL d   1      -2.815   1.290  -4.832  0.00  0.00     0.015 SA
ATOM      6  C4  UNL d   1      -1.914   1.667  -3.435  0.00  0.00     0.022 A 
ATOM      7  C5  UNL d   1      -2.026   2.993  -3.090  0.00  0.00     0.026 A 
ATOM      8  C6  UNL d   1      -2.871   3.733  -3.986  0.00  0.00    -0.082 A 
ATOM      9  C7  UNL d   1      -3.241   5.099  -3.986  0.00  0.00     0.045 A 
ENDROOT
TORSDOF 0
ENDMDL
