MODEL 1
REMARK minimizedAffinity 19.410635
REMARK minimizedRMSD -1
REMARK  0 active torsions:
REMARK  status: ('A' for Active; 'I' for Inactive)
ROOT
ATOM      1  C   UNL d   1      -3.061  -0.087  -0.632  0.00  0.00    -0.002 A 
ATOM      2  C1  UNL d   1      -2.397  -1.045  -1.386  0.00  0.00     0.010 A 
ATOM      3  C2  UNL d   1      -1.735  -0.690  -2.562  0.00  0.00     0.041 A 
ATOM      4  C3  UNL d   1      -1.749   0.658  -2.972  0.00  0.00    -0.075 A 
ATOM      5  S   UNL d   1      -1.005   1.325  -4.377  0.00  0.00     0.015 SA
ATOM      6  C4  UNL d   1      -1.549   2.898  -4.009  0.00  0.00     0.022 A 
ATOM      7  C5  UNL d   1      -2.282   2.931  -2.846  0.00  0.00     0.026 A 
ATOM      8  C6  UNL d   1      -2.409   1.641  -2.229  0.00  0.00    -0.082 A 
ATOM      9  C7  UNL d   1      -3.072   1.249  -1.041  0.00  0.00     0.045 A 
ENDROOT
TORSDOF 0
ENDMDL
