MODEL 1
REMARK minimizedAffinity 14.9699945
REMARK minimizedRMSD -1
REMARK  0 active torsions:
REMARK  status: ('A' for Active; 'I' for Inactive)
ROOT
ATOM      1  C   UNL d   1       4.210  -4.297   0.748  0.00  0.00    -0.002 A 
ATOM      2  C1  UNL d   1       3.149  -5.190   0.694  0.00  0.00     0.010 A 
ATOM      3  C2  UNL d   1       1.838  -4.748   0.881  0.00  0.00     0.041 A 
ATOM      4  C3  UNL d   1       1.609  -3.379   1.124  0.00  0.00    -0.075 A 
ATOM      5  S   UNL d   1       0.087  -2.610   1.381  0.00  0.00     0.015 SA
ATOM      6  C4  UNL d   1       0.809  -1.078   1.568  0.00  0.00     0.022 A 
ATOM      7  C5  UNL d   1       2.177  -1.133   1.441  0.00  0.00     0.026 A 
ATOM      8  C6  UNL d   1       2.660  -2.461   1.182  0.00  0.00    -0.082 A 
ATOM      9  C7  UNL d   1       3.978  -2.940   0.989  0.00  0.00     0.045 A 
ENDROOT
TORSDOF 0
ENDMDL
