MODEL 1
REMARK minimizedAffinity 11.4011908
REMARK minimizedRMSD -1
REMARK  0 active torsions:
REMARK  status: ('A' for Active; 'I' for Inactive)
ROOT
ATOM      1  C2' OXE d   1      -1.955   2.996  -3.744  0.00  0.00     0.078 C 
ATOM      2  C1' OXE d   1      -4.097   1.200  -3.484  0.00  0.00     0.078 C 
ATOM      3  C1  OXE d   1      -4.418   2.631  -3.838  0.00  0.00    -0.078 A 
ATOM      4  C2  OXE d   1      -3.367   3.513  -3.918  0.00  0.00    -0.078 A 
ATOM      5  C3  OXE d   1      -3.602   4.832  -4.296  0.00  0.00     0.003 A 
ATOM      6  C4  OXE d   1      -4.911   5.304  -4.445  0.00  0.00    -0.002 A 
ATOM      7  C5  OXE d   1      -5.998   4.431  -4.329  0.00  0.00    -0.002 A 
ATOM      8  C6  OXE d   1      -5.767   3.085  -4.069  0.00  0.00     0.003 A 
ENDROOT
TORSDOF 0
ENDMDL
