MODEL 1
REMARK minimizedAffinity 12.2832375
REMARK minimizedRMSD -1
REMARK  0 active torsions:
REMARK  status: ('A' for Active; 'I' for Inactive)
ROOT
ATOM      1  C2' OXE d   1      -1.530   3.388  -3.469  0.00  0.00     0.078 C 
ATOM      2  C1' OXE d   1      -1.679   4.621  -5.986  0.00  0.00     0.078 C 
ATOM      3  C1  OXE d   1      -2.965   4.137  -5.362  0.00  0.00    -0.078 A 
ATOM      4  C2  OXE d   1      -2.876   3.493  -4.151  0.00  0.00    -0.078 A 
ATOM      5  C3  OXE d   1      -4.037   3.076  -3.506  0.00  0.00     0.003 A 
ATOM      6  C4  OXE d   1      -5.278   3.168  -4.149  0.00  0.00    -0.002 A 
ATOM      7  C5  OXE d   1      -5.385   3.785  -5.400  0.00  0.00    -0.002 A 
ATOM      8  C6  OXE d   1      -4.246   4.312  -6.000  0.00  0.00     0.003 A 
ENDROOT
TORSDOF 0
ENDMDL
