MODEL 1
REMARK minimizedAffinity 4.61818171
REMARK minimizedRMSD -1
REMARK  0 active torsions:
REMARK  status: ('A' for Active; 'I' for Inactive)
ROOT
ATOM      1  C2' OXE d   1      -1.506   2.069   3.594  0.00  0.00     0.078 C 
ATOM      2  C1' OXE d   1      -3.858   0.744   2.824  0.00  0.00     0.078 C 
ATOM      3  C1  OXE d   1      -2.637  -0.096   3.105  0.00  0.00    -0.078 A 
ATOM      4  C2  OXE d   1      -1.478   0.564   3.436  0.00  0.00    -0.078 A 
ATOM      5  C3  OXE d   1      -0.337  -0.165   3.759  0.00  0.00     0.003 A 
ATOM      6  C4  OXE d   1      -0.317  -1.556   3.601  0.00  0.00    -0.002 A 
ATOM      7  C5  OXE d   1      -1.475  -2.245   3.226  0.00  0.00    -0.002 A 
ATOM      8  C6  OXE d   1      -2.652  -1.535   3.017  0.00  0.00     0.003 A 
ENDROOT
TORSDOF 0
ENDMDL
