MODEL 1
REMARK minimizedAffinity 7.70375013
REMARK minimizedRMSD -1
REMARK  0 active torsions:
REMARK  status: ('A' for Active; 'I' for Inactive)
ROOT
ATOM      1  C2' OXE d   1       3.984  -3.732   3.105  0.00  0.00     0.078 C 
ATOM      2  C1' OXE d   1       1.937  -3.291   1.235  0.00  0.00     0.078 C 
ATOM      3  C1  OXE d   1       3.258  -3.808   0.723  0.00  0.00    -0.078 A 
ATOM      4  C2  OXE d   1       4.269  -3.977   1.639  0.00  0.00    -0.078 A 
ATOM      5  C3  OXE d   1       5.490  -4.504   1.229  0.00  0.00     0.003 A 
ATOM      6  C4  OXE d   1       5.749  -4.719  -0.131  0.00  0.00    -0.002 A 
ATOM      7  C5  OXE d   1       4.746  -4.516  -1.085  0.00  0.00    -0.002 A 
ATOM      8  C6  OXE d   1       3.485  -4.102  -0.670  0.00  0.00     0.003 A 
ENDROOT
TORSDOF 0
ENDMDL
