MODEL 1
REMARK minimizedAffinity 4.09818649
REMARK minimizedRMSD -1
REMARK  0 active torsions:
REMARK  status: ('A' for Active; 'I' for Inactive)
ROOT
ATOM      1  C2' OXE d   1       3.702  -4.264   2.571  0.00  0.00     0.078 C 
ATOM      2  C1' OXE d   1       3.518  -2.679   4.881  0.00  0.00     0.078 C 
ATOM      3  C1  OXE d   1       2.418  -2.560   3.856  0.00  0.00    -0.078 A 
ATOM      4  C2  OXE d   1       2.540  -3.304   2.708  0.00  0.00    -0.078 A 
ATOM      5  C3  OXE d   1       1.526  -3.273   1.755  0.00  0.00     0.003 A 
ATOM      6  C4  OXE d   1       0.459  -2.375   1.884  0.00  0.00    -0.002 A 
ATOM      7  C5  OXE d   1       0.337  -1.578   3.027  0.00  0.00    -0.002 A 
ATOM      8  C6  OXE d   1       1.283  -1.689   4.040  0.00  0.00     0.003 A 
ENDROOT
TORSDOF 0
ENDMDL
