MODEL 1
REMARK minimizedAffinity 9.89875889
REMARK minimizedRMSD -1
REMARK  0 active torsions:
REMARK  status: ('A' for Active; 'I' for Inactive)
ROOT
ATOM      1  C2' OXE d   1       1.954  -5.406   1.910  0.00  0.00     0.078 C 
ATOM      2  C1' OXE d   1       1.596  -2.625   1.757  0.00  0.00     0.078 C 
ATOM      3  C1  OXE d   1       2.988  -3.168   1.551  0.00  0.00    -0.078 A 
ATOM      4  C2  OXE d   1       3.162  -4.525   1.674  0.00  0.00    -0.078 A 
ATOM      5  C3  OXE d   1       4.415  -5.084   1.439  0.00  0.00     0.003 A 
ATOM      6  C4  OXE d   1       5.530  -4.262   1.231  0.00  0.00    -0.002 A 
ATOM      7  C5  OXE d   1       5.381  -2.874   1.141  0.00  0.00    -0.002 A 
ATOM      8  C6  OXE d   1       4.113  -2.315   1.256  0.00  0.00     0.003 A 
ENDROOT
TORSDOF 0
ENDMDL
