MODEL 1
REMARK minimizedAffinity 2.19386792
REMARK minimizedRMSD -1
REMARK  0 active torsions:
REMARK  status: ('A' for Active; 'I' for Inactive)
ROOT
ATOM      1  C2' OXE d   1      -1.686  -4.292   3.145  0.00  0.00     0.078 C 
ATOM      2  C1' OXE d   1      -1.115  -1.558   3.423  0.00  0.00     0.078 C 
ATOM      3  C1  OXE d   1      -0.079  -2.428   2.758  0.00  0.00    -0.078 A 
ATOM      4  C2  OXE d   1      -0.347  -3.773   2.668  0.00  0.00    -0.078 A 
ATOM      5  C3  OXE d   1       0.551  -4.613   2.014  0.00  0.00     0.003 A 
ATOM      6  C4  OXE d   1       1.792  -4.126   1.585  0.00  0.00    -0.002 A 
ATOM      7  C5  OXE d   1       2.101  -2.767   1.702  0.00  0.00    -0.002 A 
ATOM      8  C6  OXE d   1       1.161  -1.899   2.247  0.00  0.00     0.003 A 
ENDROOT
TORSDOF 0
ENDMDL
