MODEL 1
REMARK minimizedAffinity 15.176897
REMARK minimizedRMSD -1
REMARK  0 active torsions:
REMARK  status: ('A' for Active; 'I' for Inactive)
ROOT
ATOM      1  C2' OXE d   1      -3.628   1.373  -1.611  0.00  0.00     0.078 C 
ATOM      2  C1' OXE d   1      -2.394  -1.072  -0.993  0.00  0.00     0.078 C 
ATOM      3  C1  OXE d   1      -3.462  -1.072  -2.058  0.00  0.00    -0.078 A 
ATOM      4  C2  OXE d   1      -4.093   0.120  -2.321  0.00  0.00    -0.078 A 
ATOM      5  C3  OXE d   1      -5.047   0.186  -3.332  0.00  0.00     0.003 A 
ATOM      6  C4  OXE d   1      -5.479  -0.979  -3.977  0.00  0.00    -0.002 A 
ATOM      7  C5  OXE d   1      -4.877  -2.210  -3.696  0.00  0.00    -0.002 A 
ATOM      8  C6  OXE d   1      -3.840  -2.267  -2.772  0.00  0.00     0.003 A 
ENDROOT
TORSDOF 0
ENDMDL
