MODEL 1
REMARK minimizedAffinity 5.13041496
REMARK minimizedRMSD -1
REMARK  0 active torsions:
REMARK  status: ('A' for Active; 'I' for Inactive)
ROOT
ATOM      1  C2' OXE d   1       2.577  -4.643   1.078  0.00  0.00     0.078 C 
ATOM      2  C1' OXE d   1       3.526  -2.156   1.967  0.00  0.00     0.078 C 
ATOM      3  C1  OXE d   1       2.071  -2.477   2.199  0.00  0.00    -0.078 A 
ATOM      4  C2  OXE d   1       1.604  -3.677   1.719  0.00  0.00    -0.078 A 
ATOM      5  C3  OXE d   1       0.283  -4.047   1.955  0.00  0.00     0.003 A 
ATOM      6  C4  OXE d   1      -0.612  -3.143   2.540  0.00  0.00    -0.002 A 
ATOM      7  C5  OXE d   1      -0.167  -1.900   3.000  0.00  0.00    -0.002 A 
ATOM      8  C6  OXE d   1       1.178  -1.569   2.876  0.00  0.00     0.003 A 
ENDROOT
TORSDOF 0
ENDMDL
