MODEL 1
REMARK minimizedAffinity -5.48426485
REMARK minimizedRMSD -1
REMARK  1 active torsions:
REMARK  status: ('A' for Active; 'I' for Inactive)
REMARK    1  A    between atoms: C1_2  and  C2_3 
ROOT
ATOM      1  C2  UNL d   1      -0.732   2.083  -0.001  0.00  0.00    -0.077 A 
ATOM      2  C3  UNL d   1      -1.102   2.588   1.254  0.00  0.00     0.002 A 
ATOM      3  C4  UNL d   1      -0.827   1.864   2.415  0.00  0.00     0.002 A 
ATOM      4  C5  UNL d   1      -0.178   0.634   2.334  0.00  0.00    -0.004 A 
ATOM      5  C6  UNL d   1       0.192   0.122   1.091  0.00  0.00     0.002 A 
ATOM      6  C7  UNL d   1      -0.083   0.844  -0.071  0.00  0.00     0.002 A 
ENDROOT
BRANCH   1   7
ATOM      7  C1  UNL d   1      -0.984   2.885  -1.251  0.00  0.00     0.055 C 
ATOM      8  C   UNL d   1      -0.269   2.280  -2.450  0.00  0.00     0.019 C 
ENDBRANCH   1   7
TORSDOF 1
ENDMDL
