MODEL 1
REMARK minimizedAffinity -5.66950893
REMARK minimizedRMSD -1
REMARK  1 active torsions:
REMARK  status: ('A' for Active; 'I' for Inactive)
REMARK    1  A    between atoms: C1_2  and  C2_3 
ROOT
ATOM      1  C2  UNL d   1      -0.327   0.906   0.500  0.00  0.00    -0.077 A 
ATOM      2  C3  UNL d   1      -0.474   1.422  -0.795  0.00  0.00     0.002 A 
ATOM      3  C4  UNL d   1      -0.814   2.762  -0.988  0.00  0.00     0.002 A 
ATOM      4  C5  UNL d   1      -1.005   3.598   0.110  0.00  0.00    -0.004 A 
ATOM      5  C6  UNL d   1      -0.863   3.095   1.403  0.00  0.00     0.002 A 
ATOM      6  C7  UNL d   1      -0.524   1.755   1.597  0.00  0.00     0.002 A 
ENDROOT
BRANCH   1   7
ATOM      7  C1  UNL d   1       0.088  -0.527   0.709  0.00  0.00     0.055 C 
ATOM      8  C   UNL d   1       0.127  -1.289  -0.608  0.00  0.00     0.019 C 
ENDBRANCH   1   7
TORSDOF 1
ENDMDL
