MODEL 1
REMARK minimizedAffinity -5.15014744
REMARK minimizedRMSD -1
REMARK  1 active torsions:
REMARK  status: ('A' for Active; 'I' for Inactive)
REMARK    1  A    between atoms: C1_2  and  C2_3 
ROOT
ATOM      1  C2  UNL d   1       0.149  -0.192   0.176  0.00  0.00    -0.077 A 
ATOM      2  C3  UNL d   1      -0.458   0.702  -0.717  0.00  0.00     0.002 A 
ATOM      3  C4  UNL d   1      -0.998   1.904  -0.255  0.00  0.00     0.002 A 
ATOM      4  C5  UNL d   1      -0.931   2.225   1.099  0.00  0.00    -0.004 A 
ATOM      5  C6  UNL d   1      -0.330   1.342   1.995  0.00  0.00     0.002 A 
ATOM      6  C7  UNL d   1       0.208   0.139   1.535  0.00  0.00     0.002 A 
ENDROOT
BRANCH   1   7
ATOM      7  C1  UNL d   1       0.775  -1.466  -0.328  0.00  0.00     0.055 C 
ATOM      8  C   UNL d   1      -0.264  -2.381  -0.959  0.00  0.00     0.019 C 
ENDBRANCH   1   7
TORSDOF 1
ENDMDL
