MODEL 1
REMARK minimizedAffinity -4.22214127
REMARK minimizedRMSD -1
REMARK  1 active torsions:
REMARK  status: ('A' for Active; 'I' for Inactive)
REMARK    1  A    between atoms: C1_2  and  C2_3 
ROOT
ATOM      1  C2  UNL d   1      -0.491   0.641   0.482  0.00  0.00    -0.077 A 
ATOM      2  C3  UNL d   1      -0.352   0.822   1.865  0.00  0.00     0.002 A 
ATOM      3  C4  UNL d   1      -0.410   2.103   2.418  0.00  0.00     0.002 A 
ATOM      4  C5  UNL d   1      -0.610   3.210   1.597  0.00  0.00    -0.004 A 
ATOM      5  C6  UNL d   1      -0.747   3.040   0.220  0.00  0.00     0.002 A 
ATOM      6  C7  UNL d   1      -0.688   1.761  -0.335  0.00  0.00     0.002 A 
ENDROOT
BRANCH   1   7
ATOM      7  C1  UNL d   1      -0.478  -0.744  -0.112  0.00  0.00     0.055 C 
ATOM      8  C   UNL d   1       0.887  -1.086  -0.690  0.00  0.00     0.019 C 
ENDBRANCH   1   7
TORSDOF 1
ENDMDL
