MODEL 1
REMARK minimizedAffinity -4.56999683
REMARK minimizedRMSD -1
REMARK  1 active torsions:
REMARK  status: ('A' for Active; 'I' for Inactive)
REMARK    1  A    between atoms: C1_2  and  C2_3 
ROOT
ATOM      1  C2  UNL d   1       0.036   1.031   0.567  0.00  0.00    -0.077 A 
ATOM      2  C3  UNL d   1      -0.012   1.491  -0.757  0.00  0.00     0.002 A 
ATOM      3  C4  UNL d   1      -0.165   2.852  -1.027  0.00  0.00     0.002 A 
ATOM      4  C5  UNL d   1      -0.266   3.765   0.020  0.00  0.00    -0.004 A 
ATOM      5  C6  UNL d   1      -0.222   3.318   1.340  0.00  0.00     0.002 A 
ATOM      6  C7  UNL d   1      -0.071   1.957   1.612  0.00  0.00     0.002 A 
ENDROOT
BRANCH   1   7
ATOM      7  C1  UNL d   1       0.250  -0.431   0.860  0.00  0.00     0.055 C 
ATOM      8  C   UNL d   1       0.445  -1.229  -0.420  0.00  0.00     0.019 C 
ENDBRANCH   1   7
TORSDOF 1
ENDMDL
