MODEL 1
REMARK minimizedAffinity -4.47502375
REMARK minimizedRMSD -1
REMARK  1 active torsions:
REMARK  status: ('A' for Active; 'I' for Inactive)
REMARK    1  A    between atoms: C1_2  and  C2_3 
ROOT
ATOM      1  C2  UNL d   1       0.120   1.699  -0.522  0.00  0.00    -0.077 A 
ATOM      2  C3  UNL d   1       0.171   1.934   0.859  0.00  0.00     0.002 A 
ATOM      3  C4  UNL d   1       0.456   0.891   1.743  0.00  0.00     0.002 A 
ATOM      4  C5  UNL d   1       0.696  -0.392   1.255  0.00  0.00    -0.004 A 
ATOM      5  C6  UNL d   1       0.645  -0.636  -0.117  0.00  0.00     0.002 A 
ATOM      6  C7  UNL d   1       0.359   0.405  -1.002  0.00  0.00     0.002 A 
ENDROOT
BRANCH   1   7
ATOM      7  C1  UNL d   1      -0.139   2.832  -1.481  0.00  0.00     0.055 C 
ATOM      8  C   UNL d   1      -0.194   4.169  -0.755  0.00  0.00     0.019 C 
ENDBRANCH   1   7
TORSDOF 1
ENDMDL
