MODEL 1
REMARK minimizedAffinity -3.12968659
REMARK minimizedRMSD -1
REMARK  1 active torsions:
REMARK  status: ('A' for Active; 'I' for Inactive)
REMARK    1  A    between atoms: C1_2  and  C2_3 
ROOT
ATOM      1  C2  UNL d   1       0.317  -1.772  -0.884  0.00  0.00    -0.077 A 
ATOM      2  C3  UNL d   1      -0.680  -2.033  -1.835  0.00  0.00     0.002 A 
ATOM      3  C4  UNL d   1      -1.192  -3.323  -1.986  0.00  0.00     0.002 A 
ATOM      4  C5  UNL d   1      -0.717  -4.361  -1.188  0.00  0.00    -0.004 A 
ATOM      5  C6  UNL d   1       0.275  -4.112  -0.240  0.00  0.00     0.002 A 
ATOM      6  C7  UNL d   1       0.789  -2.824  -0.088  0.00  0.00     0.002 A 
ENDROOT
BRANCH   1   7
ATOM      7  C1  UNL d   1       0.835  -0.372  -0.685  0.00  0.00     0.055 C 
ATOM      8  C   UNL d   1       0.611   0.104   0.742  0.00  0.00     0.019 C 
ENDBRANCH   1   7
TORSDOF 1
ENDMDL
