MODEL 1
REMARK minimizedAffinity 2.62459064
REMARK minimizedRMSD -1
REMARK  1 active torsions:
REMARK  status: ('A' for Active; 'I' for Inactive)
REMARK    1  A    between atoms: C1_2  and  C2_3 
ROOT
ATOM      1  C2  UNL d   1      -1.656  -3.386  -2.491  0.00  0.00    -0.077 A 
ATOM      2  C3  UNL d   1      -2.028  -2.083  -2.133  0.00  0.00     0.002 A 
ATOM      3  C4  UNL d   1      -2.340  -1.142  -3.116  0.00  0.00     0.002 A 
ATOM      4  C5  UNL d   1      -2.288  -1.496  -4.463  0.00  0.00    -0.004 A 
ATOM      5  C6  UNL d   1      -1.918  -2.789  -4.829  0.00  0.00     0.002 A 
ATOM      6  C7  UNL d   1      -1.604  -3.730  -3.848  0.00  0.00     0.002 A 
ENDROOT
BRANCH   1   7
ATOM      7  C1  UNL d   1      -1.367  -4.417  -1.431  0.00  0.00     0.055 C 
ATOM      8  C   UNL d   1      -0.126  -4.052  -0.629  0.00  0.00     0.019 C 
ENDBRANCH   1   7
TORSDOF 1
ENDMDL
