MODEL 1
REMARK minimizedAffinity -3.26610112
REMARK minimizedRMSD -1
REMARK  3 active torsions:
REMARK  status: ('A' for Active; 'I' for Inactive)
REMARK    1  A    between atoms: C3'_2  and  C2'_3 
REMARK    2  A    between atoms: C2'_3  and  C1'_4 
REMARK    3  A    between atoms: C1'_4  and  C1_5 
ROOT
ATOM      1  C1  N4B d   1      -0.266  -0.027  -0.895  0.00  0.00    -0.075 A 
ATOM      2  C2  N4B d   1       1.072  -0.232  -0.491  0.00  0.00     0.002 A 
ATOM      3  C3  N4B d   1       1.352  -0.580   0.807  0.00  0.00     0.002 A 
ATOM      4  C4  N4B d   1       0.316  -0.710   1.721  0.00  0.00    -0.004 A 
ATOM      5  C5  N4B d   1      -0.975  -0.535   1.317  0.00  0.00     0.002 A 
ATOM      6  C6  N4B d   1      -1.271  -0.189   0.014  0.00  0.00     0.002 A 
ENDROOT
BRANCH   1   7
ATOM      7  C1' N4B d   1      -0.615   0.438  -2.282  0.00  0.00     0.057 C 
BRANCH   7   8
ATOM      8  C2' N4B d   1      -1.697   1.510  -2.193  0.00  0.00     0.009 C 
BRANCH   8   9
ATOM      9  C3' N4B d   1      -1.170   2.883  -2.571  0.00  0.00     0.004 C 
ATOM     10  C4' N4B d   1       0.281   2.863  -2.952  0.00  0.00     0.003 C 
ENDBRANCH   8   9
ENDBRANCH   7   8
ENDBRANCH   1   7
TORSDOF 3
ENDMDL
