MODEL 1
REMARK minimizedAffinity -4.04402208
REMARK minimizedRMSD -1
REMARK  3 active torsions:
REMARK  status: ('A' for Active; 'I' for Inactive)
REMARK    1  A    between atoms: C3'_2  and  C2'_3 
REMARK    2  A    between atoms: C2'_3  and  C1'_4 
REMARK    3  A    between atoms: C1'_4  and  C1_5 
ROOT
ATOM      1  C1  N4B d   1      -0.139  -0.094   0.587  0.00  0.00    -0.075 A 
ATOM      2  C2  N4B d   1      -0.665   1.203   0.774  0.00  0.00     0.002 A 
ATOM      3  C3  N4B d   1      -0.676   2.096  -0.270  0.00  0.00     0.002 A 
ATOM      4  C4  N4B d   1      -0.152   1.723  -1.498  0.00  0.00    -0.004 A 
ATOM      5  C5  N4B d   1       0.332   0.460  -1.677  0.00  0.00     0.002 A 
ATOM      6  C6  N4B d   1       0.346  -0.449  -0.639  0.00  0.00     0.002 A 
ENDROOT
BRANCH   1   7
ATOM      7  C1' N4B d   1      -0.027  -1.076   1.720  0.00  0.00     0.057 C 
BRANCH   7   8
ATOM      8  C2' N4B d   1       1.374  -0.992   2.320  0.00  0.00     0.009 C 
BRANCH   8   9
ATOM      9  C3' N4B d   1       2.225  -2.193   1.947  0.00  0.00     0.004 C 
ATOM     10  C4' N4B d   1       1.418  -3.328   1.392  0.00  0.00     0.003 C 
ENDBRANCH   8   9
ENDBRANCH   7   8
ENDBRANCH   1   7
TORSDOF 3
ENDMDL
