MODEL 1
REMARK minimizedAffinity 9.6485939
REMARK minimizedRMSD -1
REMARK  3 active torsions:
REMARK  status: ('A' for Active; 'I' for Inactive)
REMARK    1  A    between atoms: C3'_2  and  C2'_3 
REMARK    2  A    between atoms: C2'_3  and  C1'_4 
REMARK    3  A    between atoms: C1'_4  and  C1_5 
ROOT
ATOM      1  C1  N4B d   1       0.411  -1.138   2.021  0.00  0.00    -0.075 A 
ATOM      2  C2  N4B d   1       1.570  -1.711   1.452  0.00  0.00     0.002 A 
ATOM      3  C3  N4B d   1       1.893  -1.450   0.143  0.00  0.00     0.002 A 
ATOM      4  C4  N4B d   1       1.066  -0.638  -0.619  0.00  0.00    -0.004 A 
ATOM      5  C5  N4B d   1      -0.038  -0.068  -0.054  0.00  0.00     0.002 A 
ATOM      6  C6  N4B d   1      -0.372  -0.318   1.261  0.00  0.00     0.002 A 
ENDROOT
BRANCH   1   7
ATOM      7  C1' N4B d   1      -0.029  -1.463   3.422  0.00  0.00     0.057 C 
BRANCH   7   8
ATOM      8  C2' N4B d   1      -1.500  -1.866   3.404  0.00  0.00     0.009 C 
BRANCH   8   9
ATOM      9  C3' N4B d   1      -1.675  -3.374   3.358  0.00  0.00     0.004 C 
ATOM     10  C4' N4B d   1      -2.527  -3.894   4.478  0.00  0.00     0.003 C 
ENDBRANCH   8   9
ENDBRANCH   7   8
ENDBRANCH   1   7
TORSDOF 3
ENDMDL
