MODEL 1
REMARK minimizedAffinity 5.19062757
REMARK minimizedRMSD -1
REMARK  3 active torsions:
REMARK  status: ('A' for Active; 'I' for Inactive)
REMARK    1  A    between atoms: C3'_2  and  C2'_3 
REMARK    2  A    between atoms: C2'_3  and  C1'_4 
REMARK    3  A    between atoms: C1'_4  and  C1_5 
ROOT
ATOM      1  C1  N4B d   1       1.189  -0.842   0.717  0.00  0.00    -0.075 A 
ATOM      2  C2  N4B d   1       0.170  -0.836  -0.261  0.00  0.00     0.002 A 
ATOM      3  C3  N4B d   1      -1.145  -0.717   0.118  0.00  0.00     0.002 A 
ATOM      4  C4  N4B d   1      -1.465  -0.622   1.464  0.00  0.00    -0.004 A 
ATOM      5  C5  N4B d   1      -0.473  -0.603   2.400  0.00  0.00     0.002 A 
ATOM      6  C6  N4B d   1       0.853  -0.718   2.034  0.00  0.00     0.002 A 
ENDROOT
BRANCH   1   7
ATOM      7  C1' N4B d   1       2.634  -1.056   0.357  0.00  0.00     0.057 C 
BRANCH   7   8
ATOM      8  C2' N4B d   1       3.155  -2.288   1.091  0.00  0.00     0.009 C 
BRANCH   8   9
ATOM      9  C3' N4B d   1       2.624  -3.577   0.488  0.00  0.00     0.004 C 
ATOM     10  C4' N4B d   1       3.246  -4.801   1.090  0.00  0.00     0.003 C 
ENDBRANCH   8   9
ENDBRANCH   7   8
ENDBRANCH   1   7
TORSDOF 3
ENDMDL
