MODEL 1
REMARK minimizedAffinity 0.884780705
REMARK minimizedRMSD -1
REMARK  3 active torsions:
REMARK  status: ('A' for Active; 'I' for Inactive)
REMARK    1  A    between atoms: C3'_2  and  C2'_3 
REMARK    2  A    between atoms: C2'_3  and  C1'_4 
REMARK    3  A    between atoms: C1'_4  and  C1_5 
ROOT
ATOM      1  C1  N4B d   1       0.288  -0.527   1.038  0.00  0.00    -0.075 A 
ATOM      2  C2  N4B d   1       0.392  -1.486   2.069  0.00  0.00     0.002 A 
ATOM      3  C3  N4B d   1       1.321  -2.493   1.978  0.00  0.00     0.002 A 
ATOM      4  C4  N4B d   1       2.141  -2.571   0.863  0.00  0.00    -0.004 A 
ATOM      5  C5  N4B d   1       2.052  -1.626  -0.117  0.00  0.00     0.002 A 
ATOM      6  C6  N4B d   1       1.125  -0.606  -0.037  0.00  0.00     0.002 A 
ENDROOT
BRANCH   1   7
ATOM      7  C1' N4B d   1      -0.770   0.542   1.052  0.00  0.00     0.057 C 
BRANCH   7   8
ATOM      8  C2' N4B d   1      -1.825   0.216  -0.001  0.00  0.00     0.009 C 
BRANCH   8   9
ATOM      9  C3' N4B d   1      -2.959  -0.618   0.570  0.00  0.00     0.004 C 
ATOM     10  C4' N4B d   1      -3.803   0.143   1.549  0.00  0.00     0.003 C 
ENDBRANCH   8   9
ENDBRANCH   7   8
ENDBRANCH   1   7
TORSDOF 3
ENDMDL
