MODEL 1
REMARK minimizedAffinity -2.28198552
REMARK minimizedRMSD -1
REMARK  0 active torsions:
REMARK  status: ('A' for Active; 'I' for Inactive)
ROOT
ATOM      1  N1  IND d   1      -1.111  -0.969   0.165  0.00  0.00    -0.196 N 
ATOM      2  C2  IND d   1      -0.926   0.257  -0.411  0.00  0.00     0.054 A 
ATOM      3  C3  IND d   1       0.320   0.715  -0.152  0.00  0.00    -0.031 A 
ATOM      4  C4  IND d   1       2.253  -0.426   1.109  0.00  0.00     0.051 A 
ATOM      5  C5  IND d   1       2.551  -1.538   1.845  0.00  0.00    -0.031 A 
ATOM      6  C6  IND d   1       1.626  -2.539   2.062  0.00  0.00     0.015 A 
ATOM      7  C7  IND d   1       0.366  -2.470   1.537  0.00  0.00    -0.016 A 
ATOM      8  C8  IND d   1       0.058  -1.339   0.795  0.00  0.00    -0.047 A 
ATOM      9  C9  IND d   1       0.979  -0.300   0.608  0.00  0.00    -0.096 A 
ATOM     10  HN1 IND d   1      -1.835  -1.432   0.139  0.00  0.00     0.298 HD
ENDROOT
TORSDOF 0
ENDMDL
