MODEL 1
REMARK minimizedAffinity -1.034168
REMARK minimizedRMSD -1
REMARK  0 active torsions:
REMARK  status: ('A' for Active; 'I' for Inactive)
ROOT
ATOM      1  N1  IND d   1       1.438  -1.626   2.045  0.00  0.00    -0.196 N 
ATOM      2  C2  IND d   1       0.450  -2.569   1.972  0.00  0.00     0.054 A 
ATOM      3  C3  IND d   1      -0.551  -2.140   1.172  0.00  0.00    -0.031 A 
ATOM      4  C4  IND d   1      -0.733   0.030  -0.201  0.00  0.00     0.051 A 
ATOM      5  C5  IND d   1      -0.095   1.217  -0.429  0.00  0.00    -0.031 A 
ATOM      6  C6  IND d   1       1.112   1.522   0.166  0.00  0.00     0.015 A 
ATOM      7  C7  IND d   1       1.735   0.643   1.006  0.00  0.00    -0.016 A 
ATOM      8  C8  IND d   1       1.086  -0.561   1.245  0.00  0.00    -0.047 A 
ATOM      9  C9  IND d   1      -0.160  -0.858   0.678  0.00  0.00    -0.096 A 
ATOM     10  HN1 IND d   1       2.157  -1.688   2.511  0.00  0.00     0.298 HD
ENDROOT
TORSDOF 0
ENDMDL
