MODEL 1
REMARK minimizedAffinity -3.18194413
REMARK minimizedRMSD -1
REMARK  0 active torsions:
REMARK  status: ('A' for Active; 'I' for Inactive)
ROOT
ATOM      1  N1  IND d   1      -0.399  -0.509  -1.021  0.00  0.00    -0.196 N 
ATOM      2  C2  IND d   1      -1.343  -0.061  -0.139  0.00  0.00     0.054 A 
ATOM      3  C3  IND d   1      -0.778   0.209   1.059  0.00  0.00    -0.031 A 
ATOM      4  C4  IND d   1       1.694   0.085   1.766  0.00  0.00     0.051 A 
ATOM      5  C5  IND d   1       2.925  -0.304   1.317  0.00  0.00    -0.031 A 
ATOM      6  C6  IND d   1       3.115  -0.788   0.039  0.00  0.00     0.015 A 
ATOM      7  C7  IND d   1       2.079  -0.891  -0.846  0.00  0.00    -0.016 A 
ATOM      8  C8  IND d   1       0.826  -0.504  -0.390  0.00  0.00    -0.047 A 
ATOM      9  C9  IND d   1       0.620  -0.052   0.919  0.00  0.00    -0.096 A 
ATOM     10  HN1 IND d   1      -0.545  -0.752  -1.832  0.00  0.00     0.298 HD
ENDROOT
TORSDOF 0
ENDMDL
