MODEL 1
REMARK minimizedAffinity -5.15348387
REMARK minimizedRMSD -1
REMARK  0 active torsions:
REMARK  status: ('A' for Active; 'I' for Inactive)
ROOT
ATOM      1  N1  IND d   1       1.638   1.084   0.384  0.00  0.00    -0.196 N 
ATOM      2  C2  IND d   1       2.814   0.477   0.727  0.00  0.00     0.054 A 
ATOM      3  C3  IND d   1       2.579  -0.752   1.236  0.00  0.00    -0.031 A 
ATOM      4  C4  IND d   1       0.349  -2.011   1.505  0.00  0.00     0.051 A 
ATOM      5  C5  IND d   1      -1.001  -1.853   1.366  0.00  0.00    -0.031 A 
ATOM      6  C6  IND d   1      -1.552  -0.684   0.880  0.00  0.00     0.015 A 
ATOM      7  C7  IND d   1      -0.768   0.369   0.503  0.00  0.00    -0.016 A 
ATOM      8  C8  IND d   1       0.603   0.214   0.649  0.00  0.00    -0.047 A 
ATOM      9  C9  IND d   1       1.165  -0.953   1.182  0.00  0.00    -0.096 A 
ATOM     10  HN1 IND d   1       1.558   1.875   0.058  0.00  0.00     0.298 HD
ENDROOT
TORSDOF 0
ENDMDL
