MODEL 1
REMARK minimizedAffinity -3.19564128
REMARK minimizedRMSD -1
REMARK  0 active torsions:
REMARK  status: ('A' for Active; 'I' for Inactive)
ROOT
ATOM      1  N1  IND d   1      -0.683  -0.512   0.403  0.00  0.00    -0.196 N 
ATOM      2  C2  IND d   1      -0.466   0.654  -0.277  0.00  0.00     0.054 A 
ATOM      3  C3  IND d   1       0.736   1.176   0.055  0.00  0.00    -0.031 A 
ATOM      4  C4  IND d   1       2.554   0.231   1.615  0.00  0.00     0.051 A 
ATOM      5  C5  IND d   1       2.798  -0.790   2.490  0.00  0.00    -0.031 A 
ATOM      6  C6  IND d   1       1.877  -1.792   2.716  0.00  0.00     0.015 A 
ATOM      7  C7  IND d   1       0.677  -1.817   2.065  0.00  0.00    -0.016 A 
ATOM      8  C8  IND d   1       0.422  -0.778   1.181  0.00  0.00    -0.047 A 
ATOM      9  C9  IND d   1       1.335   0.265   0.979  0.00  0.00    -0.096 A 
ATOM     10  HN1 IND d   1      -1.391  -0.998   0.352  0.00  0.00     0.298 HD
ENDROOT
TORSDOF 0
ENDMDL
