MODEL 1
REMARK minimizedAffinity -1.44891453
REMARK minimizedRMSD -1
REMARK  0 active torsions:
REMARK  status: ('A' for Active; 'I' for Inactive)
ROOT
ATOM      1  N1  IND d   1       2.541  -0.687  -0.189  0.00  0.00    -0.196 N 
ATOM      2  C2  IND d   1       3.321   0.109   0.603  0.00  0.00     0.054 A 
ATOM      3  C3  IND d   1       2.571   1.065   1.194  0.00  0.00    -0.031 A 
ATOM      4  C4  IND d   1       0.028   1.449   1.083  0.00  0.00     0.051 A 
ATOM      5  C5  IND d   1      -1.103   1.001   0.461  0.00  0.00    -0.031 A 
ATOM      6  C6  IND d   1      -1.077  -0.056  -0.426  0.00  0.00     0.015 A 
ATOM      7  C7  IND d   1       0.084  -0.714  -0.716  0.00  0.00    -0.016 A 
ATOM      8  C8  IND d   1       1.236  -0.257  -0.091  0.00  0.00    -0.047 A 
ATOM      9  C9  IND d   1       1.223   0.842   0.777  0.00  0.00    -0.096 A 
ATOM     10  HN1 IND d   1       2.819  -1.345  -0.668  0.00  0.00     0.298 HD
ENDROOT
TORSDOF 0
ENDMDL
