MODEL 1
REMARK minimizedAffinity -6.43380308
REMARK minimizedRMSD -1
REMARK  0 active torsions:
REMARK  status: ('A' for Active; 'I' for Inactive)
ROOT
ATOM      1  N1  IND d   1      -0.747  -1.647   1.188  0.00  0.00    -0.196 N 
ATOM      2  C2  IND d   1      -1.312  -0.613   0.496  0.00  0.00     0.054 A 
ATOM      3  C3  IND d   1      -0.361   0.256   0.088  0.00  0.00    -0.031 A 
ATOM      4  C4  IND d   1       2.196   0.127   0.358  0.00  0.00     0.051 A 
ATOM      5  C5  IND d   1       3.181  -0.613   0.950  0.00  0.00    -0.031 A 
ATOM      6  C6  IND d   1       2.901  -1.761   1.664  0.00  0.00     0.015 A 
ATOM      7  C7  IND d   1       1.622  -2.219   1.803  0.00  0.00    -0.016 A 
ATOM      8  C8  IND d   1       0.619  -1.466   1.209  0.00  0.00    -0.047 A 
ATOM      9  C9  IND d   1       0.892  -0.278   0.520  0.00  0.00    -0.096 A 
ATOM     10  HN1 IND d   1      -1.172  -2.301   1.550  0.00  0.00     0.298 HD
ENDROOT
TORSDOF 0
ENDMDL
