MODEL 1
REMARK minimizedAffinity -3.43518162
REMARK minimizedRMSD -1
REMARK  0 active torsions:
REMARK  status: ('A' for Active; 'I' for Inactive)
ROOT
ATOM      1  N1  IND d   1      -0.811  -1.015  -0.306  0.00  0.00    -0.196 N 
ATOM      2  C2  IND d   1      -1.594   0.082  -0.530  0.00  0.00     0.054 A 
ATOM      3  C3  IND d   1      -0.896   1.215  -0.291  0.00  0.00    -0.031 A 
ATOM      4  C4  IND d   1       1.573   1.505   0.378  0.00  0.00     0.051 A 
ATOM      5  C5  IND d   1       2.683   0.792   0.735  0.00  0.00    -0.031 A 
ATOM      6  C6  IND d   1       2.686  -0.588   0.761  0.00  0.00     0.015 A 
ATOM      7  C7  IND d   1       1.578  -1.309   0.418  0.00  0.00    -0.016 A 
ATOM      8  C8  IND d   1       0.446  -0.589   0.063  0.00  0.00    -0.047 A 
ATOM      9  C9  IND d   1       0.424   0.812   0.076  0.00  0.00    -0.096 A 
ATOM     10  HN1 IND d   1      -1.061  -1.834  -0.382  0.00  0.00     0.298 HD
ENDROOT
TORSDOF 0
ENDMDL
