MODEL 1
REMARK minimizedAffinity -6.03585863
REMARK minimizedRMSD -1
REMARK  0 active torsions:
REMARK  status: ('A' for Active; 'I' for Inactive)
ROOT
ATOM      1  N1  IND d   1      -0.509  -1.039   0.971  0.00  0.00    -0.196 N 
ATOM      2  C2  IND d   1      -0.763   0.074   0.219  0.00  0.00     0.054 A 
ATOM      3  C3  IND d   1       0.379   0.764  -0.001  0.00  0.00    -0.031 A 
ATOM      4  C4  IND d   1       2.792   0.197   0.694  0.00  0.00     0.051 A 
ATOM      5  C5  IND d   1       3.520  -0.699   1.425  0.00  0.00    -0.031 A 
ATOM      6  C6  IND d   1       2.931  -1.777   2.054  0.00  0.00     0.015 A 
ATOM      7  C7  IND d   1       1.587  -2.007   1.964  0.00  0.00    -0.016 A 
ATOM      8  C8  IND d   1       0.844  -1.095   1.227  0.00  0.00    -0.047 A 
ATOM      9  C9  IND d   1       1.430   0.024   0.623  0.00  0.00    -0.096 A 
ATOM     10  HN1 IND d   1      -1.095  -1.607   1.240  0.00  0.00     0.298 HD
ENDROOT
TORSDOF 0
ENDMDL
