MODEL 1
REMARK minimizedAffinity -2.41363955
REMARK minimizedRMSD -1
REMARK  0 active torsions:
REMARK  status: ('A' for Active; 'I' for Inactive)
ROOT
ATOM      1  N1  IND d   1      -0.748   1.364  -1.070  0.00  0.00    -0.196 N 
ATOM      2  C2  IND d   1      -0.513   0.457  -0.074  0.00  0.00     0.054 A 
ATOM      3  C3  IND d   1      -1.184  -0.692  -0.318  0.00  0.00    -0.031 A 
ATOM      4  C4  IND d   1      -2.642  -1.338  -2.338  0.00  0.00     0.051 A 
ATOM      5  C5  IND d   1      -3.180  -0.826  -3.486  0.00  0.00    -0.031 A 
ATOM      6  C6  IND d   1      -2.927   0.466  -3.897  0.00  0.00     0.015 A 
ATOM      7  C7  IND d   1      -2.114   1.296  -3.178  0.00  0.00    -0.016 A 
ATOM      8  C8  IND d   1      -1.572   0.783  -2.008  0.00  0.00    -0.047 A 
ATOM      9  C9  IND d   1      -1.859  -0.515  -1.564  0.00  0.00    -0.096 A 
ATOM     10  HN1 IND d   1      -0.433   2.163  -1.104  0.00  0.00     0.298 HD
ENDROOT
TORSDOF 0
ENDMDL
