MODEL 1
REMARK minimizedAffinity -5.27880144
REMARK minimizedRMSD -1
REMARK  0 active torsions:
REMARK  status: ('A' for Active; 'I' for Inactive)
ROOT
ATOM      1  N1  IND d   1      -1.115  -1.124   0.507  0.00  0.00    -0.196 N 
ATOM      2  C2  IND d   1      -1.120   0.037  -0.215  0.00  0.00     0.054 A 
ATOM      3  C3  IND d   1       0.047   0.699  -0.047  0.00  0.00    -0.031 A 
ATOM      4  C4  IND d   1       2.141   0.012   1.283  0.00  0.00     0.051 A 
ATOM      5  C5  IND d   1       2.608  -0.947   2.137  0.00  0.00    -0.031 A 
ATOM      6  C6  IND d   1       1.844  -2.039   2.496  0.00  0.00     0.015 A 
ATOM      7  C7  IND d   1       0.582  -2.217   2.003  0.00  0.00    -0.016 A 
ATOM      8  C8  IND d   1       0.102  -1.241   1.142  0.00  0.00    -0.047 A 
ATOM      9  C9  IND d   1       0.857  -0.110   0.807  0.00  0.00    -0.096 A 
ATOM     10  HN1 IND d   1      -1.763  -1.687   0.555  0.00  0.00     0.298 HD
ENDROOT
TORSDOF 0
ENDMDL
