MODEL 1
REMARK minimizedAffinity -5.32076311
REMARK minimizedRMSD -1
REMARK  0 active torsions:
REMARK  status: ('A' for Active; 'I' for Inactive)
ROOT
ATOM      1  N1  IND d   1      -0.784  -0.738   0.007  0.00  0.00    -0.196 N 
ATOM      2  C2  IND d   1      -0.829   0.523  -0.518  0.00  0.00     0.054 A 
ATOM      3  C3  IND d   1       0.336   1.170  -0.288  0.00  0.00    -0.031 A 
ATOM      4  C4  IND d   1       2.486   0.315   0.841  0.00  0.00     0.051 A 
ATOM      5  C5  IND d   1       2.995  -0.761   1.512  0.00  0.00    -0.031 A 
ATOM      6  C6  IND d   1       2.257  -1.908   1.718  0.00  0.00     0.015 A 
ATOM      7  C7  IND d   1       0.980  -2.027   1.248  0.00  0.00    -0.016 A 
ATOM      8  C8  IND d   1       0.457  -0.934   0.572  0.00  0.00    -0.047 A 
ATOM      9  C9  IND d   1       1.186   0.249   0.397  0.00  0.00    -0.096 A 
ATOM     10  HN1 IND d   1      -1.424  -1.313  -0.013  0.00  0.00     0.298 HD
ENDROOT
TORSDOF 0
ENDMDL
