MODEL 1
REMARK minimizedAffinity -3.42146277
REMARK minimizedRMSD -1
REMARK  1 active torsions:
REMARK  status: ('A' for Active; 'I' for Inactive)
REMARK    1  A    between atoms: C3_4  and  O_7 
ROOT
ATOM      1  C   UNL d   1       0.384  -0.707  -0.373  0.00  0.00    -0.033 A 
ATOM      2  C1  UNL d   1      -0.963  -0.340  -0.396  0.00  0.00     0.039 A 
ATOM      3  C2  UNL d   1      -1.496   0.429   0.641  0.00  0.00    -0.080 A 
ATOM      4  C3  UNL d   1      -0.672   0.825   1.691  0.00  0.00     0.150 A 
ATOM      5  C4  UNL d   1       0.671   0.466   1.718  0.00  0.00    -0.007 A 
ATOM      6  C5  UNL d   1       1.201  -0.303   0.682  0.00  0.00     0.039 A 
ENDROOT
BRANCH   4   7
ATOM      7  O   UNL d   1      -1.148   1.572   2.727  0.00  0.00    -0.526 OA
ATOM      8  H5  UNL d   1      -2.099   1.720   2.589  0.00  0.00     0.418 HD
ENDBRANCH   4   7
TORSDOF 1
ENDMDL
