MODEL 1
REMARK minimizedAffinity -2.42203593
REMARK minimizedRMSD -1
REMARK  1 active torsions:
REMARK  status: ('A' for Active; 'I' for Inactive)
REMARK    1  A    between atoms: C3_4  and  O_7 
ROOT
ATOM      1  C   UNL d   1       0.971  -1.073   0.100  0.00  0.00    -0.033 A 
ATOM      2  C1  UNL d   1      -0.209  -0.365  -0.134  0.00  0.00     0.039 A 
ATOM      3  C2  UNL d   1      -0.681   0.543   0.817  0.00  0.00    -0.080 A 
ATOM      4  C3  UNL d   1       0.037   0.734   1.994  0.00  0.00     0.150 A 
ATOM      5  C4  UNL d   1       1.216   0.035   2.232  0.00  0.00    -0.007 A 
ATOM      6  C5  UNL d   1       1.684  -0.872   1.282  0.00  0.00     0.039 A 
ENDROOT
BRANCH   4   7
ATOM      7  O   UNL d   1      -0.386   1.606   2.953  0.00  0.00    -0.526 OA
ATOM      8  H5  UNL d   1      -1.228   1.995   2.665  0.00  0.00     0.418 HD
ENDBRANCH   4   7
TORSDOF 1
ENDMDL
