MODEL 1
REMARK minimizedAffinity -3.16338181
REMARK minimizedRMSD -1
REMARK  1 active torsions:
REMARK  status: ('A' for Active; 'I' for Inactive)
REMARK    1  A    between atoms: C3_4  and  O_7 
ROOT
ATOM      1  C   UNL d   1       0.266  -0.444  -0.625  0.00  0.00    -0.033 A 
ATOM      2  C1  UNL d   1       1.144  -0.025   0.377  0.00  0.00     0.039 A 
ATOM      3  C2  UNL d   1       0.664   0.697   1.471  0.00  0.00    -0.080 A 
ATOM      4  C3  UNL d   1      -0.694   0.991   1.553  0.00  0.00     0.150 A 
ATOM      5  C4  UNL d   1      -1.575   0.573   0.561  0.00  0.00    -0.007 A 
ATOM      6  C5  UNL d   1      -1.093  -0.146  -0.532  0.00  0.00     0.039 A 
ENDROOT
BRANCH   4   7
ATOM      7  O   UNL d   1      -1.208   1.697   2.600  0.00  0.00    -0.526 OA
ATOM      8  H5  UNL d   1      -0.479   1.944   3.193  0.00  0.00     0.418 HD
ENDBRANCH   4   7
TORSDOF 1
ENDMDL
