MODEL 1
REMARK minimizedAffinity -4.51296234
REMARK minimizedRMSD -1
REMARK  1 active torsions:
REMARK  status: ('A' for Active; 'I' for Inactive)
REMARK    1  A    between atoms: C3_4  and  O_7 
ROOT
ATOM      1  C   UNL d   1      -0.178  -0.570  -0.538  0.00  0.00    -0.033 A 
ATOM      2  C1  UNL d   1       0.931   0.151  -0.092  0.00  0.00     0.039 A 
ATOM      3  C2  UNL d   1       0.786   1.107   0.916  0.00  0.00    -0.080 A 
ATOM      4  C3  UNL d   1      -0.472   1.331   1.469  0.00  0.00     0.150 A 
ATOM      5  C4  UNL d   1      -1.581   0.613   1.032  0.00  0.00    -0.007 A 
ATOM      6  C5  UNL d   1      -1.434  -0.340   0.025  0.00  0.00     0.039 A 
ENDROOT
BRANCH   4   7
ATOM      7  O   UNL d   1      -0.664   2.256   2.451  0.00  0.00    -0.526 OA
ATOM      8  H5  UNL d   1       0.185   2.694   2.631  0.00  0.00     0.418 HD
ENDBRANCH   4   7
TORSDOF 1
ENDMDL
