MODEL 1
REMARK minimizedAffinity -4.29873705
REMARK minimizedRMSD -1
REMARK  1 active torsions:
REMARK  status: ('A' for Active; 'I' for Inactive)
REMARK    1  A    between atoms: C3_4  and  O_7 
ROOT
ATOM      1  C   UNL d   1       0.241  -0.559  -0.337  0.00  0.00    -0.033 A 
ATOM      2  C1  UNL d   1       1.139  -0.107   0.631  0.00  0.00     0.039 A 
ATOM      3  C2  UNL d   1       0.698   0.729   1.659  0.00  0.00    -0.080 A 
ATOM      4  C3  UNL d   1      -0.642   1.103   1.708  0.00  0.00     0.150 A 
ATOM      5  C4  UNL d   1      -1.543   0.653   0.749  0.00  0.00    -0.007 A 
ATOM      6  C5  UNL d   1      -1.100  -0.181  -0.277  0.00  0.00     0.039 A 
ENDROOT
BRANCH   4   7
ATOM      7  O   UNL d   1      -1.118   1.921   2.690  0.00  0.00    -0.526 OA
ATOM      8  H5  UNL d   1      -0.377   2.176   3.264  0.00  0.00     0.418 HD
ENDBRANCH   4   7
TORSDOF 1
ENDMDL
