MODEL 1
REMARK minimizedAffinity -4.27411127
REMARK minimizedRMSD -1
REMARK  1 active torsions:
REMARK  status: ('A' for Active; 'I' for Inactive)
REMARK    1  A    between atoms: C3_4  and  O_7 
ROOT
ATOM      1  C   UNL d   1      -1.027   0.817   2.626  0.00  0.00    -0.033 A 
ATOM      2  C1  UNL d   1      -1.911   0.313   1.670  0.00  0.00     0.039 A 
ATOM      3  C2  UNL d   1      -1.448  -0.025   0.397  0.00  0.00    -0.080 A 
ATOM      4  C3  UNL d   1      -0.100   0.145   0.094  0.00  0.00     0.150 A 
ATOM      5  C4  UNL d   1       0.788   0.643   1.042  0.00  0.00    -0.007 A 
ATOM      6  C5  UNL d   1       0.323   0.980   2.313  0.00  0.00     0.039 A 
ENDROOT
BRANCH   4   7
ATOM      7  O   UNL d   1       0.398  -0.167  -1.137  0.00  0.00    -0.526 OA
ATOM      8  H5  UNL d   1      -0.334  -0.472  -1.697  0.00  0.00     0.418 HD
ENDBRANCH   4   7
TORSDOF 1
ENDMDL
