MODEL 1
REMARK minimizedAffinity 6.24793291
REMARK minimizedRMSD -1
REMARK  1 active torsions:
REMARK  status: ('A' for Active; 'I' for Inactive)
REMARK    1  A    between atoms: C1_2  and  C2_3 
ROOT
ATOM      1  C2  UNL d   1       0.893   1.405   2.946  0.00  0.00    -0.073 A 
ATOM      2  C3  UNL d   1      -0.382   1.401   3.522  0.00  0.00    -0.002 A 
ATOM      3  C4  UNL d   1      -1.388   2.224   3.014  0.00  0.00     0.004 A 
ATOM      4  C5  UNL d   1      -1.132   3.053   1.922  0.00  0.00    -0.004 A 
ATOM      5  C6  UNL d   1       0.133   3.063   1.325  0.00  0.00    -0.075 A 
ATOM      6  C7  UNL d   1       0.425   3.951   0.151  0.00  0.00     0.076 C 
ATOM      7  C8  UNL d   1       1.138   2.236   1.843  0.00  0.00     0.001 A 
ENDROOT
BRANCH   1   8
ATOM      8  C1  UNL d   1       1.981   0.514   3.487  0.00  0.00     0.053 C 
ATOM      9  C   UNL d   1       1.461  -0.437   4.553  0.00  0.00     0.018 C 
ENDBRANCH   1   8
TORSDOF 1
ENDMDL
