MODEL 1
REMARK minimizedAffinity 9.20043278
REMARK minimizedRMSD -1
REMARK  1 active torsions:
REMARK  status: ('A' for Active; 'I' for Inactive)
REMARK    1  A    between atoms: C1_2  and  C2_3 
ROOT
ATOM      1  C2  UNL d   1      -2.346   0.387  -1.254  0.00  0.00    -0.073 A 
ATOM      2  C3  UNL d   1      -1.341  -0.543  -0.964  0.00  0.00    -0.002 A 
ATOM      3  C4  UNL d   1      -0.571  -1.091  -1.991  0.00  0.00     0.004 A 
ATOM      4  C5  UNL d   1      -0.792  -0.711  -3.314  0.00  0.00    -0.004 A 
ATOM      5  C6  UNL d   1      -1.783   0.226  -3.623  0.00  0.00    -0.075 A 
ATOM      6  C7  UNL d   1      -2.035   0.644  -5.042  0.00  0.00     0.076 C 
ATOM      7  C8  UNL d   1      -2.554   0.770  -2.587  0.00  0.00     0.001 A 
ENDROOT
BRANCH   1   8
ATOM      8  C1  UNL d   1      -3.175   0.987  -0.149  0.00  0.00     0.053 C 
ATOM      9  C   UNL d   1      -3.271   0.065   1.056  0.00  0.00     0.018 C 
ENDBRANCH   1   8
TORSDOF 1
ENDMDL
