MODEL 1
REMARK minimizedAffinity 17.8323059
REMARK minimizedRMSD -1
REMARK  1 active torsions:
REMARK  status: ('A' for Active; 'I' for Inactive)
REMARK    1  A    between atoms: C1_2  and  C2_3 
ROOT
ATOM      1  C2  UNL d   1      -0.053   4.504  -0.748  0.00  0.00    -0.073 A 
ATOM      2  C3  UNL d   1      -1.098   5.221  -0.156  0.00  0.00    -0.002 A 
ATOM      3  C4  UNL d   1      -1.976   5.967  -0.943  0.00  0.00     0.004 A 
ATOM      4  C5  UNL d   1      -1.822   5.999  -2.329  0.00  0.00    -0.004 A 
ATOM      5  C6  UNL d   1      -0.790   5.279  -2.940  0.00  0.00    -0.075 A 
ATOM      6  C7  UNL d   1      -0.609   5.305  -4.430  0.00  0.00     0.076 C 
ATOM      7  C8  UNL d   1       0.089   4.534  -2.143  0.00  0.00     0.001 A 
ENDROOT
BRANCH   1   8
ATOM      8  C1  UNL d   1       0.893   3.691   0.098  0.00  0.00     0.053 C 
ATOM      9  C   UNL d   1       0.314   2.332   0.455  0.00  0.00     0.018 C 
ENDBRANCH   1   8
TORSDOF 1
ENDMDL
