MODEL 1
REMARK minimizedAffinity 9.75517559
REMARK minimizedRMSD -1
REMARK  1 active torsions:
REMARK  status: ('A' for Active; 'I' for Inactive)
REMARK    1  A    between atoms: C1_2  and  C2_3 
ROOT
ATOM      1  C2  UNL d   1       0.367   3.827   1.083  0.00  0.00    -0.073 A 
ATOM      2  C3  UNL d   1      -0.655   3.142   1.749  0.00  0.00    -0.002 A 
ATOM      3  C4  UNL d   1      -0.398   2.491   2.956  0.00  0.00     0.004 A 
ATOM      4  C5  UNL d   1       0.880   2.524   3.513  0.00  0.00    -0.004 A 
ATOM      5  C6  UNL d   1       1.913   3.213   2.868  0.00  0.00    -0.075 A 
ATOM      6  C7  UNL d   1       3.294   3.255   3.453  0.00  0.00     0.076 C 
ATOM      7  C8  UNL d   1       1.647   3.862   1.655  0.00  0.00     0.001 A 
ENDROOT
BRANCH   1   8
ATOM      8  C1  UNL d   1       0.093   4.537  -0.218  0.00  0.00     0.053 C 
ATOM      9  C   UNL d   1      -0.302   5.989  -0.002  0.00  0.00     0.018 C 
ENDBRANCH   1   8
TORSDOF 1
ENDMDL
