MODEL 1
REMARK minimizedAffinity 7.01996469
REMARK minimizedRMSD -1
REMARK  1 active torsions:
REMARK  status: ('A' for Active; 'I' for Inactive)
REMARK    1  A    between atoms: C1_2  and  C2_3 
ROOT
ATOM      1  C2  UNL d   1      -0.072   3.106   1.691  0.00  0.00    -0.073 A 
ATOM      2  C3  UNL d   1      -0.746   2.447   0.657  0.00  0.00    -0.002 A 
ATOM      3  C4  UNL d   1      -0.690   2.939  -0.648  0.00  0.00     0.004 A 
ATOM      4  C5  UNL d   1       0.044   4.090  -0.933  0.00  0.00    -0.004 A 
ATOM      5  C6  UNL d   1       0.735   4.757   0.085  0.00  0.00    -0.075 A 
ATOM      6  C7  UNL d   1       1.528   5.997  -0.205  0.00  0.00     0.076 C 
ATOM      7  C8  UNL d   1       0.672   4.258   1.392  0.00  0.00     0.001 A 
ENDROOT
BRANCH   1   8
ATOM      8  C1  UNL d   1      -0.123   2.575   3.100  0.00  0.00     0.053 C 
ATOM      9  C   UNL d   1       1.186   1.921   3.511  0.00  0.00     0.018 C 
ENDBRANCH   1   8
TORSDOF 1
ENDMDL
