MODEL 1
REMARK minimizedAffinity 12.4019556
REMARK minimizedRMSD -1
REMARK  1 active torsions:
REMARK  status: ('A' for Active; 'I' for Inactive)
REMARK    1  A    between atoms: C1_2  and  C2_3 
ROOT
ATOM      1  C2  UNL d   1       0.294   3.598   1.099  0.00  0.00    -0.073 A 
ATOM      2  C3  UNL d   1       1.371   3.316   1.948  0.00  0.00    -0.002 A 
ATOM      3  C4  UNL d   1       1.230   2.389   2.982  0.00  0.00     0.004 A 
ATOM      4  C5  UNL d   1       0.015   1.731   3.173  0.00  0.00    -0.004 A 
ATOM      5  C6  UNL d   1      -1.069   1.991   2.329  0.00  0.00    -0.075 A 
ATOM      6  C7  UNL d   1      -2.383   1.293   2.523  0.00  0.00     0.076 C 
ATOM      7  C8  UNL d   1      -0.920   2.925   1.294  0.00  0.00     0.001 A 
ENDROOT
BRANCH   1   8
ATOM      8  C1  UNL d   1       0.444   4.593  -0.022  0.00  0.00     0.053 C 
ATOM      9  C   UNL d   1      -0.484   5.786   0.147  0.00  0.00     0.018 C 
ENDBRANCH   1   8
TORSDOF 1
ENDMDL
