MODEL 1
REMARK minimizedAffinity 5.03262138
REMARK minimizedRMSD -1
REMARK  1 active torsions:
REMARK  status: ('A' for Active; 'I' for Inactive)
REMARK    1  A    between atoms: C1_2  and  C2_3 
ROOT
ATOM      1  C2  UNL d   1       0.798   1.950   2.393  0.00  0.00    -0.073 A 
ATOM      2  C3  UNL d   1       0.003   3.089   2.224  0.00  0.00    -0.002 A 
ATOM      3  C4  UNL d   1      -0.514   3.408   0.967  0.00  0.00     0.004 A 
ATOM      4  C5  UNL d   1      -0.247   2.589  -0.130  0.00  0.00    -0.004 A 
ATOM      5  C6  UNL d   1       0.536   1.440   0.022  0.00  0.00    -0.075 A 
ATOM      6  C7  UNL d   1       0.835   0.549  -1.149  0.00  0.00     0.076 C 
ATOM      7  C8  UNL d   1       1.054   1.128   1.286  0.00  0.00     0.001 A 
ENDROOT
BRANCH   1   8
ATOM      8  C1  UNL d   1       1.353   1.598   3.750  0.00  0.00     0.053 C 
ATOM      9  C   UNL d   1       1.241   0.111   4.043  0.00  0.00     0.018 C 
ENDBRANCH   1   8
TORSDOF 1
ENDMDL
