MODEL 1
REMARK minimizedAffinity -5.04589033
REMARK minimizedRMSD -1
REMARK  0 active torsions:
REMARK  status: ('A' for Active; 'I' for Inactive)
ROOT
ATOM      1  C   UNL d   1       1.988  -1.006  -2.928  0.00  0.00     0.023 A 
ATOM      2  C1  UNL d   1       1.695   0.301  -2.536  0.00  0.00     0.003 A 
ATOM      3  C2  UNL d   1       0.944   0.533  -1.382  0.00  0.00     0.048 A 
ATOM      4  C3  UNL d   1       0.490  -0.545  -0.624  0.00  0.00     0.023 A 
ATOM      5  C4  UNL d   1       0.781  -1.854  -1.011  0.00  0.00     0.048 A 
ATOM      6  C5  UNL d   1       1.532  -2.082  -2.166  0.00  0.00     0.003 A 
ATOM      7  I   UNL d   1      -0.628  -0.202   1.094  0.00  0.00    -0.146 I 
ENDROOT
TORSDOF 0
ENDMDL
