MODEL 1
REMARK minimizedAffinity -1.6779294
REMARK minimizedRMSD -1
REMARK  0 active torsions:
REMARK  status: ('A' for Active; 'I' for Inactive)
ROOT
ATOM      1  C   UNL d   1       0.507  -1.766  -1.912  0.00  0.00     0.023 A 
ATOM      2  C1  UNL d   1       0.325  -2.482  -0.729  0.00  0.00     0.003 A 
ATOM      3  C2  UNL d   1      -0.214  -1.852   0.395  0.00  0.00     0.048 A 
ATOM      4  C3  UNL d   1      -0.571  -0.506   0.328  0.00  0.00     0.023 A 
ATOM      5  C4  UNL d   1      -0.392   0.215  -0.854  0.00  0.00     0.048 A 
ATOM      6  C5  UNL d   1       0.148  -0.419  -1.974  0.00  0.00     0.003 A 
ATOM      7  I   UNL d   1      -1.374   0.434   1.999  0.00  0.00    -0.146 I 
ENDROOT
TORSDOF 0
ENDMDL
