MODEL 1
REMARK minimizedAffinity -4.10490084
REMARK minimizedRMSD -1
REMARK  0 active torsions:
REMARK  status: ('A' for Active; 'I' for Inactive)
ROOT
ATOM      1  C   UNL d   1       2.072  -0.754  -3.100  0.00  0.00     0.023 A 
ATOM      2  C1  UNL d   1       1.602   0.520  -2.782  0.00  0.00     0.003 A 
ATOM      3  C2  UNL d   1       0.868   0.723  -1.611  0.00  0.00     0.048 A 
ATOM      4  C3  UNL d   1       0.608  -0.353  -0.763  0.00  0.00     0.023 A 
ATOM      5  C4  UNL d   1       1.077  -1.630  -1.078  0.00  0.00     0.048 A 
ATOM      6  C5  UNL d   1       1.810  -1.827  -2.249  0.00  0.00     0.003 A 
ATOM      7  I   UNL d   1      -0.484  -0.055   0.979  0.00  0.00    -0.146 I 
ENDROOT
TORSDOF 0
ENDMDL
