MODEL 1
REMARK minimizedAffinity -2.28362751
REMARK minimizedRMSD -1
REMARK  0 active torsions:
REMARK  status: ('A' for Active; 'I' for Inactive)
ROOT
ATOM      1  C   UNL d   1       1.181  -0.976  -2.592  0.00  0.00     0.023 A 
ATOM      2  C1  UNL d   1       1.259   0.367  -2.223  0.00  0.00     0.003 A 
ATOM      3  C2  UNL d   1       0.767   0.782  -0.983  0.00  0.00     0.048 A 
ATOM      4  C3  UNL d   1       0.200  -0.152  -0.117  0.00  0.00     0.023 A 
ATOM      5  C4  UNL d   1       0.121  -1.497  -0.481  0.00  0.00     0.048 A 
ATOM      6  C5  UNL d   1       0.613  -1.907  -1.722  0.00  0.00     0.003 A 
ATOM      7  I   UNL d   1      -0.532   0.462   1.729  0.00  0.00    -0.146 I 
ENDROOT
TORSDOF 0
ENDMDL
