MODEL 1
REMARK minimizedAffinity -5.49279356
REMARK minimizedRMSD -1
REMARK  0 active torsions:
REMARK  status: ('A' for Active; 'I' for Inactive)
ROOT
ATOM      1  C   UNL d   1       1.960  -1.212  -2.633  0.00  0.00     0.023 A 
ATOM      2  C1  UNL d   1       1.398  -2.222  -1.853  0.00  0.00     0.003 A 
ATOM      3  C2  UNL d   1       0.524  -1.899  -0.813  0.00  0.00     0.048 A 
ATOM      4  C3  UNL d   1       0.215  -0.563  -0.560  0.00  0.00     0.023 A 
ATOM      5  C4  UNL d   1       0.774   0.451  -1.339  0.00  0.00     0.048 A 
ATOM      6  C5  UNL d   1       1.648   0.123  -2.377  0.00  0.00     0.003 A 
ATOM      7  I   UNL d   1      -1.087  -0.079   0.986  0.00  0.00    -0.146 I 
ENDROOT
TORSDOF 0
ENDMDL
