MODEL 1
REMARK minimizedAffinity -3.77214265
REMARK minimizedRMSD -1
REMARK  0 active torsions:
REMARK  status: ('A' for Active; 'I' for Inactive)
ROOT
ATOM      1  C   UNL d   1       1.534  -0.350  -2.353  0.00  0.00     0.023 A 
ATOM      2  C1  UNL d   1       1.559   0.738  -1.481  0.00  0.00     0.003 A 
ATOM      3  C2  UNL d   1       0.737   0.750  -0.352  0.00  0.00     0.048 A 
ATOM      4  C3  UNL d   1      -0.108  -0.331  -0.102  0.00  0.00     0.023 A 
ATOM      5  C4  UNL d   1      -0.136  -1.423  -0.971  0.00  0.00     0.048 A 
ATOM      6  C5  UNL d   1       0.688  -1.429  -2.098  0.00  0.00     0.003 A 
ATOM      7  I   UNL d   1      -1.334  -0.316   1.577  0.00  0.00    -0.146 I 
ENDROOT
TORSDOF 0
ENDMDL
