MODEL 1
REMARK minimizedAffinity -3.64493442
REMARK minimizedRMSD -1
REMARK  0 active torsions:
REMARK  status: ('A' for Active; 'I' for Inactive)
ROOT
ATOM      1  C   UNL d   1       2.002  -1.334  -2.871  0.00  0.00     0.023 A 
ATOM      2  C1  UNL d   1       1.754   0.007  -2.579  0.00  0.00     0.003 A 
ATOM      3  C2  UNL d   1       0.956   0.349  -1.485  0.00  0.00     0.048 A 
ATOM      4  C3  UNL d   1       0.411  -0.655  -0.686  0.00  0.00     0.023 A 
ATOM      5  C4  UNL d   1       0.657  -1.998  -0.974  0.00  0.00     0.048 A 
ATOM      6  C5  UNL d   1       1.454  -2.336  -2.069  0.00  0.00     0.003 A 
ATOM      7  I   UNL d   1      -0.776  -0.148   0.943  0.00  0.00    -0.146 I 
ENDROOT
TORSDOF 0
ENDMDL
