MODEL 1
REMARK minimizedAffinity 1.62087083
REMARK minimizedRMSD -1
REMARK  0 active torsions:
REMARK  status: ('A' for Active; 'I' for Inactive)
ROOT
ATOM      1  C   UNL d   1       1.097  -1.747  -2.010  0.00  0.00     0.023 A 
ATOM      2  C1  UNL d   1       0.446  -2.480  -1.018  0.00  0.00     0.003 A 
ATOM      3  C2  UNL d   1      -0.303  -1.822  -0.040  0.00  0.00     0.048 A 
ATOM      4  C3  UNL d   1      -0.397  -0.431  -0.060  0.00  0.00     0.023 A 
ATOM      5  C4  UNL d   1       0.253   0.307  -1.051  0.00  0.00     0.048 A 
ATOM      6  C5  UNL d   1       1.001  -0.355  -2.027  0.00  0.00     0.003 A 
ATOM      7  I   UNL d   1      -1.510   0.551   1.394  0.00  0.00    -0.146 I 
ENDROOT
TORSDOF 0
ENDMDL
