MODEL 1
REMARK minimizedAffinity -2.45658851
REMARK minimizedRMSD -1
REMARK  0 active torsions:
REMARK  status: ('A' for Active; 'I' for Inactive)
ROOT
ATOM      1  C   UNL d   1      -0.546  -0.022   1.617  0.00  0.00     0.023 A 
ATOM      2  C1  UNL d   1      -0.354  -1.126   0.786  0.00  0.00     0.003 A 
ATOM      3  C2  UNL d   1       0.370  -0.991  -0.400  0.00  0.00     0.048 A 
ATOM      4  C3  UNL d   1       0.900   0.251  -0.749  0.00  0.00     0.023 A 
ATOM      5  C4  UNL d   1       0.710   1.358   0.079  0.00  0.00     0.048 A 
ATOM      6  C5  UNL d   1      -0.015   1.219   1.264  0.00  0.00     0.003 A 
ATOM      7  I   UNL d   1       1.978   0.455  -2.514  0.00  0.00    -0.146 I 
ENDROOT
TORSDOF 0
ENDMDL
