MODEL 1
REMARK minimizedAffinity -2.83874941
REMARK minimizedRMSD -1
REMARK  0 active torsions:
REMARK  status: ('A' for Active; 'I' for Inactive)
ROOT
ATOM      1  C   UNL d   1      -3.882   0.526  -5.750  0.00  0.00     0.023 A 
ATOM      2  C1  UNL d   1      -3.110   1.681  -5.622  0.00  0.00     0.003 A 
ATOM      3  C2  UNL d   1      -3.716   2.938  -5.683  0.00  0.00     0.048 A 
ATOM      4  C3  UNL d   1      -5.095   3.032  -5.871  0.00  0.00     0.023 A 
ATOM      5  C4  UNL d   1      -5.871   1.879  -5.999  0.00  0.00     0.048 A 
ATOM      6  C5  UNL d   1      -5.260   0.625  -5.938  0.00  0.00     0.003 A 
ATOM      7  I   UNL d   1      -5.999   4.901  -5.961  0.00  0.00    -0.146 I 
ENDROOT
TORSDOF 0
ENDMDL
