MODEL 1
REMARK minimizedAffinity -4.73458672
REMARK minimizedRMSD -1
REMARK  0 active torsions:
REMARK  status: ('A' for Active; 'I' for Inactive)
ROOT
ATOM      1  C   UNL d   1       1.801   1.045  -1.608  0.00  0.00     0.023 A 
ATOM      2  C1  UNL d   1       1.039  -0.093  -1.878  0.00  0.00     0.003 A 
ATOM      3  C2  UNL d   1       0.178  -0.604  -0.905  0.00  0.00     0.048 A 
ATOM      4  C3  UNL d   1       0.081   0.027   0.334  0.00  0.00     0.023 A 
ATOM      5  C4  UNL d   1       0.840   1.166   0.608  0.00  0.00     0.048 A 
ATOM      6  C5  UNL d   1       1.701   1.674  -0.367  0.00  0.00     0.003 A 
ATOM      7  I   UNL d   1      -1.201  -0.732   1.783  0.00  0.00    -0.146 I 
ENDROOT
TORSDOF 0
ENDMDL
