MODEL 1
REMARK minimizedAffinity -4.90461254
REMARK minimizedRMSD -1
REMARK  0 active torsions:
REMARK  status: ('A' for Active; 'I' for Inactive)
ROOT
ATOM      1  C   UNL d   1       1.898   0.308  -2.267  0.00  0.00     0.023 A 
ATOM      2  C1  UNL d   1       1.364   1.507  -1.796  0.00  0.00     0.003 A 
ATOM      3  C2  UNL d   1       0.205   1.499  -1.018  0.00  0.00     0.048 A 
ATOM      4  C3  UNL d   1      -0.415   0.288  -0.712  0.00  0.00     0.023 A 
ATOM      5  C4  UNL d   1       0.116  -0.915  -1.180  0.00  0.00     0.048 A 
ATOM      6  C5  UNL d   1       1.275  -0.902  -1.959  0.00  0.00     0.003 A 
ATOM      7  I   UNL d   1      -2.140   0.274   0.447  0.00  0.00    -0.146 I 
ENDROOT
TORSDOF 0
ENDMDL
