MODEL 1
REMARK minimizedAffinity -0.0547272675
REMARK minimizedRMSD -1
REMARK  0 active torsions:
REMARK  status: ('A' for Active; 'I' for Inactive)
ROOT
ATOM      1  C   UNL d   1       1.110   2.249  -0.811  0.00  0.00     0.023 A 
ATOM      2  C1  UNL d   1       2.048   1.983  -1.809  0.00  0.00     0.003 A 
ATOM      3  C2  UNL d   1       2.606   0.708  -1.922  0.00  0.00     0.048 A 
ATOM      4  C3  UNL d   1       2.221  -0.296  -1.035  0.00  0.00     0.023 A 
ATOM      5  C4  UNL d   1       1.283  -0.035  -0.035  0.00  0.00     0.048 A 
ATOM      6  C5  UNL d   1       0.728   1.241   0.075  0.00  0.00     0.003 A 
ATOM      7  I   UNL d   1       3.051  -2.195  -1.202  0.00  0.00    -0.146 I 
ENDROOT
TORSDOF 0
ENDMDL
