MODEL 1
REMARK minimizedAffinity -2.24233389
REMARK minimizedRMSD -1
REMARK  0 active torsions:
REMARK  status: ('A' for Active; 'I' for Inactive)
ROOT
ATOM      1  C   UNL d   1       2.174  -1.337  -2.635  0.00  0.00     0.023 A 
ATOM      2  C1  UNL d   1       1.490  -2.314  -1.912  0.00  0.00     0.003 A 
ATOM      3  C2  UNL d   1       0.588  -1.942  -0.914  0.00  0.00     0.048 A 
ATOM      4  C3  UNL d   1       0.373  -0.591  -0.644  0.00  0.00     0.023 A 
ATOM      5  C4  UNL d   1       1.055   0.391  -1.366  0.00  0.00     0.048 A 
ATOM      6  C5  UNL d   1       1.957   0.014  -2.363  0.00  0.00     0.003 A 
ATOM      7  I   UNL d   1      -0.970  -0.034   0.841  0.00  0.00    -0.146 I 
ENDROOT
TORSDOF 0
ENDMDL
