MODEL 1
REMARK minimizedAffinity -5.0531621
REMARK minimizedRMSD -1
REMARK  0 active torsions:
REMARK  status: ('A' for Active; 'I' for Inactive)
ROOT
ATOM      1  C   UNL d   1       2.038  -1.317  -2.599  0.00  0.00     0.023 A 
ATOM      2  C1  UNL d   1       1.442  -2.349  -1.875  0.00  0.00     0.003 A 
ATOM      3  C2  UNL d   1       0.637  -2.056  -0.772  0.00  0.00     0.048 A 
ATOM      4  C3  UNL d   1       0.433  -0.728  -0.399  0.00  0.00     0.023 A 
ATOM      5  C4  UNL d   1       1.027   0.309  -1.122  0.00  0.00     0.048 A 
ATOM      6  C5  UNL d   1       1.831   0.010  -2.223  0.00  0.00     0.003 A 
ATOM      7  I   UNL d   1      -0.764  -0.288   1.242  0.00  0.00    -0.146 I 
ENDROOT
TORSDOF 0
ENDMDL
