MODEL 1
REMARK minimizedAffinity -3.06558466
REMARK minimizedRMSD -1
REMARK  0 active torsions:
REMARK  status: ('A' for Active; 'I' for Inactive)
ROOT
ATOM      1  C   UNL d   1      -2.261   3.640  -2.513  0.00  0.00     0.020 A 
ATOM      2  C1  UNL d   1      -1.039   2.974  -2.599  0.00  0.00     0.020 A 
ATOM      3  C2  UNL d   1      -0.327   2.668  -1.438  0.00  0.00     0.034 A 
ATOM      4  C3  UNL d   1      -0.835   3.029  -0.185  0.00  0.00     0.017 A 
ATOM      5  C4  UNL d   1      -2.062   3.698  -0.099  0.00  0.00     0.017 A 
ATOM      6  C5  UNL d   1      -2.771   4.001  -1.265  0.00  0.00     0.034 A 
ATOM      7 Cl   UNL d   1      -2.754   4.175   1.411  0.00  0.00    -0.070 Cl
ATOM      8 Cl1  UNL d   1       0.099   2.620   1.210  0.00  0.00    -0.070 Cl
ENDROOT
TORSDOF 0
ENDMDL
