MODEL 1
REMARK minimizedAffinity 5.86690331
REMARK minimizedRMSD -1
REMARK  0 active torsions:
REMARK  status: ('A' for Active; 'I' for Inactive)
ROOT
ATOM      1  C   UNL d   1       0.364  -0.620   4.435  0.00  0.00     0.020 A 
ATOM      2  C1  UNL d   1      -0.790   0.163   4.400  0.00  0.00     0.020 A 
ATOM      3  C2  UNL d   1      -0.902   1.199   3.471  0.00  0.00     0.034 A 
ATOM      4  C3  UNL d   1       0.141   1.456   2.574  0.00  0.00     0.017 A 
ATOM      5  C4  UNL d   1       1.298   0.670   2.610  0.00  0.00     0.017 A 
ATOM      6  C5  UNL d   1       1.406  -0.366   3.542  0.00  0.00     0.034 A 
ATOM      7 Cl   UNL d   1       2.627   0.927   1.534  0.00  0.00    -0.070 Cl
ATOM      8 Cl1  UNL d   1      -0.066   2.754   1.452  0.00  0.00    -0.070 Cl
ENDROOT
TORSDOF 0
ENDMDL
