MODEL 1
REMARK minimizedAffinity 6.12320614
REMARK minimizedRMSD -1
REMARK  0 active torsions:
REMARK  status: ('A' for Active; 'I' for Inactive)
ROOT
ATOM      1  C   UNL d   1      -3.343   4.540  -2.673  0.00  0.00     0.020 A 
ATOM      2  C1  UNL d   1      -4.498   3.994  -2.114  0.00  0.00     0.020 A 
ATOM      3  C2  UNL d   1      -4.499   2.672  -1.666  0.00  0.00     0.034 A 
ATOM      4  C3  UNL d   1      -3.343   1.891  -1.776  0.00  0.00     0.017 A 
ATOM      5  C4  UNL d   1      -2.184   2.440  -2.336  0.00  0.00     0.017 A 
ATOM      6  C5  UNL d   1      -2.188   3.765  -2.783  0.00  0.00     0.034 A 
ATOM      7 Cl   UNL d   1      -0.719   1.538  -2.505  0.00  0.00    -0.070 Cl
ATOM      8 Cl1  UNL d   1      -3.415   0.263  -1.201  0.00  0.00    -0.070 Cl
ENDROOT
TORSDOF 0
ENDMDL
