MODEL 1
REMARK minimizedAffinity -3.11178923
REMARK minimizedRMSD -1
REMARK  0 active torsions:
REMARK  status: ('A' for Active; 'I' for Inactive)
ROOT
ATOM      1  C   UNL d   1      -5.851  -2.839   5.466  0.00  0.00     0.020 A 
ATOM      2  C1  UNL d   1      -5.423  -3.000   4.149  0.00  0.00     0.020 A 
ATOM      3  C2  UNL d   1      -5.145  -1.879   3.364  0.00  0.00     0.034 A 
ATOM      4  C3  UNL d   1      -5.293  -0.593   3.896  0.00  0.00     0.017 A 
ATOM      5  C4  UNL d   1      -5.722  -0.433   5.219  0.00  0.00     0.017 A 
ATOM      6  C5  UNL d   1      -6.000  -1.559   6.000  0.00  0.00     0.034 A 
ATOM      7 Cl   UNL d   1      -5.929   1.122   5.945  0.00  0.00    -0.070 Cl
ATOM      8 Cl1  UNL d   1      -4.931   0.749   2.869  0.00  0.00    -0.070 Cl
ENDROOT
TORSDOF 0
ENDMDL
