MODEL 1
REMARK minimizedAffinity 10.8156433
REMARK minimizedRMSD -1
REMARK  0 active torsions:
REMARK  status: ('A' for Active; 'I' for Inactive)
ROOT
ATOM      1  C   UNL d   1       1.321   0.057  -0.753  0.00  0.00     0.020 A 
ATOM      2  C1  UNL d   1       0.398   1.049  -0.422  0.00  0.00     0.020 A 
ATOM      3  C2  UNL d   1      -0.965   0.748  -0.376  0.00  0.00     0.034 A 
ATOM      4  C3  UNL d   1      -1.409  -0.548  -0.662  0.00  0.00     0.017 A 
ATOM      5  C4  UNL d   1      -0.482  -1.543  -0.993  0.00  0.00     0.017 A 
ATOM      6  C5  UNL d   1       0.881  -1.236  -1.038  0.00  0.00     0.034 A 
ATOM      7 Cl   UNL d   1      -0.955  -3.165  -1.358  0.00  0.00    -0.070 Cl
ATOM      8 Cl1  UNL d   1      -3.109  -0.850  -0.586  0.00  0.00    -0.070 Cl
ENDROOT
TORSDOF 0
ENDMDL
