MODEL 1
REMARK minimizedAffinity 8.68683338
REMARK minimizedRMSD -1
REMARK  0 active torsions:
REMARK  status: ('A' for Active; 'I' for Inactive)
ROOT
ATOM      1  C   UNL d   1       1.111   0.076  -0.707  0.00  0.00     0.020 A 
ATOM      2  C1  UNL d   1      -0.100   0.628  -0.288  0.00  0.00     0.020 A 
ATOM      3  C2  UNL d   1      -0.320   0.880   1.068  0.00  0.00     0.034 A 
ATOM      4  C3  UNL d   1       0.672   0.581   2.010  0.00  0.00     0.017 A 
ATOM      5  C4  UNL d   1       1.886   0.027   1.588  0.00  0.00     0.017 A 
ATOM      6  C5  UNL d   1       2.101  -0.223   0.229  0.00  0.00     0.034 A 
ATOM      7 Cl   UNL d   1       3.157  -0.368   2.691  0.00  0.00    -0.070 Cl
ATOM      8 Cl1  UNL d   1       0.332   0.919   3.670  0.00  0.00    -0.070 Cl
ENDROOT
TORSDOF 0
ENDMDL
