MODEL 1
REMARK minimizedAffinity -1.59841847
REMARK minimizedRMSD -1
REMARK  0 active torsions:
REMARK  status: ('A' for Active; 'I' for Inactive)
ROOT
ATOM      1  O1  BZF d   1       1.714   2.938   0.632  0.00  0.00    -0.204 OA
ATOM      2  C2  BZF d   1       1.585   2.284   1.842  0.00  0.00     0.174 A 
ATOM      3  C3  BZF d   1       1.280   0.984   1.653  0.00  0.00    -0.012 A 
ATOM      4  C3A BZF d   1       1.304   0.794   0.235  0.00  0.00    -0.107 A 
ATOM      5  C4  BZF d   1       1.097  -0.289  -0.571  0.00  0.00     0.055 A 
ATOM      6  C5  BZF d   1       1.122  -0.123  -1.920  0.00  0.00    -0.016 A 
ATOM      7  C6  BZF d   1       1.346   1.110  -2.495  0.00  0.00     0.022 A 
ATOM      8  C7  BZF d   1       1.561   2.213  -1.737  0.00  0.00     0.029 A 
ATOM      9  C7A BZF d   1       1.569   2.042  -0.374  0.00  0.00     0.058 A 
ENDROOT
TORSDOF 0
ENDMDL
