MODEL 1
REMARK minimizedAffinity -2.87237072
REMARK minimizedRMSD -1
REMARK  0 active torsions:
REMARK  status: ('A' for Active; 'I' for Inactive)
ROOT
ATOM      1  O1  BZF d   1       0.470   0.180  -1.849  0.00  0.00    -0.204 OA
ATOM      2  C2  BZF d   1       1.211   1.024  -1.044  0.00  0.00     0.174 A 
ATOM      3  C3  BZF d   1       1.829   0.332  -0.065  0.00  0.00    -0.012 A 
ATOM      4  C3A BZF d   1       1.525  -1.042  -0.327  0.00  0.00    -0.107 A 
ATOM      5  C4  BZF d   1       1.866  -2.212   0.288  0.00  0.00     0.055 A 
ATOM      6  C5  BZF d   1       1.343  -3.378  -0.174  0.00  0.00    -0.016 A 
ATOM      7  C6  BZF d   1       0.474  -3.410  -1.245  0.00  0.00     0.022 A 
ATOM      8  C7  BZF d   1       0.111  -2.275  -1.891  0.00  0.00     0.029 A 
ATOM      9  C7A BZF d   1       0.663  -1.099  -1.446  0.00  0.00     0.058 A 
ENDROOT
TORSDOF 0
ENDMDL
