MODEL 1
REMARK minimizedAffinity -4.51518822
REMARK minimizedRMSD -1
REMARK  0 active torsions:
REMARK  status: ('A' for Active; 'I' for Inactive)
ROOT
ATOM      1  O1  BZF d   1       1.467   3.710  -2.053  0.00  0.00    -0.204 OA
ATOM      2  C2  BZF d   1       1.893   4.163  -0.819  0.00  0.00     0.174 A 
ATOM      3  C3  BZF d   1       1.867   3.168   0.091  0.00  0.00    -0.012 A 
ATOM      4  C3A BZF d   1       1.483   1.999  -0.640  0.00  0.00    -0.107 A 
ATOM      5  C4  BZF d   1       1.298   0.692  -0.291  0.00  0.00     0.055 A 
ATOM      6  C5  BZF d   1       0.851  -0.185  -1.228  0.00  0.00    -0.016 A 
ATOM      7  C6  BZF d   1       0.575   0.211  -2.520  0.00  0.00     0.022 A 
ATOM      8  C7  BZF d   1       0.748   1.496  -2.915  0.00  0.00     0.029 A 
ATOM      9  C7A BZF d   1       1.231   2.378  -1.979  0.00  0.00     0.058 A 
ENDROOT
TORSDOF 0
ENDMDL
