MODEL 1
REMARK minimizedAffinity 9.69867516
REMARK minimizedRMSD -1
REMARK  0 active torsions:
REMARK  status: ('A' for Active; 'I' for Inactive)
ROOT
ATOM      1  O1  BZF d   1      -3.878   1.992   0.269  0.00  0.00    -0.204 OA
ATOM      2  C2  BZF d   1      -3.073   3.052  -0.100  0.00  0.00     0.174 A 
ATOM      3  C3  BZF d   1      -2.436   3.566   0.972  0.00  0.00    -0.012 A 
ATOM      4  C3A BZF d   1      -2.800   2.719   2.067  0.00  0.00    -0.107 A 
ATOM      5  C4  BZF d   1      -2.473   2.706   3.393  0.00  0.00     0.055 A 
ATOM      6  C5  BZF d   1      -3.056   1.789   4.208  0.00  0.00    -0.016 A 
ATOM      7  C6  BZF d   1      -3.973   0.874   3.733  0.00  0.00     0.022 A 
ATOM      8  C7  BZF d   1      -4.325   0.845   2.424  0.00  0.00     0.029 A 
ATOM      9  C7A BZF d   1      -3.713   1.749   1.592  0.00  0.00     0.058 A 
ENDROOT
TORSDOF 0
ENDMDL
