MODEL 1
REMARK minimizedAffinity 3.00104117
REMARK minimizedRMSD -1
REMARK  0 active torsions:
REMARK  status: ('A' for Active; 'I' for Inactive)
ROOT
ATOM      1  O1  BZF d   1       1.034   1.957  -3.039  0.00  0.00    -0.204 OA
ATOM      2  C2  BZF d   1       1.568   3.181  -2.687  0.00  0.00     0.174 A 
ATOM      3  C3  BZF d   1       1.944   3.185  -1.392  0.00  0.00    -0.012 A 
ATOM      4  C3A BZF d   1       1.710   1.852  -0.928  0.00  0.00    -0.107 A 
ATOM      5  C4  BZF d   1       1.901   1.228   0.272  0.00  0.00     0.055 A 
ATOM      6  C5  BZF d   1       1.501  -0.063   0.416  0.00  0.00    -0.016 A 
ATOM      7  C6  BZF d   1       0.902  -0.757  -0.615  0.00  0.00     0.022 A 
ATOM      8  C7  BZF d   1       0.696  -0.182  -1.825  0.00  0.00     0.029 A 
ATOM      9  C7A BZF d   1       1.130   1.112  -1.984  0.00  0.00     0.058 A 
ENDROOT
TORSDOF 0
ENDMDL
