MODEL 1
REMARK minimizedAffinity 7.9399991
REMARK minimizedRMSD -1
REMARK  0 active torsions:
REMARK  status: ('A' for Active; 'I' for Inactive)
ROOT
ATOM      1  O1  BZF d   1       2.365   1.520  -1.496  0.00  0.00    -0.204 OA
ATOM      2  C2  BZF d   1       2.317   0.432  -0.645  0.00  0.00     0.174 A 
ATOM      3  C3  BZF d   1       1.042   0.053  -0.425  0.00  0.00    -0.012 A 
ATOM      4  C3A BZF d   1       0.247   0.903  -1.257  0.00  0.00    -0.107 A 
ATOM      5  C4  BZF d   1      -1.095   1.001  -1.489  0.00  0.00     0.055 A 
ATOM      6  C5  BZF d   1      -1.554   1.987  -2.305  0.00  0.00    -0.016 A 
ATOM      7  C6  BZF d   1      -0.700   2.893  -2.900  0.00  0.00     0.022 A 
ATOM      8  C7  BZF d   1       0.639   2.832  -2.704  0.00  0.00     0.029 A 
ATOM      9  C7A BZF d   1       1.109   1.817  -1.907  0.00  0.00     0.058 A 
ENDROOT
TORSDOF 0
ENDMDL
