MODEL 1
REMARK minimizedAffinity -1.26653397
REMARK minimizedRMSD -1
REMARK  0 active torsions:
REMARK  status: ('A' for Active; 'I' for Inactive)
ROOT
ATOM      1  O1  BZF d   1       2.227   3.501  -2.145  0.00  0.00    -0.204 OA
ATOM      2  C2  BZF d   1       2.473   4.438  -1.160  0.00  0.00     0.174 A 
ATOM      3  C3  BZF d   1       2.156   3.948   0.056  0.00  0.00    -0.012 A 
ATOM      4  C3A BZF d   1       1.770   2.590  -0.175  0.00  0.00    -0.107 A 
ATOM      5  C4  BZF d   1       1.362   1.577   0.646  0.00  0.00     0.055 A 
ATOM      6  C5  BZF d   1       0.988   0.392   0.096  0.00  0.00    -0.016 A 
ATOM      7  C6  BZF d   1       1.005   0.186  -1.268  0.00  0.00     0.022 A 
ATOM      8  C7  BZF d   1       1.407   1.159  -2.121  0.00  0.00     0.029 A 
ATOM      9  C7A BZF d   1       1.816   2.347  -1.567  0.00  0.00     0.058 A 
ENDROOT
TORSDOF 0
ENDMDL
