MODEL 1
REMARK minimizedAffinity 4.85932541
REMARK minimizedRMSD -1
REMARK  0 active torsions:
REMARK  status: ('A' for Active; 'I' for Inactive)
ROOT
ATOM      1  O1  BZF d   1       2.278   0.408   1.714  0.00  0.00    -0.204 OA
ATOM      2  C2  BZF d   1       2.067   1.721   2.089  0.00  0.00     0.174 A 
ATOM      3  C3  BZF d   1       1.415   2.396   1.120  0.00  0.00    -0.012 A 
ATOM      4  C3A BZF d   1       1.125   1.423   0.113  0.00  0.00    -0.107 A 
ATOM      5  C4  BZF d   1       0.479   1.480  -1.089  0.00  0.00     0.055 A 
ATOM      6  C5  BZF d   1       0.430   0.366  -1.866  0.00  0.00    -0.016 A 
ATOM      7  C6  BZF d   1       1.019  -0.819  -1.474  0.00  0.00     0.022 A 
ATOM      8  C7  BZF d   1       1.666  -0.926  -0.288  0.00  0.00     0.029 A 
ATOM      9  C7A BZF d   1       1.689   0.189   0.514  0.00  0.00     0.058 A 
ENDROOT
TORSDOF 0
ENDMDL
