MODEL 1
REMARK minimizedAffinity -5.1057744
REMARK minimizedRMSD -1
REMARK  0 active torsions:
REMARK  status: ('A' for Active; 'I' for Inactive)
ROOT
ATOM      1  O1  BZF d   1       1.171   1.496   1.310  0.00  0.00    -0.204 OA
ATOM      2  C2  BZF d   1      -0.012   1.086   1.894  0.00  0.00     0.174 A 
ATOM      3  C3  BZF d   1      -0.748   0.362   1.027  0.00  0.00    -0.012 A 
ATOM      4  C3A BZF d   1       0.065   0.238  -0.144  0.00  0.00    -0.107 A 
ATOM      5  C4  BZF d   1      -0.111  -0.384  -1.347  0.00  0.00     0.055 A 
ATOM      6  C5  BZF d   1       0.845  -0.253  -2.304  0.00  0.00    -0.016 A 
ATOM      7  C6  BZF d   1       1.984   0.496  -2.095  0.00  0.00     0.022 A 
ATOM      8  C7  BZF d   1       2.205   1.128  -0.916  0.00  0.00     0.029 A 
ATOM      9  C7A BZF d   1       1.257   0.970   0.065  0.00  0.00     0.058 A 
ENDROOT
TORSDOF 0
ENDMDL
