MODEL 1
REMARK minimizedAffinity 9.39689445
REMARK minimizedRMSD -1
REMARK  0 active torsions:
REMARK  status: ('A' for Active; 'I' for Inactive)
ROOT
ATOM      1  O1  BZF d   1      -3.056   1.009   4.398  0.00  0.00    -0.204 OA
ATOM      2  C2  BZF d   1      -2.031   1.542   5.156  0.00  0.00     0.174 A 
ATOM      3  C3  BZF d   1      -1.445   2.572   4.511  0.00  0.00    -0.012 A 
ATOM      4  C3A BZF d   1      -2.207   2.749   3.313  0.00  0.00    -0.107 A 
ATOM      5  C4  BZF d   1      -2.126   3.626   2.270  0.00  0.00     0.055 A 
ATOM      6  C5  BZF d   1      -2.977   3.485   1.220  0.00  0.00    -0.016 A 
ATOM      7  C6  BZF d   1      -3.918   2.476   1.179  0.00  0.00     0.022 A 
ATOM      8  C7  BZF d   1      -4.040   1.585   2.193  0.00  0.00     0.029 A 
ATOM      9  C7A BZF d   1      -3.203   1.746   3.270  0.00  0.00     0.058 A 
ENDROOT
TORSDOF 0
ENDMDL
