MODEL 1
REMARK minimizedAffinity -1.67242491
REMARK minimizedRMSD -1
REMARK  0 active torsions:
REMARK  status: ('A' for Active; 'I' for Inactive)
ROOT
ATOM      1  O1  BZF d   1       1.760   3.662  -0.870  0.00  0.00    -0.204 OA
ATOM      2  C2  BZF d   1       1.766   3.480  -2.240  0.00  0.00     0.174 A 
ATOM      3  C3  BZF d   1       1.806   2.168  -2.549  0.00  0.00    -0.012 A 
ATOM      4  C3A BZF d   1       1.732   1.484  -1.294  0.00  0.00    -0.107 A 
ATOM      5  C4  BZF d   1       1.713   0.164  -0.945  0.00  0.00     0.055 A 
ATOM      6  C5  BZF d   1       1.710  -0.170   0.373  0.00  0.00    -0.016 A 
ATOM      7  C6  BZF d   1       1.731   0.788   1.365  0.00  0.00     0.022 A 
ATOM      8  C7  BZF d   1       1.745   2.110   1.067  0.00  0.00     0.029 A 
ATOM      9  C7A BZF d   1       1.715   2.451  -0.263  0.00  0.00     0.058 A 
ENDROOT
TORSDOF 0
ENDMDL
