MODEL 1
REMARK minimizedAffinity 14.666646
REMARK minimizedRMSD -1
REMARK  0 active torsions:
REMARK  status: ('A' for Active; 'I' for Inactive)
ROOT
ATOM      1  O1  BZF d   1       1.991   2.849  -1.986  0.00  0.00    -0.204 OA
ATOM      2  C2  BZF d   1       2.103   2.059  -0.858  0.00  0.00     0.174 A 
ATOM      3  C3  BZF d   1       0.889   1.642  -0.443  0.00  0.00    -0.012 A 
ATOM      4  C3A BZF d   1      -0.032   2.130  -1.424  0.00  0.00    -0.107 A 
ATOM      5  C4  BZF d   1      -1.385   2.028  -1.574  0.00  0.00     0.055 A 
ATOM      6  C5  BZF d   1      -1.987   2.681  -2.602  0.00  0.00    -0.016 A 
ATOM      7  C6  BZF d   1      -1.268   3.449  -3.494  0.00  0.00     0.022 A 
ATOM      8  C7  BZF d   1       0.077   3.577  -3.389  0.00  0.00     0.029 A 
ATOM      9  C7A BZF d   1       0.692   2.891  -2.371  0.00  0.00     0.058 A 
ENDROOT
TORSDOF 0
ENDMDL
