MODEL 1
REMARK minimizedAffinity 2.23910284
REMARK minimizedRMSD -1
REMARK  0 active torsions:
REMARK  status: ('A' for Active; 'I' for Inactive)
ROOT
ATOM      1  O1  BZF d   1      -1.385   2.232   4.585  0.00  0.00    -0.204 OA
ATOM      2  C2  BZF d   1      -1.809   1.146   5.326  0.00  0.00     0.174 A 
ATOM      3  C3  BZF d   1      -2.803   0.492   4.690  0.00  0.00    -0.012 A 
ATOM      4  C3A BZF d   1      -2.950   1.160   3.434  0.00  0.00    -0.107 A 
ATOM      5  C4  BZF d   1      -3.766   0.965   2.357  0.00  0.00     0.055 A 
ATOM      6  C5  BZF d   1      -3.709   1.839   1.318  0.00  0.00    -0.016 A 
ATOM      7  C6  BZF d   1      -2.853   2.920   1.325  0.00  0.00     0.022 A 
ATOM      8  C7  BZF d   1      -2.020   3.153   2.369  0.00  0.00     0.029 A 
ATOM      9  C7A BZF d   1      -2.052   2.252   3.406  0.00  0.00     0.058 A 
ENDROOT
TORSDOF 0
ENDMDL
