MODEL 1
REMARK minimizedAffinity 8.24822807
REMARK minimizedRMSD -1
REMARK  0 active torsions:
REMARK  status: ('A' for Active; 'I' for Inactive)
ROOT
ATOM      1  O1  BZF d   1       1.878   3.403  -0.809  0.00  0.00    -0.204 OA
ATOM      2  C2  BZF d   1       1.573   3.554  -2.148  0.00  0.00     0.174 A 
ATOM      3  C3  BZF d   1       1.145   2.389  -2.676  0.00  0.00    -0.012 A 
ATOM      4  C3A BZF d   1       1.097   1.473  -1.577  0.00  0.00    -0.107 A 
ATOM      5  C4  BZF d   1       0.735   0.161  -1.464  0.00  0.00     0.055 A 
ATOM      6  C5  BZF d   1       0.874  -0.460  -0.263  0.00  0.00    -0.016 A 
ATOM      7  C6  BZF d   1       1.375   0.197   0.841  0.00  0.00     0.022 A 
ATOM      8  C7  BZF d   1       1.743   1.499   0.779  0.00  0.00     0.029 A 
ATOM      9  C7A BZF d   1       1.573   2.140  -0.425  0.00  0.00     0.058 A 
ENDROOT
TORSDOF 0
ENDMDL
