MODEL 1
REMARK minimizedAffinity -1.23077786
REMARK minimizedRMSD -1
REMARK  0 active torsions:
REMARK  status: ('A' for Active; 'I' for Inactive)
ROOT
ATOM      1  O1  BZF d   1       2.068  -1.643   0.419  0.00  0.00    -0.204 OA
ATOM      2  C2  BZF d   1       1.443  -2.360  -0.583  0.00  0.00     0.174 A 
ATOM      3  C3  BZF d   1       0.755  -1.538  -1.402  0.00  0.00    -0.012 A 
ATOM      4  C3A BZF d   1       1.039  -0.216  -0.933  0.00  0.00    -0.107 A 
ATOM      5  C4  BZF d   1       0.659   1.028  -1.348  0.00  0.00     0.055 A 
ATOM      6  C5  BZF d   1       1.052   2.112  -0.628  0.00  0.00    -0.016 A 
ATOM      7  C6  BZF d   1       1.820   1.988   0.512  0.00  0.00     0.022 A 
ATOM      8  C7  BZF d   1       2.225   0.774   0.959  0.00  0.00     0.029 A 
ATOM      9  C7A BZF d   1       1.857  -0.320   0.215  0.00  0.00     0.058 A 
ENDROOT
TORSDOF 0
ENDMDL
