MODEL 1
REMARK minimizedAffinity 0.872062981
REMARK minimizedRMSD -1
REMARK  0 active torsions:
REMARK  status: ('A' for Active; 'I' for Inactive)
ROOT
ATOM      1  O1  BZF d   1       0.963  -2.568   0.048  0.00  0.00    -0.204 OA
ATOM      2  C2  BZF d   1       0.368  -3.086  -1.087  0.00  0.00     0.174 A 
ATOM      3  C3  BZF d   1      -0.065  -2.096  -1.894  0.00  0.00    -0.012 A 
ATOM      4  C3A BZF d   1       0.363  -0.884  -1.266  0.00  0.00    -0.107 A 
ATOM      5  C4  BZF d   1       0.246   0.436  -1.596  0.00  0.00     0.055 A 
ATOM      6  C5  BZF d   1       0.709   1.377  -0.731  0.00  0.00    -0.016 A 
ATOM      7  C6  BZF d   1       1.290   1.033   0.472  0.00  0.00     0.022 A 
ATOM      8  C7  BZF d   1       1.433  -0.263   0.840  0.00  0.00     0.029 A 
ATOM      9  C7A BZF d   1       0.995  -1.217  -0.046  0.00  0.00     0.058 A 
ENDROOT
TORSDOF 0
ENDMDL
