MODEL 1
REMARK minimizedAffinity 3.4519217
REMARK minimizedRMSD -1
REMARK  0 active torsions:
REMARK  status: ('A' for Active; 'I' for Inactive)
ROOT
ATOM      1  O1  BZF d   1       1.311  -1.786  -0.200  0.00  0.00    -0.204 OA
ATOM      2  C2  BZF d   1       0.832  -2.373  -1.355  0.00  0.00     0.174 A 
ATOM      3  C3  BZF d   1       0.411  -1.436  -2.229  0.00  0.00    -0.012 A 
ATOM      4  C3A BZF d   1       0.727  -0.182  -1.617  0.00  0.00    -0.107 A 
ATOM      5  C4  BZF d   1       0.567   1.118  -2.004  0.00  0.00     0.055 A 
ATOM      6  C5  BZF d   1       0.915   2.111  -1.143  0.00  0.00    -0.016 A 
ATOM      7  C6  BZF d   1       1.419   1.840   0.112  0.00  0.00     0.022 A 
ATOM      8  C7  BZF d   1       1.600   0.566   0.538  0.00  0.00     0.029 A 
ATOM      9  C7A BZF d   1       1.281  -0.439  -0.342  0.00  0.00     0.058 A 
ENDROOT
TORSDOF 0
ENDMDL
