MODEL 1
REMARK minimizedAffinity 6.84010696
REMARK minimizedRMSD -1
REMARK  0 active torsions:
REMARK  status: ('A' for Active; 'I' for Inactive)
ROOT
ATOM      1  O1  BZF d   1       1.515   2.439  -2.263  0.00  0.00    -0.204 OA
ATOM      2  C2  BZF d   1       1.997   3.558  -1.612  0.00  0.00     0.174 A 
ATOM      3  C3  BZF d   1       2.147   3.316  -0.293  0.00  0.00    -0.012 A 
ATOM      4  C3A BZF d   1       1.820   1.933  -0.125  0.00  0.00    -0.107 A 
ATOM      5  C4  BZF d   1       1.796   1.099   0.956  0.00  0.00     0.055 A 
ATOM      6  C5  BZF d   1       1.361  -0.178   0.796  0.00  0.00    -0.016 A 
ATOM      7  C6  BZF d   1       0.939  -0.652  -0.429  0.00  0.00     0.022 A 
ATOM      8  C7  BZF d   1       0.949   0.136  -1.531  0.00  0.00     0.029 A 
ATOM      9  C7A BZF d   1       1.419   1.418  -1.379  0.00  0.00     0.058 A 
ENDROOT
TORSDOF 0
ENDMDL
