MODEL 1
REMARK minimizedAffinity 4.93030357
REMARK minimizedRMSD -1
REMARK  0 active torsions:
REMARK  status: ('A' for Active; 'I' for Inactive)
ROOT
ATOM      1  C4' PXY d   1      -0.877  -4.449  -3.488  0.00  0.00     0.077 C 
ATOM      2  C1' PXY d   1      -5.999  -5.391  -5.997  0.00  0.00     0.077 C 
ATOM      3  C1  PXY d   1      -4.652  -5.136  -5.349  0.00  0.00    -0.082 A 
ATOM      4  C2  PXY d   1      -4.179  -5.998  -4.464  0.00  0.00     0.003 A 
ATOM      5  C3  PXY d   1      -2.978  -5.768  -3.845  0.00  0.00     0.003 A 
ATOM      6  C4  PXY d   1      -2.228  -4.670  -4.174  0.00  0.00    -0.082 A 
ATOM      7  C5  PXY d   1      -2.699  -3.791  -5.084  0.00  0.00     0.003 A 
ATOM      8  C6  PXY d   1      -3.940  -4.023  -5.671  0.00  0.00     0.003 A 
ENDROOT
TORSDOF 0
ENDMDL
