MODEL 1
REMARK minimizedAffinity 4.57291555
REMARK minimizedRMSD -1
REMARK  0 active torsions:
REMARK  status: ('A' for Active; 'I' for Inactive)
ROOT
ATOM      1  C4' PXY d   1       1.306  -4.135  -4.780  0.00  0.00     0.077 C 
ATOM      2  C1' PXY d   1       2.221  -4.250   0.926  0.00  0.00     0.077 C 
ATOM      3  C1  PXY d   1       1.969  -4.224  -0.568  0.00  0.00    -0.082 A 
ATOM      4  C2  PXY d   1       2.985  -4.351  -1.405  0.00  0.00     0.003 A 
ATOM      5  C3  PXY d   1       2.779  -4.297  -2.760  0.00  0.00     0.003 A 
ATOM      6  C4  PXY d   1       1.513  -4.165  -3.263  0.00  0.00    -0.082 A 
ATOM      7  C5  PXY d   1       0.469  -4.046  -2.416  0.00  0.00     0.003 A 
ATOM      8  C6  PXY d   1       0.704  -4.061  -1.044  0.00  0.00     0.003 A 
ENDROOT
TORSDOF 0
ENDMDL
