MODEL 1
REMARK minimizedAffinity 17.4381294
REMARK minimizedRMSD -1
REMARK  0 active torsions:
REMARK  status: ('A' for Active; 'I' for Inactive)
ROOT
ATOM      1  C4' PXY d   1      -4.195   0.714  -6.000  0.00  0.00     0.077 C 
ATOM      2  C1' PXY d   1      -3.806   4.941  -2.076  0.00  0.00     0.077 C 
ATOM      3  C1  PXY d   1      -3.904   3.840  -3.114  0.00  0.00    -0.082 A 
ATOM      4  C2  PXY d   1      -4.739   2.832  -2.922  0.00  0.00     0.003 A 
ATOM      5  C3  PXY d   1      -4.816   1.812  -3.835  0.00  0.00     0.003 A 
ATOM      6  C4  PXY d   1      -4.070   1.852  -4.983  0.00  0.00    -0.082 A 
ATOM      7  C5  PXY d   1      -3.224   2.882  -5.191  0.00  0.00     0.003 A 
ATOM      8  C6  PXY d   1      -3.130   3.887  -4.233  0.00  0.00     0.003 A 
ENDROOT
TORSDOF 0
ENDMDL
