MODEL 1
REMARK minimizedAffinity 12.8284426
REMARK minimizedRMSD -1
REMARK  0 active torsions:
REMARK  status: ('A' for Active; 'I' for Inactive)
ROOT
ATOM      1  C4' PXY d   1      -4.226  -0.533  -5.947  0.00  0.00     0.077 C 
ATOM      2  C1' PXY d   1      -5.566   4.425  -3.294  0.00  0.00     0.077 C 
ATOM      3  C1  PXY d   1      -5.219   3.130  -4.001  0.00  0.00    -0.082 A 
ATOM      4  C2  PXY d   1      -5.114   2.011  -3.302  0.00  0.00     0.003 A 
ATOM      5  C3  PXY d   1      -4.770   0.837  -3.921  0.00  0.00     0.003 A 
ATOM      6  C4  PXY d   1      -4.583   0.797  -5.277  0.00  0.00    -0.082 A 
ATOM      7  C5  PXY d   1      -4.699   1.932  -5.998  0.00  0.00     0.003 A 
ATOM      8  C6  PXY d   1      -5.009   3.122  -5.345  0.00  0.00     0.003 A 
ENDROOT
TORSDOF 0
ENDMDL
