MODEL 1
REMARK minimizedAffinity 12.8285599
REMARK minimizedRMSD -1
REMARK  0 active torsions:
REMARK  status: ('A' for Active; 'I' for Inactive)
ROOT
ATOM      1  C4' PXY d   1       1.062   3.732  -2.092  0.00  0.00     0.077 C 
ATOM      2  C1' PXY d   1      -2.180   1.322   2.042  0.00  0.00     0.077 C 
ATOM      3  C1  PXY d   1      -1.319   1.953   0.966  0.00  0.00    -0.082 A 
ATOM      4  C2  PXY d   1      -1.881   2.720   0.045  0.00  0.00     0.003 A 
ATOM      5  C3  PXY d   1      -1.122   3.273  -0.954  0.00  0.00     0.003 A 
ATOM      6  C4  PXY d   1       0.234   3.082  -0.981  0.00  0.00    -0.082 A 
ATOM      7  C5  PXY d   1       0.816   2.310  -0.039  0.00  0.00     0.003 A 
ATOM      8  C6  PXY d   1       0.022   1.724   0.943  0.00  0.00     0.003 A 
ENDROOT
TORSDOF 0
ENDMDL
