MODEL 1
REMARK minimizedAffinity 11.6549492
REMARK minimizedRMSD -1
REMARK  0 active torsions:
REMARK  status: ('A' for Active; 'I' for Inactive)
ROOT
ATOM      1  C4' PXY d   1       3.400  -0.179   1.157  0.00  0.00     0.077 C 
ATOM      2  C1' PXY d   1       6.000  -5.095  -0.422  0.00  0.00     0.077 C 
ATOM      3  C1  PXY d   1       5.306  -3.811  -0.011  0.00  0.00    -0.082 A 
ATOM      4  C2  PXY d   1       5.984  -2.674  -0.005  0.00  0.00     0.003 A 
ATOM      5  C3  PXY d   1       5.381  -1.509   0.394  0.00  0.00     0.003 A 
ATOM      6  C4  PXY d   1       4.056  -1.498   0.741  0.00  0.00    -0.082 A 
ATOM      7  C5  PXY d   1       3.355  -2.652   0.727  0.00  0.00     0.003 A 
ATOM      8  C6  PXY d   1       3.997  -3.831   0.358  0.00  0.00     0.003 A 
ENDROOT
TORSDOF 0
ENDMDL
