MODEL 1
REMARK minimizedAffinity 11.2392988
REMARK minimizedRMSD -1
REMARK  0 active torsions:
REMARK  status: ('A' for Active; 'I' for Inactive)
ROOT
ATOM      1  C4' PXY d   1       1.974   4.554  -2.700  0.00  0.00     0.077 C 
ATOM      2  C1' PXY d   1      -1.333   1.297   0.746  0.00  0.00     0.077 C 
ATOM      3  C1  PXY d   1      -0.455   2.146  -0.152  0.00  0.00    -0.082 A 
ATOM      4  C2  PXY d   1      -0.935   3.267  -0.666  0.00  0.00     0.003 A 
ATOM      5  C3  PXY d   1      -0.166   4.030  -1.506  0.00  0.00     0.003 A 
ATOM      6  C4  PXY d   1       1.127   3.670  -1.780  0.00  0.00    -0.082 A 
ATOM      7  C5  PXY d   1       1.628   2.534  -1.251  0.00  0.00     0.003 A 
ATOM      8  C6  PXY d   1       0.817   1.751  -0.434  0.00  0.00     0.003 A 
ENDROOT
TORSDOF 0
ENDMDL
