MODEL 1
REMARK minimizedAffinity 17.6332531
REMARK minimizedRMSD -1
REMARK  0 active torsions:
REMARK  status: ('A' for Active; 'I' for Inactive)
ROOT
ATOM      1  C4' PXY d   1      -0.365  -3.441  -0.755  0.00  0.00     0.077 C 
ATOM      2  C1' PXY d   1       4.819  -5.999  -0.815  0.00  0.00     0.077 C 
ATOM      3  C1  PXY d   1       3.463  -5.320  -0.790  0.00  0.00    -0.082 A 
ATOM      4  C2  PXY d   1       2.384  -6.000  -1.142  0.00  0.00     0.003 A 
ATOM      5  C3  PXY d   1       1.155  -5.392  -1.156  0.00  0.00     0.003 A 
ATOM      6  C4  PXY d   1       1.022  -4.089  -0.755  0.00  0.00    -0.082 A 
ATOM      7  C5  PXY d   1       2.117  -3.392  -0.385  0.00  0.00     0.003 A 
ATOM      8  C6  PXY d   1       3.361  -4.015  -0.417  0.00  0.00     0.003 A 
ENDROOT
TORSDOF 0
ENDMDL
