MODEL 1
REMARK minimizedAffinity 6.91891146
REMARK minimizedRMSD -1
REMARK  2 active torsions:
REMARK  status: ('A' for Active; 'I' for Inactive)
REMARK    1  A    between atoms: C1_2  and  C2_3 
REMARK    2  A    between atoms: C2_3  and  C3_4 
ROOT
ATOM      1  C3  UNL d   1      -2.527   1.867  -0.609  0.00  0.00    -0.075 A 
ATOM      2  C4  UNL d   1      -1.645   0.865  -0.180  0.00  0.00     0.002 A 
ATOM      3  C5  UNL d   1      -1.281  -0.174  -1.037  0.00  0.00     0.002 A 
ATOM      4  C6  UNL d   1      -1.802  -0.230  -2.328  0.00  0.00    -0.004 A 
ATOM      5  C7  UNL d   1      -2.693   0.751  -2.760  0.00  0.00     0.002 A 
ATOM      6  C8  UNL d   1      -3.055   1.794  -1.905  0.00  0.00     0.002 A 
ENDROOT
BRANCH   1   7
ATOM      7  C2  UNL d   1      -2.902   3.010   0.304  0.00  0.00     0.056 C 
BRANCH   7   8
ATOM      8  C1  UNL d   1      -4.183   2.771   1.110  0.00  0.00     0.007 C 
ATOM      9  C   UNL d   1      -5.166   3.931   1.033  0.00  0.00     0.009 C 
ENDBRANCH   7   8
ENDBRANCH   1   7
TORSDOF 2
ENDMDL
