MODEL 1
REMARK minimizedAffinity -2.0050633
REMARK minimizedRMSD -1
REMARK  2 active torsions:
REMARK  status: ('A' for Active; 'I' for Inactive)
REMARK    1  A    between atoms: C1_2  and  C2_3 
REMARK    2  A    between atoms: C2_3  and  C3_4 
ROOT
ATOM      1  C3  UNL d   1       2.772  -5.998  -3.234  0.00  0.00    -0.075 A 
ATOM      2  C4  UNL d   1       4.124  -5.997  -3.606  0.00  0.00     0.002 A 
ATOM      3  C5  UNL d   1       4.489  -5.976  -4.953  0.00  0.00     0.002 A 
ATOM      4  C6  UNL d   1       3.509  -5.965  -5.943  0.00  0.00    -0.004 A 
ATOM      5  C7  UNL d   1       2.162  -5.982  -5.585  0.00  0.00     0.002 A 
ATOM      6  C8  UNL d   1       1.795  -5.999  -4.238  0.00  0.00     0.002 A 
ENDROOT
BRANCH   1   7
ATOM      7  C2  UNL d   1       2.371  -5.992  -1.778  0.00  0.00     0.056 C 
BRANCH   7   8
ATOM      8  C1  UNL d   1       3.555  -5.999  -0.805  0.00  0.00     0.007 C 
ATOM      9  C   UNL d   1       3.130  -5.978   0.657  0.00  0.00     0.009 C 
ENDBRANCH   7   8
ENDBRANCH   1   7
TORSDOF 2
ENDMDL
