MODEL 1
REMARK minimizedAffinity 0.355472863
REMARK minimizedRMSD -1
REMARK  2 active torsions:
REMARK  status: ('A' for Active; 'I' for Inactive)
REMARK    1  A    between atoms: C1_2  and  C2_3 
REMARK    2  A    between atoms: C2_3  and  C3_4 
ROOT
ATOM      1  C3  UNL d   1       3.694  -5.984  -3.353  0.00  0.00    -0.075 A 
ATOM      2  C4  UNL d   1       2.318  -5.986  -3.623  0.00  0.00     0.002 A 
ATOM      3  C5  UNL d   1       1.854  -5.999  -4.938  0.00  0.00     0.002 A 
ATOM      4  C6  UNL d   1       2.757  -6.000  -5.999  0.00  0.00    -0.004 A 
ATOM      5  C7  UNL d   1       4.127  -5.981  -5.743  0.00  0.00     0.002 A 
ATOM      6  C8  UNL d   1       4.594  -5.972  -4.427  0.00  0.00     0.002 A 
ENDROOT
BRANCH   1   7
ATOM      7  C2  UNL d   1       4.203  -6.000  -1.931  0.00  0.00     0.056 C 
BRANCH   7   8
ATOM      8  C1  UNL d   1       3.399  -5.116  -0.971  0.00  0.00     0.007 C 
ATOM      9  C   UNL d   1       2.648  -5.910   0.089  0.00  0.00     0.009 C 
ENDBRANCH   7   8
ENDBRANCH   1   7
TORSDOF 2
ENDMDL
