MODEL 1
REMARK minimizedAffinity 7.65184736
REMARK minimizedRMSD -1
REMARK  2 active torsions:
REMARK  status: ('A' for Active; 'I' for Inactive)
REMARK    1  A    between atoms: C1_2  and  C2_3 
REMARK    2  A    between atoms: C2_3  and  C3_4 
ROOT
ATOM      1  C3  UNL d   1       2.252  -2.131   3.126  0.00  0.00    -0.075 A 
ATOM      2  C4  UNL d   1       3.523  -2.165   3.720  0.00  0.00     0.002 A 
ATOM      3  C5  UNL d   1       3.953  -3.300   4.408  0.00  0.00     0.002 A 
ATOM      4  C6  UNL d   1       3.116  -4.408   4.521  0.00  0.00    -0.004 A 
ATOM      5  C7  UNL d   1       1.846  -4.379   3.950  0.00  0.00     0.002 A 
ATOM      6  C8  UNL d   1       1.415  -3.247   3.256  0.00  0.00     0.002 A 
ENDROOT
BRANCH   1   7
ATOM      7  C2  UNL d   1       1.793  -0.917   2.354  0.00  0.00     0.056 C 
BRANCH   7   8
ATOM      8  C1  UNL d   1       2.883  -0.280   1.487  0.00  0.00     0.007 C 
ATOM      9  C   UNL d   1       2.847   1.242   1.499  0.00  0.00     0.009 C 
ENDBRANCH   7   8
ENDBRANCH   1   7
TORSDOF 2
ENDMDL
