MODEL 1
REMARK minimizedAffinity -0.590099573
REMARK minimizedRMSD -1
REMARK  2 active torsions:
REMARK  status: ('A' for Active; 'I' for Inactive)
REMARK    1  A    between atoms: C1_2  and  C2_3 
REMARK    2  A    between atoms: C2_3  and  C3_4 
ROOT
ATOM      1  C3  UNL d   1       4.787  -0.313  -3.124  0.00  0.00    -0.075 A 
ATOM      2  C4  UNL d   1       5.737  -1.014  -3.881  0.00  0.00     0.002 A 
ATOM      3  C5  UNL d   1       5.996  -0.651  -5.203  0.00  0.00     0.002 A 
ATOM      4  C6  UNL d   1       5.303   0.406  -5.787  0.00  0.00    -0.004 A 
ATOM      5  C7  UNL d   1       4.345   1.099  -5.050  0.00  0.00     0.002 A 
ATOM      6  C8  UNL d   1       4.087   0.741  -3.725  0.00  0.00     0.002 A 
ENDROOT
BRANCH   1   7
ATOM      7  C2  UNL d   1       4.523  -0.681  -1.683  0.00  0.00     0.056 C 
BRANCH   7   8
ATOM      8  C1  UNL d   1       3.387  -1.693  -1.496  0.00  0.00     0.007 C 
ATOM      9  C   UNL d   1       3.882  -3.104  -1.211  0.00  0.00     0.009 C 
ENDBRANCH   7   8
ENDBRANCH   1   7
TORSDOF 2
ENDMDL
