MODEL 1
REMARK minimizedAffinity 14.3230734
REMARK minimizedRMSD -1
REMARK  1 active torsions:
REMARK  status: ('A' for Active; 'I' for Inactive)
REMARK    1  A    between atoms: C1_2  and  C2_3 
ROOT
ATOM      1  C2  UNL d   1      -3.422   1.748   4.160  0.00  0.00    -0.081 A 
ATOM      2  C3  UNL d   1      -4.102   1.988   5.360  0.00  0.00     0.006 A 
ATOM      3  C4  UNL d   1      -4.048   3.246   5.965  0.00  0.00     0.002 A 
ATOM      4  C5  UNL d   1      -3.320   4.286   5.376  0.00  0.00    -0.080 A 
ATOM      5  C6  UNL d   1      -3.279   5.650   5.999  0.00  0.00     0.076 C 
ATOM      6  C7  UNL d   1      -2.626   4.041   4.187  0.00  0.00     0.002 A 
ATOM      7  C8  UNL d   1      -2.679   2.784   3.582  0.00  0.00     0.006 A 
ENDROOT
BRANCH   1   8
ATOM      8  C1  UNL d   1      -3.531   0.411   3.471  0.00  0.00     0.054 C 
ATOM      9  C   UNL d   1      -2.161  -0.118   3.072  0.00  0.00     0.018 C 
ENDBRANCH   1   8
TORSDOF 1
ENDMDL
