MODEL 1
REMARK minimizedAffinity 16.9128113
REMARK minimizedRMSD -1
REMARK  1 active torsions:
REMARK  status: ('A' for Active; 'I' for Inactive)
REMARK    1  A    between atoms: C1_2  and  C2_3 
ROOT
ATOM      1  C2  UNL d   1      -4.384   0.870   2.057  0.00  0.00    -0.081 A 
ATOM      2  C3  UNL d   1      -5.596   1.380   2.538  0.00  0.00     0.006 A 
ATOM      3  C4  UNL d   1      -5.673   1.934   3.818  0.00  0.00     0.002 A 
ATOM      4  C5  UNL d   1      -4.539   1.993   4.635  0.00  0.00    -0.080 A 
ATOM      5  C6  UNL d   1      -4.602   2.612   6.000  0.00  0.00     0.076 C 
ATOM      6  C7  UNL d   1      -3.332   1.468   4.162  0.00  0.00     0.002 A 
ATOM      7  C8  UNL d   1      -3.254   0.913   2.882  0.00  0.00     0.006 A 
ENDROOT
BRANCH   1   8
ATOM      8  C1  UNL d   1      -4.282   0.331   0.653  0.00  0.00     0.054 C 
ATOM      9  C   UNL d   1      -3.648  -1.053   0.636  0.00  0.00     0.018 C 
ENDBRANCH   1   8
TORSDOF 1
ENDMDL
