MODEL 1
REMARK minimizedAffinity 18.1872902
REMARK minimizedRMSD -1
REMARK  1 active torsions:
REMARK  status: ('A' for Active; 'I' for Inactive)
REMARK    1  A    between atoms: C1_2  and  C2_3 
ROOT
ATOM      1  C2  UNL d   1      -4.382   0.794   1.451  0.00  0.00    -0.081 A 
ATOM      2  C3  UNL d   1      -4.534   1.443   0.219  0.00  0.00     0.006 A 
ATOM      3  C4  UNL d   1      -4.206   0.789  -0.971  0.00  0.00     0.002 A 
ATOM      4  C5  UNL d   1      -3.728  -0.526  -0.950  0.00  0.00    -0.080 A 
ATOM      5  C6  UNL d   1      -3.400  -1.250  -2.222  0.00  0.00     0.076 C 
ATOM      6  C7  UNL d   1      -3.559  -1.168   0.282  0.00  0.00     0.002 A 
ATOM      7  C8  UNL d   1      -3.887  -0.514   1.472  0.00  0.00     0.006 A 
ENDROOT
BRANCH   1   8
ATOM      8  C1  UNL d   1      -4.796   1.474   2.731  0.00  0.00     0.054 C 
ATOM      9  C   UNL d   1      -3.633   1.572   3.707  0.00  0.00     0.018 C 
ENDBRANCH   1   8
TORSDOF 1
ENDMDL
