MODEL 1
REMARK minimizedAffinity 9.47489834
REMARK minimizedRMSD -1
REMARK  1 active torsions:
REMARK  status: ('A' for Active; 'I' for Inactive)
REMARK    1  A    between atoms: C1_2  and  C2_3 
ROOT
ATOM      1  C2  UNL d   1       2.135  -0.174   2.283  0.00  0.00    -0.081 A 
ATOM      2  C3  UNL d   1       3.292  -0.680   1.678  0.00  0.00     0.006 A 
ATOM      3  C4  UNL d   1       3.265  -1.911   1.017  0.00  0.00     0.002 A 
ATOM      4  C5  UNL d   1       2.080  -2.651   0.944  0.00  0.00    -0.080 A 
ATOM      5  C6  UNL d   1       2.030  -3.959   0.211  0.00  0.00     0.076 C 
ATOM      6  C7  UNL d   1       0.929  -2.154   1.564  0.00  0.00     0.002 A 
ATOM      7  C8  UNL d   1       0.956  -0.924   2.225  0.00  0.00     0.006 A 
ENDROOT
BRANCH   1   8
ATOM      8  C1  UNL d   1       2.146   1.182   2.941  0.00  0.00     0.054 C 
ATOM      9  C   UNL d   1       2.543   2.272   1.955  0.00  0.00     0.018 C 
ENDBRANCH   1   8
TORSDOF 1
ENDMDL
