MODEL 1
REMARK minimizedAffinity 10.8693542
REMARK minimizedRMSD -1
REMARK  1 active torsions:
REMARK  status: ('A' for Active; 'I' for Inactive)
REMARK    1  A    between atoms: C1_2  and  C2_3 
ROOT
ATOM      1  C2  UNL d   1      -4.488   2.450   4.766  0.00  0.00    -0.081 A 
ATOM      2  C3  UNL d   1      -3.469   1.507   4.585  0.00  0.00     0.006 A 
ATOM      3  C4  UNL d   1      -3.408   0.747   3.414  0.00  0.00     0.002 A 
ATOM      4  C5  UNL d   1      -4.359   0.924   2.403  0.00  0.00    -0.080 A 
ATOM      5  C6  UNL d   1      -4.287   0.137   1.128  0.00  0.00     0.076 C 
ATOM      6  C7  UNL d   1      -5.387   1.854   2.592  0.00  0.00     0.002 A 
ATOM      7  C8  UNL d   1      -5.449   2.613   3.762  0.00  0.00     0.006 A 
ENDROOT
BRANCH   1   8
ATOM      8  C1  UNL d   1      -4.519   3.316   6.000  0.00  0.00     0.054 C 
ATOM      9  C   UNL d   1      -4.136   4.754   5.676  0.00  0.00     0.018 C 
ENDBRANCH   1   8
TORSDOF 1
ENDMDL
