MODEL 1
REMARK minimizedAffinity 0.984769702
REMARK minimizedRMSD -1
REMARK  1 active torsions:
REMARK  status: ('A' for Active; 'I' for Inactive)
REMARK    1  A    between atoms: C1_2  and  C2_3 
ROOT
ATOM      1  C2  UNL d   1       2.882  -3.032   1.131  0.00  0.00    -0.081 A 
ATOM      2  C3  UNL d   1       2.644  -3.035   2.511  0.00  0.00     0.006 A 
ATOM      3  C4  UNL d   1       1.834  -2.056   3.091  0.00  0.00     0.002 A 
ATOM      4  C5  UNL d   1       1.243  -1.064   2.302  0.00  0.00    -0.080 A 
ATOM      5  C6  UNL d   1       0.347  -0.025   2.908  0.00  0.00     0.076 C 
ATOM      6  C7  UNL d   1       1.496  -1.051   0.926  0.00  0.00     0.002 A 
ATOM      7  C8  UNL d   1       2.306  -2.028   0.345  0.00  0.00     0.006 A 
ENDROOT
BRANCH   1   8
ATOM      8  C1  UNL d   1       3.703  -4.124   0.493  0.00  0.00     0.054 C 
ATOM      9  C   UNL d   1       3.177  -5.502   0.867  0.00  0.00     0.018 C 
ENDBRANCH   1   8
TORSDOF 1
ENDMDL
