MODEL 1
REMARK minimizedAffinity 10.1875038
REMARK minimizedRMSD -1
REMARK  1 active torsions:
REMARK  status: ('A' for Active; 'I' for Inactive)
REMARK    1  A    between atoms: C1_2  and  C2_3 
ROOT
ATOM      1  C2  UNL d   1       1.276  -2.212   0.653  0.00  0.00    -0.081 A 
ATOM      2  C3  UNL d   1      -0.103  -2.331   0.443  0.00  0.00     0.006 A 
ATOM      3  C4  UNL d   1      -1.007  -1.679   1.284  0.00  0.00     0.002 A 
ATOM      4  C5  UNL d   1      -0.547  -0.890   2.344  0.00  0.00    -0.080 A 
ATOM      5  C6  UNL d   1      -1.506  -0.159   3.236  0.00  0.00     0.076 C 
ATOM      6  C7  UNL d   1       0.830  -0.784   2.565  0.00  0.00     0.002 A 
ATOM      7  C8  UNL d   1       1.734  -1.437   1.725  0.00  0.00     0.006 A 
ENDROOT
BRANCH   1   8
ATOM      8  C1  UNL d   1       2.255  -2.862  -0.291  0.00  0.00     0.054 C 
ATOM      9  C   UNL d   1       2.364  -4.358  -0.031  0.00  0.00     0.018 C 
ENDBRANCH   1   8
TORSDOF 1
ENDMDL
