MODEL 1
REMARK minimizedAffinity 4.67443609
REMARK minimizedRMSD -1
REMARK  0 active torsions:
REMARK  status: ('A' for Active; 'I' for Inactive)
ROOT
ATOM      1  C   UNL d   1      -0.093   1.239  -4.072  0.00  0.00     0.124 A 
ATOM      2  C1  UNL d   1       1.018   1.798  -3.456  0.00  0.00     0.062 A 
ATOM      3  C2  UNL d   1       1.393   1.384  -2.181  0.00  0.00     0.162 A 
ATOM      4  C3  UNL d   1       0.656   0.406  -1.513  0.00  0.00    -0.034 A 
ATOM      5  C4  UNL d   1      -0.461  -0.150  -2.139  0.00  0.00     0.162 A 
ATOM      6  C5  UNL d   1      -0.831   0.266  -3.414  0.00  0.00     0.062 A 
ATOM      7  F   UNL d   1      -1.905  -0.274  -4.007  0.00  0.00    -0.097 F 
ATOM      8  F1  UNL d   1      -1.192  -1.093  -1.526  0.00  0.00    -0.096 F 
ATOM      9  I   UNL d   1       1.213  -0.215   0.394  0.00  0.00    -0.060 I 
ATOM     10  F2  UNL d   1       2.471   1.941  -1.609  0.00  0.00    -0.096 F 
ATOM     11  F3  UNL d   1       1.732   2.739  -4.090  0.00  0.00    -0.097 F 
ATOM     12  F4  UNL d   1      -0.452   1.640  -5.299  0.00  0.00    -0.092 F 
ENDROOT
TORSDOF 0
ENDMDL
