MODEL 1
REMARK minimizedAffinity 1.2526015
REMARK minimizedRMSD -1
REMARK  0 active torsions:
REMARK  status: ('A' for Active; 'I' for Inactive)
ROOT
ATOM      1  C   UNL d   1      -1.091   1.005   0.667  0.00  0.00     0.124 A 
ATOM      2  C1  UNL d   1      -0.662  -0.068  -0.102  0.00  0.00     0.062 A 
ATOM      3  C2  UNL d   1      -0.071   0.152  -1.342  0.00  0.00     0.162 A 
ATOM      4  C3  UNL d   1       0.096   1.451  -1.823  0.00  0.00    -0.034 A 
ATOM      5  C4  UNL d   1      -0.340   2.525  -1.044  0.00  0.00     0.162 A 
ATOM      6  C5  UNL d   1      -0.929   2.300   0.195  0.00  0.00     0.062 A 
ATOM      7  F   UNL d   1      -1.344   3.338   0.936  0.00  0.00    -0.097 F 
ATOM      8  F1  UNL d   1      -0.195   3.787  -1.476  0.00  0.00    -0.096 F 
ATOM      9  I   UNL d   1       0.979   1.783  -3.678  0.00  0.00    -0.060 I 
ATOM     10  F2  UNL d   1       0.335  -0.904  -2.064  0.00  0.00    -0.096 F 
ATOM     11  F3  UNL d   1      -0.817  -1.320   0.352  0.00  0.00    -0.097 F 
ATOM     12  F4  UNL d   1      -1.660   0.791   1.860  0.00  0.00    -0.092 F 
ENDROOT
TORSDOF 0
ENDMDL
