MODEL 1
REMARK minimizedAffinity -0.92330265
REMARK minimizedRMSD -1
REMARK  0 active torsions:
REMARK  status: ('A' for Active; 'I' for Inactive)
ROOT
ATOM      1  C   UNL d   1      -2.092  -1.641   0.942  0.00  0.00     0.124 A 
ATOM      2  C1  UNL d   1      -0.843  -2.232   0.803  0.00  0.00     0.062 A 
ATOM      3  C2  UNL d   1       0.293  -1.441   0.661  0.00  0.00     0.162 A 
ATOM      4  C3  UNL d   1       0.187  -0.050   0.659  0.00  0.00    -0.034 A 
ATOM      5  C4  UNL d   1      -1.071   0.537   0.799  0.00  0.00     0.162 A 
ATOM      6  C5  UNL d   1      -2.205  -0.258   0.940  0.00  0.00     0.062 A 
ATOM      7  F   UNL d   1      -3.410   0.315   1.075  0.00  0.00    -0.097 F 
ATOM      8  F1  UNL d   1      -1.209   1.871   0.801  0.00  0.00    -0.096 F 
ATOM      9  I   UNL d   1       1.885   1.136   0.448  0.00  0.00    -0.060 I 
ATOM     10  F2  UNL d   1       1.487  -2.039   0.528  0.00  0.00    -0.096 F 
ATOM     11  F3  UNL d   1      -0.732  -3.568   0.804  0.00  0.00    -0.097 F 
ATOM     12  F4  UNL d   1      -3.184  -2.404   1.078  0.00  0.00    -0.092 F 
ENDROOT
TORSDOF 0
ENDMDL
