MODEL 1
REMARK minimizedAffinity -3.99007583
REMARK minimizedRMSD -1
REMARK  0 active torsions:
REMARK  status: ('A' for Active; 'I' for Inactive)
ROOT
ATOM      1  C   UNL d   1      -1.657  -0.322   1.080  0.00  0.00     0.124 A 
ATOM      2  C1  UNL d   1      -1.313  -1.655   1.260  0.00  0.00     0.062 A 
ATOM      3  C2  UNL d   1       0.013  -2.059   1.134  0.00  0.00     0.162 A 
ATOM      4  C3  UNL d   1       1.006  -1.129   0.828  0.00  0.00    -0.034 A 
ATOM      5  C4  UNL d   1       0.653   0.210   0.648  0.00  0.00     0.162 A 
ATOM      6  C5  UNL d   1      -0.674   0.609   0.774  0.00  0.00     0.062 A 
ATOM      7  F   UNL d   1      -1.004   1.897   0.600  0.00  0.00    -0.097 F 
ATOM      8  F1  UNL d   1       1.583   1.130   0.353  0.00  0.00    -0.096 F 
ATOM      9  I   UNL d   1       2.990  -1.729   0.640  0.00  0.00    -0.060 I 
ATOM     10  F2  UNL d   1       0.316  -3.353   1.314  0.00  0.00    -0.096 F 
ATOM     11  F3  UNL d   1      -2.261  -2.556   1.554  0.00  0.00    -0.097 F 
ATOM     12  F4  UNL d   1      -2.933   0.064   1.200  0.00  0.00    -0.092 F 
ENDROOT
TORSDOF 0
ENDMDL
