MODEL 1
REMARK minimizedAffinity -1.63802695
REMARK minimizedRMSD -1
REMARK  0 active torsions:
REMARK  status: ('A' for Active; 'I' for Inactive)
ROOT
ATOM      1  C   UNL d   1      -2.110  -1.173   0.668  0.00  0.00     0.124 A 
ATOM      2  C1  UNL d   1      -1.346  -1.722  -0.353  0.00  0.00     0.062 A 
ATOM      3  C2  UNL d   1      -0.310  -0.988  -0.923  0.00  0.00     0.162 A 
ATOM      4  C3  UNL d   1      -0.030   0.302  -0.472  0.00  0.00    -0.034 A 
ATOM      5  C4  UNL d   1      -0.803   0.847   0.554  0.00  0.00     0.162 A 
ATOM      6  C5  UNL d   1      -1.838   0.110   1.121  0.00  0.00     0.062 A 
ATOM      7  F   UNL d   1      -2.575   0.642   2.107  0.00  0.00    -0.097 F 
ATOM      8  F1  UNL d   1      -0.562   2.085   1.011  0.00  0.00    -0.096 F 
ATOM      9  I   UNL d   1       1.519   1.402  -1.322  0.00  0.00    -0.060 I 
ATOM     10  F2  UNL d   1       0.412  -1.543  -1.907  0.00  0.00    -0.096 F 
ATOM     11  F3  UNL d   1      -1.608  -2.961  -0.792  0.00  0.00    -0.097 F 
ATOM     12  F4  UNL d   1      -3.108  -1.881   1.214  0.00  0.00    -0.092 F 
ENDROOT
TORSDOF 0
ENDMDL
