MODEL 1
REMARK minimizedAffinity -1.68618536
REMARK minimizedRMSD -1
REMARK  0 active torsions:
REMARK  status: ('A' for Active; 'I' for Inactive)
ROOT
ATOM      1  C   UNL d   1      -1.205  -1.770   0.594  0.00  0.00     0.124 A 
ATOM      2  C1  UNL d   1       0.088  -2.261   0.478  0.00  0.00     0.062 A 
ATOM      3  C2  UNL d   1       1.176  -1.401   0.592  0.00  0.00     0.162 A 
ATOM      4  C3  UNL d   1       0.976  -0.040   0.824  0.00  0.00    -0.034 A 
ATOM      5  C4  UNL d   1      -0.327   0.447   0.938  0.00  0.00     0.162 A 
ATOM      6  C5  UNL d   1      -1.411  -0.417   0.824  0.00  0.00     0.062 A 
ATOM      7  F   UNL d   1      -2.660   0.060   0.936  0.00  0.00    -0.097 F 
ATOM      8  F1  UNL d   1      -0.555   1.750   1.162  0.00  0.00    -0.096 F 
ATOM      9  I   UNL d   1       2.601   1.250   0.995  0.00  0.00    -0.060 I 
ATOM     10  F2  UNL d   1       2.415  -1.903   0.475  0.00  0.00    -0.096 F 
ATOM     11  F3  UNL d   1       0.290  -3.567   0.254  0.00  0.00    -0.097 F 
ATOM     12  F4  UNL d   1      -2.250  -2.599   0.482  0.00  0.00    -0.092 F 
ENDROOT
TORSDOF 0
ENDMDL
