MODEL 1
REMARK minimizedAffinity -1.01731813
REMARK minimizedRMSD -1
REMARK  0 active torsions:
REMARK  status: ('A' for Active; 'I' for Inactive)
ROOT
ATOM      1  C   UNL d   1      -0.835  -1.416   1.426  0.00  0.00     0.124 A 
ATOM      2  C1  UNL d   1      -1.232  -0.100   1.231  0.00  0.00     0.062 A 
ATOM      3  C2  UNL d   1      -0.622   0.678   0.251  0.00  0.00     0.162 A 
ATOM      4  C3  UNL d   1       0.392   0.141  -0.543  0.00  0.00    -0.034 A 
ATOM      5  C4  UNL d   1       0.787  -1.182  -0.341  0.00  0.00     0.162 A 
ATOM      6  C5  UNL d   1       0.174  -1.955   0.640  0.00  0.00     0.062 A 
ATOM      7  F   UNL d   1       0.559  -3.226   0.827  0.00  0.00    -0.097 F 
ATOM      8  F1  UNL d   1       1.758  -1.730  -1.086  0.00  0.00    -0.096 F 
ATOM      9  I   UNL d   1       1.307   1.301  -2.009  0.00  0.00    -0.060 I 
ATOM     10  F2  UNL d   1      -1.025   1.946   0.085  0.00  0.00    -0.096 F 
ATOM     11  F3  UNL d   1      -2.205   0.424   1.989  0.00  0.00    -0.097 F 
ATOM     12  F4  UNL d   1      -1.423  -2.161   2.370  0.00  0.00    -0.092 F 
ENDROOT
TORSDOF 0
ENDMDL
