MODEL 1
REMARK minimizedAffinity 2.64511681
REMARK minimizedRMSD -1
REMARK  0 active torsions:
REMARK  status: ('A' for Active; 'I' for Inactive)
ROOT
ATOM      1  C   UNL d   1      -1.290  -1.635   1.961  0.00  0.00     0.124 A 
ATOM      2  C1  UNL d   1      -0.473  -2.085   0.932  0.00  0.00     0.062 A 
ATOM      3  C2  UNL d   1      -0.271  -1.296  -0.197  0.00  0.00     0.162 A 
ATOM      4  C3  UNL d   1      -0.887  -0.048  -0.303  0.00  0.00    -0.034 A 
ATOM      5  C4  UNL d   1      -1.707   0.396   0.736  0.00  0.00     0.162 A 
ATOM      6  C5  UNL d   1      -1.906  -0.396   1.862  0.00  0.00     0.062 A 
ATOM      7  F   UNL d   1      -2.695   0.040   2.854  0.00  0.00    -0.097 F 
ATOM      8  F1  UNL d   1      -2.314   1.591   0.666  0.00  0.00    -0.096 F 
ATOM      9  I   UNL d   1      -0.587   1.134  -1.989  0.00  0.00    -0.060 I 
ATOM     10  F2  UNL d   1       0.523  -1.755  -1.175  0.00  0.00    -0.096 F 
ATOM     11  F3  UNL d   1       0.122  -3.282   1.025  0.00  0.00    -0.097 F 
ATOM     12  F4  UNL d   1      -1.483  -2.397   3.045  0.00  0.00    -0.092 F 
ENDROOT
TORSDOF 0
ENDMDL
