MODEL 1
REMARK minimizedAffinity -0.290611386
REMARK minimizedRMSD -1
REMARK  0 active torsions:
REMARK  status: ('A' for Active; 'I' for Inactive)
ROOT
ATOM      1  C   UNL d   1       0.637  -0.606   0.382  0.00  0.00     0.124 A 
ATOM      2  C1  UNL d   1      -0.330   0.028   1.150  0.00  0.00     0.062 A 
ATOM      3  C2  UNL d   1      -0.907  -0.631   2.232  0.00  0.00     0.162 A 
ATOM      4  C3  UNL d   1      -0.518  -1.931   2.552  0.00  0.00    -0.034 A 
ATOM      5  C4  UNL d   1       0.454  -2.563   1.774  0.00  0.00     0.162 A 
ATOM      6  C5  UNL d   1       1.028  -1.900   0.694  0.00  0.00     0.062 A 
ATOM      7  F   UNL d   1       1.962  -2.514  -0.047  0.00  0.00    -0.097 F 
ATOM      8  F1  UNL d   1       0.851  -3.813   2.055  0.00  0.00    -0.096 F 
ATOM      9  I   UNL d   1      -1.379  -2.920   4.169  0.00  0.00    -0.060 I 
ATOM     10  F2  UNL d   1      -1.839   0.006   2.957  0.00  0.00    -0.096 F 
ATOM     11  F3  UNL d   1      -0.709   1.278   0.849  0.00  0.00    -0.097 F 
ATOM     12  F4  UNL d   1       1.190   0.030  -0.659  0.00  0.00    -0.092 F 
ENDROOT
TORSDOF 0
ENDMDL
