MODEL 1
REMARK minimizedAffinity 8.84452915
REMARK minimizedRMSD -1
REMARK  0 active torsions:
REMARK  status: ('A' for Active; 'I' for Inactive)
ROOT
ATOM      1  C   UNL d   1      -2.073   4.430  -3.610  0.00  0.00     0.124 A 
ATOM      2  C1  UNL d   1      -2.989   3.880  -2.724  0.00  0.00     0.062 A 
ATOM      3  C2  UNL d   1      -2.627   2.802  -1.921  0.00  0.00     0.162 A 
ATOM      4  C3  UNL d   1      -1.341   2.267  -2.001  0.00  0.00    -0.034 A 
ATOM      5  C4  UNL d   1      -0.426   2.824  -2.895  0.00  0.00     0.162 A 
ATOM      6  C5  UNL d   1      -0.792   3.901  -3.695  0.00  0.00     0.062 A 
ATOM      7  F   UNL d   1       0.094   4.430  -4.551  0.00  0.00    -0.097 F 
ATOM      8  F1  UNL d   1       0.819   2.333  -2.997  0.00  0.00    -0.096 F 
ATOM      9  I   UNL d   1      -0.796   0.655  -0.802  0.00  0.00    -0.060 I 
ATOM     10  F2  UNL d   1      -3.532   2.292  -1.074  0.00  0.00    -0.096 F 
ATOM     11  F3  UNL d   1      -4.227   4.389  -2.641  0.00  0.00    -0.097 F 
ATOM     12  F4  UNL d   1      -2.424   5.466  -4.382  0.00  0.00    -0.092 F 
ENDROOT
TORSDOF 0
ENDMDL
