MODEL 1
REMARK minimizedAffinity 2.96912694
REMARK minimizedRMSD -1
REMARK  0 active torsions:
REMARK  status: ('A' for Active; 'I' for Inactive)
ROOT
ATOM      1  C   UNL d   1       0.876  -2.046   1.210  0.00  0.00     0.124 A 
ATOM      2  C1  UNL d   1       1.635  -1.192   0.421  0.00  0.00     0.062 A 
ATOM      3  C2  UNL d   1       1.014  -0.206  -0.340  0.00  0.00     0.162 A 
ATOM      4  C3  UNL d   1      -0.374  -0.068  -0.317  0.00  0.00    -0.034 A 
ATOM      5  C4  UNL d   1      -1.130  -0.932   0.478  0.00  0.00     0.162 A 
ATOM      6  C5  UNL d   1      -0.505  -1.916   1.237  0.00  0.00     0.062 A 
ATOM      7  F   UNL d   1      -1.239  -2.740   1.998  0.00  0.00    -0.097 F 
ATOM      8  F1  UNL d   1      -2.467  -0.827   0.524  0.00  0.00    -0.096 F 
ATOM      9  I   UNL d   1      -1.306   1.404  -1.454  0.00  0.00    -0.060 I 
ATOM     10  F2  UNL d   1       1.772   0.606  -1.093  0.00  0.00    -0.096 F 
ATOM     11  F3  UNL d   1       2.969  -1.317   0.392  0.00  0.00    -0.097 F 
ATOM     12  F4  UNL d   1       1.476  -2.994   1.941  0.00  0.00    -0.092 F 
ENDROOT
TORSDOF 0
ENDMDL
