MODEL 1
REMARK minimizedAffinity 4.06784868
REMARK minimizedRMSD -1
REMARK  0 active torsions:
REMARK  status: ('A' for Active; 'I' for Inactive)
ROOT
ATOM      1  C   UNL d   1      -2.315  -2.207   3.907  0.00  0.00     0.124 A 
ATOM      2  C1  UNL d   1      -1.806  -3.166   3.042  0.00  0.00     0.062 A 
ATOM      3  C2  UNL d   1      -0.845  -2.818   2.098  0.00  0.00     0.162 A 
ATOM      4  C3  UNL d   1      -0.385  -1.504   2.013  0.00  0.00    -0.034 A 
ATOM      5  C4  UNL d   1      -0.903  -0.545   2.886  0.00  0.00     0.162 A 
ATOM      6  C5  UNL d   1      -1.863  -0.898   3.828  0.00  0.00     0.062 A 
ATOM      7  F   UNL d   1      -2.353   0.030   4.663  0.00  0.00    -0.097 F 
ATOM      8  F1  UNL d   1      -0.483   0.728   2.832  0.00  0.00    -0.096 F 
ATOM      9  I   UNL d   1       1.051  -0.979   0.602  0.00  0.00    -0.060 I 
ATOM     10  F2  UNL d   1      -0.371  -3.766   1.275  0.00  0.00    -0.096 F 
ATOM     11  F3  UNL d   1      -2.242  -4.432   3.116  0.00  0.00    -0.097 F 
ATOM     12  F4  UNL d   1      -3.240  -2.545   4.814  0.00  0.00    -0.092 F 
ENDROOT
TORSDOF 0
ENDMDL
