MODEL 1
REMARK minimizedAffinity 9.99719906
REMARK minimizedRMSD -1
REMARK  0 active torsions:
REMARK  status: ('A' for Active; 'I' for Inactive)
ROOT
ATOM      1  C   UNL d   1       0.715  -2.930   2.787  0.00  0.00     0.124 A 
ATOM      2  C1  UNL d   1       1.287  -2.673   1.549  0.00  0.00     0.062 A 
ATOM      3  C2  UNL d   1       0.831  -1.609   0.775  0.00  0.00     0.162 A 
ATOM      4  C3  UNL d   1      -0.202  -0.793   1.238  0.00  0.00    -0.034 A 
ATOM      5  C4  UNL d   1      -0.773  -1.060   2.484  0.00  0.00     0.162 A 
ATOM      6  C5  UNL d   1      -0.314  -2.124   3.253  0.00  0.00     0.062 A 
ATOM      7  F   UNL d   1      -0.868  -2.372   4.449  0.00  0.00    -0.097 F 
ATOM      8  F1  UNL d   1      -1.767  -0.296   2.959  0.00  0.00    -0.096 F 
ATOM      9  I   UNL d   1      -0.885   0.798   0.085  0.00  0.00    -0.060 I 
ATOM     10  F2  UNL d   1       1.402  -1.383  -0.417  0.00  0.00    -0.096 F 
ATOM     11  F3  UNL d   1       2.280  -3.451   1.096  0.00  0.00    -0.097 F 
ATOM     12  F4  UNL d   1       1.154  -3.955   3.529  0.00  0.00    -0.092 F 
ENDROOT
TORSDOF 0
ENDMDL
