MODEL 1
REMARK minimizedAffinity 10.2320423
REMARK minimizedRMSD -1
REMARK  0 active torsions:
REMARK  status: ('A' for Active; 'I' for Inactive)
ROOT
ATOM      1  C   UNL d   1      -1.301   2.347  -3.494  0.00  0.00     0.124 A 
ATOM      2  C1  UNL d   1      -1.896   1.903  -2.321  0.00  0.00     0.062 A 
ATOM      3  C2  UNL d   1      -1.140   1.239  -1.360  0.00  0.00     0.162 A 
ATOM      4  C3  UNL d   1       0.222   1.016  -1.566  0.00  0.00    -0.034 A 
ATOM      5  C4  UNL d   1       0.813   1.464  -2.749  0.00  0.00     0.162 A 
ATOM      6  C5  UNL d   1       0.053   2.127  -3.706  0.00  0.00     0.062 A 
ATOM      7  F   UNL d   1       0.630   2.555  -4.839  0.00  0.00    -0.097 F 
ATOM      8  F1  UNL d   1       2.120   1.266  -2.979  0.00  0.00    -0.096 F 
ATOM      9  I   UNL d   1       1.356   0.023  -0.131  0.00  0.00    -0.060 I 
ATOM     10  F2  UNL d   1      -1.741   0.821  -0.236  0.00  0.00    -0.096 F 
ATOM     11  F3  UNL d   1      -3.204   2.113  -2.114  0.00  0.00    -0.097 F 
ATOM     12  F4  UNL d   1      -2.031   2.984  -4.418  0.00  0.00    -0.092 F 
ENDROOT
TORSDOF 0
ENDMDL
