MODEL 1
REMARK minimizedAffinity -0.814320683
REMARK minimizedRMSD -1
REMARK  0 active torsions:
REMARK  status: ('A' for Active; 'I' for Inactive)
ROOT
ATOM      1  C   UNL d   1      -2.332  -2.360  -5.907  0.00  0.00     0.124 A 
ATOM      2  C1  UNL d   1      -3.689  -2.069  -5.933  0.00  0.00     0.062 A 
ATOM      3  C2  UNL d   1      -4.625  -3.099  -5.954  0.00  0.00     0.162 A 
ATOM      4  C3  UNL d   1      -4.207  -4.430  -5.947  0.00  0.00    -0.034 A 
ATOM      5  C4  UNL d   1      -2.840  -4.714  -5.922  0.00  0.00     0.162 A 
ATOM      6  C5  UNL d   1      -1.909  -3.681  -5.901  0.00  0.00     0.062 A 
ATOM      7  F   UNL d   1      -0.598  -3.964  -5.876  0.00  0.00    -0.097 F 
ATOM      8  F1  UNL d   1      -2.404  -5.983  -5.915  0.00  0.00    -0.096 F 
ATOM      9  I   UNL d   1      -5.603  -5.973  -5.979  0.00  0.00    -0.060 I 
ATOM     10  F2  UNL d   1      -5.929  -2.790  -5.979  0.00  0.00    -0.096 F 
ATOM     11  F3  UNL d   1      -4.100  -0.793  -5.939  0.00  0.00    -0.097 F 
ATOM     12  F4  UNL d   1      -1.433  -1.367  -5.888  0.00  0.00    -0.092 F 
ENDROOT
TORSDOF 0
ENDMDL
