MODEL 1
REMARK minimizedAffinity 4.81281519
REMARK minimizedRMSD -1
REMARK  0 active torsions:
REMARK  status: ('A' for Active; 'I' for Inactive)
ROOT
ATOM      1  C   UNL d   1      -0.772  -2.067   3.845  0.00  0.00     0.124 A 
ATOM      2  C1  UNL d   1      -1.130  -1.069   2.949  0.00  0.00     0.062 A 
ATOM      3  C2  UNL d   1      -0.450  -0.934   1.742  0.00  0.00     0.162 A 
ATOM      4  C3  UNL d   1       0.596  -1.801   1.424  0.00  0.00    -0.034 A 
ATOM      5  C4  UNL d   1       0.951  -2.801   2.330  0.00  0.00     0.162 A 
ATOM      6  C5  UNL d   1       0.268  -2.932   3.535  0.00  0.00     0.062 A 
ATOM      7  F   UNL d   1       0.616  -3.896   4.399  0.00  0.00    -0.097 F 
ATOM      8  F1  UNL d   1       1.952  -3.651   2.056  0.00  0.00    -0.096 F 
ATOM      9  I   UNL d   1       1.616  -1.603  -0.380  0.00  0.00    -0.060 I 
ATOM     10  F2  UNL d   1      -0.817   0.039   0.895  0.00  0.00    -0.096 F 
ATOM     11  F3  UNL d   1      -2.134  -0.232   3.246  0.00  0.00    -0.097 F 
ATOM     12  F4  UNL d   1      -1.428  -2.194   5.005  0.00  0.00    -0.092 F 
ENDROOT
TORSDOF 0
ENDMDL
