MODEL 1
REMARK minimizedAffinity 2.64412665
REMARK minimizedRMSD -1
REMARK  0 active torsions:
REMARK  status: ('A' for Active; 'I' for Inactive)
ROOT
ATOM      1  O1  BZF d   1      -2.375   2.695   2.857  0.00  0.00    -0.204 OA
ATOM      2  C2  BZF d   1      -3.196   1.812   3.531  0.00  0.00     0.174 A 
ATOM      3  C3  BZF d   1      -2.735   0.549   3.419  0.00  0.00    -0.012 A 
ATOM      4  C3A BZF d   1      -1.501   0.661   2.703  0.00  0.00    -0.107 A 
ATOM      5  C4  BZF d   1      -0.566  -0.247   2.296  0.00  0.00     0.055 A 
ATOM      6  C5  BZF d   1       0.488   0.179   1.552  0.00  0.00    -0.016 A 
ATOM      7  C6  BZF d   1       0.636   1.503   1.193  0.00  0.00     0.022 A 
ATOM      8  C7  BZF d   1      -0.263   2.442   1.578  0.00  0.00     0.029 A 
ATOM      9  C7A BZF d   1      -1.312   2.020   2.358  0.00  0.00     0.058 A 
ENDROOT
TORSDOF 0
ENDMDL
