MODEL 1
REMARK minimizedAffinity 2.304281
REMARK minimizedRMSD -1
REMARK  0 active torsions:
REMARK  status: ('A' for Active; 'I' for Inactive)
ROOT
ATOM      1  O1  BZF d   1      -3.376   0.409   3.341  0.00  0.00    -0.204 OA
ATOM      2  C2  BZF d   1      -3.652   1.698   3.755  0.00  0.00     0.174 A 
ATOM      3  C3  BZF d   1      -2.674   2.543   3.371  0.00  0.00    -0.012 A 
ATOM      4  C3A BZF d   1      -1.773   1.747   2.594  0.00  0.00    -0.107 A 
ATOM      5  C4  BZF d   1      -0.614   2.023   1.927  0.00  0.00     0.055 A 
ATOM      6  C5  BZF d   1       0.061   1.007   1.328  0.00  0.00    -0.016 A 
ATOM      7  C6  BZF d   1      -0.391  -0.295   1.381  0.00  0.00     0.022 A 
ATOM      8  C7  BZF d   1      -1.538  -0.617   2.027  0.00  0.00     0.029 A 
ATOM      9  C7A BZF d   1      -2.239   0.413   2.605  0.00  0.00     0.058 A 
ENDROOT
TORSDOF 0
ENDMDL
