MODEL 1
REMARK minimizedAffinity 8.73949051
REMARK minimizedRMSD -1
REMARK  0 active torsions:
REMARK  status: ('A' for Active; 'I' for Inactive)
ROOT
ATOM      1  O1  BZF d   1      -0.212  -1.640   1.222  0.00  0.00    -0.204 OA
ATOM      2  C2  BZF d   1      -0.618  -2.020   2.487  0.00  0.00     0.174 A 
ATOM      3  C3  BZF d   1      -0.599  -0.968   3.331  0.00  0.00    -0.012 A 
ATOM      4  C3A BZF d   1      -0.241   0.157   2.523  0.00  0.00    -0.107 A 
ATOM      5  C4  BZF d   1      -0.074   1.487   2.786  0.00  0.00     0.055 A 
ATOM      6  C5  BZF d   1       0.349   2.309   1.791  0.00  0.00    -0.016 A 
ATOM      7  C6  BZF d   1       0.619   1.835   0.523  0.00  0.00     0.022 A 
ATOM      8  C7  BZF d   1       0.463   0.525   0.213  0.00  0.00     0.029 A 
ATOM      9  C7A BZF d   1       0.004  -0.302   1.208  0.00  0.00     0.058 A 
ENDROOT
TORSDOF 0
ENDMDL
