MODEL 1
REMARK minimizedAffinity 7.31357098
REMARK minimizedRMSD -1
REMARK  0 active torsions:
REMARK  status: ('A' for Active; 'I' for Inactive)
ROOT
ATOM      1  O1  BZF d   1       1.543   3.286  -4.276  0.00  0.00    -0.204 OA
ATOM      2  C2  BZF d   1       2.106   2.395  -3.383  0.00  0.00     0.174 A 
ATOM      3  C3  BZF d   1       3.443   2.560  -3.322  0.00  0.00    -0.012 A 
ATOM      4  C3A BZF d   1       3.723   3.681  -4.165  0.00  0.00    -0.107 A 
ATOM      5  C4  BZF d   1       4.871   4.340  -4.501  0.00  0.00     0.055 A 
ATOM      6  C5  BZF d   1       4.812   5.351  -5.407  0.00  0.00    -0.016 A 
ATOM      7  C6  BZF d   1       3.624   5.726  -6.000  0.00  0.00     0.022 A 
ATOM      8  C7  BZF d   1       2.458   5.106  -5.695  0.00  0.00     0.029 A 
ATOM      9  C7A BZF d   1       2.510   4.105  -4.755  0.00  0.00     0.058 A 
ENDROOT
TORSDOF 0
ENDMDL
