MODEL 1
REMARK minimizedAffinity -0.0697764754
REMARK minimizedRMSD -1
REMARK  0 active torsions:
REMARK  status: ('A' for Active; 'I' for Inactive)
ROOT
ATOM      1  O1  BZF d   1       0.341   2.191   1.747  0.00  0.00    -0.204 OA
ATOM      2  C2  BZF d   1       1.028   1.091   1.272  0.00  0.00     0.174 A 
ATOM      3  C3  BZF d   1       0.296  -0.032   1.421  0.00  0.00    -0.012 A 
ATOM      4  C3A BZF d   1      -0.962   0.406   1.942  0.00  0.00    -0.107 A 
ATOM      5  C4  BZF d   1      -2.114  -0.243   2.285  0.00  0.00     0.055 A 
ATOM      6  C5  BZF d   1      -3.134   0.467   2.833  0.00  0.00    -0.016 A 
ATOM      7  C6  BZF d   1      -3.036   1.825   3.057  0.00  0.00     0.022 A 
ATOM      8  C7  BZF d   1      -1.916   2.513   2.728  0.00  0.00     0.029 A 
ATOM      9  C7A BZF d   1      -0.895   1.804   2.144  0.00  0.00     0.058 A 
ENDROOT
TORSDOF 0
ENDMDL
