MODEL 1
REMARK minimizedAffinity 2.52918386
REMARK minimizedRMSD -1
REMARK  0 active torsions:
REMARK  status: ('A' for Active; 'I' for Inactive)
ROOT
ATOM      1  O1  BZF d   1      -3.358   3.069   4.921  0.00  0.00    -0.204 OA
ATOM      2  C2  BZF d   1      -4.526   2.419   5.268  0.00  0.00     0.174 A 
ATOM      3  C3  BZF d   1      -4.725   1.341   4.481  0.00  0.00    -0.012 A 
ATOM      4  C3A BZF d   1      -3.564   1.264   3.649  0.00  0.00    -0.107 A 
ATOM      5  C4  BZF d   1      -3.166   0.397   2.671  0.00  0.00     0.055 A 
ATOM      6  C5  BZF d   1      -2.010   0.644   2.000  0.00  0.00    -0.016 A 
ATOM      7  C6  BZF d   1      -1.231   1.748   2.278  0.00  0.00     0.022 A 
ATOM      8  C7  BZF d   1      -1.582   2.632   3.243  0.00  0.00     0.029 A 
ATOM      9  C7A BZF d   1      -2.733   2.368   3.945  0.00  0.00     0.058 A 
ENDROOT
TORSDOF 0
ENDMDL
