MODEL 1
REMARK minimizedAffinity -4.02187967
REMARK minimizedRMSD -1
REMARK  0 active torsions:
REMARK  status: ('A' for Active; 'I' for Inactive)
ROOT
ATOM      1  O1  BZF d   1       1.067   2.192   1.109  0.00  0.00    -0.204 OA
ATOM      2  C2  BZF d   1       1.927   1.186   0.713  0.00  0.00     0.174 A 
ATOM      3  C3  BZF d   1       1.433  -0.024   1.047  0.00  0.00    -0.012 A 
ATOM      4  C3A BZF d   1       0.144   0.238   1.610  0.00  0.00    -0.107 A 
ATOM      5  C4  BZF d   1      -0.840  -0.562   2.115  0.00  0.00     0.055 A 
ATOM      6  C5  BZF d   1      -1.947   0.012   2.654  0.00  0.00    -0.016 A 
ATOM      7  C6  BZF d   1      -2.100   1.382   2.710  0.00  0.00     0.022 A 
ATOM      8  C7  BZF d   1      -1.153   2.217   2.218  0.00  0.00     0.029 A 
ATOM      9  C7A BZF d   1      -0.048   1.639   1.642  0.00  0.00     0.058 A 
ENDROOT
TORSDOF 0
ENDMDL
