MODEL 1
REMARK minimizedAffinity 5.19544744
REMARK minimizedRMSD -1
REMARK  0 active torsions:
REMARK  status: ('A' for Active; 'I' for Inactive)
ROOT
ATOM      1  O1  BZF d   1       2.184  -0.756   0.379  0.00  0.00    -0.204 OA
ATOM      2  C2  BZF d   1       2.735   0.177  -0.477  0.00  0.00     0.174 A 
ATOM      3  C3  BZF d   1       1.998   1.306  -0.494  0.00  0.00    -0.012 A 
ATOM      4  C3A BZF d   1       0.969   1.098   0.479  0.00  0.00    -0.107 A 
ATOM      5  C4  BZF d   1      -0.065   1.867   0.931  0.00  0.00     0.055 A 
ATOM      6  C5  BZF d   1      -0.933   1.341   1.834  0.00  0.00    -0.016 A 
ATOM      7  C6  BZF d   1      -0.800   0.050   2.303  0.00  0.00     0.022 A 
ATOM      8  C7  BZF d   1       0.212  -0.749   1.887  0.00  0.00     0.029 A 
ATOM      9  C7A BZF d   1       1.110  -0.210   0.999  0.00  0.00     0.058 A 
ENDROOT
TORSDOF 0
ENDMDL
