MODEL 1
REMARK minimizedAffinity -1.3810066
REMARK minimizedRMSD -1
REMARK  0 active torsions:
REMARK  status: ('A' for Active; 'I' for Inactive)
ROOT
ATOM      1  O1  BZF d   1      -2.206   0.367   3.172  0.00  0.00    -0.204 OA
ATOM      2  C2  BZF d   1      -2.843   1.592   3.207  0.00  0.00     0.174 A 
ATOM      3  C3  BZF d   1      -2.151   2.511   2.503  0.00  0.00    -0.012 A 
ATOM      4  C3A BZF d   1      -1.059   1.794   1.919  0.00  0.00    -0.107 A 
ATOM      5  C4  BZF d   1      -0.030   2.156   1.098  0.00  0.00     0.055 A 
ATOM      6  C5  BZF d   1       0.910   1.231   0.769  0.00  0.00    -0.016 A 
ATOM      7  C6  BZF d   1       0.854  -0.062   1.247  0.00  0.00     0.022 A 
ATOM      8  C7  BZF d   1      -0.150  -0.469   2.061  0.00  0.00     0.029 A 
ATOM      9  C7A BZF d   1      -1.119   0.454   2.368  0.00  0.00     0.058 A 
ENDROOT
TORSDOF 0
ENDMDL
