MODEL 1
REMARK minimizedAffinity 1.31118596
REMARK minimizedRMSD -1
REMARK  0 active torsions:
REMARK  status: ('A' for Active; 'I' for Inactive)
ROOT
ATOM      1  O1  BZF d   1      -1.302   2.996   1.415  0.00  0.00    -0.204 OA
ATOM      2  C2  BZF d   1      -2.279   2.673   2.337  0.00  0.00     0.174 A 
ATOM      3  C3  BZF d   1      -2.202   1.371   2.679  0.00  0.00    -0.012 A 
ATOM      4  C3A BZF d   1      -1.050   0.869   1.993  0.00  0.00    -0.107 A 
ATOM      5  C4  BZF d   1      -0.445  -0.354   1.945  0.00  0.00     0.055 A 
ATOM      6  C5  BZF d   1       0.621  -0.532   1.121  0.00  0.00    -0.016 A 
ATOM      7  C6  BZF d   1       1.104   0.489   0.329  0.00  0.00     0.022 A 
ATOM      8  C7  BZF d   1       0.540   1.721   0.347  0.00  0.00     0.029 A 
ATOM      9  C7A BZF d   1      -0.517   1.913   1.203  0.00  0.00     0.058 A 
ENDROOT
TORSDOF 0
ENDMDL
