MODEL 1
REMARK minimizedAffinity 3.03536916
REMARK minimizedRMSD -1
REMARK  0 active torsions:
REMARK  status: ('A' for Active; 'I' for Inactive)
ROOT
ATOM      1  O1  BZF d   1      -1.302   3.082   2.144  0.00  0.00    -0.204 OA
ATOM      2  C2  BZF d   1      -0.313   2.464   1.403  0.00  0.00     0.174 A 
ATOM      3  C3  BZF d   1      -0.503   1.129   1.370  0.00  0.00    -0.012 A 
ATOM      4  C3A BZF d   1      -1.736   0.908   2.061  0.00  0.00    -0.107 A 
ATOM      5  C4  BZF d   1      -2.465  -0.212   2.346  0.00  0.00     0.055 A 
ATOM      6  C5  BZF d   1      -3.588  -0.094   3.102  0.00  0.00    -0.016 A 
ATOM      7  C6  BZF d   1      -4.008   1.125   3.593  0.00  0.00     0.022 A 
ATOM      8  C7  BZF d   1      -3.322   2.264   3.333  0.00  0.00     0.029 A 
ATOM      9  C7A BZF d   1      -2.204   2.153   2.541  0.00  0.00     0.058 A 
ENDROOT
TORSDOF 0
ENDMDL
