MODEL 1
REMARK minimizedAffinity -0.649881005
REMARK minimizedRMSD -1
REMARK  0 active torsions:
REMARK  status: ('A' for Active; 'I' for Inactive)
ROOT
ATOM      1  O1  BZF d   1      -2.875  -2.241   1.322  0.00  0.00    -0.204 OA
ATOM      2  C2  BZF d   1      -2.187  -1.947   2.483  0.00  0.00     0.174 A 
ATOM      3  C3  BZF d   1      -1.363  -2.959   2.821  0.00  0.00    -0.012 A 
ATOM      4  C3A BZF d   1      -1.479  -3.909   1.757  0.00  0.00    -0.107 A 
ATOM      5  C4  BZF d   1      -0.894  -5.118   1.510  0.00  0.00     0.055 A 
ATOM      6  C5  BZF d   1      -1.279  -5.827   0.416  0.00  0.00    -0.016 A 
ATOM      7  C6  BZF d   1      -2.248  -5.360  -0.447  0.00  0.00     0.022 A 
ATOM      8  C7  BZF d   1      -2.854  -4.165  -0.246  0.00  0.00     0.029 A 
ATOM      9  C7A BZF d   1      -2.443  -3.431   0.840  0.00  0.00     0.058 A 
ENDROOT
TORSDOF 0
ENDMDL
