MODEL 1
REMARK minimizedAffinity -3.3449564
REMARK minimizedRMSD -1
REMARK  0 active torsions:
REMARK  status: ('A' for Active; 'I' for Inactive)
ROOT
ATOM      1  O1  BZF d   1      -2.988   0.807   3.047  0.00  0.00    -0.204 OA
ATOM      2  C2  BZF d   1      -3.101   2.165   3.276  0.00  0.00     0.174 A 
ATOM      3  C3  BZF d   1      -2.093   2.836   2.683  0.00  0.00    -0.012 A 
ATOM      4  C3A BZF d   1      -1.352   1.844   1.965  0.00  0.00    -0.107 A 
ATOM      5  C4  BZF d   1      -0.246   1.894   1.166  0.00  0.00     0.055 A 
ATOM      6  C5  BZF d   1       0.269   0.735   0.677  0.00  0.00    -0.016 A 
ATOM      7  C6  BZF d   1      -0.293  -0.490   0.971  0.00  0.00     0.022 A 
ATOM      8  C7  BZF d   1      -1.394  -0.590   1.756  0.00  0.00     0.029 A 
ATOM      9  C7A BZF d   1      -1.936   0.582   2.224  0.00  0.00     0.058 A 
ENDROOT
TORSDOF 0
ENDMDL
