MODEL 1
REMARK minimizedAffinity 0.535703003
REMARK minimizedRMSD -1
REMARK  0 active torsions:
REMARK  status: ('A' for Active; 'I' for Inactive)
ROOT
ATOM      1  O1  BZF d   1      -2.751   1.516   2.818  0.00  0.00    -0.204 OA
ATOM      2  C2  BZF d   1      -2.428   2.860   2.824  0.00  0.00     0.174 A 
ATOM      3  C3  BZF d   1      -1.224   3.065   2.252  0.00  0.00    -0.012 A 
ATOM      4  C3A BZF d   1      -0.806   1.780   1.782  0.00  0.00    -0.107 A 
ATOM      5  C4  BZF d   1       0.300   1.338   1.114  0.00  0.00     0.055 A 
ATOM      6  C5  BZF d   1       0.436   0.008   0.869  0.00  0.00    -0.016 A 
ATOM      7  C6  BZF d   1      -0.510  -0.907   1.282  0.00  0.00     0.022 A 
ATOM      8  C7  BZF d   1      -1.626  -0.516   1.943  0.00  0.00     0.029 A 
ATOM      9  C7A BZF d   1      -1.783   0.831   2.163  0.00  0.00     0.058 A 
ENDROOT
TORSDOF 0
ENDMDL
