MODEL 1
REMARK minimizedAffinity 10.1669426
REMARK minimizedRMSD -1
REMARK  0 active torsions:
REMARK  status: ('A' for Active; 'I' for Inactive)
ROOT
ATOM      1  O1  BZF d   1      -1.758   1.841   3.223  0.00  0.00    -0.204 OA
ATOM      2  C2  BZF d   1      -1.819   3.141   2.759  0.00  0.00     0.174 A 
ATOM      3  C3  BZF d   1      -0.948   3.329   1.747  0.00  0.00    -0.012 A 
ATOM      4  C3A BZF d   1      -0.368   2.043   1.506  0.00  0.00    -0.107 A 
ATOM      5  C4  BZF d   1       0.557   1.583   0.613  0.00  0.00     0.055 A 
ATOM      6  C5  BZF d   1       0.961   0.288   0.689  0.00  0.00    -0.016 A 
ATOM      7  C6  BZF d   1       0.467  -0.572   1.647  0.00  0.00     0.022 A 
ATOM      8  C7  BZF d   1      -0.456  -0.163   2.551  0.00  0.00     0.029 A 
ATOM      9  C7A BZF d   1      -0.891   1.137   2.457  0.00  0.00     0.058 A 
ENDROOT
TORSDOF 0
ENDMDL
