MODEL 1
REMARK minimizedAffinity -0.442152321
REMARK minimizedRMSD -1
REMARK  0 active torsions:
REMARK  status: ('A' for Active; 'I' for Inactive)
ROOT
ATOM      1  O1  BZF d   1      -2.704   0.627   2.837  0.00  0.00    -0.204 OA
ATOM      2  C2  BZF d   1      -2.963   1.981   2.928  0.00  0.00     0.174 A 
ATOM      3  C3  BZF d   1      -1.935   2.699   2.433  0.00  0.00    -0.012 A 
ATOM      4  C3A BZF d   1      -1.012   1.733   1.923  0.00  0.00    -0.107 A 
ATOM      5  C4  BZF d   1       0.197   1.829   1.294  0.00  0.00     0.055 A 
ATOM      6  C5  BZF d   1       0.876   0.692   0.990  0.00  0.00    -0.016 A 
ATOM      7  C6  BZF d   1       0.380  -0.556   1.305  0.00  0.00     0.022 A 
ATOM      8  C7  BZF d   1      -0.817  -0.702   1.924  0.00  0.00     0.029 A 
ATOM      9  C7A BZF d   1      -1.521   0.444   2.202  0.00  0.00     0.058 A 
ENDROOT
TORSDOF 0
ENDMDL
