MODEL 1
REMARK minimizedAffinity -1.30909419
REMARK minimizedRMSD -1
REMARK  0 active torsions:
REMARK  status: ('A' for Active; 'I' for Inactive)
ROOT
ATOM      1  O1  BZF d   1      -2.506   2.978   2.914  0.00  0.00    -0.204 OA
ATOM      2  C2  BZF d   1      -3.486   2.279   3.592  0.00  0.00     0.174 A 
ATOM      3  C3  BZF d   1      -3.348   0.951   3.398  0.00  0.00    -0.012 A 
ATOM      4  C3A BZF d   1      -2.156   0.807   2.620  0.00  0.00    -0.107 A 
ATOM      5  C4  BZF d   1      -1.486  -0.274   2.121  0.00  0.00     0.055 A 
ATOM      6  C5  BZF d   1      -0.393  -0.070   1.340  0.00  0.00    -0.016 A 
ATOM      7  C6  BZF d   1       0.054   1.199   1.033  0.00  0.00     0.022 A 
ATOM      8  C7  BZF d   1      -0.575   2.301   1.509  0.00  0.00     0.029 A 
ATOM      9  C7A BZF d   1      -1.660   2.098   2.326  0.00  0.00     0.058 A 
ENDROOT
TORSDOF 0
ENDMDL
