MODEL 1
REMARK minimizedAffinity -0.155496389
REMARK minimizedRMSD -1
REMARK  0 active torsions:
REMARK  status: ('A' for Active; 'I' for Inactive)
ROOT
ATOM      1  O1  BZF d   1      -2.237   0.891   2.071  0.00  0.00    -0.204 OA
ATOM      2  C2  BZF d   1      -2.318   2.269   2.130  0.00  0.00     0.174 A 
ATOM      3  C3  BZF d   1      -1.160   2.834   1.731  0.00  0.00    -0.012 A 
ATOM      4  C3A BZF d   1      -0.333   1.743   1.314  0.00  0.00    -0.107 A 
ATOM      5  C4  BZF d   1       0.930   1.665   0.802  0.00  0.00     0.055 A 
ATOM      6  C5  BZF d   1       1.474   0.441   0.569  0.00  0.00    -0.016 A 
ATOM      7  C6  BZF d   1       0.785  -0.723   0.841  0.00  0.00     0.022 A 
ATOM      8  C7  BZF d   1      -0.473  -0.696   1.345  0.00  0.00     0.029 A 
ATOM      9  C7A BZF d   1      -1.037   0.539   1.551  0.00  0.00     0.058 A 
ENDROOT
TORSDOF 0
ENDMDL
