MODEL 1
REMARK minimizedAffinity -4.88432169
REMARK minimizedRMSD -1
REMARK  0 active torsions:
REMARK  status: ('A' for Active; 'I' for Inactive)
ROOT
ATOM      1  O1  BZF d   1      -2.918   0.899   3.087  0.00  0.00    -0.204 OA
ATOM      2  C2  BZF d   1      -2.928   2.278   3.017  0.00  0.00     0.174 A 
ATOM      3  C3  BZF d   1      -1.841   2.732   2.359  0.00  0.00    -0.012 A 
ATOM      4  C3A BZF d   1      -1.154   1.558   1.915  0.00  0.00    -0.107 A 
ATOM      5  C4  BZF d   1      -0.012   1.355   1.194  0.00  0.00     0.055 A 
ATOM      6  C5  BZF d   1       0.426   0.085   0.994  0.00  0.00    -0.016 A 
ATOM      7  C6  BZF d   1      -0.249  -1.005   1.505  0.00  0.00     0.022 A 
ATOM      8  C7  BZF d   1      -1.389  -0.854   2.222  0.00  0.00     0.029 A 
ATOM      9  C7A BZF d   1      -1.852   0.427   2.398  0.00  0.00     0.058 A 
ENDROOT
TORSDOF 0
ENDMDL
