MODEL 1
REMARK minimizedAffinity 7.35365772
REMARK minimizedRMSD -1
REMARK  0 active torsions:
REMARK  status: ('A' for Active; 'I' for Inactive)
ROOT
ATOM      1  C   UNL d   1       1.759   0.424   1.713  0.00  0.00     0.124 A 
ATOM      2  C1  UNL d   1       1.330   0.659   3.012  0.00  0.00     0.062 A 
ATOM      3  C2  UNL d   1       2.231   0.593   4.070  0.00  0.00     0.162 A 
ATOM      4  C3  UNL d   1       3.572   0.291   3.834  0.00  0.00    -0.034 A 
ATOM      5  C4  UNL d   1       3.997   0.055   2.526  0.00  0.00     0.162 A 
ATOM      6  C5  UNL d   1       3.092   0.122   1.471  0.00  0.00     0.062 A 
ATOM      7  F   UNL d   1       3.509  -0.105   0.217  0.00  0.00    -0.097 F 
ATOM      8  F1  UNL d   1       5.280  -0.237   2.263  0.00  0.00    -0.096 F 
ATOM      9  I   UNL d   1       4.923   0.191   5.414  0.00  0.00    -0.060 I 
ATOM     10  F2  UNL d   1       1.788   0.824   5.315  0.00  0.00    -0.096 F 
ATOM     11  F3  UNL d   1       0.042   0.949   3.248  0.00  0.00    -0.097 F 
ATOM     12  F4  UNL d   1       0.890   0.487   0.697  0.00  0.00    -0.092 F 
ENDROOT
TORSDOF 0
ENDMDL
