MODEL 1
REMARK minimizedAffinity 12.6540766
REMARK minimizedRMSD -1
REMARK  0 active torsions:
REMARK  status: ('A' for Active; 'I' for Inactive)
ROOT
ATOM      1  C   UNL d   1       1.851   0.629   1.680  0.00  0.00     0.124 A 
ATOM      2  C1  UNL d   1       3.163   0.323   1.344  0.00  0.00     0.062 A 
ATOM      3  C2  UNL d   1       4.132   0.209   2.336  0.00  0.00     0.162 A 
ATOM      4  C3  UNL d   1       3.793   0.399   3.676  0.00  0.00    -0.034 A 
ATOM      5  C4  UNL d   1       2.473   0.707   4.007  0.00  0.00     0.162 A 
ATOM      6  C5  UNL d   1       1.508   0.820   3.011  0.00  0.00     0.062 A 
ATOM      7  F   UNL d   1       0.241   1.116   3.339  0.00  0.00    -0.097 F 
ATOM      8  F1  UNL d   1       2.113   0.897   5.285  0.00  0.00    -0.096 F 
ATOM      9  I   UNL d   1       5.240   0.229   5.163  0.00  0.00    -0.060 I 
ATOM     10  F2  UNL d   1       5.391  -0.087   1.981  0.00  0.00    -0.096 F 
ATOM     11  F3  UNL d   1       3.498   0.138   0.058  0.00  0.00    -0.097 F 
ATOM     12  F4  UNL d   1       0.921   0.739   0.724  0.00  0.00    -0.092 F 
ENDROOT
TORSDOF 0
ENDMDL
