MODEL 1
REMARK minimizedAffinity -0.762035489
REMARK minimizedRMSD -1
REMARK  0 active torsions:
REMARK  status: ('A' for Active; 'I' for Inactive)
ROOT
ATOM      1  C   UNL d   1      -3.863   5.980  -2.127  0.00  0.00     0.124 A 
ATOM      2  C1  UNL d   1      -3.805   5.986  -3.514  0.00  0.00     0.062 A 
ATOM      3  C2  UNL d   1      -2.573   5.992  -4.163  0.00  0.00     0.162 A 
ATOM      4  C3  UNL d   1      -1.389   5.991  -3.425  0.00  0.00    -0.034 A 
ATOM      5  C4  UNL d   1      -1.456   5.985  -2.031  0.00  0.00     0.162 A 
ATOM      6  C5  UNL d   1      -2.689   5.979  -1.387  0.00  0.00     0.062 A 
ATOM      7  F   UNL d   1      -2.744   5.972  -0.047  0.00  0.00    -0.097 F 
ATOM      8  F1  UNL d   1      -0.337   5.983  -1.291  0.00  0.00    -0.096 F 
ATOM      9  I   UNL d   1       0.454   5.999  -4.391  0.00  0.00    -0.060 I 
ATOM     10  F2  UNL d   1      -2.546   5.999  -5.504  0.00  0.00    -0.096 F 
ATOM     11  F3  UNL d   1      -4.937   5.988  -4.232  0.00  0.00    -0.097 F 
ATOM     12  F4  UNL d   1      -5.050   5.975  -1.506  0.00  0.00    -0.092 F 
ENDROOT
TORSDOF 0
ENDMDL
