MODEL 1
REMARK minimizedAffinity 10.8706827
REMARK minimizedRMSD -1
REMARK  0 active torsions:
REMARK  status: ('A' for Active; 'I' for Inactive)
ROOT
ATOM      1  C   UNL d   1      -3.577   5.984  -1.253  0.00  0.00     0.124 A 
ATOM      2  C1  UNL d   1      -3.968   5.991  -2.584  0.00  0.00     0.062 A 
ATOM      3  C2  UNL d   1      -3.012   5.991  -3.595  0.00  0.00     0.162 A 
ATOM      4  C3  UNL d   1      -1.653   5.983  -3.279  0.00  0.00    -0.034 A 
ATOM      5  C4  UNL d   1      -1.267   5.977  -1.937  0.00  0.00     0.162 A 
ATOM      6  C5  UNL d   1      -2.227   5.977  -0.931  0.00  0.00     0.062 A 
ATOM      7  F   UNL d   1      -1.846   5.970   0.355  0.00  0.00    -0.097 F 
ATOM      8  F1  UNL d   1       0.031   5.969  -1.598  0.00  0.00    -0.096 F 
ATOM      9  I   UNL d   1      -0.220   5.983  -4.788  0.00  0.00    -0.060 I 
ATOM     10  F2  UNL d   1      -3.419   5.997  -4.873  0.00  0.00    -0.096 F 
ATOM     11  F3  UNL d   1      -5.272   5.999  -2.898  0.00  0.00    -0.097 F 
ATOM     12  F4  UNL d   1      -4.499   5.985  -0.282  0.00  0.00    -0.092 F 
ENDROOT
TORSDOF 0
ENDMDL
