MODEL 1
REMARK minimizedAffinity 1.83233607
REMARK minimizedRMSD -1
REMARK  0 active torsions:
REMARK  status: ('A' for Active; 'I' for Inactive)
ROOT
ATOM      1  C   UNL d   1       1.884   1.762   0.210  0.00  0.00     0.124 A 
ATOM      2  C1  UNL d   1       2.241   0.421   0.210  0.00  0.00     0.062 A 
ATOM      3  C2  UNL d   1       1.268  -0.562   0.048  0.00  0.00     0.162 A 
ATOM      4  C3  UNL d   1      -0.071  -0.207  -0.117  0.00  0.00    -0.034 A 
ATOM      5  C4  UNL d   1      -0.421   1.145  -0.115  0.00  0.00     0.162 A 
ATOM      6  C5  UNL d   1       0.554   2.123   0.048  0.00  0.00     0.062 A 
ATOM      7  F   UNL d   1       0.208   3.418   0.047  0.00  0.00    -0.097 F 
ATOM      8  F1  UNL d   1      -1.699   1.521  -0.271  0.00  0.00    -0.096 F 
ATOM      9  I   UNL d   1      -1.528  -1.673  -0.359  0.00  0.00    -0.060 I 
ATOM     10  F2  UNL d   1       1.641  -1.850   0.053  0.00  0.00    -0.096 F 
ATOM     11  F3  UNL d   1       3.525   0.070   0.368  0.00  0.00    -0.097 F 
ATOM     12  F4  UNL d   1       2.822   2.705   0.367  0.00  0.00    -0.092 F 
ENDROOT
TORSDOF 0
ENDMDL
