MODEL 1
REMARK minimizedAffinity 3.18222666
REMARK minimizedRMSD -1
REMARK  0 active torsions:
REMARK  status: ('A' for Active; 'I' for Inactive)
ROOT
ATOM      1  C   UNL d   1       1.689   1.193  -0.563  0.00  0.00     0.124 A 
ATOM      2  C1  UNL d   1       1.099  -0.050  -0.743  0.00  0.00     0.062 A 
ATOM      3  C2  UNL d   1       0.130  -0.501   0.148  0.00  0.00     0.162 A 
ATOM      4  C3  UNL d   1      -0.257   0.293   1.228  0.00  0.00    -0.034 A 
ATOM      5  C4  UNL d   1       0.342   1.542   1.403  0.00  0.00     0.162 A 
ATOM      6  C5  UNL d   1       1.310   1.988   0.510  0.00  0.00     0.062 A 
ATOM      7  F   UNL d   1       1.879   3.189   0.685  0.00  0.00    -0.097 F 
ATOM      8  F1  UNL d   1      -0.006   2.331   2.431  0.00  0.00    -0.096 F 
ATOM      9  I   UNL d   1      -1.706  -0.377   2.563  0.00  0.00    -0.060 I 
ATOM     10  F2  UNL d   1      -0.424  -1.706  -0.050  0.00  0.00    -0.096 F 
ATOM     11  F3  UNL d   1       1.464  -0.820  -1.778  0.00  0.00    -0.097 F 
ATOM     12  F4  UNL d   1       2.622   1.624  -1.422  0.00  0.00    -0.092 F 
ENDROOT
TORSDOF 0
ENDMDL
