MODEL 1
REMARK minimizedAffinity 4.64410496
REMARK minimizedRMSD -1
REMARK  0 active torsions:
REMARK  status: ('A' for Active; 'I' for Inactive)
ROOT
ATOM      1  C   UNL d   1      -3.148   5.908  -2.397  0.00  0.00     0.124 A 
ATOM      2  C1  UNL d   1      -3.430   5.953  -3.755  0.00  0.00     0.062 A 
ATOM      3  C2  UNL d   1      -2.395   5.951  -4.686  0.00  0.00     0.162 A 
ATOM      4  C3  UNL d   1      -1.067   5.903  -4.262  0.00  0.00    -0.034 A 
ATOM      5  C4  UNL d   1      -0.791   5.859  -2.894  0.00  0.00     0.162 A 
ATOM      6  C5  UNL d   1      -1.829   5.861  -1.968  0.00  0.00     0.062 A 
ATOM      7  F   UNL d   1      -1.554   5.818  -0.656  0.00  0.00    -0.097 F 
ATOM      8  F1  UNL d   1       0.474   5.812  -2.451  0.00  0.00    -0.096 F 
ATOM      9  I   UNL d   1       0.483   5.899  -5.650  0.00  0.00    -0.060 I 
ATOM     10  F2  UNL d   1      -2.697   5.995  -5.992  0.00  0.00    -0.096 F 
ATOM     11  F3  UNL d   1      -4.703   5.999  -4.173  0.00  0.00    -0.097 F 
ATOM     12  F4  UNL d   1      -4.145   5.911  -1.504  0.00  0.00    -0.092 F 
ENDROOT
TORSDOF 0
ENDMDL
