MODEL 1
REMARK minimizedAffinity 13.9635544
REMARK minimizedRMSD -1
REMARK  0 active torsions:
REMARK  status: ('A' for Active; 'I' for Inactive)
ROOT
ATOM      1  C   UNL d   1       0.994   1.781   1.030  0.00  0.00     0.124 A 
ATOM      2  C1  UNL d   1       1.495   2.235  -0.182  0.00  0.00     0.062 A 
ATOM      3  C2  UNL d   1       1.559   1.378  -1.278  0.00  0.00     0.162 A 
ATOM      4  C3  UNL d   1       1.120   0.059  -1.166  0.00  0.00    -0.034 A 
ATOM      5  C4  UNL d   1       0.619  -0.391   0.057  0.00  0.00     0.162 A 
ATOM      6  C5  UNL d   1       0.557   0.469   1.149  0.00  0.00     0.062 A 
ATOM      7  F   UNL d   1       0.074   0.029   2.319  0.00  0.00    -0.097 F 
ATOM      8  F1  UNL d   1       0.189  -1.653   0.199  0.00  0.00    -0.096 F 
ATOM      9  I   UNL d   1       1.214  -1.224  -2.802  0.00  0.00    -0.060 I 
ATOM     10  F2  UNL d   1       2.047   1.844  -2.437  0.00  0.00    -0.096 F 
ATOM     11  F3  UNL d   1       1.919   3.501  -0.299  0.00  0.00    -0.097 F 
ATOM     12  F4  UNL d   1       0.935   2.606   2.083  0.00  0.00    -0.092 F 
ENDROOT
TORSDOF 0
ENDMDL
