MODEL 1
REMARK minimizedAffinity 16.4395237
REMARK minimizedRMSD -1
REMARK  0 active torsions:
REMARK  status: ('A' for Active; 'I' for Inactive)
ROOT
ATOM      1  C   UNL d   1       0.678   0.577   1.115  0.00  0.00     0.124 A 
ATOM      2  C1  UNL d   1       1.530   0.865   0.058  0.00  0.00     0.062 A 
ATOM      3  C2  UNL d   1       1.100   0.691  -1.255  0.00  0.00     0.162 A 
ATOM      4  C3  UNL d   1      -0.189   0.227  -1.517  0.00  0.00    -0.034 A 
ATOM      5  C4  UNL d   1      -1.039  -0.062  -0.448  0.00  0.00     0.162 A 
ATOM      6  C5  UNL d   1      -0.605   0.114   0.861  0.00  0.00     0.062 A 
ATOM      7  F   UNL d   1      -1.429  -0.165   1.882  0.00  0.00    -0.097 F 
ATOM      8  F1  UNL d   1      -2.285  -0.510  -0.665  0.00  0.00    -0.096 F 
ATOM      9  I   UNL d   1      -0.836  -0.034  -3.478  0.00  0.00    -0.060 I 
ATOM     10  F2  UNL d   1       1.944   0.978  -2.257  0.00  0.00    -0.096 F 
ATOM     11  F3  UNL d   1       2.770   1.312   0.301  0.00  0.00    -0.097 F 
ATOM     12  F4  UNL d   1       1.095   0.745   2.377  0.00  0.00    -0.092 F 
ENDROOT
TORSDOF 0
ENDMDL
