MODEL 1
REMARK minimizedAffinity 6.07776594
REMARK minimizedRMSD -1
REMARK  0 active torsions:
REMARK  status: ('A' for Active; 'I' for Inactive)
ROOT
ATOM      1  C   UNL d   1      -0.169   1.524   2.612  0.00  0.00     0.124 A 
ATOM      2  C1  UNL d   1      -0.582   0.291   2.126  0.00  0.00     0.062 A 
ATOM      3  C2  UNL d   1      -0.109  -0.172   0.902  0.00  0.00     0.162 A 
ATOM      4  C3  UNL d   1       0.785   0.597   0.156  0.00  0.00    -0.034 A 
ATOM      5  C4  UNL d   1       1.195   1.836   0.651  0.00  0.00     0.162 A 
ATOM      6  C5  UNL d   1       0.719   2.295   1.875  0.00  0.00     0.062 A 
ATOM      7  F   UNL d   1       1.119   3.486   2.343  0.00  0.00    -0.097 F 
ATOM      8  F1  UNL d   1       2.052   2.601  -0.041  0.00  0.00    -0.096 F 
ATOM      9  I   UNL d   1       1.495  -0.093  -1.675  0.00  0.00    -0.060 I 
ATOM     10  F2  UNL d   1      -0.524  -1.367   0.456  0.00  0.00    -0.096 F 
ATOM     11  F3  UNL d   1      -1.440  -0.455   2.836  0.00  0.00    -0.097 F 
ATOM     12  F4  UNL d   1      -0.627   1.968   3.790  0.00  0.00    -0.092 F 
ENDROOT
TORSDOF 0
ENDMDL
