MODEL 1
REMARK minimizedAffinity 7.1596694
REMARK minimizedRMSD -1
REMARK  0 active torsions:
REMARK  status: ('A' for Active; 'I' for Inactive)
ROOT
ATOM      1  C   UNL d   1       0.249   1.765   2.566  0.00  0.00     0.124 A 
ATOM      2  C1  UNL d   1       1.206   2.356   1.753  0.00  0.00     0.062 A 
ATOM      3  C2  UNL d   1       1.566   1.759   0.548  0.00  0.00     0.162 A 
ATOM      4  C3  UNL d   1       0.967   0.565   0.147  0.00  0.00    -0.034 A 
ATOM      5  C4  UNL d   1       0.006  -0.024   0.970  0.00  0.00     0.162 A 
ATOM      6  C5  UNL d   1      -0.350   0.576   2.174  0.00  0.00     0.062 A 
ATOM      7  F   UNL d   1      -1.276   0.004   2.958  0.00  0.00    -0.097 F 
ATOM      8  F1  UNL d   1      -0.590  -1.172   0.616  0.00  0.00    -0.096 F 
ATOM      9  I   UNL d   1       1.503  -0.330  -1.654  0.00  0.00    -0.060 I 
ATOM     10  F2  UNL d   1       2.495   2.353  -0.217  0.00  0.00    -0.096 F 
ATOM     11  F3  UNL d   1       1.788   3.504   2.130  0.00  0.00    -0.097 F 
ATOM     12  F4  UNL d   1      -0.095   2.340   3.725  0.00  0.00    -0.092 F 
ENDROOT
TORSDOF 0
ENDMDL
