MODEL 1
REMARK minimizedAffinity 8.94596004
REMARK minimizedRMSD -1
REMARK  0 active torsions:
REMARK  status: ('A' for Active; 'I' for Inactive)
ROOT
ATOM      1  C   UNL d   1      -1.914   5.803   0.002  0.00  0.00     0.124 A 
ATOM      2  C1  UNL d   1      -1.374   5.872  -1.275  0.00  0.00     0.062 A 
ATOM      3  C2  UNL d   1      -2.209   5.925  -2.387  0.00  0.00     0.162 A 
ATOM      4  C3  UNL d   1      -3.594   5.911  -2.227  0.00  0.00    -0.034 A 
ATOM      5  C4  UNL d   1      -4.131   5.841  -0.941  0.00  0.00     0.162 A 
ATOM      6  C5  UNL d   1      -3.292   5.788   0.168  0.00  0.00     0.062 A 
ATOM      7  F   UNL d   1      -3.816   5.722   1.400  0.00  0.00    -0.097 F 
ATOM      8  F1  UNL d   1      -5.459   5.826  -0.751  0.00  0.00    -0.096 F 
ATOM      9  I   UNL d   1      -4.847   5.991  -3.888  0.00  0.00    -0.060 I 
ATOM     10  F2  UNL d   1      -1.659   5.991  -3.608  0.00  0.00    -0.096 F 
ATOM     11  F3  UNL d   1      -0.043   5.886  -1.437  0.00  0.00    -0.097 F 
ATOM     12  F4  UNL d   1      -1.108   5.751   1.070  0.00  0.00    -0.092 F 
ENDROOT
TORSDOF 0
ENDMDL
