MODEL 1
REMARK minimizedAffinity 7.93523502
REMARK minimizedRMSD -1
REMARK  0 active torsions:
REMARK  status: ('A' for Active; 'I' for Inactive)
ROOT
ATOM      1  C   UNL d   1       1.160   1.521   0.794  0.00  0.00     0.124 A 
ATOM      2  C1  UNL d   1       0.883   0.186   0.533  0.00  0.00     0.062 A 
ATOM      3  C2  UNL d   1      -0.117  -0.472   1.243  0.00  0.00     0.162 A 
ATOM      4  C3  UNL d   1      -0.848   0.203   2.220  0.00  0.00    -0.034 A 
ATOM      5  C4  UNL d   1      -0.563   1.545   2.477  0.00  0.00     0.162 A 
ATOM      6  C5  UNL d   1       0.438   2.199   1.765  0.00  0.00     0.062 A 
ATOM      7  F   UNL d   1       0.705   3.488   2.019  0.00  0.00    -0.097 F 
ATOM      8  F1  UNL d   1      -1.246   2.225   3.410  0.00  0.00    -0.096 F 
ATOM      9  I   UNL d   1      -2.344  -0.778   3.283  0.00  0.00    -0.060 I 
ATOM     10  F2  UNL d   1      -0.364  -1.762   0.970  0.00  0.00    -0.096 F 
ATOM     11  F3  UNL d   1       1.580  -0.472  -0.405  0.00  0.00    -0.097 F 
ATOM     12  F4  UNL d   1       2.124   2.152   0.110  0.00  0.00    -0.092 F 
ENDROOT
TORSDOF 0
ENDMDL
