MODEL 1
REMARK minimizedAffinity 13.9682341
REMARK minimizedRMSD -1
REMARK  0 active torsions:
REMARK  status: ('A' for Active; 'I' for Inactive)
ROOT
ATOM      1  C   UNL d   1       0.004   2.155   1.457  0.00  0.00     0.124 A 
ATOM      2  C1  UNL d   1       0.769   2.637   0.404  0.00  0.00     0.062 A 
ATOM      3  C2  UNL d   1       1.161   1.785  -0.624  0.00  0.00     0.162 A 
ATOM      4  C3  UNL d   1       0.787   0.441  -0.605  0.00  0.00    -0.034 A 
ATOM      5  C4  UNL d   1       0.019  -0.037   0.458  0.00  0.00     0.162 A 
ATOM      6  C5  UNL d   1      -0.370   0.819   1.483  0.00  0.00     0.062 A 
ATOM      7  F   UNL d   1      -1.109   0.351   2.500  0.00  0.00    -0.097 F 
ATOM      8  F1  UNL d   1      -0.358  -1.323   0.507  0.00  0.00    -0.096 F 
ATOM      9  I   UNL d   1       1.371  -0.836  -2.141  0.00  0.00    -0.060 I 
ATOM     10  F2  UNL d   1       1.900   2.278  -1.629  0.00  0.00    -0.096 F 
ATOM     11  F3  UNL d   1       1.133   3.927   0.377  0.00  0.00    -0.097 F 
ATOM     12  F4  UNL d   1      -0.371   2.977   2.446  0.00  0.00    -0.092 F 
ENDROOT
TORSDOF 0
ENDMDL
