MODEL 1
REMARK minimizedAffinity 13.139081
REMARK minimizedRMSD -1
REMARK  0 active torsions:
REMARK  status: ('A' for Active; 'I' for Inactive)
ROOT
ATOM      1  C   UNL d   1       3.385   0.749  -0.778  0.00  0.00     0.124 A 
ATOM      2  C1  UNL d   1       3.874   0.360   0.462  0.00  0.00     0.062 A 
ATOM      3  C2  UNL d   1       3.005   0.192   1.535  0.00  0.00     0.162 A 
ATOM      4  C3  UNL d   1       1.637   0.412   1.374  0.00  0.00    -0.034 A 
ATOM      5  C4  UNL d   1       1.153   0.804   0.125  0.00  0.00     0.162 A 
ATOM      6  C5  UNL d   1       2.026   0.970  -0.945  0.00  0.00     0.062 A 
ATOM      7  F   UNL d   1       1.552   1.346  -2.142  0.00  0.00    -0.097 F 
ATOM      8  F1  UNL d   1      -0.157   1.023  -0.065  0.00  0.00    -0.096 F 
ATOM      9  I   UNL d   1       0.333   0.162   2.977  0.00  0.00    -0.060 I 
ATOM     10  F2  UNL d   1       3.504  -0.184   2.722  0.00  0.00    -0.096 F 
ATOM     11  F3  UNL d   1       5.187   0.147   0.626  0.00  0.00    -0.097 F 
ATOM     12  F4  UNL d   1       4.224   0.911  -1.809  0.00  0.00    -0.092 F 
ENDROOT
TORSDOF 0
ENDMDL
