MODEL 1
REMARK minimizedAffinity -2.3735497
REMARK minimizedRMSD -1
REMARK  3 active torsions:
REMARK  status: ('A' for Active; 'I' for Inactive)
REMARK    1  A    between atoms: C3'_2  and  C2'_3 
REMARK    2  A    between atoms: C2'_3  and  C1'_4 
REMARK    3  A    between atoms: C1'_4  and  C1_5 
ROOT
ATOM      1  C1  N4B d   1       0.246  -0.431   0.212  0.00  0.00    -0.075 A 
ATOM      2  C2  N4B d   1       0.746  -0.431   1.532  0.00  0.00     0.002 A 
ATOM      3  C3  N4B d   1      -0.073  -0.074   2.576  0.00  0.00     0.002 A 
ATOM      4  C4  N4B d   1      -1.383   0.303   2.322  0.00  0.00    -0.004 A 
ATOM      5  C5  N4B d   1      -1.865   0.276   1.046  0.00  0.00     0.002 A 
ATOM      6  C6  N4B d   1      -1.055  -0.085  -0.012  0.00  0.00     0.002 A 
ENDROOT
BRANCH   1   7
ATOM      7  C1' N4B d   1       1.127  -0.731  -0.971  0.00  0.00     0.057 C 
BRANCH   7   8
ATOM      8  C2' N4B d   1       0.274  -0.764  -2.235  0.00  0.00     0.009 C 
BRANCH   8   9
ATOM      9  C3' N4B d   1       1.066  -0.359  -3.466  0.00  0.00     0.004 C 
ATOM     10  C4' N4B d   1       2.288   0.444  -3.132  0.00  0.00     0.003 C 
ENDBRANCH   8   9
ENDBRANCH   7   8
ENDBRANCH   1   7
TORSDOF 3
ENDMDL
