MODEL 1
REMARK minimizedAffinity -3.56451726
REMARK minimizedRMSD -1
REMARK  3 active torsions:
REMARK  status: ('A' for Active; 'I' for Inactive)
REMARK    1  A    between atoms: C3'_2  and  C2'_3 
REMARK    2  A    between atoms: C2'_3  and  C1'_4 
REMARK    3  A    between atoms: C1'_4  and  C1_5 
ROOT
ATOM      1  C1  N4B d   1      -0.433  -0.129   0.198  0.00  0.00    -0.075 A 
ATOM      2  C2  N4B d   1       0.749  -0.565   0.838  0.00  0.00     0.002 A 
ATOM      3  C3  N4B d   1       0.830  -0.559   2.209  0.00  0.00     0.002 A 
ATOM      4  C4  N4B d   1      -0.246  -0.106   2.957  0.00  0.00    -0.004 A 
ATOM      5  C5  N4B d   1      -1.393   0.288   2.333  0.00  0.00     0.002 A 
ATOM      6  C6  N4B d   1      -1.490   0.284   0.956  0.00  0.00     0.002 A 
ENDROOT
BRANCH   1   7
ATOM      7  C1' N4B d   1      -0.537  -0.036  -1.299  0.00  0.00     0.057 C 
BRANCH   7   8
ATOM      8  C2' N4B d   1       0.824  -0.342  -1.916  0.00  0.00     0.009 C 
BRANCH   8   9
ATOM      9  C3' N4B d   1       0.896   0.082  -3.373  0.00  0.00     0.004 C 
ATOM     10  C4' N4B d   1       1.789   1.268  -3.589  0.00  0.00     0.003 C 
ENDBRANCH   8   9
ENDBRANCH   7   8
ENDBRANCH   1   7
TORSDOF 3
ENDMDL
