MODEL 1
REMARK minimizedAffinity -1.81253016
REMARK minimizedRMSD -1
REMARK  3 active torsions:
REMARK  status: ('A' for Active; 'I' for Inactive)
REMARK    1  A    between atoms: C3'_2  and  C2'_3 
REMARK    2  A    between atoms: C2'_3  and  C1'_4 
REMARK    3  A    between atoms: C1'_4  and  C1_5 
ROOT
ATOM      1  C1  N4B d   1      -0.216  -0.416   1.980  0.00  0.00    -0.075 A 
ATOM      2  C2  N4B d   1       0.175  -0.538   0.628  0.00  0.00     0.002 A 
ATOM      3  C3  N4B d   1      -0.676  -0.133  -0.371  0.00  0.00     0.002 A 
ATOM      4  C4  N4B d   1      -1.923   0.378  -0.045  0.00  0.00    -0.004 A 
ATOM      5  C5  N4B d   1      -2.283   0.516   1.263  0.00  0.00     0.002 A 
ATOM      6  C6  N4B d   1      -1.437   0.117   2.278  0.00  0.00     0.002 A 
ENDROOT
BRANCH   1   7
ATOM      7  C1' N4B d   1       0.645  -0.924   3.104  0.00  0.00     0.057 C 
BRANCH   7   8
ATOM      8  C2' N4B d   1       0.396  -0.076   4.348  0.00  0.00     0.009 C 
BRANCH   8   9
ATOM      9  C3' N4B d   1       0.979  -0.715   5.597  0.00  0.00     0.004 C 
ATOM     10  C4' N4B d   1       1.670  -2.016   5.315  0.00  0.00     0.003 C 
ENDBRANCH   8   9
ENDBRANCH   7   8
ENDBRANCH   1   7
TORSDOF 3
ENDMDL
