MODEL 1
REMARK minimizedAffinity -1.70575166
REMARK minimizedRMSD -1
REMARK  0 active torsions:
REMARK  status: ('A' for Active; 'I' for Inactive)
ROOT
ATOM      1  C   UNL d   1       1.035   3.975  -5.984  0.00  0.00     0.078 C 
ATOM      2  C1  UNL d   1       2.503   3.668  -5.979  0.00  0.00    -0.077 A 
ATOM      3  C2  UNL d   1       3.455   4.694  -5.993  0.00  0.00    -0.001 A 
ATOM      4  C3  UNL d   1       4.818   4.393  -5.998  0.00  0.00     0.003 A 
ATOM      5  C4  UNL d   1       5.241   3.066  -5.990  0.00  0.00    -0.005 A 
ATOM      6  C5  UNL d   1       4.301   2.037  -5.978  0.00  0.00     0.003 A 
ATOM      7  C6  UNL d   1       2.938   2.336  -5.973  0.00  0.00    -0.001 A 
ENDROOT
TORSDOF 0
ENDMDL
