MODEL 1
REMARK minimizedAffinity -0.181639388
REMARK minimizedRMSD -1
REMARK  0 active torsions:
REMARK  status: ('A' for Active; 'I' for Inactive)
ROOT
ATOM      1  C   UNL d   1       4.482  -4.087   3.785  0.00  0.00     0.078 C 
ATOM      2  C1  UNL d   1       3.969  -3.989   2.380  0.00  0.00    -0.077 A 
ATOM      3  C2  UNL d   1       4.738  -4.437   1.298  0.00  0.00    -0.001 A 
ATOM      4  C3  UNL d   1       4.251  -4.332  -0.006  0.00  0.00     0.003 A 
ATOM      5  C4  UNL d   1       2.995  -3.777  -0.241  0.00  0.00    -0.005 A 
ATOM      6  C5  UNL d   1       2.224  -3.326   0.829  0.00  0.00     0.003 A 
ATOM      7  C6  UNL d   1       2.708  -3.431   2.133  0.00  0.00    -0.001 A 
ENDROOT
TORSDOF 0
ENDMDL
