MODEL 1
REMARK minimizedAffinity 4.06791306
REMARK minimizedRMSD -1
REMARK  0 active torsions:
REMARK  status: ('A' for Active; 'I' for Inactive)
ROOT
ATOM      1  C   UNL d   1       1.405  -1.642   0.745  0.00  0.00     0.078 C 
ATOM      2  C1  UNL d   1       2.532  -2.631   0.766  0.00  0.00    -0.077 A 
ATOM      3  C2  UNL d   1       3.250  -2.881   1.942  0.00  0.00    -0.001 A 
ATOM      4  C3  UNL d   1       4.303  -3.797   1.945  0.00  0.00     0.003 A 
ATOM      5  C4  UNL d   1       4.648  -4.470   0.775  0.00  0.00    -0.005 A 
ATOM      6  C5  UNL d   1       3.941  -4.227  -0.400  0.00  0.00     0.003 A 
ATOM      7  C6  UNL d   1       2.887  -3.311  -0.405  0.00  0.00    -0.001 A 
ENDROOT
TORSDOF 0
ENDMDL
