MODEL 1
REMARK minimizedAffinity -1.80552268
REMARK minimizedRMSD -1
REMARK  0 active torsions:
REMARK  status: ('A' for Active; 'I' for Inactive)
ROOT
ATOM      1  C   UNL d   1       3.800   1.747  -5.998  0.00  0.00     0.078 C 
ATOM      2  C1  UNL d   1       4.041   3.226  -5.979  0.00  0.00    -0.077 A 
ATOM      3  C2  UNL d   1       5.341   3.745  -5.937  0.00  0.00    -0.001 A 
ATOM      4  C3  UNL d   1       5.551   5.124  -5.910  0.00  0.00     0.003 A 
ATOM      5  C4  UNL d   1       4.465   5.997  -5.924  0.00  0.00    -0.005 A 
ATOM      6  C5  UNL d   1       3.167   5.491  -5.964  0.00  0.00     0.003 A 
ATOM      7  C6  UNL d   1       2.956   4.112  -5.990  0.00  0.00    -0.001 A 
ENDROOT
TORSDOF 0
ENDMDL
