MODEL 1
REMARK minimizedAffinity -2.46619511
REMARK minimizedRMSD -1
REMARK  0 active torsions:
REMARK  status: ('A' for Active; 'I' for Inactive)
ROOT
ATOM      1  C   UNL d   1       2.767   1.764  -6.000  0.00  0.00     0.078 C 
ATOM      2  C1  UNL d   1       3.041   3.238  -5.999  0.00  0.00    -0.077 A 
ATOM      3  C2  UNL d   1       4.353   3.727  -5.999  0.00  0.00    -0.001 A 
ATOM      4  C3  UNL d   1       4.593   5.102  -5.989  0.00  0.00     0.003 A 
ATOM      5  C4  UNL d   1       3.527   5.999  -5.977  0.00  0.00    -0.005 A 
ATOM      6  C5  UNL d   1       2.218   5.521  -5.975  0.00  0.00     0.003 A 
ATOM      7  C6  UNL d   1       1.975   4.147  -5.985  0.00  0.00    -0.001 A 
ENDROOT
TORSDOF 0
ENDMDL
