MODEL 1
REMARK minimizedAffinity 3.76184177
REMARK minimizedRMSD -1
REMARK  0 active torsions:
REMARK  status: ('A' for Active; 'I' for Inactive)
ROOT
ATOM      1  C   UNL d   1       3.202   0.957  -5.684  0.00  0.00     0.078 C 
ATOM      2  C1  UNL d   1       2.749   2.383  -5.786  0.00  0.00    -0.077 A 
ATOM      3  C2  UNL d   1       1.387   2.706  -5.809  0.00  0.00    -0.001 A 
ATOM      4  C3  UNL d   1       0.979   4.037  -5.914  0.00  0.00     0.003 A 
ATOM      5  C4  UNL d   1       1.927   5.055  -5.999  0.00  0.00    -0.005 A 
ATOM      6  C5  UNL d   1       3.285   4.742  -5.979  0.00  0.00     0.003 A 
ATOM      7  C6  UNL d   1       3.694   3.412  -5.873  0.00  0.00    -0.001 A 
ENDROOT
TORSDOF 0
ENDMDL
