MODEL 1
REMARK minimizedAffinity 18.6952724
REMARK minimizedRMSD -1
REMARK  0 active torsions:
REMARK  status: ('A' for Active; 'I' for Inactive)
ROOT
ATOM      1  C2' OXE d   1       4.419   5.053   2.872  0.00  0.00     0.078 C 
ATOM      2  C1' OXE d   1       3.851   2.616   1.598  0.00  0.00     0.078 C 
ATOM      3  C1  OXE d   1       4.356   2.567   3.019  0.00  0.00    -0.078 A 
ATOM      4  C2  OXE d   1       4.675   3.761   3.618  0.00  0.00    -0.078 A 
ATOM      5  C3  OXE d   1       5.093   3.776   4.946  0.00  0.00     0.003 A 
ATOM      6  C4  OXE d   1       5.337   2.576   5.626  0.00  0.00    -0.002 A 
ATOM      7  C5  OXE d   1       5.056   1.347   5.020  0.00  0.00    -0.002 A 
ATOM      8  C6  OXE d   1       4.525   1.326   3.735  0.00  0.00     0.003 A 
ENDROOT
TORSDOF 0
ENDMDL
