MODEL 1
REMARK minimizedAffinity 7.21115541
REMARK minimizedRMSD -1
REMARK  0 active torsions:
REMARK  status: ('A' for Active; 'I' for Inactive)
ROOT
ATOM      1  C2' OXE d   1       1.120  -1.824   3.742  0.00  0.00     0.078 C 
ATOM      2  C1' OXE d   1       1.637   0.865   4.356  0.00  0.00     0.078 C 
ATOM      3  C1  OXE d   1       0.493   0.565   3.421  0.00  0.00    -0.078 A 
ATOM      4  C2  OXE d   1       0.276  -0.751   3.089  0.00  0.00    -0.078 A 
ATOM      5  C3  OXE d   1      -0.800  -1.088   2.273  0.00  0.00     0.003 A 
ATOM      6  C4  OXE d   1      -1.570  -0.088   1.666  0.00  0.00    -0.002 A 
ATOM      7  C5  OXE d   1      -1.341   1.260   1.959  0.00  0.00    -0.002 A 
ATOM      8  C6  OXE d   1      -0.343   1.601   2.865  0.00  0.00     0.003 A 
ENDROOT
TORSDOF 0
ENDMDL
