MODEL 1
REMARK minimizedAffinity 4.03503561
REMARK minimizedRMSD -1
REMARK  0 active torsions:
REMARK  status: ('A' for Active; 'I' for Inactive)
ROOT
ATOM      1  C2' OXE d   1       5.999   2.661   3.823  0.00  0.00     0.078 C 
ATOM      2  C1' OXE d   1       4.101   1.795   1.945  0.00  0.00     0.078 C 
ATOM      3  C1  OXE d   1       4.359   3.277   2.052  0.00  0.00    -0.078 A 
ATOM      4  C2  OXE d   1       5.255   3.695   3.006  0.00  0.00    -0.078 A 
ATOM      5  C3  OXE d   1       5.571   5.047   3.110  0.00  0.00     0.003 A 
ATOM      6  C4  OXE d   1       4.871   5.998   2.357  0.00  0.00    -0.002 A 
ATOM      7  C5  OXE d   1       3.926   5.596   1.408  0.00  0.00    -0.002 A 
ATOM      8  C6  OXE d   1       3.689   4.240   1.213  0.00  0.00     0.003 A 
ENDROOT
TORSDOF 0
ENDMDL
