MODEL 1
REMARK minimizedAffinity 14.2339859
REMARK minimizedRMSD -1
REMARK  0 active torsions:
REMARK  status: ('A' for Active; 'I' for Inactive)
ROOT
ATOM      1  C2' OXE d   1      -5.907   0.940  -2.091  0.00  0.00     0.078 C 
ATOM      2  C1' OXE d   1      -5.972   1.608   0.635  0.00  0.00     0.078 C 
ATOM      3  C1  OXE d   1      -5.956   2.736  -0.366  0.00  0.00    -0.078 A 
ATOM      4  C2  OXE d   1      -5.877   2.401  -1.696  0.00  0.00    -0.078 A 
ATOM      5  C3  OXE d   1      -5.914   3.402  -2.663  0.00  0.00     0.003 A 
ATOM      6  C4  OXE d   1      -5.877   4.750  -2.289  0.00  0.00    -0.002 A 
ATOM      7  C5  OXE d   1      -5.916   5.114  -0.938  0.00  0.00    -0.002 A 
ATOM      8  C6  OXE d   1      -5.999   4.122   0.032  0.00  0.00     0.003 A 
ENDROOT
TORSDOF 0
ENDMDL
