MODEL 1
REMARK minimizedAffinity 4.7938776
REMARK minimizedRMSD -1
REMARK  0 active torsions:
REMARK  status: ('A' for Active; 'I' for Inactive)
ROOT
ATOM      1  C2' OXE d   1       5.727   2.195   4.233  0.00  0.00     0.078 C 
ATOM      2  C1' OXE d   1       4.127   2.232   1.926  0.00  0.00     0.078 C 
ATOM      3  C1  OXE d   1       4.605   3.554   2.473  0.00  0.00    -0.078 A 
ATOM      4  C2  OXE d   1       5.348   3.530   3.628  0.00  0.00    -0.078 A 
ATOM      5  C3  OXE d   1       5.859   4.717   4.144  0.00  0.00     0.003 A 
ATOM      6  C4  OXE d   1       5.496   5.948   3.584  0.00  0.00    -0.002 A 
ATOM      7  C5  OXE d   1       4.707   5.997   2.430  0.00  0.00    -0.002 A 
ATOM      8  C6  OXE d   1       4.290   4.810   1.838  0.00  0.00     0.003 A 
ENDROOT
TORSDOF 0
ENDMDL
