MODEL 1
REMARK minimizedAffinity 16.8216038
REMARK minimizedRMSD -1
REMARK  0 active torsions:
REMARK  status: ('A' for Active; 'I' for Inactive)
ROOT
ATOM      1  C2' OXE d   1      -1.902  -1.759  -0.585  0.00  0.00     0.078 C 
ATOM      2  C1' OXE d   1      -3.147  -0.575   1.635  0.00  0.00     0.078 C 
ATOM      3  C1  OXE d   1      -1.642  -0.511   1.555  0.00  0.00    -0.078 A 
ATOM      4  C2  OXE d   1      -1.038  -1.134   0.489  0.00  0.00    -0.078 A 
ATOM      5  C3  OXE d   1       0.344  -1.058   0.339  0.00  0.00     0.003 A 
ATOM      6  C4  OXE d   1       1.136  -0.486   1.342  0.00  0.00    -0.002 A 
ATOM      7  C5  OXE d   1       0.543   0.119   2.455  0.00  0.00    -0.002 A 
ATOM      8  C6  OXE d   1      -0.843   0.153   2.556  0.00  0.00     0.003 A 
ENDROOT
TORSDOF 0
ENDMDL
