MODEL 1
REMARK minimizedAffinity 12.9395609
REMARK minimizedRMSD -1
REMARK  2 active torsions:
REMARK  status: ('A' for Active; 'I' for Inactive)
REMARK    1  A    between atoms: C1_2  and  C2_3 
REMARK    2  A    between atoms: C2_3  and  C3_4 
ROOT
ATOM      1  C3  UNL d   1       0.126   4.294  -0.807  0.00  0.00    -0.075 A 
ATOM      2  C4  UNL d   1      -0.863   4.221   0.184  0.00  0.00     0.002 A 
ATOM      3  C5  UNL d   1      -1.166   3.004   0.795  0.00  0.00     0.002 A 
ATOM      4  C6  UNL d   1      -0.493   1.845   0.417  0.00  0.00    -0.004 A 
ATOM      5  C7  UNL d   1       0.480   1.902  -0.579  0.00  0.00     0.002 A 
ATOM      6  C8  UNL d   1       0.788   3.119  -1.189  0.00  0.00     0.002 A 
ENDROOT
BRANCH   1   7
ATOM      7  C2  UNL d   1       0.479   5.613  -1.452  0.00  0.00     0.056 C 
BRANCH   7   8
ATOM      8  C1  UNL d   1      -0.285   5.898  -2.749  0.00  0.00     0.007 C 
ATOM      9  C   UNL d   1      -1.768   5.563  -2.658  0.00  0.00     0.009 C 
ENDBRANCH   7   8
ENDBRANCH   1   7
TORSDOF 2
ENDMDL
