MODEL 1
REMARK minimizedAffinity 8.08839607
REMARK minimizedRMSD -1
REMARK  2 active torsions:
REMARK  status: ('A' for Active; 'I' for Inactive)
REMARK    1  A    between atoms: C1_2  and  C2_3 
REMARK    2  A    between atoms: C2_3  and  C3_4 
ROOT
ATOM      1  C3  UNL d   1      -1.070   4.116   0.460  0.00  0.00    -0.075 A 
ATOM      2  C4  UNL d   1      -0.732   3.787  -0.861  0.00  0.00     0.002 A 
ATOM      3  C5  UNL d   1      -0.216   2.527  -1.167  0.00  0.00     0.002 A 
ATOM      4  C6  UNL d   1      -0.022   1.587  -0.158  0.00  0.00    -0.004 A 
ATOM      5  C7  UNL d   1      -0.339   1.908   1.160  0.00  0.00     0.002 A 
ATOM      6  C8  UNL d   1      -0.860   3.166   1.468  0.00  0.00     0.002 A 
ENDROOT
BRANCH   1   7
ATOM      7  C2  UNL d   1      -1.657   5.467   0.793  0.00  0.00     0.056 C 
BRANCH   7   8
ATOM      8  C1  UNL d   1      -2.971   5.399   1.578  0.00  0.00     0.007 C 
ATOM      9  C   UNL d   1      -2.869   5.999   2.974  0.00  0.00     0.009 C 
ENDBRANCH   7   8
ENDBRANCH   1   7
TORSDOF 2
ENDMDL
