MODEL 1
REMARK minimizedAffinity 11.2226734
REMARK minimizedRMSD -1
REMARK  2 active torsions:
REMARK  status: ('A' for Active; 'I' for Inactive)
REMARK    1  A    between atoms: C1_2  and  C2_3 
REMARK    2  A    between atoms: C2_3  and  C3_4 
ROOT
ATOM      1  C3  UNL d   1      -3.450   2.981  -2.152  0.00  0.00    -0.075 A 
ATOM      2  C4  UNL d   1      -4.347   3.739  -2.919  0.00  0.00     0.002 A 
ATOM      3  C5  UNL d   1      -5.616   3.244  -3.220  0.00  0.00     0.002 A 
ATOM      4  C6  UNL d   1      -6.000   1.983  -2.770  0.00  0.00    -0.004 A 
ATOM      5  C7  UNL d   1      -5.111   1.214  -2.022  0.00  0.00     0.002 A 
ATOM      6  C8  UNL d   1      -3.843   1.709  -1.714  0.00  0.00     0.002 A 
ENDROOT
BRANCH   1   7
ATOM      7  C2  UNL d   1      -2.086   3.523  -1.797  0.00  0.00     0.056 C 
BRANCH   7   8
ATOM      8  C1  UNL d   1      -1.469   2.889  -0.546  0.00  0.00     0.007 C 
ATOM      9  C   UNL d   1       0.052   2.831  -0.590  0.00  0.00     0.009 C 
ENDBRANCH   7   8
ENDBRANCH   1   7
TORSDOF 2
ENDMDL
