MODEL 1
REMARK minimizedAffinity 10.1407013
REMARK minimizedRMSD -1
REMARK  2 active torsions:
REMARK  status: ('A' for Active; 'I' for Inactive)
REMARK    1  A    between atoms: C1_2  and  C2_3 
REMARK    2  A    between atoms: C2_3  and  C3_4 
ROOT
ATOM      1  C3  UNL d   1      -1.325   1.556   2.510  0.00  0.00    -0.075 A 
ATOM      2  C4  UNL d   1      -1.133   2.243   1.303  0.00  0.00     0.002 A 
ATOM      3  C5  UNL d   1       0.140   2.671   0.926  0.00  0.00     0.002 A 
ATOM      4  C6  UNL d   1       1.233   2.427   1.754  0.00  0.00    -0.004 A 
ATOM      5  C7  UNL d   1       1.052   1.761   2.964  0.00  0.00     0.002 A 
ATOM      6  C8  UNL d   1      -0.221   1.327   3.341  0.00  0.00     0.002 A 
ENDROOT
BRANCH   1   7
ATOM      7  C2  UNL d   1      -2.696   1.064   2.910  0.00  0.00     0.056 C 
BRANCH   7   8
ATOM      8  C1  UNL d   1      -3.282   0.012   1.962  0.00  0.00     0.007 C 
ATOM      9  C   UNL d   1      -4.044  -1.090   2.686  0.00  0.00     0.009 C 
ENDBRANCH   7   8
ENDBRANCH   1   7
TORSDOF 2
ENDMDL
