MODEL 1
REMARK minimizedAffinity 11.5368605
REMARK minimizedRMSD -1
REMARK  2 active torsions:
REMARK  status: ('A' for Active; 'I' for Inactive)
REMARK    1  A    between atoms: C1_2  and  C2_3 
REMARK    2  A    between atoms: C2_3  and  C3_4 
ROOT
ATOM      1  C3  UNL d   1       1.575   2.540   0.506  0.00  0.00    -0.075 A 
ATOM      2  C4  UNL d   1       2.521   3.513   0.155  0.00  0.00     0.002 A 
ATOM      3  C5  UNL d   1       2.477   4.123  -1.099  0.00  0.00     0.002 A 
ATOM      4  C6  UNL d   1       1.495   3.762  -2.019  0.00  0.00    -0.004 A 
ATOM      5  C7  UNL d   1       0.560   2.785  -1.687  0.00  0.00     0.002 A 
ATOM      6  C8  UNL d   1       0.599   2.176  -0.431  0.00  0.00     0.002 A 
ENDROOT
BRANCH   1   7
ATOM      7  C2  UNL d   1       1.599   1.897   1.872  0.00  0.00     0.056 C 
BRANCH   7   8
ATOM      8  C1  UNL d   1       3.000   1.775   2.480  0.00  0.00     0.007 C 
ATOM      9  C   UNL d   1       3.190   2.628   3.727  0.00  0.00     0.009 C 
ENDBRANCH   7   8
ENDBRANCH   1   7
TORSDOF 2
ENDMDL
