MODEL 1
REMARK minimizedAffinity 5.63368702
REMARK minimizedRMSD -1
REMARK  2 active torsions:
REMARK  status: ('A' for Active; 'I' for Inactive)
REMARK    1  A    between atoms: C1_2  and  C2_3 
REMARK    2  A    between atoms: C2_3  and  C3_4 
ROOT
ATOM      1  C3  UNL d   1      -4.502   0.086   0.940  0.00  0.00    -0.075 A 
ATOM      2  C4  UNL d   1      -3.876  -0.360  -0.233  0.00  0.00     0.002 A 
ATOM      3  C5  UNL d   1      -3.714   0.499  -1.321  0.00  0.00     0.002 A 
ATOM      4  C6  UNL d   1      -4.184   1.808  -1.254  0.00  0.00    -0.004 A 
ATOM      5  C7  UNL d   1      -4.822   2.257  -0.100  0.00  0.00     0.002 A 
ATOM      6  C8  UNL d   1      -4.981   1.401   0.992  0.00  0.00     0.002 A 
ENDROOT
BRANCH   1   7
ATOM      7  C2  UNL d   1      -4.653  -0.830   2.131  0.00  0.00     0.056 C 
BRANCH   7   8
ATOM      8  C1  UNL d   1      -6.000  -0.699   2.850  0.00  0.00     0.007 C 
ATOM      9  C   UNL d   1      -5.993  -1.298   4.250  0.00  0.00     0.009 C 
ENDBRANCH   7   8
ENDBRANCH   1   7
TORSDOF 2
ENDMDL
