MODEL 1
REMARK minimizedAffinity 12.1322165
REMARK minimizedRMSD -1
REMARK  0 active torsions:
REMARK  status: ('A' for Active; 'I' for Inactive)
ROOT
ATOM      1  C   UNL d   1       0.771   5.203  -1.226  0.00  0.00     0.077 C 
ATOM      2  C1  UNL d   1       0.041   4.565  -0.082  0.00  0.00    -0.074 A 
ATOM      3  C2  UNL d   1       0.331   3.257   0.317  0.00  0.00    -0.005 A 
ATOM      4  C3  UNL d   1      -0.350   2.681   1.389  0.00  0.00     0.006 A 
ATOM      5  C4  UNL d   1      -1.326   3.406   2.073  0.00  0.00    -0.005 A 
ATOM      6  C5  UNL d   1      -1.630   4.716   1.689  0.00  0.00    -0.074 A 
ATOM      7  C6  UNL d   1      -2.669   5.513   2.419  0.00  0.00     0.077 C 
ATOM      8  C7  UNL d   1      -0.936   5.291   0.615  0.00  0.00    -0.001 A 
ENDROOT
TORSDOF 0
ENDMDL
