MODEL 1
REMARK minimizedAffinity 11.9215345
REMARK minimizedRMSD -1
REMARK  0 active torsions:
REMARK  status: ('A' for Active; 'I' for Inactive)
ROOT
ATOM      1  C   UNL d   1       1.680  -5.999  -0.377  0.00  0.00     0.077 C 
ATOM      2  C1  UNL d   1       2.948  -5.286  -0.742  0.00  0.00    -0.074 A 
ATOM      3  C2  UNL d   1       4.095  -6.000  -1.104  0.00  0.00    -0.005 A 
ATOM      4  C3  UNL d   1       5.265  -5.322  -1.451  0.00  0.00     0.006 A 
ATOM      5  C4  UNL d   1       5.299  -3.928  -1.438  0.00  0.00    -0.005 A 
ATOM      6  C5  UNL d   1       4.161  -3.197  -1.080  0.00  0.00    -0.074 A 
ATOM      7  C6  UNL d   1       4.178  -1.698  -1.071  0.00  0.00     0.077 C 
ATOM      8  C7  UNL d   1       2.988  -3.885  -0.739  0.00  0.00    -0.001 A 
ENDROOT
TORSDOF 0
ENDMDL
