MODEL 1
REMARK minimizedAffinity 9.96378136
REMARK minimizedRMSD -1
REMARK  0 active torsions:
REMARK  status: ('A' for Active; 'I' for Inactive)
ROOT
ATOM      1  C   UNL d   1      -3.287   4.740  -2.543  0.00  0.00     0.077 C 
ATOM      2  C1  UNL d   1      -4.194   4.765  -3.737  0.00  0.00    -0.074 A 
ATOM      3  C2  UNL d   1      -4.577   5.975  -4.325  0.00  0.00    -0.005 A 
ATOM      4  C3  UNL d   1      -5.413   5.982  -5.441  0.00  0.00     0.006 A 
ATOM      5  C4  UNL d   1      -5.875   4.780  -5.980  0.00  0.00    -0.005 A 
ATOM      6  C5  UNL d   1      -5.502   3.561  -5.407  0.00  0.00    -0.074 A 
ATOM      7  C6  UNL d   1      -5.982   2.260  -5.980  0.00  0.00     0.077 C 
ATOM      8  C7  UNL d   1      -4.656   3.562  -4.290  0.00  0.00    -0.001 A 
ENDROOT
TORSDOF 0
ENDMDL
