MODEL 1
REMARK minimizedAffinity 9.41728783
REMARK minimizedRMSD -1
REMARK  0 active torsions:
REMARK  status: ('A' for Active; 'I' for Inactive)
ROOT
ATOM      1  C   UNL d   1       1.696  -5.375  -0.352  0.00  0.00     0.077 C 
ATOM      2  C1  UNL d   1       3.176  -5.385  -0.597  0.00  0.00    -0.074 A 
ATOM      3  C2  UNL d   1       4.053  -5.976   0.318  0.00  0.00    -0.005 A 
ATOM      4  C3  UNL d   1       5.425  -5.986   0.072  0.00  0.00     0.006 A 
ATOM      5  C4  UNL d   1       5.935  -5.405  -1.090  0.00  0.00    -0.005 A 
ATOM      6  C5  UNL d   1       5.074  -4.810  -2.018  0.00  0.00    -0.074 A 
ATOM      7  C6  UNL d   1       5.604  -4.191  -3.277  0.00  0.00     0.077 C 
ATOM      8  C7  UNL d   1       3.695  -4.811  -1.766  0.00  0.00    -0.001 A 
ENDROOT
TORSDOF 0
ENDMDL
