MODEL 1
REMARK minimizedAffinity -4.48580694
REMARK minimizedRMSD -1
REMARK  0 active torsions:
REMARK  status: ('A' for Active; 'I' for Inactive)
ROOT
ATOM      1  C   UNL d   1       0.193  -0.488  -1.126  0.00  0.00     0.078 C 
ATOM      2  C1  UNL d   1      -0.230   0.215   0.129  0.00  0.00    -0.077 A 
ATOM      3  C2  UNL d   1       0.698   0.910   0.915  0.00  0.00    -0.001 A 
ATOM      4  C3  UNL d   1       0.291   1.552   2.086  0.00  0.00     0.003 A 
ATOM      5  C4  UNL d   1      -1.044   1.505   2.482  0.00  0.00    -0.005 A 
ATOM      6  C5  UNL d   1      -1.974   0.814   1.708  0.00  0.00     0.003 A 
ATOM      7  C6  UNL d   1      -1.569   0.172   0.536  0.00  0.00    -0.001 A 
ENDROOT
TORSDOF 0
ENDMDL
