MODEL 1
REMARK minimizedAffinity -4.50936079
REMARK minimizedRMSD -1
REMARK  0 active torsions:
REMARK  status: ('A' for Active; 'I' for Inactive)
ROOT
ATOM      1  C   UNL d   1       0.222  -0.305  -1.452  0.00  0.00     0.078 C 
ATOM      2  C1  UNL d   1      -0.116   0.157  -0.066  0.00  0.00    -0.077 A 
ATOM      3  C2  UNL d   1       0.890   0.528   0.835  0.00  0.00    -0.001 A 
ATOM      4  C3  UNL d   1       0.562   0.947   2.125  0.00  0.00     0.003 A 
ATOM      5  C4  UNL d   1      -0.772   0.998   2.527  0.00  0.00    -0.005 A 
ATOM      6  C5  UNL d   1      -1.779   0.628   1.638  0.00  0.00     0.003 A 
ATOM      7  C6  UNL d   1      -1.453   0.209   0.347  0.00  0.00    -0.001 A 
ENDROOT
TORSDOF 0
ENDMDL
