MODEL 1
REMARK minimizedAffinity -5.34553051
REMARK minimizedRMSD -1
REMARK  0 active torsions:
REMARK  status: ('A' for Active; 'I' for Inactive)
ROOT
ATOM      1  C   UNL d   1       0.471  -0.388  -1.015  0.00  0.00     0.078 C 
ATOM      2  C1  UNL d   1       0.250  -0.220   0.459  0.00  0.00    -0.077 A 
ATOM      3  C2  UNL d   1      -0.952   0.301   0.953  0.00  0.00    -0.001 A 
ATOM      4  C3  UNL d   1      -1.140   0.461   2.327  0.00  0.00     0.003 A 
ATOM      5  C4  UNL d   1      -0.130   0.103   3.218  0.00  0.00    -0.005 A 
ATOM      6  C5  UNL d   1       1.070  -0.414   2.735  0.00  0.00     0.003 A 
ATOM      7  C6  UNL d   1       1.260  -0.575   1.362  0.00  0.00    -0.001 A 
ENDROOT
TORSDOF 0
ENDMDL
