MODEL 1
REMARK minimizedAffinity -4.0655489
REMARK minimizedRMSD -1
REMARK  0 active torsions:
REMARK  status: ('A' for Active; 'I' for Inactive)
ROOT
ATOM      1  C   UNL d   1      -0.015  -0.156  -1.496  0.00  0.00     0.078 C 
ATOM      2  C1  UNL d   1      -0.401   0.277  -0.113  0.00  0.00    -0.077 A 
ATOM      3  C2  UNL d   1       0.550   0.806   0.769  0.00  0.00    -0.001 A 
ATOM      4  C3  UNL d   1       0.179   1.196   2.057  0.00  0.00     0.003 A 
ATOM      5  C4  UNL d   1      -1.144   1.061   2.475  0.00  0.00    -0.005 A 
ATOM      6  C5  UNL d   1      -2.097   0.534   1.605  0.00  0.00     0.003 A 
ATOM      7  C6  UNL d   1      -1.727   0.143   0.317  0.00  0.00    -0.001 A 
ENDROOT
TORSDOF 0
ENDMDL
