MODEL 1
REMARK minimizedAffinity -1.82663047
REMARK minimizedRMSD -1
REMARK  0 active torsions:
REMARK  status: ('A' for Active; 'I' for Inactive)
ROOT
ATOM      1  C   UNL d   1       0.150  -0.082  -1.305  0.00  0.00     0.078 C 
ATOM      2  C1  UNL d   1      -0.472   0.097   0.047  0.00  0.00    -0.077 A 
ATOM      3  C2  UNL d   1      -1.763   0.622   0.184  0.00  0.00    -0.001 A 
ATOM      4  C3  UNL d   1      -2.325   0.792   1.450  0.00  0.00     0.003 A 
ATOM      5  C4  UNL d   1      -1.603   0.442   2.589  0.00  0.00    -0.005 A 
ATOM      6  C5  UNL d   1      -0.317  -0.079   2.463  0.00  0.00     0.003 A 
ATOM      7  C6  UNL d   1       0.247  -0.250   1.198  0.00  0.00    -0.001 A 
ENDROOT
TORSDOF 0
ENDMDL
