MODEL 1
REMARK minimizedAffinity 5.77499342
REMARK minimizedRMSD -1
REMARK  1 active torsions:
REMARK  status: ('A' for Active; 'I' for Inactive)
REMARK    1  A    between atoms: C1_2  and  C2_3 
ROOT
ATOM      1  C2  UNL d   1       3.867  -0.643  -0.958  0.00  0.00    -0.076 A 
ATOM      2  C3  UNL d   1       5.262  -0.647  -1.128  0.00  0.00     0.004 A 
ATOM      3  C4  UNL d   1       5.998   0.533  -1.043  0.00  0.00    -0.003 A 
ATOM      4  C5  UNL d   1       5.351   1.737  -0.785  0.00  0.00     0.000 A 
ATOM      5  C6  UNL d   1       3.970   1.757  -0.596  0.00  0.00     0.000 A 
ATOM      6  C7  UNL d   1       3.215   0.573  -0.663  0.00  0.00    -0.073 A 
ATOM      7  C8  UNL d   1       1.727   0.654  -0.457  0.00  0.00     0.078 C 
ENDROOT
BRANCH   1   8
ATOM      8  C1  UNL d   1       3.118  -1.950  -1.089  0.00  0.00     0.053 C 
ATOM      9  C   UNL d   1       3.072  -2.729   0.217  0.00  0.00     0.018 C 
ENDBRANCH   1   8
TORSDOF 1
ENDMDL
