MODEL 1
REMARK minimizedAffinity 10.8718596
REMARK minimizedRMSD -1
REMARK  1 active torsions:
REMARK  status: ('A' for Active; 'I' for Inactive)
REMARK    1  A    between atoms: C1_2  and  C2_3 
ROOT
ATOM      1  C2  UNL d   1       3.368  -0.766  -0.472  0.00  0.00    -0.076 A 
ATOM      2  C3  UNL d   1       4.768  -0.813  -0.594  0.00  0.00     0.004 A 
ATOM      3  C4  UNL d   1       5.505   0.341  -0.851  0.00  0.00    -0.003 A 
ATOM      4  C5  UNL d   1       4.855   1.563  -0.989  0.00  0.00     0.000 A 
ATOM      5  C6  UNL d   1       3.469   1.631  -0.854  0.00  0.00     0.000 A 
ATOM      6  C7  UNL d   1       2.712   0.479  -0.578  0.00  0.00    -0.073 A 
ATOM      7  C8  UNL d   1       1.219   0.610  -0.448  0.00  0.00     0.078 C 
ENDROOT
BRANCH   1   8
ATOM      8  C1  UNL d   1       2.619  -2.055  -0.220  0.00  0.00     0.053 C 
ATOM      9  C   UNL d   1       2.058  -2.662  -1.496  0.00  0.00     0.018 C 
ENDBRANCH   1   8
TORSDOF 1
ENDMDL
