MODEL 1
REMARK minimizedAffinity 9.25539017
REMARK minimizedRMSD -1
REMARK  1 active torsions:
REMARK  status: ('A' for Active; 'I' for Inactive)
REMARK    1  A    between atoms: C1_2  and  C2_3 
ROOT
ATOM      1  C2  UNL d   1      -4.745   1.195  -3.112  0.00  0.00    -0.076 A 
ATOM      2  C3  UNL d   1      -3.960   0.030  -3.120  0.00  0.00     0.004 A 
ATOM      3  C4  UNL d   1      -2.991  -0.176  -4.101  0.00  0.00    -0.003 A 
ATOM      4  C5  UNL d   1      -2.791   0.782  -5.089  0.00  0.00     0.000 A 
ATOM      5  C6  UNL d   1      -3.549   1.952  -5.086  0.00  0.00     0.000 A 
ATOM      6  C7  UNL d   1      -4.519   2.182  -4.095  0.00  0.00    -0.073 A 
ATOM      7  C8  UNL d   1      -5.312   3.459  -4.144  0.00  0.00     0.078 C 
ENDROOT
BRANCH   1   8
ATOM      8  C1  UNL d   1      -5.800   1.351  -2.039  0.00  0.00     0.053 C 
ATOM      9  C   UNL d   1      -5.875   0.144  -1.117  0.00  0.00     0.018 C 
ENDBRANCH   1   8
TORSDOF 1
ENDMDL
