MODEL 1
REMARK minimizedAffinity 10.6244841
REMARK minimizedRMSD -1
REMARK  1 active torsions:
REMARK  status: ('A' for Active; 'I' for Inactive)
REMARK    1  A    between atoms: C1_2  and  C2_3 
ROOT
ATOM      1  C2  UNL d   1       2.048   0.318   0.323  0.00  0.00    -0.076 A 
ATOM      2  C3  UNL d   1       1.421   0.382  -0.934  0.00  0.00     0.004 A 
ATOM      3  C4  UNL d   1       0.121   0.867  -1.063  0.00  0.00    -0.003 A 
ATOM      4  C5  UNL d   1      -0.574   1.297   0.062  0.00  0.00     0.000 A 
ATOM      5  C6  UNL d   1       0.038   1.257   1.314  0.00  0.00     0.000 A 
ATOM      6  C7  UNL d   1       1.355   0.786   1.460  0.00  0.00    -0.073 A 
ATOM      7  C8  UNL d   1       1.964   0.760   2.835  0.00  0.00     0.078 C 
ENDROOT
BRANCH   1   8
ATOM      8  C1  UNL d   1       3.450  -0.242   0.406  0.00  0.00     0.053 C 
ATOM      9  C   UNL d   1       4.474   0.646  -0.282  0.00  0.00     0.018 C 
ENDBRANCH   1   8
TORSDOF 1
ENDMDL
