MODEL 1
REMARK minimizedAffinity -1.89649439
REMARK minimizedRMSD -1
REMARK  1 active torsions:
REMARK  status: ('A' for Active; 'I' for Inactive)
REMARK    1  A    between atoms: C1_2  and  C2_3 
ROOT
ATOM      1  C2  UNL d   1      -4.499   1.757  -3.765  0.00  0.00    -0.076 A 
ATOM      2  C3  UNL d   1      -4.501   2.928  -4.544  0.00  0.00     0.004 A 
ATOM      3  C4  UNL d   1      -5.245   4.043  -4.162  0.00  0.00    -0.003 A 
ATOM      4  C5  UNL d   1      -5.999   4.006  -2.994  0.00  0.00     0.000 A 
ATOM      5  C6  UNL d   1      -5.995   2.859  -2.200  0.00  0.00     0.000 A 
ATOM      6  C7  UNL d   1      -5.238   1.732  -2.563  0.00  0.00    -0.073 A 
ATOM      7  C8  UNL d   1      -5.275   0.520  -1.672  0.00  0.00     0.078 C 
ENDROOT
BRANCH   1   8
ATOM      8  C1  UNL d   1      -3.695   0.570  -4.243  0.00  0.00     0.053 C 
ATOM      9  C   UNL d   1      -2.254   0.608  -3.757  0.00  0.00     0.018 C 
ENDBRANCH   1   8
TORSDOF 1
ENDMDL
