MODEL 1
REMARK minimizedAffinity -0.36476922
REMARK minimizedRMSD -1
REMARK  1 active torsions:
REMARK  status: ('A' for Active; 'I' for Inactive)
REMARK    1  A    between atoms: C3_4  and  O_7 
ROOT
ATOM      1  C   UNL d   1      -0.614   0.571  -0.302  0.00  0.00    -0.033 A 
ATOM      2  C1  UNL d   1      -0.883  -0.605  -1.005  0.00  0.00     0.039 A 
ATOM      3  C2  UNL d   1       0.013  -1.675  -0.949  0.00  0.00    -0.080 A 
ATOM      4  C3  UNL d   1       1.172  -1.556  -0.187  0.00  0.00     0.150 A 
ATOM      5  C4  UNL d   1       1.445  -0.389   0.519  0.00  0.00    -0.007 A 
ATOM      6  C5  UNL d   1       0.549   0.678   0.461  0.00  0.00     0.039 A 
ENDROOT
BRANCH   4   7
ATOM      7  O   UNL d   1       2.079  -2.571  -0.106  0.00  0.00    -0.526 OA
ATOM      8  H5  UNL d   1       1.773  -3.302  -0.668  0.00  0.00     0.418 HD
ENDBRANCH   4   7
TORSDOF 1
ENDMDL
