MODEL 1
REMARK minimizedAffinity -5.37028646
REMARK minimizedRMSD -1
REMARK  1 active torsions:
REMARK  status: ('A' for Active; 'I' for Inactive)
REMARK    1  A    between atoms: C3_4  and  O_7 
ROOT
ATOM      1  C   UNL d   1       3.454  -0.631   0.734  0.00  0.00    -0.033 A 
ATOM      2  C1  UNL d   1       3.208   0.732   0.559  0.00  0.00     0.039 A 
ATOM      3  C2  UNL d   1       1.967   1.164   0.086  0.00  0.00    -0.080 A 
ATOM      4  C3  UNL d   1       0.983   0.224  -0.208  0.00  0.00     0.150 A 
ATOM      5  C4  UNL d   1       1.221  -1.135  -0.032  0.00  0.00    -0.007 A 
ATOM      6  C5  UNL d   1       2.460  -1.564   0.440  0.00  0.00     0.039 A 
ENDROOT
BRANCH   4   7
ATOM      7  O   UNL d   1      -0.241   0.597  -0.677  0.00  0.00    -0.526 OA
ATOM      8  H5  UNL d   1      -0.251   1.564  -0.775  0.00  0.00     0.418 HD
ENDBRANCH   4   7
TORSDOF 1
ENDMDL
