MODEL 1
REMARK minimizedAffinity -4.56887197
REMARK minimizedRMSD -1
REMARK  1 active torsions:
REMARK  status: ('A' for Active; 'I' for Inactive)
REMARK    1  A    between atoms: C3_4  and  O_7 
ROOT
ATOM      1  C   UNL d   1       0.068  -0.642  -0.791  0.00  0.00    -0.033 A 
ATOM      2  C1  UNL d   1       0.725  -1.823  -1.143  0.00  0.00     0.039 A 
ATOM      3  C2  UNL d   1       1.666  -2.385  -0.279  0.00  0.00    -0.080 A 
ATOM      4  C3  UNL d   1       1.940  -1.759   0.934  0.00  0.00     0.150 A 
ATOM      5  C4  UNL d   1       1.286  -0.585   1.293  0.00  0.00    -0.007 A 
ATOM      6  C5  UNL d   1       0.348  -0.024   0.428  0.00  0.00     0.039 A 
ENDROOT
BRANCH   4   7
ATOM      7  O   UNL d   1       2.854  -2.268   1.808  0.00  0.00    -0.526 OA
ATOM      8  H5  UNL d   1       3.246  -3.065   1.414  0.00  0.00     0.418 HD
ENDBRANCH   4   7
TORSDOF 1
ENDMDL
