MODEL 1
REMARK minimizedAffinity -3.12908626
REMARK minimizedRMSD -1
REMARK  1 active torsions:
REMARK  status: ('A' for Active; 'I' for Inactive)
REMARK    1  A    between atoms: C3_4  and  O_7 
ROOT
ATOM      1  C   UNL d   1      -0.721  -0.518  -0.415  0.00  0.00    -0.033 A 
ATOM      2  C1  UNL d   1      -0.052   0.337   0.464  0.00  0.00     0.039 A 
ATOM      3  C2  UNL d   1       1.242   0.030   0.890  0.00  0.00    -0.080 A 
ATOM      4  C3  UNL d   1       1.855  -1.132   0.430  0.00  0.00     0.150 A 
ATOM      5  C4  UNL d   1       1.196  -1.986  -0.449  0.00  0.00    -0.007 A 
ATOM      6  C5  UNL d   1      -0.096  -1.679  -0.872  0.00  0.00     0.039 A 
ENDROOT
BRANCH   4   7
ATOM      7  O   UNL d   1       3.115  -1.476   0.822  0.00  0.00    -0.526 OA
ATOM      8  H5  UNL d   1       3.434  -0.808   1.451  0.00  0.00     0.418 HD
ENDBRANCH   4   7
TORSDOF 1
ENDMDL
