MODEL 1
REMARK minimizedAffinity -4.90311003
REMARK minimizedRMSD -1
REMARK  1 active torsions:
REMARK  status: ('A' for Active; 'I' for Inactive)
REMARK    1  A    between atoms: C3_4  and  O_7 
ROOT
ATOM      1  C   UNL d   1       2.744  -1.631   0.835  0.00  0.00    -0.033 A 
ATOM      2  C1  UNL d   1       1.983  -2.092  -0.242  0.00  0.00     0.039 A 
ATOM      3  C2  UNL d   1       0.834  -1.404  -0.633  0.00  0.00    -0.080 A 
ATOM      4  C3  UNL d   1       0.457  -0.256   0.059  0.00  0.00     0.150 A 
ATOM      5  C4  UNL d   1       1.212   0.212   1.129  0.00  0.00    -0.007 A 
ATOM      6  C5  UNL d   1       2.359  -0.478   1.519  0.00  0.00     0.039 A 
ENDROOT
BRANCH   4   7
ATOM      7  O   UNL d   1      -0.660   0.448  -0.283  0.00  0.00    -0.526 OA
ATOM      8  H5  UNL d   1      -1.097  -0.009  -1.022  0.00  0.00     0.418 HD
ENDBRANCH   4   7
TORSDOF 1
ENDMDL
