MODEL 1
REMARK minimizedAffinity -3.51853418
REMARK minimizedRMSD -1
REMARK  1 active torsions:
REMARK  status: ('A' for Active; 'I' for Inactive)
REMARK    1  A    between atoms: C3_4  and  O_7 
ROOT
ATOM      1  C   UNL d   1      -0.909   0.834  -0.771  0.00  0.00    -0.033 A 
ATOM      2  C1  UNL d   1      -0.031   1.883  -0.492  0.00  0.00     0.039 A 
ATOM      3  C2  UNL d   1       1.220   1.619   0.067  0.00  0.00    -0.080 A 
ATOM      4  C3  UNL d   1       1.582   0.303   0.342  0.00  0.00     0.150 A 
ATOM      5  C4  UNL d   1       0.714  -0.747   0.063  0.00  0.00    -0.007 A 
ATOM      6  C5  UNL d   1      -0.536  -0.482  -0.495  0.00  0.00     0.039 A 
ENDROOT
BRANCH   4   7
ATOM      7  O   UNL d   1       2.791  -0.003   0.892  0.00  0.00    -0.526 OA
ATOM      8  H5  UNL d   1       3.273   0.824   1.056  0.00  0.00     0.418 HD
ENDBRANCH   4   7
TORSDOF 1
ENDMDL
