MODEL 1
REMARK minimizedAffinity -2.990978
REMARK minimizedRMSD -1
REMARK  1 active torsions:
REMARK  status: ('A' for Active; 'I' for Inactive)
REMARK    1  A    between atoms: C3_4  and  O_7 
ROOT
ATOM      1  C   UNL d   1      -0.649  -0.319  -0.440  0.00  0.00    -0.033 A 
ATOM      2  C1  UNL d   1      -0.320  -1.618  -0.833  0.00  0.00     0.039 A 
ATOM      3  C2  UNL d   1       0.922  -2.159  -0.492  0.00  0.00    -0.080 A 
ATOM      4  C3  UNL d   1       1.823  -1.392   0.240  0.00  0.00     0.150 A 
ATOM      5  C4  UNL d   1       1.500  -0.098   0.638  0.00  0.00    -0.007 A 
ATOM      6  C5  UNL d   1       0.261   0.440   0.296  0.00  0.00     0.039 A 
ENDROOT
BRANCH   4   7
ATOM      7  O   UNL d   1       3.049  -1.874   0.592  0.00  0.00    -0.526 OA
ATOM      8  H5  UNL d   1       3.144  -2.769   0.224  0.00  0.00     0.418 HD
ENDBRANCH   4   7
TORSDOF 1
ENDMDL
