MODEL 1
REMARK minimizedAffinity -2.96248126
REMARK minimizedRMSD -1
REMARK  1 active torsions:
REMARK  status: ('A' for Active; 'I' for Inactive)
REMARK    1  A    between atoms: C3_4  and  O_7 
ROOT
ATOM      1  C   UNL d   1       1.550  -1.159  -0.262  0.00  0.00    -0.033 A 
ATOM      2  C1  UNL d   1       1.611   0.050   0.434  0.00  0.00     0.039 A 
ATOM      3  C2  UNL d   1       0.528   0.931   0.403  0.00  0.00    -0.080 A 
ATOM      4  C3  UNL d   1      -0.608   0.591  -0.326  0.00  0.00     0.150 A 
ATOM      5  C4  UNL d   1      -0.677  -0.613  -1.019  0.00  0.00    -0.007 A 
ATOM      6  C5  UNL d   1       0.406  -1.491  -0.987  0.00  0.00     0.039 A 
ENDROOT
BRANCH   4   7
ATOM      7  O   UNL d   1      -1.688   1.421  -0.391  0.00  0.00    -0.526 OA
ATOM      8  H5  UNL d   1      -1.487   2.228   0.112  0.00  0.00     0.418 HD
ENDBRANCH   4   7
TORSDOF 1
ENDMDL
