MODEL 1
REMARK minimizedAffinity 4.94298172
REMARK minimizedRMSD -1
REMARK  0 active torsions:
REMARK  status: ('A' for Active; 'I' for Inactive)
ROOT
ATOM      1  C   UNL d   1      -5.974   1.993  -4.483  0.00  0.00     0.078 C 
ATOM      2  C1  UNL d   1      -5.141   0.813  -4.080  0.00  0.00    -0.077 A 
ATOM      3  C2  UNL d   1      -5.577  -0.495  -4.327  0.00  0.00    -0.001 A 
ATOM      4  C3  UNL d   1      -4.796  -1.584  -3.937  0.00  0.00     0.003 A 
ATOM      5  C4  UNL d   1      -3.575  -1.377  -3.297  0.00  0.00    -0.005 A 
ATOM      6  C5  UNL d   1      -3.135  -0.079  -3.046  0.00  0.00     0.003 A 
ATOM      7  C6  UNL d   1      -3.914   1.011  -3.435  0.00  0.00    -0.001 A 
ENDROOT
TORSDOF 0
ENDMDL
