MODEL 1
REMARK minimizedAffinity 2.66292667
REMARK minimizedRMSD -1
REMARK  0 active torsions:
REMARK  status: ('A' for Active; 'I' for Inactive)
ROOT
ATOM      1  C   UNL d   1       3.592  -6.000  -2.275  0.00  0.00     0.078 C 
ATOM      2  C1  UNL d   1       3.172  -5.892  -0.839  0.00  0.00    -0.077 A 
ATOM      3  C2  UNL d   1       4.117  -5.699   0.176  0.00  0.00    -0.001 A 
ATOM      4  C3  UNL d   1       3.713  -5.610   1.509  0.00  0.00     0.003 A 
ATOM      5  C4  UNL d   1       2.364  -5.714   1.839  0.00  0.00    -0.005 A 
ATOM      6  C5  UNL d   1       1.416  -5.908   0.836  0.00  0.00     0.003 A 
ATOM      7  C6  UNL d   1       1.818  -5.997  -0.497  0.00  0.00    -0.001 A 
ENDROOT
TORSDOF 0
ENDMDL
