MODEL 1
REMARK minimizedAffinity 1.58279729
REMARK minimizedRMSD -1
REMARK  0 active torsions:
REMARK  status: ('A' for Active; 'I' for Inactive)
ROOT
ATOM      1  C   UNL d   1       3.397  -1.973  -2.992  0.00  0.00     0.078 C 
ATOM      2  C1  UNL d   1       3.628  -3.379  -2.522  0.00  0.00    -0.077 A 
ATOM      3  C2  UNL d   1       3.732  -4.436  -3.434  0.00  0.00    -0.001 A 
ATOM      4  C3  UNL d   1       3.937  -5.741  -2.981  0.00  0.00     0.003 A 
ATOM      5  C4  UNL d   1       4.039  -6.000  -1.616  0.00  0.00    -0.005 A 
ATOM      6  C5  UNL d   1       3.934  -4.954  -0.701  0.00  0.00     0.003 A 
ATOM      7  C6  UNL d   1       3.729  -3.649  -1.151  0.00  0.00    -0.001 A 
ENDROOT
TORSDOF 0
ENDMDL
