MODEL 1
REMARK minimizedAffinity -2.65477967
REMARK minimizedRMSD -1
REMARK  0 active torsions:
REMARK  status: ('A' for Active; 'I' for Inactive)
ROOT
ATOM      1  C   UNL d   1       3.540  -5.969  -1.043  0.00  0.00     0.078 C 
ATOM      2  C1  UNL d   1       3.382  -5.986  -2.534  0.00  0.00    -0.077 A 
ATOM      3  C2  UNL d   1       4.500  -5.981  -3.378  0.00  0.00    -0.001 A 
ATOM      4  C3  UNL d   1       4.338  -5.987  -4.764  0.00  0.00     0.003 A 
ATOM      5  C4  UNL d   1       3.059  -5.997  -5.319  0.00  0.00    -0.005 A 
ATOM      6  C5  UNL d   1       1.941  -6.000  -4.488  0.00  0.00     0.003 A 
ATOM      7  C6  UNL d   1       2.102  -5.993  -3.101  0.00  0.00    -0.001 A 
ENDROOT
TORSDOF 0
ENDMDL
