MODEL 1
REMARK minimizedAffinity -3.33165026
REMARK minimizedRMSD -1
REMARK  0 active torsions:
REMARK  status: ('A' for Active; 'I' for Inactive)
ROOT
ATOM      1  C   UNL d   1       3.766  -6.000  -1.725  0.00  0.00     0.078 C 
ATOM      2  C1  UNL d   1       3.880  -5.876  -3.215  0.00  0.00    -0.077 A 
ATOM      3  C2  UNL d   1       2.739  -5.806  -4.022  0.00  0.00    -0.001 A 
ATOM      4  C3  UNL d   1       2.861  -5.701  -5.409  0.00  0.00     0.003 A 
ATOM      5  C4  UNL d   1       4.122  -5.666  -6.000  0.00  0.00    -0.005 A 
ATOM      6  C5  UNL d   1       5.264  -5.737  -5.204  0.00  0.00     0.003 A 
ATOM      7  C6  UNL d   1       5.144  -5.842  -3.818  0.00  0.00    -0.001 A 
ENDROOT
TORSDOF 0
ENDMDL
