MODEL 1
REMARK minimizedAffinity 0.920669079
REMARK minimizedRMSD -1
REMARK  0 active torsions:
REMARK  status: ('A' for Active; 'I' for Inactive)
ROOT
ATOM      1  C   UNL d   1       5.536  -5.953  -4.538  0.00  0.00     0.078 C 
ATOM      2  C1  UNL d   1       4.456  -5.962  -3.497  0.00  0.00    -0.077 A 
ATOM      3  C2  UNL d   1       4.770  -5.975  -2.133  0.00  0.00    -0.001 A 
ATOM      4  C3  UNL d   1       3.755  -5.993  -1.175  0.00  0.00     0.003 A 
ATOM      5  C4  UNL d   1       2.419  -6.000  -1.571  0.00  0.00    -0.005 A 
ATOM      6  C5  UNL d   1       2.097  -5.989  -2.927  0.00  0.00     0.003 A 
ATOM      7  C6  UNL d   1       3.111  -5.971  -3.886  0.00  0.00    -0.001 A 
ENDROOT
TORSDOF 0
ENDMDL
