MODEL 1
REMARK minimizedAffinity 0.055667989
REMARK minimizedRMSD -1
REMARK  0 active torsions:
REMARK  status: ('A' for Active; 'I' for Inactive)
ROOT
ATOM      1  C   UNL d   1       3.963  -5.977  -0.912  0.00  0.00     0.078 C 
ATOM      2  C1  UNL d   1       4.009  -5.978  -2.411  0.00  0.00    -0.077 A 
ATOM      3  C2  UNL d   1       2.831  -5.988  -3.169  0.00  0.00    -0.001 A 
ATOM      4  C3  UNL d   1       2.889  -5.999  -4.563  0.00  0.00     0.003 A 
ATOM      5  C4  UNL d   1       4.122  -6.000  -5.212  0.00  0.00    -0.005 A 
ATOM      6  C5  UNL d   1       5.299  -5.992  -4.467  0.00  0.00     0.003 A 
ATOM      7  C6  UNL d   1       5.243  -5.982  -3.072  0.00  0.00    -0.001 A 
ENDROOT
TORSDOF 0
ENDMDL
