MODEL 1
REMARK minimizedAffinity 0.940584421
REMARK minimizedRMSD -1
REMARK  0 active torsions:
REMARK  status: ('A' for Active; 'I' for Inactive)
ROOT
ATOM      1  C   UNL d   1       3.197  -5.623   0.411  0.00  0.00     0.078 C 
ATOM      2  C1  UNL d   1       3.262  -5.628  -1.088  0.00  0.00    -0.077 A 
ATOM      3  C2  UNL d   1       4.432  -5.253  -1.760  0.00  0.00    -0.001 A 
ATOM      4  C3  UNL d   1       4.476  -5.253  -3.155  0.00  0.00     0.003 A 
ATOM      5  C4  UNL d   1       3.352  -5.627  -3.890  0.00  0.00    -0.005 A 
ATOM      6  C5  UNL d   1       2.183  -6.000  -3.230  0.00  0.00     0.003 A 
ATOM      7  C6  UNL d   1       2.138  -6.000  -1.835  0.00  0.00    -0.001 A 
ENDROOT
TORSDOF 0
ENDMDL
