MODEL 1
REMARK minimizedAffinity -0.741444468
REMARK minimizedRMSD -1
REMARK  0 active torsions:
REMARK  status: ('A' for Active; 'I' for Inactive)
ROOT
ATOM      1  C   UNL d   1       2.590  -5.995   0.286  0.00  0.00     0.078 C 
ATOM      2  C1  UNL d   1       2.842  -5.999  -1.192  0.00  0.00    -0.077 A 
ATOM      3  C2  UNL d   1       4.147  -5.988  -1.702  0.00  0.00    -0.001 A 
ATOM      4  C3  UNL d   1       4.366  -5.982  -3.080  0.00  0.00     0.003 A 
ATOM      5  C4  UNL d   1       3.287  -5.985  -3.961  0.00  0.00    -0.005 A 
ATOM      6  C5  UNL d   1       1.985  -5.994  -3.463  0.00  0.00     0.003 A 
ATOM      7  C6  UNL d   1       1.763  -6.000  -2.085  0.00  0.00    -0.001 A 
ENDROOT
TORSDOF 0
ENDMDL
