MODEL 1
REMARK minimizedAffinity 3.41272044
REMARK minimizedRMSD -1
REMARK  0 active torsions:
REMARK  status: ('A' for Active; 'I' for Inactive)
ROOT
ATOM      1  C   UNL d   1       4.334  -2.413   3.487  0.00  0.00     0.078 C 
ATOM      2  C1  UNL d   1       3.105  -1.824   2.862  0.00  0.00    -0.077 A 
ATOM      3  C2  UNL d   1       1.964  -2.606   2.640  0.00  0.00    -0.001 A 
ATOM      4  C3  UNL d   1       0.830  -2.047   2.049  0.00  0.00     0.003 A 
ATOM      5  C4  UNL d   1       0.826  -0.705   1.674  0.00  0.00    -0.005 A 
ATOM      6  C5  UNL d   1       1.957   0.080   1.889  0.00  0.00     0.003 A 
ATOM      7  C6  UNL d   1       3.092  -0.477   2.480  0.00  0.00    -0.001 A 
ENDROOT
TORSDOF 0
ENDMDL
