MODEL 1
REMARK minimizedAffinity -1.89300227
REMARK minimizedRMSD -1
REMARK  0 active torsions:
REMARK  status: ('A' for Active; 'I' for Inactive)
ROOT
ATOM      1  N1  IND d   1      -1.725   0.825  -3.438  0.00  0.00    -0.196 N 
ATOM      2  C2  IND d   1      -2.611   1.855  -3.590  0.00  0.00     0.054 A 
ATOM      3  C3  IND d   1      -2.814   2.479  -2.408  0.00  0.00    -0.031 A 
ATOM      4  C4  IND d   1      -1.721   2.042  -0.119  0.00  0.00     0.051 A 
ATOM      5  C5  IND d   1      -0.876   1.182   0.525  0.00  0.00    -0.031 A 
ATOM      6  C6  IND d   1      -0.255   0.140  -0.134  0.00  0.00     0.015 A 
ATOM      7  C7  IND d   1      -0.449  -0.075  -1.469  0.00  0.00    -0.016 A 
ATOM      8  C8  IND d   1      -1.313   0.792  -2.124  0.00  0.00    -0.047 A 
ATOM      9  C9  IND d   1      -1.978   1.825  -1.452  0.00  0.00    -0.096 A 
ATOM     10  HN1 IND d   1      -1.468   0.289  -4.059  0.00  0.00     0.298 HD
ENDROOT
TORSDOF 0
ENDMDL
