MODEL 1
REMARK minimizedAffinity -3.26217413
REMARK minimizedRMSD -1
REMARK  0 active torsions:
REMARK  status: ('A' for Active; 'I' for Inactive)
ROOT
ATOM      1  N1  IND d   1      -0.947   0.427   0.687  0.00  0.00    -0.196 N 
ATOM      2  C2  IND d   1      -0.689   1.465  -0.165  0.00  0.00     0.054 A 
ATOM      3  C3  IND d   1       0.479   1.262  -0.814  0.00  0.00    -0.031 A 
ATOM      4  C4  IND d   1       2.079  -0.752  -0.710  0.00  0.00     0.051 A 
ATOM      5  C5  IND d   1       2.287  -1.930  -0.048  0.00  0.00    -0.031 A 
ATOM      6  C6  IND d   1       1.408  -2.393   0.910  0.00  0.00     0.015 A 
ATOM      7  C7  IND d   1       0.277  -1.698   1.235  0.00  0.00    -0.016 A 
ATOM      8  C8  IND d   1       0.067  -0.498   0.570  0.00  0.00    -0.047 A 
ATOM      9  C9  IND d   1       0.977  -0.002  -0.372  0.00  0.00    -0.096 A 
ATOM     10  HN1 IND d   1      -1.628   0.363   1.208  0.00  0.00     0.298 HD
ENDROOT
TORSDOF 0
ENDMDL
