MODEL 1
REMARK minimizedAffinity -5.06778193
REMARK minimizedRMSD -1
REMARK  0 active torsions:
REMARK  status: ('A' for Active; 'I' for Inactive)
ROOT
ATOM      1  N1  IND d   1      -1.287   0.840  -0.019  0.00  0.00    -0.196 N 
ATOM      2  C2  IND d   1      -0.824   1.693  -0.981  0.00  0.00     0.054 A 
ATOM      3  C3  IND d   1       0.461   1.405  -1.286  0.00  0.00    -0.031 A 
ATOM      4  C4  IND d   1       1.967  -0.487  -0.404  0.00  0.00     0.051 A 
ATOM      5  C5  IND d   1       1.999  -1.499   0.513  0.00  0.00    -0.031 A 
ATOM      6  C6  IND d   1       0.914  -1.791   1.315  0.00  0.00     0.015 A 
ATOM      7  C7  IND d   1      -0.252  -1.086   1.220  0.00  0.00    -0.016 A 
ATOM      8  C8  IND d   1      -0.286  -0.053   0.294  0.00  0.00    -0.047 A 
ATOM      9  C9  IND d   1       0.826   0.275  -0.492  0.00  0.00    -0.096 A 
ATOM     10  HN1 IND d   1      -2.072   0.857   0.331  0.00  0.00     0.298 HD
ENDROOT
TORSDOF 0
ENDMDL
