MODEL 1
REMARK minimizedAffinity 0.912030339
REMARK minimizedRMSD -1
REMARK  0 active torsions:
REMARK  status: ('A' for Active; 'I' for Inactive)
ROOT
ATOM      1  N1  IND d   1       1.310  -2.940   1.486  0.00  0.00    -0.196 N 
ATOM      2  C2  IND d   1       2.613  -2.667   1.799  0.00  0.00     0.054 A 
ATOM      3  C3  IND d   1       2.925  -1.399   1.449  0.00  0.00    -0.031 A 
ATOM      4  C4  IND d   1       1.425   0.436   0.442  0.00  0.00     0.051 A 
ATOM      5  C5  IND d   1       0.169   0.649  -0.053  0.00  0.00    -0.031 A 
ATOM      6  C6  IND d   1      -0.791  -0.342  -0.057  0.00  0.00     0.015 A 
ATOM      7  C7  IND d   1      -0.533  -1.586   0.445  0.00  0.00    -0.016 A 
ATOM      8  C8  IND d   1       0.744  -1.809   0.942  0.00  0.00    -0.047 A 
ATOM      9  C9  IND d   1       1.735  -0.819   0.910  0.00  0.00    -0.096 A 
ATOM     10  HN1 IND d   1       0.912  -3.693   1.608  0.00  0.00     0.298 HD
ENDROOT
TORSDOF 0
ENDMDL
