MODEL 1
REMARK minimizedAffinity -3.83900428
REMARK minimizedRMSD -1
REMARK  0 active torsions:
REMARK  status: ('A' for Active; 'I' for Inactive)
ROOT
ATOM      1  N1  IND d   1       1.761  -1.505   0.591  0.00  0.00    -0.196 N 
ATOM      2  C2  IND d   1       0.681  -2.304   0.845  0.00  0.00     0.054 A 
ATOM      3  C3  IND d   1      -0.468  -1.621   0.642  0.00  0.00    -0.031 A 
ATOM      4  C4  IND d   1      -0.812   0.786  -0.205  0.00  0.00     0.051 A 
ATOM      5  C5  IND d   1      -0.124   1.920  -0.536  0.00  0.00    -0.031 A 
ATOM      6  C6  IND d   1       1.255   1.970  -0.511  0.00  0.00     0.015 A 
ATOM      7  C7  IND d   1       2.001   0.880  -0.162  0.00  0.00    -0.016 A 
ATOM      8  C8  IND d   1       1.306  -0.271   0.181  0.00  0.00    -0.047 A 
ATOM      9  C9  IND d   1      -0.094  -0.315   0.199  0.00  0.00    -0.096 A 
ATOM     10  HN1 IND d   1       2.585  -1.735   0.673  0.00  0.00     0.298 HD
ENDROOT
TORSDOF 0
ENDMDL
