MODEL 1
REMARK minimizedAffinity -3.30096722
REMARK minimizedRMSD -1
REMARK  0 active torsions:
REMARK  status: ('A' for Active; 'I' for Inactive)
ROOT
ATOM      1  N1  IND d   1      -1.814   3.772  -4.692  0.00  0.00    -0.196 N 
ATOM      2  C2  IND d   1      -0.747   4.496  -4.238  0.00  0.00     0.054 A 
ATOM      3  C3  IND d   1      -0.342   4.031  -3.034  0.00  0.00    -0.031 A 
ATOM      4  C4  IND d   1      -1.221   2.030  -1.674  0.00  0.00     0.051 A 
ATOM      5  C5  IND d   1      -2.208   1.085  -1.663  0.00  0.00    -0.031 A 
ATOM      6  C6  IND d   1      -3.132   0.984  -2.683  0.00  0.00     0.015 A 
ATOM      7  C7  IND d   1      -3.096   1.821  -3.762  0.00  0.00    -0.016 A 
ATOM      8  C8  IND d   1      -2.098   2.786  -3.774  0.00  0.00    -0.047 A 
ATOM      9  C9  IND d   1      -1.184   2.920  -2.721  0.00  0.00    -0.096 A 
ATOM     10  HN1 IND d   1      -2.237   3.910  -5.428  0.00  0.00     0.298 HD
ENDROOT
TORSDOF 0
ENDMDL
