MODEL 1
REMARK minimizedAffinity 0.064121902
REMARK minimizedRMSD -1
REMARK  0 active torsions:
REMARK  status: ('A' for Active; 'I' for Inactive)
ROOT
ATOM      1  N1  IND d   1      -0.968  -0.162  -0.154  0.00  0.00    -0.196 N 
ATOM      2  C2  IND d   1      -0.503   1.096  -0.420  0.00  0.00     0.054 A 
ATOM      3  C3  IND d   1       0.825   1.167  -0.180  0.00  0.00    -0.031 A 
ATOM      4  C4  IND d   1       2.456  -0.684   0.556  0.00  0.00     0.051 A 
ATOM      5  C5  IND d   1       2.493  -1.990   0.958  0.00  0.00    -0.031 A 
ATOM      6  C6  IND d   1       1.356  -2.770   1.008  0.00  0.00     0.015 A 
ATOM      7  C7  IND d   1       0.135  -2.274   0.646  0.00  0.00    -0.016 A 
ATOM      8  C8  IND d   1       0.093  -0.946   0.244  0.00  0.00    -0.047 A 
ATOM      9  C9  IND d   1       1.237  -0.138   0.232  0.00  0.00    -0.096 A 
ATOM     10  HN1 IND d   1      -1.785  -0.420  -0.223  0.00  0.00     0.298 HD
ENDROOT
TORSDOF 0
ENDMDL
