MODEL 1
REMARK minimizedAffinity -4.32829571
REMARK minimizedRMSD -1
REMARK  0 active torsions:
REMARK  status: ('A' for Active; 'I' for Inactive)
ROOT
ATOM      1  N1  IND d   1      -0.993   0.620   1.060  0.00  0.00    -0.196 N 
ATOM      2  C2  IND d   1      -1.496  -0.331   1.904  0.00  0.00     0.054 A 
ATOM      3  C3  IND d   1      -0.698  -1.422   1.912  0.00  0.00    -0.031 A 
ATOM      4  C4  IND d   1       1.534  -1.825   0.695  0.00  0.00     0.051 A 
ATOM      5  C5  IND d   1       2.380  -1.261  -0.218  0.00  0.00    -0.031 A 
ATOM      6  C6  IND d   1       2.142  -0.014  -0.761  0.00  0.00     0.015 A 
ATOM      7  C7  IND d   1       1.049   0.722  -0.400  0.00  0.00    -0.016 A 
ATOM      8  C8  IND d   1       0.184   0.150   0.522  0.00  0.00    -0.047 A 
ATOM      9  C9  IND d   1       0.399  -1.133   1.043  0.00  0.00    -0.096 A 
ATOM     10  HN1 IND d   1      -1.352   1.384   0.894  0.00  0.00     0.298 HD
ENDROOT
TORSDOF 0
ENDMDL
