MODEL 1
REMARK minimizedAffinity -2.60250902
REMARK minimizedRMSD -1
REMARK  0 active torsions:
REMARK  status: ('A' for Active; 'I' for Inactive)
ROOT
ATOM      1  N1  IND d   1       2.365  -1.849   0.712  0.00  0.00    -0.196 N 
ATOM      2  C2  IND d   1       1.754  -3.036   1.009  0.00  0.00     0.054 A 
ATOM      3  C3  IND d   1       0.420  -2.941   0.809  0.00  0.00    -0.031 A 
ATOM      4  C4  IND d   1      -0.961  -0.968  -0.099  0.00  0.00     0.051 A 
ATOM      5  C5  IND d   1      -0.851   0.342  -0.476  0.00  0.00    -0.031 A 
ATOM      6  C6  IND d   1       0.361   1.000  -0.478  0.00  0.00     0.015 A 
ATOM      7  C7  IND d   1       1.516   0.367  -0.113  0.00  0.00    -0.016 A 
ATOM      8  C8  IND d   1       1.407  -0.960   0.276  0.00  0.00    -0.047 A 
ATOM      9  C9  IND d   1       0.173  -1.621   0.321  0.00  0.00    -0.096 A 
ATOM     10  HN1 IND d   1       3.206  -1.686   0.785  0.00  0.00     0.298 HD
ENDROOT
TORSDOF 0
ENDMDL
