MODEL 1
REMARK minimizedAffinity -4.96208954
REMARK minimizedRMSD -1
REMARK  0 active torsions:
REMARK  status: ('A' for Active; 'I' for Inactive)
ROOT
ATOM      1  N1  IND d   1      -0.932   0.685   0.664  0.00  0.00    -0.196 N 
ATOM      2  C2  IND d   1      -0.241   1.529  -0.161  0.00  0.00     0.054 A 
ATOM      3  C3  IND d   1       0.908   0.948  -0.571  0.00  0.00    -0.031 A 
ATOM      4  C4  IND d   1       1.807  -1.417  -0.096  0.00  0.00     0.051 A 
ATOM      5  C5  IND d   1       1.545  -2.543   0.634  0.00  0.00    -0.031 A 
ATOM      6  C6  IND d   1       0.420  -2.653   1.425  0.00  0.00     0.015 A 
ATOM      7  C7  IND d   1      -0.495  -1.641   1.507  0.00  0.00    -0.016 A 
ATOM      8  C8  IND d   1      -0.229  -0.495   0.773  0.00  0.00    -0.047 A 
ATOM      9  C9  IND d   1       0.933  -0.361   0.001  0.00  0.00    -0.096 A 
ATOM     10  HN1 IND d   1      -1.680   0.861   1.049  0.00  0.00     0.298 HD
ENDROOT
TORSDOF 0
ENDMDL
