MODEL 1
REMARK minimizedAffinity -3.86864018
REMARK minimizedRMSD -1
REMARK  0 active torsions:
REMARK  status: ('A' for Active; 'I' for Inactive)
ROOT
ATOM      1  C1  DEN d   1      -0.257   2.004   1.653  0.00  0.00     0.130 A 
ATOM      2  C2  DEN d   1       0.163   1.054   2.679  0.00  0.00    -0.031 A 
ATOM      3  C3  DEN d   1       0.641  -0.168   2.001  0.00  0.00     0.027 A 
ATOM      4  C4  DEN d   1       0.775  -0.676  -0.524  0.00  0.00     0.027 A 
ATOM      5  C5  DEN d   1       0.521  -0.180  -1.784  0.00  0.00    -0.003 A 
ATOM      6  C6  DEN d   1      -0.037   1.055  -1.984  0.00  0.00     0.001 A 
ATOM      7  C7  DEN d   1      -0.318   1.855  -0.908  0.00  0.00     0.017 A 
ATOM      8  C8  DEN d   1      -0.072   1.359   0.366  0.00  0.00    -0.094 A 
ATOM      9  C9  DEN d   1       0.504   0.113   0.546  0.00  0.00    -0.072 A 
ENDROOT
TORSDOF 0
ENDMDL
