MODEL 1
REMARK minimizedAffinity 0.518727064
REMARK minimizedRMSD -1
REMARK  0 active torsions:
REMARK  status: ('A' for Active; 'I' for Inactive)
ROOT
ATOM      1  C1  DEN d   1      -0.546  -3.631   0.619  0.00  0.00     0.130 A 
ATOM      2  C2  DEN d   1      -0.916  -3.994  -0.746  0.00  0.00    -0.031 A 
ATOM      3  C3  DEN d   1      -0.724  -2.806  -1.602  0.00  0.00     0.027 A 
ATOM      4  C4  DEN d   1       0.110  -0.454  -0.951  0.00  0.00     0.027 A 
ATOM      5  C5  DEN d   1       0.535   0.337   0.094  0.00  0.00    -0.003 A 
ATOM      6  C6  DEN d   1       0.597  -0.125   1.382  0.00  0.00     0.001 A 
ATOM      7  C7  DEN d   1       0.271  -1.428   1.652  0.00  0.00     0.017 A 
ATOM      8  C8  DEN d   1      -0.166  -2.230   0.605  0.00  0.00    -0.094 A 
ATOM      9  C9  DEN d   1      -0.210  -1.747  -0.692  0.00  0.00    -0.072 A 
ENDROOT
TORSDOF 0
ENDMDL
