MODEL 1
REMARK minimizedAffinity -4.26365185
REMARK minimizedRMSD -1
REMARK  0 active torsions:
REMARK  status: ('A' for Active; 'I' for Inactive)
ROOT
ATOM      1  C1  DEN d   1      -0.743   1.999  -1.093  0.00  0.00     0.130 A 
ATOM      2  C2  DEN d   1      -0.149   2.110  -2.423  0.00  0.00    -0.031 A 
ATOM      3  C3  DEN d   1       0.949   1.127  -2.517  0.00  0.00     0.027 A 
ATOM      4  C4  DEN d   1       1.780  -0.551  -0.743  0.00  0.00     0.027 A 
ATOM      5  C5  DEN d   1       1.596  -1.008   0.543  0.00  0.00    -0.003 A 
ATOM      6  C6  DEN d   1       0.650  -0.476   1.378  0.00  0.00     0.001 A 
ATOM      7  C7  DEN d   1      -0.179   0.514   0.922  0.00  0.00     0.017 A 
ATOM      8  C8  DEN d   1       0.005   0.986  -0.371  0.00  0.00    -0.094 A 
ATOM      9  C9  DEN d   1       0.959   0.427  -1.205  0.00  0.00    -0.072 A 
ENDROOT
TORSDOF 0
ENDMDL
