MODEL 1
REMARK minimizedAffinity -1.11031902
REMARK minimizedRMSD -1
REMARK  1 active torsions:
REMARK  status: ('A' for Active; 'I' for Inactive)
REMARK    1  A    between atoms: C1_2  and  C2_3 
ROOT
ATOM      1  C2  UNL d   1      -1.570   0.484   1.998  0.00  0.00    -0.081 A 
ATOM      2  C3  UNL d   1      -1.749   0.805   0.647  0.00  0.00     0.006 A 
ATOM      3  C4  UNL d   1      -0.874   0.307  -0.321  0.00  0.00     0.002 A 
ATOM      4  C5  UNL d   1       0.189  -0.526   0.044  0.00  0.00    -0.080 A 
ATOM      5  C6  UNL d   1       1.117  -1.092  -0.989  0.00  0.00     0.076 C 
ATOM      6  C7  UNL d   1       0.378  -0.833   1.396  0.00  0.00     0.002 A 
ATOM      7  C8  UNL d   1      -0.496  -0.335   2.364  0.00  0.00     0.006 A 
ENDROOT
BRANCH   1   8
ATOM      8  C1  UNL d   1      -2.550   0.966   3.037  0.00  0.00     0.054 C 
ATOM      9  C   UNL d   1      -2.098   2.282   3.654  0.00  0.00     0.018 C 
ENDBRANCH   1   8
TORSDOF 1
ENDMDL
