MODEL 1
REMARK minimizedAffinity -4.31173944
REMARK minimizedRMSD -1
REMARK  1 active torsions:
REMARK  status: ('A' for Active; 'I' for Inactive)
REMARK    1  A    between atoms: C1_2  and  C2_3 
ROOT
ATOM      1  C2  UNL d   1      -0.547   0.318   0.091  0.00  0.00    -0.081 A 
ATOM      2  C3  UNL d   1      -0.177  -1.030   0.165  0.00  0.00     0.006 A 
ATOM      3  C4  UNL d   1       1.057  -1.454  -0.334  0.00  0.00     0.002 A 
ATOM      4  C5  UNL d   1       1.944  -0.537  -0.907  0.00  0.00    -0.080 A 
ATOM      5  C6  UNL d   1       3.284  -0.974  -1.419  0.00  0.00     0.076 C 
ATOM      6  C7  UNL d   1       1.567   0.807  -0.997  0.00  0.00     0.002 A 
ATOM      7  C8  UNL d   1       0.334   1.232  -0.499  0.00  0.00     0.006 A 
ENDROOT
BRANCH   1   8
ATOM      8  C1  UNL d   1      -1.849   0.790   0.687  0.00  0.00     0.054 C 
ATOM      9  C   UNL d   1      -1.699   1.100   2.169  0.00  0.00     0.018 C 
ENDBRANCH   1   8
TORSDOF 1
ENDMDL
