MODEL 1
REMARK minimizedAffinity -2.12223458
REMARK minimizedRMSD -1
REMARK  1 active torsions:
REMARK  status: ('A' for Active; 'I' for Inactive)
REMARK    1  A    between atoms: C1_2  and  C2_3 
ROOT
ATOM      1  C2  UNL d   1      -0.111  -0.037  -0.021  0.00  0.00    -0.081 A 
ATOM      2  C3  UNL d   1       0.400  -1.017  -0.880  0.00  0.00     0.006 A 
ATOM      3  C4  UNL d   1       0.046  -2.358  -0.715  0.00  0.00     0.002 A 
ATOM      4  C5  UNL d   1      -0.831  -2.740   0.306  0.00  0.00    -0.080 A 
ATOM      5  C6  UNL d   1      -1.243  -4.172   0.476  0.00  0.00     0.076 C 
ATOM      6  C7  UNL d   1      -1.328  -1.763   1.175  0.00  0.00     0.002 A 
ATOM      7  C8  UNL d   1      -0.974  -0.422   1.011  0.00  0.00     0.006 A 
ENDROOT
BRANCH   1   8
ATOM      8  C1  UNL d   1       0.218   1.418  -0.237  0.00  0.00     0.054 C 
ATOM      9  C   UNL d   1      -0.315   1.914  -1.574  0.00  0.00     0.018 C 
ENDBRANCH   1   8
TORSDOF 1
ENDMDL
