MODEL 1
REMARK minimizedAffinity -3.76223159
REMARK minimizedRMSD -1
REMARK  1 active torsions:
REMARK  status: ('A' for Active; 'I' for Inactive)
REMARK    1  A    between atoms: C1_2  and  C2_3 
ROOT
ATOM      1  C2  UNL d   1       1.029  -0.551  -0.427  0.00  0.00    -0.081 A 
ATOM      2  C3  UNL d   1       0.520   0.753  -0.451  0.00  0.00     0.006 A 
ATOM      3  C4  UNL d   1      -0.544   1.113   0.380  0.00  0.00     0.002 A 
ATOM      4  C5  UNL d   1      -1.109   0.179   1.254  0.00  0.00    -0.080 A 
ATOM      5  C6  UNL d   1      -2.231   0.561   2.174  0.00  0.00     0.076 C 
ATOM      6  C7  UNL d   1      -0.612  -1.128   1.266  0.00  0.00     0.002 A 
ATOM      7  C8  UNL d   1       0.451  -1.489   0.435  0.00  0.00     0.006 A 
ENDROOT
BRANCH   1   8
ATOM      8  C1  UNL d   1       2.218  -0.925  -1.275  0.00  0.00     0.054 C 
ATOM      9  C   UNL d   1       2.502   0.136  -2.329  0.00  0.00     0.018 C 
ENDBRANCH   1   8
TORSDOF 1
ENDMDL
