MODEL 1
REMARK minimizedAffinity -4.05997038
REMARK minimizedRMSD -1
REMARK  1 active torsions:
REMARK  status: ('A' for Active; 'I' for Inactive)
REMARK    1  A    between atoms: C1_2  and  C2_3 
ROOT
ATOM      1  C2  UNL d   1       1.441  -0.768  -1.502  0.00  0.00    -0.081 A 
ATOM      2  C3  UNL d   1       0.655  -1.667  -0.771  0.00  0.00     0.006 A 
ATOM      3  C4  UNL d   1      -0.243  -1.202   0.193  0.00  0.00     0.002 A 
ATOM      4  C5  UNL d   1      -0.375   0.169   0.437  0.00  0.00    -0.080 A 
ATOM      5  C6  UNL d   1      -1.356   0.684   1.447  0.00  0.00     0.076 C 
ATOM      6  C7  UNL d   1       0.423   1.067  -0.281  0.00  0.00     0.002 A 
ATOM      7  C8  UNL d   1       1.321   0.602  -1.245  0.00  0.00     0.006 A 
ENDROOT
BRANCH   1   8
ATOM      8  C1  UNL d   1       2.362  -1.263  -2.588  0.00  0.00     0.054 C 
ATOM      9  C   UNL d   1       1.580  -1.863  -3.747  0.00  0.00     0.018 C 
ENDBRANCH   1   8
TORSDOF 1
ENDMDL
