MODEL 1
REMARK minimizedAffinity -4.96677542
REMARK minimizedRMSD -1
REMARK  1 active torsions:
REMARK  status: ('A' for Active; 'I' for Inactive)
REMARK    1  A    between atoms: C1_2  and  C2_3 
ROOT
ATOM      1  C2  UNL d   1       1.299   0.654  -1.771  0.00  0.00    -0.081 A 
ATOM      2  C3  UNL d   1       0.135   1.432  -1.796  0.00  0.00     0.006 A 
ATOM      3  C4  UNL d   1      -0.909   1.175  -0.904  0.00  0.00     0.002 A 
ATOM      4  C5  UNL d   1      -0.803   0.141   0.033  0.00  0.00    -0.080 A 
ATOM      5  C6  UNL d   1      -1.903  -0.126   1.016  0.00  0.00     0.076 C 
ATOM      6  C7  UNL d   1       0.352  -0.648   0.047  0.00  0.00     0.002 A 
ATOM      7  C8  UNL d   1       1.396  -0.391  -0.846  0.00  0.00     0.006 A 
ENDROOT
BRANCH   1   8
ATOM      8  C1  UNL d   1       2.452   0.970  -2.688  0.00  0.00     0.054 C 
ATOM      9  C   UNL d   1       3.716   0.239  -2.260  0.00  0.00     0.018 C 
ENDBRANCH   1   8
TORSDOF 1
ENDMDL
