MODEL 1
REMARK minimizedAffinity -6.00499868
REMARK minimizedRMSD -1
REMARK  1 active torsions:
REMARK  status: ('A' for Active; 'I' for Inactive)
REMARK    1  A    between atoms: C1_2  and  C2_3 
ROOT
ATOM      1  C2  UNL d   1       1.056  -1.351  -0.005  0.00  0.00    -0.081 A 
ATOM      2  C3  UNL d   1       0.102  -0.368  -0.301  0.00  0.00     0.006 A 
ATOM      3  C4  UNL d   1       0.319   0.539  -1.341  0.00  0.00     0.002 A 
ATOM      4  C5  UNL d   1       1.487   0.474  -2.108  0.00  0.00    -0.080 A 
ATOM      5  C6  UNL d   1       1.718   1.422  -3.246  0.00  0.00     0.076 C 
ATOM      6  C7  UNL d   1       2.448  -0.497  -1.801  0.00  0.00     0.002 A 
ATOM      7  C8  UNL d   1       2.232  -1.403  -0.761  0.00  0.00     0.006 A 
ENDROOT
BRANCH   1   8
ATOM      8  C1  UNL d   1       0.796  -2.371   1.074  0.00  0.00     0.054 C 
ATOM      9  C   UNL d   1       0.172  -3.635   0.501  0.00  0.00     0.018 C 
ENDBRANCH   1   8
TORSDOF 1
ENDMDL
