MODEL 1
REMARK minimizedAffinity -2.56237149
REMARK minimizedRMSD -1
REMARK  1 active torsions:
REMARK  status: ('A' for Active; 'I' for Inactive)
REMARK    1  A    between atoms: C1_2  and  C2_3 
ROOT
ATOM      1  C2  UNL d   1      -0.920   0.578   1.808  0.00  0.00    -0.081 A 
ATOM      2  C3  UNL d   1      -1.410   0.702   0.502  0.00  0.00     0.006 A 
ATOM      3  C4  UNL d   1      -0.738   0.102  -0.566  0.00  0.00     0.002 A 
ATOM      4  C5  UNL d   1       0.428  -0.637  -0.345  0.00  0.00    -0.080 A 
ATOM      5  C6  UNL d   1       1.142  -1.311  -1.479  0.00  0.00     0.076 C 
ATOM      6  C7  UNL d   1       0.927  -0.747   0.957  0.00  0.00     0.002 A 
ATOM      7  C8  UNL d   1       0.257  -0.147   2.025  0.00  0.00     0.006 A 
ENDROOT
BRANCH   1   8
ATOM      8  C1  UNL d   1      -1.677   1.168   2.970  0.00  0.00     0.054 C 
ATOM      9  C   UNL d   1      -1.833   0.160   4.100  0.00  0.00     0.018 C 
ENDBRANCH   1   8
TORSDOF 1
ENDMDL
