MODEL 1
REMARK minimizedAffinity -1.51296222
REMARK minimizedRMSD -1
REMARK  1 active torsions:
REMARK  status: ('A' for Active; 'I' for Inactive)
REMARK    1  A    between atoms: C1_2  and  C2_3 
ROOT
ATOM      1  C2  UNL d   1      -0.061  -0.227   0.709  0.00  0.00    -0.081 A 
ATOM      2  C3  UNL d   1       0.223  -1.398  -0.004  0.00  0.00     0.006 A 
ATOM      3  C4  UNL d   1       1.447  -1.549  -0.658  0.00  0.00     0.002 A 
ATOM      4  C5  UNL d   1       2.411  -0.536  -0.604  0.00  0.00    -0.080 A 
ATOM      5  C6  UNL d   1       3.741  -0.698  -1.277  0.00  0.00     0.076 C 
ATOM      6  C7  UNL d   1       2.120   0.641   0.093  0.00  0.00     0.002 A 
ATOM      7  C8  UNL d   1       0.896   0.793   0.747  0.00  0.00     0.006 A 
ENDROOT
BRANCH   1   8
ATOM      8  C1  UNL d   1      -1.355  -0.088   1.470  0.00  0.00     0.054 C 
ATOM      9  C   UNL d   1      -1.105   0.296   2.921  0.00  0.00     0.018 C 
ENDBRANCH   1   8
TORSDOF 1
ENDMDL
