MODEL 1
REMARK minimizedAffinity 1.03022349
REMARK minimizedRMSD -1
REMARK  1 active torsions:
REMARK  status: ('A' for Active; 'I' for Inactive)
REMARK    1  A    between atoms: C1_2  and  C2_3 
ROOT
ATOM      1  C2  UNL d   1      -0.997   0.615   2.908  0.00  0.00    -0.081 A 
ATOM      2  C3  UNL d   1      -0.280   1.794   2.668  0.00  0.00     0.006 A 
ATOM      3  C4  UNL d   1       0.335   2.010   1.433  0.00  0.00     0.002 A 
ATOM      4  C5  UNL d   1       0.235   1.056   0.414  0.00  0.00    -0.080 A 
ATOM      5  C6  UNL d   1       0.865   1.290  -0.927  0.00  0.00     0.076 C 
ATOM      6  C7  UNL d   1      -0.467  -0.129   0.659  0.00  0.00     0.002 A 
ATOM      7  C8  UNL d   1      -1.081  -0.346   1.894  0.00  0.00     0.006 A 
ENDROOT
BRANCH   1   8
ATOM      8  C1  UNL d   1      -1.715   0.408   4.217  0.00  0.00     0.054 C 
ATOM      9  C   UNL d   1      -3.089  -0.211   4.002  0.00  0.00     0.018 C 
ENDBRANCH   1   8
TORSDOF 1
ENDMDL
