MODEL 1
REMARK minimizedAffinity 6.33636045
REMARK minimizedRMSD -1
REMARK  0 active torsions:
REMARK  status: ('A' for Active; 'I' for Inactive)
ROOT
ATOM      1  O1  BZF d   1       1.243   3.706  -2.454  0.00  0.00    -0.204 OA
ATOM      2  C2  BZF d   1       0.317   3.667  -3.479  0.00  0.00     0.174 A 
ATOM      3  C3  BZF d   1       0.239   2.428  -4.006  0.00  0.00    -0.012 A 
ATOM      4  C3A BZF d   1       1.107   1.622  -3.203  0.00  0.00    -0.107 A 
ATOM      5  C4  BZF d   1       1.441   0.298  -3.221  0.00  0.00     0.055 A 
ATOM      6  C5  BZF d   1       2.375  -0.159  -2.346  0.00  0.00    -0.016 A 
ATOM      7  C6  BZF d   1       2.997   0.679  -1.445  0.00  0.00     0.022 A 
ATOM      8  C7  BZF d   1       2.695   1.999  -1.386  0.00  0.00     0.029 A 
ATOM      9  C7A BZF d   1       1.728   2.458  -2.247  0.00  0.00     0.058 A 
ENDROOT
TORSDOF 0
ENDMDL
