MODEL 1
REMARK minimizedAffinity 2.11495829
REMARK minimizedRMSD -1
REMARK  0 active torsions:
REMARK  status: ('A' for Active; 'I' for Inactive)
ROOT
ATOM      1  O1  BZF d   1      -3.328   0.377  -5.616  0.00  0.00    -0.204 OA
ATOM      2  C2  BZF d   1      -4.486  -0.291  -5.965  0.00  0.00     0.174 A 
ATOM      3  C3  BZF d   1      -5.572   0.464  -5.699  0.00  0.00    -0.012 A 
ATOM      4  C3A BZF d   1      -5.056   1.716  -5.237  0.00  0.00    -0.107 A 
ATOM      5  C4  BZF d   1      -5.643   2.881  -4.832  0.00  0.00     0.055 A 
ATOM      6  C5  BZF d   1      -4.858   3.890  -4.371  0.00  0.00    -0.016 A 
ATOM      7  C6  BZF d   1      -3.486   3.766  -4.295  0.00  0.00     0.022 A 
ATOM      8  C7  BZF d   1      -2.858   2.631  -4.690  0.00  0.00     0.029 A 
ATOM      9  C7A BZF d   1      -3.646   1.622  -5.187  0.00  0.00     0.058 A 
ENDROOT
TORSDOF 0
ENDMDL
