MODEL 1
REMARK minimizedAffinity 1.42692459
REMARK minimizedRMSD -1
REMARK  0 active torsions:
REMARK  status: ('A' for Active; 'I' for Inactive)
ROOT
ATOM      1  O1  BZF d   1       1.024  -1.735  -0.503  0.00  0.00    -0.204 OA
ATOM      2  C2  BZF d   1       2.357  -1.601  -0.841  0.00  0.00     0.174 A 
ATOM      3  C3  BZF d   1       3.096  -1.285   0.242  0.00  0.00    -0.012 A 
ATOM      4  C3A BZF d   1       2.180  -1.308   1.342  0.00  0.00    -0.107 A 
ATOM      5  C4  BZF d   1       2.318  -1.092   2.683  0.00  0.00     0.055 A 
ATOM      6  C5  BZF d   1       1.213  -1.119   3.473  0.00  0.00    -0.016 A 
ATOM      7  C6  BZF d   1      -0.045  -1.353   2.956  0.00  0.00     0.022 A 
ATOM      8  C7  BZF d   1      -0.231  -1.577   1.632  0.00  0.00     0.029 A 
ATOM      9  C7A BZF d   1       0.889  -1.584   0.836  0.00  0.00     0.058 A 
ENDROOT
TORSDOF 0
ENDMDL
