MODEL 1
REMARK minimizedAffinity 0.774953306
REMARK minimizedRMSD -1
REMARK  0 active torsions:
REMARK  status: ('A' for Active; 'I' for Inactive)
ROOT
ATOM      1  O1  BZF d   1       2.733  -1.009  -2.300  0.00  0.00    -0.204 OA
ATOM      2  C2  BZF d   1       2.643  -1.536  -1.026  0.00  0.00     0.174 A 
ATOM      3  C3  BZF d   1       2.235  -0.598  -0.147  0.00  0.00    -0.012 A 
ATOM      4  C3A BZF d   1       1.971   0.567  -0.936  0.00  0.00    -0.107 A 
ATOM      5  C4  BZF d   1       1.523   1.821  -0.636  0.00  0.00     0.055 A 
ATOM      6  C5  BZF d   1       1.443   2.748  -1.627  0.00  0.00    -0.016 A 
ATOM      7  C6  BZF d   1       1.808   2.457  -2.925  0.00  0.00     0.022 A 
ATOM      8  C7  BZF d   1       2.254   1.224  -3.271  0.00  0.00     0.029 A 
ATOM      9  C7A BZF d   1       2.304   0.276  -2.279  0.00  0.00     0.058 A 
ENDROOT
TORSDOF 0
ENDMDL
