MODEL 1
REMARK minimizedAffinity 4.67051125
REMARK minimizedRMSD -1
REMARK  0 active torsions:
REMARK  status: ('A' for Active; 'I' for Inactive)
ROOT
ATOM      1  O1  BZF d   1       2.375  -0.095   0.076  0.00  0.00    -0.204 OA
ATOM      2  C2  BZF d   1       1.796  -1.262  -0.382  0.00  0.00     0.174 A 
ATOM      3  C3  BZF d   1       1.000  -1.017  -1.443  0.00  0.00    -0.012 A 
ATOM      4  C3A BZF d   1       1.160   0.378  -1.719  0.00  0.00    -0.107 A 
ATOM      5  C4  BZF d   1       0.640   1.213  -2.666  0.00  0.00     0.055 A 
ATOM      6  C5  BZF d   1       0.941   2.537  -2.616  0.00  0.00    -0.016 A 
ATOM      7  C6  BZF d   1       1.753   3.060  -1.631  0.00  0.00     0.022 A 
ATOM      8  C7  BZF d   1       2.297   2.270  -0.673  0.00  0.00     0.029 A 
ATOM      9  C7A BZF d   1       2.021   0.926  -0.741  0.00  0.00     0.058 A 
ENDROOT
TORSDOF 0
ENDMDL
