MODEL 1
REMARK minimizedAffinity 6.33895445
REMARK minimizedRMSD -1
REMARK  0 active torsions:
REMARK  status: ('A' for Active; 'I' for Inactive)
ROOT
ATOM      1  O1  BZF d   1       1.349  -0.035   3.956  0.00  0.00    -0.204 OA
ATOM      2  C2  BZF d   1       2.290  -0.901   3.434  0.00  0.00     0.174 A 
ATOM      3  C3  BZF d   1       1.775  -1.602   2.404  0.00  0.00    -0.012 A 
ATOM      4  C3A BZF d   1       0.457  -1.079   2.214  0.00  0.00    -0.107 A 
ATOM      5  C4  BZF d   1      -0.546  -1.360   1.330  0.00  0.00     0.055 A 
ATOM      6  C5  BZF d   1      -1.738  -0.720   1.459  0.00  0.00    -0.016 A 
ATOM      7  C6  BZF d   1      -1.963   0.201   2.462  0.00  0.00     0.022 A 
ATOM      8  C7  BZF d   1      -0.997   0.515   3.359  0.00  0.00     0.029 A 
ATOM      9  C7A BZF d   1       0.220  -0.105   3.211  0.00  0.00     0.058 A 
ENDROOT
TORSDOF 0
ENDMDL
