MODEL 1
REMARK minimizedAffinity 7.27496624
REMARK minimizedRMSD -1
REMARK  0 active torsions:
REMARK  status: ('A' for Active; 'I' for Inactive)
ROOT
ATOM      1  O1  BZF d   1       1.052  -1.294  -0.451  0.00  0.00    -0.204 OA
ATOM      2  C2  BZF d   1       2.395  -1.297  -0.774  0.00  0.00     0.174 A 
ATOM      3  C3  BZF d   1       3.150  -1.047   0.315  0.00  0.00    -0.012 A 
ATOM      4  C3A BZF d   1       2.225  -0.968   1.404  0.00  0.00    -0.107 A 
ATOM      5  C4  BZF d   1       2.369  -0.755   2.745  0.00  0.00     0.055 A 
ATOM      6  C5  BZF d   1       1.258  -0.663   3.523  0.00  0.00    -0.016 A 
ATOM      7  C6  BZF d   1      -0.011  -0.775   2.992  0.00  0.00     0.022 A 
ATOM      8  C7  BZF d   1      -0.204  -0.992   1.668  0.00  0.00     0.029 A 
ATOM      9  C7A BZF d   1       0.918  -1.118   0.885  0.00  0.00     0.058 A 
ENDROOT
TORSDOF 0
ENDMDL
