MODEL 1
REMARK minimizedAffinity 7.18506384
REMARK minimizedRMSD -1
REMARK  0 active torsions:
REMARK  status: ('A' for Active; 'I' for Inactive)
ROOT
ATOM      1  O1  BZF d   1      -2.024  -2.778   0.612  0.00  0.00    -0.204 OA
ATOM      2  C2  BZF d   1      -2.988  -1.843   0.286  0.00  0.00     0.174 A 
ATOM      3  C3  BZF d   1      -2.744  -0.670   0.905  0.00  0.00    -0.012 A 
ATOM      4  C3A BZF d   1      -1.503  -0.857   1.592  0.00  0.00    -0.107 A 
ATOM      5  C4  BZF d   1      -0.730  -0.046   2.372  0.00  0.00     0.055 A 
ATOM      6  C5  BZF d   1       0.387  -0.557   2.952  0.00  0.00    -0.016 A 
ATOM      7  C6  BZF d   1       0.759  -1.874   2.778  0.00  0.00     0.022 A 
ATOM      8  C7  BZF d   1       0.027  -2.716   2.008  0.00  0.00     0.029 A 
ATOM      9  C7A BZF d   1      -1.085  -2.194   1.394  0.00  0.00     0.058 A 
ENDROOT
TORSDOF 0
ENDMDL
