MODEL 1
REMARK minimizedAffinity 3.73503065
REMARK minimizedRMSD -1
REMARK  0 active torsions:
REMARK  status: ('A' for Active; 'I' for Inactive)
ROOT
ATOM      1  O1  BZF d   1       3.479  -1.179   1.676  0.00  0.00    -0.204 OA
ATOM      2  C2  BZF d   1       2.500  -2.127   1.901  0.00  0.00     0.174 A 
ATOM      3  C3  BZF d   1       1.724  -2.281   0.808  0.00  0.00    -0.012 A 
ATOM      4  C3A BZF d   1       2.309  -1.440  -0.191  0.00  0.00    -0.107 A 
ATOM      5  C4  BZF d   1       2.000  -1.176  -1.494  0.00  0.00     0.055 A 
ATOM      6  C5  BZF d   1       2.728  -0.249  -2.171  0.00  0.00    -0.016 A 
ATOM      7  C6  BZF d   1       3.767   0.435  -1.575  0.00  0.00     0.022 A 
ATOM      8  C7  BZF d   1       4.114   0.203  -0.285  0.00  0.00     0.029 A 
ATOM      9  C7A BZF d   1       3.402  -0.756   0.391  0.00  0.00     0.058 A 
ENDROOT
TORSDOF 0
ENDMDL
