MODEL 1
REMARK minimizedAffinity 2.40902352
REMARK minimizedRMSD -1
REMARK  0 active torsions:
REMARK  status: ('A' for Active; 'I' for Inactive)
ROOT
ATOM      1  O1  BZF d   1      -0.122   1.622  -1.005  0.00  0.00    -0.204 OA
ATOM      2  C2  BZF d   1       0.779   2.473  -1.616  0.00  0.00     0.174 A 
ATOM      3  C3  BZF d   1       2.013   1.928  -1.636  0.00  0.00    -0.012 A 
ATOM      4  C3A BZF d   1       1.855   0.618  -1.082  0.00  0.00    -0.107 A 
ATOM      5  C4  BZF d   1       2.719  -0.415  -0.853  0.00  0.00     0.055 A 
ATOM      6  C5  BZF d   1       2.261  -1.532  -0.230  0.00  0.00    -0.016 A 
ATOM      7  C6  BZF d   1       0.949  -1.649   0.180  0.00  0.00     0.022 A 
ATOM      8  C7  BZF d   1       0.054  -0.654  -0.030  0.00  0.00     0.029 A 
ATOM      9  C7A BZF d   1       0.506   0.464  -0.688  0.00  0.00     0.058 A 
ENDROOT
TORSDOF 0
ENDMDL
