MODEL 1
REMARK minimizedAffinity -0.90149647
REMARK minimizedRMSD -1
REMARK  0 active torsions:
REMARK  status: ('A' for Active; 'I' for Inactive)
ROOT
ATOM      1  O1  BZF d   1       2.537  -0.852  -2.143  0.00  0.00    -0.204 OA
ATOM      2  C2  BZF d   1       1.512   0.053  -2.338  0.00  0.00     0.174 A 
ATOM      3  C3  BZF d   1       0.607  -0.026  -1.340  0.00  0.00    -0.012 A 
ATOM      4  C3A BZF d   1       1.145  -0.980  -0.419  0.00  0.00    -0.107 A 
ATOM      5  C4  BZF d   1       0.714  -1.475   0.778  0.00  0.00     0.055 A 
ATOM      6  C5  BZF d   1       1.437  -2.450   1.388  0.00  0.00    -0.016 A 
ATOM      7  C6  BZF d   1       2.591  -2.957   0.828  0.00  0.00     0.022 A 
ATOM      8  C7  BZF d   1       3.061  -2.494  -0.356  0.00  0.00     0.029 A 
ATOM      9  C7A BZF d   1       2.350  -1.485  -0.959  0.00  0.00     0.058 A 
ENDROOT
TORSDOF 0
ENDMDL
