MODEL 1
REMARK minimizedAffinity 4.28872871
REMARK minimizedRMSD -1
REMARK  0 active torsions:
REMARK  status: ('A' for Active; 'I' for Inactive)
ROOT
ATOM      1  O1  BZF d   1       0.595  -0.835  -1.299  0.00  0.00    -0.204 OA
ATOM      2  C2  BZF d   1       1.885  -1.166  -1.666  0.00  0.00     0.174 A 
ATOM      3  C3  BZF d   1       2.615  -1.515  -0.587  0.00  0.00    -0.012 A 
ATOM      4  C3A BZF d   1       1.700  -1.483   0.512  0.00  0.00    -0.107 A 
ATOM      5  C4  BZF d   1       1.826  -1.748   1.846  0.00  0.00     0.055 A 
ATOM      6  C5  BZF d   1       0.758  -1.551   2.662  0.00  0.00    -0.016 A 
ATOM      7  C6  BZF d   1      -0.448  -1.085   2.180  0.00  0.00     0.022 A 
ATOM      8  C7  BZF d   1      -0.622  -0.813   0.864  0.00  0.00     0.029 A 
ATOM      9  C7A BZF d   1       0.446  -1.043   0.031  0.00  0.00     0.058 A 
ENDROOT
TORSDOF 0
ENDMDL
