MODEL 1
REMARK minimizedAffinity 7.19346857
REMARK minimizedRMSD -1
REMARK  2 active torsions:
REMARK  status: ('A' for Active; 'I' for Inactive)
REMARK    1  A    between atoms: C1_2  and  C2_3 
REMARK    2  A    between atoms: C2_3  and  C3_4 
ROOT
ATOM      1  C3  UNL d   1       1.331  -4.366   2.607  0.00  0.00    -0.075 A 
ATOM      2  C4  UNL d   1       1.091  -2.985   2.574  0.00  0.00     0.002 A 
ATOM      3  C5  UNL d   1       0.617  -2.322   3.707  0.00  0.00     0.002 A 
ATOM      4  C6  UNL d   1       0.368  -3.030   4.880  0.00  0.00    -0.004 A 
ATOM      5  C7  UNL d   1       0.588  -4.406   4.919  0.00  0.00     0.002 A 
ATOM      6  C8  UNL d   1       1.066  -5.071   3.789  0.00  0.00     0.002 A 
ENDROOT
BRANCH   1   7
ATOM      7  C2  UNL d   1       1.872  -5.085   1.394  0.00  0.00     0.056 C 
BRANCH   7   8
ATOM      8  C1  UNL d   1       0.818  -5.888   0.623  0.00  0.00     0.007 C 
ATOM      9  C   UNL d   1       1.087  -5.948  -0.874  0.00  0.00     0.009 C 
ENDBRANCH   7   8
ENDBRANCH   1   7
TORSDOF 2
ENDMDL
