MODEL 1
REMARK minimizedAffinity 11.0007792
REMARK minimizedRMSD -1
REMARK  2 active torsions:
REMARK  status: ('A' for Active; 'I' for Inactive)
REMARK    1  A    between atoms: C1_2  and  C2_3 
REMARK    2  A    between atoms: C2_3  and  C3_4 
ROOT
ATOM      1  C3  UNL d   1      -5.285   3.585  -0.451  0.00  0.00    -0.075 A 
ATOM      2  C4  UNL d   1      -5.999   3.904   0.713  0.00  0.00     0.002 A 
ATOM      3  C5  UNL d   1      -5.331   4.115   1.919  0.00  0.00     0.002 A 
ATOM      4  C6  UNL d   1      -3.944   3.999   1.980  0.00  0.00    -0.004 A 
ATOM      5  C7  UNL d   1      -3.225   3.666   0.834  0.00  0.00     0.002 A 
ATOM      6  C8  UNL d   1      -3.891   3.459  -0.375  0.00  0.00     0.002 A 
ENDROOT
BRANCH   1   7
ATOM      7  C2  UNL d   1      -6.000   3.385  -1.766  0.00  0.00     0.056 C 
BRANCH   7   8
ATOM      8  C1  UNL d   1      -5.149   2.699  -2.840  0.00  0.00     0.007 C 
ATOM      9  C   UNL d   1      -5.614   3.002  -4.258  0.00  0.00     0.009 C 
ENDBRANCH   7   8
ENDBRANCH   1   7
TORSDOF 2
ENDMDL
