MODEL 1
REMARK minimizedAffinity 12.5600023
REMARK minimizedRMSD -1
REMARK  2 active torsions:
REMARK  status: ('A' for Active; 'I' for Inactive)
REMARK    1  A    between atoms: C1_2  and  C2_3 
REMARK    2  A    between atoms: C2_3  and  C3_4 
ROOT
ATOM      1  C3  UNL d   1       0.728  -0.445   2.483  0.00  0.00    -0.075 A 
ATOM      2  C4  UNL d   1       1.645  -1.375   1.972  0.00  0.00     0.002 A 
ATOM      3  C5  UNL d   1       1.753  -2.647   2.535  0.00  0.00     0.002 A 
ATOM      4  C6  UNL d   1       0.955  -3.001   3.620  0.00  0.00    -0.004 A 
ATOM      5  C7  UNL d   1       0.052  -2.080   4.147  0.00  0.00     0.002 A 
ATOM      6  C8  UNL d   1      -0.061  -0.808   3.582  0.00  0.00     0.002 A 
ENDROOT
BRANCH   1   7
ATOM      7  C2  UNL d   1       0.586   0.923   1.860  0.00  0.00     0.056 C 
BRANCH   7   8
ATOM      8  C1  UNL d   1       1.819   1.816   2.027  0.00  0.00     0.007 C 
ATOM      9  C   UNL d   1       1.697   2.798   3.184  0.00  0.00     0.009 C 
ENDBRANCH   7   8
ENDBRANCH   1   7
TORSDOF 2
ENDMDL
