MODEL 1
REMARK minimizedAffinity 1.95332217
REMARK minimizedRMSD -1
REMARK  2 active torsions:
REMARK  status: ('A' for Active; 'I' for Inactive)
REMARK    1  A    between atoms: C1_2  and  C2_3 
REMARK    2  A    between atoms: C2_3  and  C3_4 
ROOT
ATOM      1  C3  UNL d   1       4.208   5.506  -4.033  0.00  0.00    -0.075 A 
ATOM      2  C4  UNL d   1       5.214   5.980  -3.179  0.00  0.00     0.002 A 
ATOM      3  C5  UNL d   1       5.042   5.948  -1.795  0.00  0.00     0.002 A 
ATOM      4  C6  UNL d   1       3.861   5.452  -1.248  0.00  0.00    -0.004 A 
ATOM      5  C7  UNL d   1       2.848   4.993  -2.088  0.00  0.00     0.002 A 
ATOM      6  C8  UNL d   1       3.019   5.020  -3.473  0.00  0.00     0.002 A 
ENDROOT
BRANCH   1   7
ATOM      7  C2  UNL d   1       4.400   5.510  -5.531  0.00  0.00     0.056 C 
BRANCH   7   8
ATOM      8  C1  UNL d   1       5.798   5.072  -5.982  0.00  0.00     0.007 C 
ATOM      9  C   UNL d   1       5.976   3.559  -5.999  0.00  0.00     0.009 C 
ENDBRANCH   7   8
ENDBRANCH   1   7
TORSDOF 2
ENDMDL
