MODEL 1
REMARK minimizedAffinity 3.37658286
REMARK minimizedRMSD -1
REMARK  2 active torsions:
REMARK  status: ('A' for Active; 'I' for Inactive)
REMARK    1  A    between atoms: C1_2  and  C2_3 
REMARK    2  A    between atoms: C2_3  and  C3_4 
ROOT
ATOM      1  C3  UNL d   1       4.541   5.510  -3.879  0.00  0.00    -0.075 A 
ATOM      2  C4  UNL d   1       3.520   4.565  -3.696  0.00  0.00     0.002 A 
ATOM      3  C5  UNL d   1       3.172   4.137  -2.415  0.00  0.00     0.002 A 
ATOM      4  C6  UNL d   1       3.844   4.639  -1.303  0.00  0.00    -0.004 A 
ATOM      5  C7  UNL d   1       4.871   5.566  -1.473  0.00  0.00     0.002 A 
ATOM      6  C8  UNL d   1       5.218   5.999  -2.754  0.00  0.00     0.002 A 
ENDROOT
BRANCH   1   7
ATOM      7  C2  UNL d   1       4.903   5.999  -5.261  0.00  0.00     0.056 C 
BRANCH   7   8
ATOM      8  C1  UNL d   1       5.996   5.175  -5.947  0.00  0.00     0.007 C 
ATOM      9  C   UNL d   1       5.996   3.711  -5.529  0.00  0.00     0.009 C 
ENDBRANCH   7   8
ENDBRANCH   1   7
TORSDOF 2
ENDMDL
