MODEL 1
REMARK minimizedAffinity 12.0008593
REMARK minimizedRMSD -1
REMARK  0 active torsions:
REMARK  status: ('A' for Active; 'I' for Inactive)
ROOT
ATOM      1  C   UNL d   1      -2.176  -1.739  -1.240  0.00  0.00     0.020 A 
ATOM      2  C1  UNL d   1      -2.959  -0.758  -0.633  0.00  0.00     0.020 A 
ATOM      3  C2  UNL d   1      -2.420   0.504  -0.375  0.00  0.00     0.034 A 
ATOM      4  C3  UNL d   1      -1.095   0.789  -0.725  0.00  0.00     0.017 A 
ATOM      5  C4  UNL d   1      -0.311  -0.197  -1.334  0.00  0.00     0.017 A 
ATOM      6  C5  UNL d   1      -0.855  -1.459  -1.590  0.00  0.00     0.034 A 
ATOM      7 Cl   UNL d   1       1.332   0.080  -1.795  0.00  0.00    -0.070 Cl
ATOM      8 Cl1  UNL d   1      -0.495   2.371  -0.377  0.00  0.00    -0.070 Cl
ENDROOT
TORSDOF 0
ENDMDL
