MODEL 1
REMARK minimizedAffinity -3.1222167
REMARK minimizedRMSD -1
REMARK  0 active torsions:
REMARK  status: ('A' for Active; 'I' for Inactive)
ROOT
ATOM      1  C   UNL d   1       0.413  -3.586  -0.830  0.00  0.00     0.020 A 
ATOM      2  C1  UNL d   1       1.562  -3.942  -0.124  0.00  0.00     0.020 A 
ATOM      3  C2  UNL d   1       2.806  -3.449  -0.521  0.00  0.00     0.034 A 
ATOM      4  C3  UNL d   1       2.906  -2.598  -1.628  0.00  0.00     0.017 A 
ATOM      5  C4  UNL d   1       1.752  -2.242  -2.336  0.00  0.00     0.017 A 
ATOM      6  C5  UNL d   1       0.509  -2.738  -1.934  0.00  0.00     0.034 A 
ATOM      7 Cl   UNL d   1       1.795  -1.196  -3.712  0.00  0.00    -0.070 Cl
ATOM      8 Cl1  UNL d   1       4.477  -2.026  -2.063  0.00  0.00    -0.070 Cl
ENDROOT
TORSDOF 0
ENDMDL
