MODEL 1
REMARK minimizedAffinity 4.11622095
REMARK minimizedRMSD -1
REMARK  0 active torsions:
REMARK  status: ('A' for Active; 'I' for Inactive)
ROOT
ATOM      1  C   UNL d   1       4.287  -3.009  -0.650  0.00  0.00     0.020 A 
ATOM      2  C1  UNL d   1       5.447  -2.283  -0.916  0.00  0.00     0.020 A 
ATOM      3  C2  UNL d   1       5.690  -1.803  -2.205  0.00  0.00     0.034 A 
ATOM      4  C3  UNL d   1       4.773  -2.050  -3.233  0.00  0.00     0.017 A 
ATOM      5  C4  UNL d   1       3.609  -2.779  -2.965  0.00  0.00     0.017 A 
ATOM      6  C5  UNL d   1       3.370  -3.257  -1.672  0.00  0.00     0.034 A 
ATOM      7 Cl   UNL d   1       2.430  -3.123  -4.181  0.00  0.00    -0.070 Cl
ATOM      8 Cl1  UNL d   1       5.138  -1.426  -4.802  0.00  0.00    -0.070 Cl
ENDROOT
TORSDOF 0
ENDMDL
