MODEL 1
REMARK minimizedAffinity 1.00848687
REMARK minimizedRMSD -1
REMARK  0 active torsions:
REMARK  status: ('A' for Active; 'I' for Inactive)
ROOT
ATOM      1  C   UNL d   1       4.651  -2.835  -2.878  0.00  0.00     0.020 A 
ATOM      2  C1  UNL d   1       4.364  -4.134  -3.295  0.00  0.00     0.020 A 
ATOM      3  C2  UNL d   1       3.316  -4.842  -2.703  0.00  0.00     0.034 A 
ATOM      4  C3  UNL d   1       2.551  -4.252  -1.690  0.00  0.00     0.017 A 
ATOM      5  C4  UNL d   1       2.840  -2.948  -1.271  0.00  0.00     0.017 A 
ATOM      6  C5  UNL d   1       3.890  -2.243  -1.868  0.00  0.00     0.034 A 
ATOM      7 Cl   UNL d   1       1.941  -2.153  -0.027  0.00  0.00    -0.070 Cl
ATOM      8 Cl1  UNL d   1       1.271  -5.186  -1.002  0.00  0.00    -0.070 Cl
ENDROOT
TORSDOF 0
ENDMDL
