MODEL 1
REMARK minimizedAffinity 3.01485038
REMARK minimizedRMSD -1
REMARK  0 active torsions:
REMARK  status: ('A' for Active; 'I' for Inactive)
ROOT
ATOM      1  C   UNL d   1       5.678  -5.179  -1.487  0.00  0.00     0.020 A 
ATOM      2  C1  UNL d   1       4.545  -5.991  -1.475  0.00  0.00     0.020 A 
ATOM      3  C2  UNL d   1       3.420  -5.631  -2.220  0.00  0.00     0.034 A 
ATOM      4  C3  UNL d   1       3.426  -4.457  -2.980  0.00  0.00     0.017 A 
ATOM      5  C4  UNL d   1       4.564  -3.642  -2.992  0.00  0.00     0.017 A 
ATOM      6  C5  UNL d   1       5.688  -4.007  -2.244  0.00  0.00     0.034 A 
ATOM      7 Cl   UNL d   1       4.646  -2.178  -3.907  0.00  0.00    -0.070 Cl
ATOM      8 Cl1  UNL d   1       2.000  -4.074  -3.878  0.00  0.00    -0.070 Cl
ENDROOT
TORSDOF 0
ENDMDL
