MODEL 1
REMARK minimizedAffinity -0.628019571
REMARK minimizedRMSD -1
REMARK  0 active torsions:
REMARK  status: ('A' for Active; 'I' for Inactive)
ROOT
ATOM      1  C   UNL d   1       5.352  -4.745  -1.099  0.00  0.00     0.020 A 
ATOM      2  C1  UNL d   1       5.437  -3.485  -0.508  0.00  0.00     0.020 A 
ATOM      3  C2  UNL d   1       4.725  -2.411  -1.047  0.00  0.00     0.034 A 
ATOM      4  C3  UNL d   1       3.926  -2.595  -2.181  0.00  0.00     0.017 A 
ATOM      5  C4  UNL d   1       3.841  -3.860  -2.774  0.00  0.00     0.017 A 
ATOM      6  C5  UNL d   1       4.556  -4.932  -2.230  0.00  0.00     0.034 A 
ATOM      7 Cl   UNL d   1       2.876  -4.165  -4.175  0.00  0.00    -0.070 Cl
ATOM      8 Cl1  UNL d   1       3.073  -1.223  -2.794  0.00  0.00    -0.070 Cl
ENDROOT
TORSDOF 0
ENDMDL
