MODEL 1
REMARK minimizedAffinity 8.32927132
REMARK minimizedRMSD -1
REMARK  0 active torsions:
REMARK  status: ('A' for Active; 'I' for Inactive)
ROOT
ATOM      1  C   UNL d   1       3.857  -2.039  -0.638  0.00  0.00     0.020 A 
ATOM      2  C1  UNL d   1       4.581  -2.066  -1.829  0.00  0.00     0.020 A 
ATOM      3  C2  UNL d   1       4.401  -3.116  -2.731  0.00  0.00     0.034 A 
ATOM      4  C3  UNL d   1       3.495  -4.144  -2.444  0.00  0.00     0.017 A 
ATOM      5  C4  UNL d   1       2.769  -4.116  -1.248  0.00  0.00     0.017 A 
ATOM      6  C5  UNL d   1       2.953  -3.062  -0.348  0.00  0.00     0.034 A 
ATOM      7 Cl   UNL d   1       1.633  -5.348  -0.824  0.00  0.00    -0.070 Cl
ATOM      8 Cl1  UNL d   1       3.323  -5.412  -3.606  0.00  0.00    -0.070 Cl
ENDROOT
TORSDOF 0
ENDMDL
