MODEL 1
REMARK minimizedAffinity 8.21683979
REMARK minimizedRMSD -1
REMARK  0 active torsions:
REMARK  status: ('A' for Active; 'I' for Inactive)
ROOT
ATOM      1  C   UNL d   1       5.611  -6.000  -1.635  0.00  0.00     0.020 A 
ATOM      2  C1  UNL d   1       5.886  -5.529  -2.918  0.00  0.00     0.020 A 
ATOM      3  C2  UNL d   1       4.889  -4.890  -3.657  0.00  0.00     0.034 A 
ATOM      4  C3  UNL d   1       3.610  -4.720  -3.113  0.00  0.00     0.017 A 
ATOM      5  C4  UNL d   1       3.334  -5.192  -1.825  0.00  0.00     0.017 A 
ATOM      6  C5  UNL d   1       4.337  -5.832  -1.089  0.00  0.00     0.034 A 
ATOM      7 Cl   UNL d   1       1.781  -5.019  -1.087  0.00  0.00    -0.070 Cl
ATOM      8 Cl1  UNL d   1       2.425  -3.920  -4.082  0.00  0.00    -0.070 Cl
ENDROOT
TORSDOF 0
ENDMDL
