MODEL 1
REMARK minimizedAffinity 4.99554396
REMARK minimizedRMSD -1
REMARK  0 active torsions:
REMARK  status: ('A' for Active; 'I' for Inactive)
ROOT
ATOM      1  C   UNL d   1       4.606  -1.922  -1.518  0.00  0.00     0.020 A 
ATOM      2  C1  UNL d   1       3.841  -2.282  -2.626  0.00  0.00     0.020 A 
ATOM      3  C2  UNL d   1       3.190  -3.518  -2.653  0.00  0.00     0.034 A 
ATOM      4  C3  UNL d   1       3.304  -4.397  -1.570  0.00  0.00     0.017 A 
ATOM      5  C4  UNL d   1       4.072  -4.034  -0.458  0.00  0.00     0.017 A 
ATOM      6  C5  UNL d   1       4.721  -2.796  -0.436  0.00  0.00     0.034 A 
ATOM      7 Cl   UNL d   1       4.259  -5.066   0.916  0.00  0.00    -0.070 Cl
ATOM      8 Cl1  UNL d   1       2.472  -5.908  -1.672  0.00  0.00    -0.070 Cl
ENDROOT
TORSDOF 0
ENDMDL
