MODEL 1
REMARK minimizedAffinity 9.29226303
REMARK minimizedRMSD -1
REMARK  0 active torsions:
REMARK  status: ('A' for Active; 'I' for Inactive)
ROOT
ATOM      1  C2' OXE d   1      -1.198  -3.379  -5.952  0.00  0.00     0.078 C 
ATOM      2  C1' OXE d   1      -1.790  -0.635  -5.958  0.00  0.00     0.078 C 
ATOM      3  C1  OXE d   1      -2.946  -1.604  -5.956  0.00  0.00    -0.078 A 
ATOM      4  C2  OXE d   1      -2.647  -2.944  -6.000  0.00  0.00    -0.078 A 
ATOM      5  C3  OXE d   1      -3.675  -3.882  -5.944  0.00  0.00     0.003 A 
ATOM      6  C4  OXE d   1      -5.012  -3.472  -5.999  0.00  0.00    -0.002 A 
ATOM      7  C5  OXE d   1      -5.338  -2.111  -5.995  0.00  0.00    -0.002 A 
ATOM      8  C6  OXE d   1      -4.320  -1.167  -5.931  0.00  0.00     0.003 A 
ENDROOT
TORSDOF 0
ENDMDL
