MODEL 1
REMARK minimizedAffinity 19.3326283
REMARK minimizedRMSD -1
REMARK  0 active torsions:
REMARK  status: ('A' for Active; 'I' for Inactive)
ROOT
ATOM      1  C2' OXE d   1       4.946   4.100  -4.486  0.00  0.00     0.078 C 
ATOM      2  C1' OXE d   1       2.674   5.619  -3.845  0.00  0.00     0.078 C 
ATOM      3  C1  OXE d   1       2.822   4.266  -3.195  0.00  0.00    -0.078 A 
ATOM      4  C2  OXE d   1       3.913   3.510  -3.550  0.00  0.00    -0.078 A 
ATOM      5  C3  OXE d   1       4.126   2.277  -2.939  0.00  0.00     0.003 A 
ATOM      6  C4  OXE d   1       3.160   1.735  -2.082  0.00  0.00    -0.002 A 
ATOM      7  C5  OXE d   1       2.022   2.471  -1.738  0.00  0.00    -0.002 A 
ATOM      8  C6  OXE d   1       1.859   3.754  -2.251  0.00  0.00     0.003 A 
ENDROOT
TORSDOF 0
ENDMDL
