MODEL 1
REMARK minimizedAffinity 11.0911818
REMARK minimizedRMSD -1
REMARK  0 active torsions:
REMARK  status: ('A' for Active; 'I' for Inactive)
ROOT
ATOM      1  C2' OXE d   1      -5.530   1.387   3.109  0.00  0.00     0.078 C 
ATOM      2  C1' OXE d   1      -5.602   1.120   0.315  0.00  0.00     0.078 C 
ATOM      3  C1  OXE d   1      -4.288   0.869   1.013  0.00  0.00    -0.078 A 
ATOM      4  C2  OXE d   1      -4.251   1.047   2.375  0.00  0.00    -0.078 A 
ATOM      5  C3  OXE d   1      -3.079   0.776   3.074  0.00  0.00     0.003 A 
ATOM      6  C4  OXE d   1      -1.898   0.471   2.386  0.00  0.00    -0.002 A 
ATOM      7  C5  OXE d   1      -1.904   0.324   0.995  0.00  0.00    -0.002 A 
ATOM      8  C6  OXE d   1      -3.098   0.477   0.299  0.00  0.00     0.003 A 
ENDROOT
TORSDOF 0
ENDMDL
