MODEL 1
REMARK minimizedAffinity 14.5400877
REMARK minimizedRMSD -1
REMARK  0 active torsions:
REMARK  status: ('A' for Active; 'I' for Inactive)
ROOT
ATOM      1  C2' OXE d   1       5.860  -2.122   2.050  0.00  0.00     0.078 C 
ATOM      2  C1' OXE d   1       5.803  -0.448   4.303  0.00  0.00     0.078 C 
ATOM      3  C1  OXE d   1       5.888  -1.936   4.534  0.00  0.00    -0.078 A 
ATOM      4  C2  OXE d   1       5.868  -2.750   3.427  0.00  0.00    -0.078 A 
ATOM      5  C3  OXE d   1       5.999  -4.127   3.581  0.00  0.00     0.003 A 
ATOM      6  C4  OXE d   1       5.996  -4.701   4.858  0.00  0.00    -0.002 A 
ATOM      7  C5  OXE d   1       5.977  -3.892   6.000  0.00  0.00    -0.002 A 
ATOM      8  C6  OXE d   1       5.965  -2.509   5.855  0.00  0.00     0.003 A 
ENDROOT
TORSDOF 0
ENDMDL
