MODEL 1
REMARK minimizedAffinity 0.899472833
REMARK minimizedRMSD -1
REMARK  0 active torsions:
REMARK  status: ('A' for Active; 'I' for Inactive)
ROOT
ATOM      1  C2' OXE d   1       0.687   0.593   3.068  0.00  0.00     0.078 C 
ATOM      2  C1' OXE d   1       0.371  -0.085   0.363  0.00  0.00     0.078 C 
ATOM      3  C1  OXE d   1      -0.849   0.381   1.118  0.00  0.00    -0.078 A 
ATOM      4  C2  OXE d   1      -0.694   0.665   2.454  0.00  0.00    -0.078 A 
ATOM      5  C3  OXE d   1      -1.775   1.151   3.184  0.00  0.00     0.003 A 
ATOM      6  C4  OXE d   1      -3.051   1.206   2.611  0.00  0.00    -0.002 A 
ATOM      7  C5  OXE d   1      -3.238   0.882   1.263  0.00  0.00    -0.002 A 
ATOM      8  C6  OXE d   1      -2.142   0.510   0.493  0.00  0.00     0.003 A 
ENDROOT
TORSDOF 0
ENDMDL
