MODEL 1
REMARK minimizedAffinity 7.43541956
REMARK minimizedRMSD -1
REMARK  0 active torsions:
REMARK  status: ('A' for Active; 'I' for Inactive)
ROOT
ATOM      1  C2' OXE d   1      -5.462   1.478   0.778  0.00  0.00     0.078 C 
ATOM      2  C1' OXE d   1      -5.591  -0.610   2.650  0.00  0.00     0.078 C 
ATOM      3  C1  OXE d   1      -4.354   0.252   2.643  0.00  0.00    -0.078 A 
ATOM      4  C2  OXE d   1      -4.279   1.242   1.693  0.00  0.00    -0.078 A 
ATOM      5  C3  OXE d   1      -3.184   2.101   1.677  0.00  0.00     0.003 A 
ATOM      6  C4  OXE d   1      -2.090   1.870   2.520  0.00  0.00    -0.002 A 
ATOM      7  C5  OXE d   1      -2.128   0.842   3.468  0.00  0.00    -0.002 A 
ATOM      8  C6  OXE d   1      -3.268   0.053   3.571  0.00  0.00     0.003 A 
ENDROOT
TORSDOF 0
ENDMDL
