MODEL 1
REMARK minimizedAffinity 12.0130072
REMARK minimizedRMSD -1
REMARK  0 active torsions:
REMARK  status: ('A' for Active; 'I' for Inactive)
ROOT
ATOM      1  C2' OXE d   1      -2.104  -1.866   5.979  0.00  0.00     0.078 C 
ATOM      2  C1' OXE d   1      -1.544  -0.760   3.460  0.00  0.00     0.078 C 
ATOM      3  C1  OXE d   1      -2.851  -0.391   4.115  0.00  0.00    -0.078 A 
ATOM      4  C2  OXE d   1      -3.138  -0.974   5.327  0.00  0.00    -0.078 A 
ATOM      5  C3  OXE d   1      -4.305  -0.626   6.000  0.00  0.00     0.003 A 
ATOM      6  C4  OXE d   1      -5.261   0.192   5.385  0.00  0.00    -0.002 A 
ATOM      7  C5  OXE d   1      -5.006   0.765   4.134  0.00  0.00    -0.002 A 
ATOM      8  C6  OXE d   1      -3.791   0.517   3.506  0.00  0.00     0.003 A 
ENDROOT
TORSDOF 0
ENDMDL
