MODEL 1
REMARK minimizedAffinity 0.700498998
REMARK minimizedRMSD -1
REMARK  0 active torsions:
REMARK  status: ('A' for Active; 'I' for Inactive)
ROOT
ATOM      1  C2' OXE d   1      -3.819   0.095   0.940  0.00  0.00     0.078 C 
ATOM      2  C1' OXE d   1      -1.064   0.051   1.480  0.00  0.00     0.078 C 
ATOM      3  C1  OXE d   1      -1.721  -1.243   1.068  0.00  0.00    -0.078 A 
ATOM      4  C2  OXE d   1      -3.078  -1.222   0.852  0.00  0.00    -0.078 A 
ATOM      5  C3  OXE d   1      -3.725  -2.375   0.417  0.00  0.00     0.003 A 
ATOM      6  C4  OXE d   1      -3.034  -3.591   0.347  0.00  0.00    -0.002 A 
ATOM      7  C5  OXE d   1      -1.660  -3.643   0.602  0.00  0.00    -0.002 A 
ATOM      8  C6  OXE d   1      -0.981  -2.472   0.922  0.00  0.00     0.003 A 
ENDROOT
TORSDOF 0
ENDMDL
