MODEL 1
REMARK minimizedAffinity 0.263003767
REMARK minimizedRMSD -1
REMARK  0 active torsions:
REMARK  status: ('A' for Active; 'I' for Inactive)
ROOT
ATOM      1  C2' OXE d   1      -5.182   1.118   1.049  0.00  0.00     0.078 C 
ATOM      2  C1' OXE d   1      -4.688   1.990   3.671  0.00  0.00     0.078 C 
ATOM      3  C1  OXE d   1      -3.515   1.495   2.862  0.00  0.00    -0.078 A 
ATOM      4  C2  OXE d   1      -3.774   1.026   1.596  0.00  0.00    -0.078 A 
ATOM      5  C3  OXE d   1      -2.721   0.608   0.787  0.00  0.00     0.003 A 
ATOM      6  C4  OXE d   1      -1.423   0.517   1.304  0.00  0.00    -0.002 A 
ATOM      7  C5  OXE d   1      -1.144   0.952   2.604  0.00  0.00    -0.002 A 
ATOM      8  C6  OXE d   1      -2.170   1.482   3.380  0.00  0.00     0.003 A 
ENDROOT
TORSDOF 0
ENDMDL
