MODEL 1
REMARK minimizedAffinity 10.6878529
REMARK minimizedRMSD -1
REMARK  0 active torsions:
REMARK  status: ('A' for Active; 'I' for Inactive)
ROOT
ATOM      1  C2' OXE d   1      -4.123   0.385   0.677  0.00  0.00     0.078 C 
ATOM      2  C1' OXE d   1      -4.315   1.700   3.150  0.00  0.00     0.078 C 
ATOM      3  C1  OXE d   1      -2.941   1.304   2.669  0.00  0.00    -0.078 A 
ATOM      4  C2  OXE d   1      -2.861   0.620   1.480  0.00  0.00    -0.078 A 
ATOM      5  C3  OXE d   1      -1.614   0.280   0.963  0.00  0.00     0.003 A 
ATOM      6  C4  OXE d   1      -0.453   0.492   1.716  0.00  0.00    -0.002 A 
ATOM      7  C5  OXE d   1      -0.516   1.152   2.948  0.00  0.00    -0.002 A 
ATOM      8  C6  OXE d   1      -1.745   1.601   3.418  0.00  0.00     0.003 A 
ENDROOT
TORSDOF 0
ENDMDL
