MODEL 1
REMARK minimizedAffinity 3.8640883
REMARK minimizedRMSD -1
REMARK  0 active torsions:
REMARK  status: ('A' for Active; 'I' for Inactive)
ROOT
ATOM      1  C2' OXE d   1      -1.580  -2.336   0.554  0.00  0.00     0.078 C 
ATOM      2  C1' OXE d   1      -4.329  -2.203   0.002  0.00  0.00     0.078 C 
ATOM      3  C1  OXE d   1      -3.709  -1.060   0.767  0.00  0.00    -0.078 A 
ATOM      4  C2  OXE d   1      -2.372  -1.156   1.073  0.00  0.00    -0.078 A 
ATOM      5  C3  OXE d   1      -1.738  -0.104   1.729  0.00  0.00     0.003 A 
ATOM      6  C4  OXE d   1      -2.481   0.979   2.214  0.00  0.00    -0.002 A 
ATOM      7  C5  OXE d   1      -3.851   1.077   1.947  0.00  0.00    -0.002 A 
ATOM      8  C6  OXE d   1      -4.470   0.089   1.190  0.00  0.00     0.003 A 
ENDROOT
TORSDOF 0
ENDMDL
