MODEL 1
REMARK minimizedAffinity 14.0647068
REMARK minimizedRMSD -1
REMARK  0 active torsions:
REMARK  status: ('A' for Active; 'I' for Inactive)
ROOT
ATOM      1  C2' OXE d   1       1.381   0.723   3.241  0.00  0.00     0.078 C 
ATOM      2  C1' OXE d   1       2.359   1.894   0.884  0.00  0.00     0.078 C 
ATOM      3  C1  OXE d   1       3.287   0.993   1.659  0.00  0.00    -0.078 A 
ATOM      4  C2  OXE d   1       2.816   0.461   2.836  0.00  0.00    -0.078 A 
ATOM      5  C3  OXE d   1       3.612  -0.420   3.561  0.00  0.00     0.003 A 
ATOM      6  C4  OXE d   1       4.941  -0.649   3.185  0.00  0.00    -0.002 A 
ATOM      7  C5  OXE d   1       5.453  -0.086   2.012  0.00  0.00    -0.002 A 
ATOM      8  C6  OXE d   1       4.628   0.702   1.217  0.00  0.00     0.003 A 
ENDROOT
TORSDOF 0
ENDMDL
