MODEL 1
REMARK minimizedAffinity 9.65386105
REMARK minimizedRMSD -1
REMARK  0 active torsions:
REMARK  status: ('A' for Active; 'I' for Inactive)
ROOT
ATOM      1  C2' OXE d   1      -4.891   0.515   3.707  0.00  0.00     0.078 C 
ATOM      2  C1' OXE d   1      -5.155   1.071   0.968  0.00  0.00     0.078 C 
ATOM      3  C1  OXE d   1      -3.798   0.647   1.472  0.00  0.00    -0.078 A 
ATOM      4  C2  OXE d   1      -3.667   0.422   2.821  0.00  0.00    -0.078 A 
ATOM      5  C3  OXE d   1      -2.451  -0.025   3.331  0.00  0.00     0.003 A 
ATOM      6  C4  OXE d   1      -1.322  -0.099   2.506  0.00  0.00    -0.002 A 
ATOM      7  C5  OXE d   1      -1.424   0.165   1.136  0.00  0.00    -0.002 A 
ATOM      8  C6  OXE d   1      -2.662   0.496   0.597  0.00  0.00     0.003 A 
ENDROOT
TORSDOF 0
ENDMDL
