MODEL 1
REMARK minimizedAffinity 4.91420221
REMARK minimizedRMSD -1
REMARK  0 active torsions:
REMARK  status: ('A' for Active; 'I' for Inactive)
ROOT
ATOM      1  C2' OXE d   1      -5.878  -2.566   3.042  0.00  0.00     0.078 C 
ATOM      2  C1' OXE d   1      -4.869  -2.235   0.444  0.00  0.00     0.078 C 
ATOM      3  C1  OXE d   1      -4.804  -1.054   1.379  0.00  0.00    -0.078 A 
ATOM      4  C2  OXE d   1      -5.342  -1.211   2.634  0.00  0.00    -0.078 A 
ATOM      5  C3  OXE d   1      -5.259  -0.170   3.555  0.00  0.00     0.003 A 
ATOM      6  C4  OXE d   1      -4.771   1.083   3.166  0.00  0.00    -0.002 A 
ATOM      7  C5  OXE d   1      -4.254   1.276   1.880  0.00  0.00    -0.002 A 
ATOM      8  C6  OXE d   1      -4.224   0.208   0.990  0.00  0.00     0.003 A 
ENDROOT
TORSDOF 0
ENDMDL
