MODEL 1
REMARK minimizedAffinity 0.677205145
REMARK minimizedRMSD -1
REMARK  0 active torsions:
REMARK  status: ('A' for Active; 'I' for Inactive)
ROOT
ATOM      1  C2' OXE d   1      -5.701   2.064   4.143  0.00  0.00     0.078 C 
ATOM      2  C1' OXE d   1      -5.970   2.250   1.355  0.00  0.00     0.078 C 
ATOM      3  C1  OXE d   1      -4.753   1.546   1.898  0.00  0.00    -0.078 A 
ATOM      4  C2  OXE d   1      -4.606   1.500   3.264  0.00  0.00    -0.078 A 
ATOM      5  C3  OXE d   1      -3.529   0.815   3.819  0.00  0.00     0.003 A 
ATOM      6  C4  OXE d   1      -2.514   0.305   2.999  0.00  0.00    -0.002 A 
ATOM      7  C5  OXE d   1      -2.625   0.375   1.606  0.00  0.00    -0.002 A 
ATOM      8  C6  OXE d   1      -3.756   0.954   1.041  0.00  0.00     0.003 A 
ENDROOT
TORSDOF 0
ENDMDL
