MODEL 1
REMARK minimizedAffinity 8.87325859
REMARK minimizedRMSD -1
REMARK  0 active torsions:
REMARK  status: ('A' for Active; 'I' for Inactive)
ROOT
ATOM      1  C2' OXE d   1      -4.464   0.405   0.900  0.00  0.00     0.078 C 
ATOM      2  C1' OXE d   1      -1.803   0.048   1.720  0.00  0.00     0.078 C 
ATOM      3  C1  OXE d   1      -2.515  -1.132   1.108  0.00  0.00    -0.078 A 
ATOM      4  C2  OXE d   1      -3.831  -0.962   0.753  0.00  0.00    -0.078 A 
ATOM      5  C3  OXE d   1      -4.519  -2.002   0.134  0.00  0.00     0.003 A 
ATOM      6  C4  OXE d   1      -3.930  -3.267   0.011  0.00  0.00    -0.002 A 
ATOM      7  C5  OXE d   1      -2.603  -3.473   0.403  0.00  0.00    -0.002 A 
ATOM      8  C6  OXE d   1      -1.869  -2.407   0.913  0.00  0.00     0.003 A 
ENDROOT
TORSDOF 0
ENDMDL
