MODEL 1
REMARK minimizedAffinity 5.51761723
REMARK minimizedRMSD -1
REMARK  0 active torsions:
REMARK  status: ('A' for Active; 'I' for Inactive)
ROOT
ATOM      1  C2' OXE d   1      -5.108   1.114   0.885  0.00  0.00     0.078 C 
ATOM      2  C1' OXE d   1      -4.275  -1.543   0.528  0.00  0.00     0.078 C 
ATOM      3  C1  OXE d   1      -3.298  -0.578   1.150  0.00  0.00    -0.078 A 
ATOM      4  C2  OXE d   1      -3.697   0.731   1.278  0.00  0.00    -0.078 A 
ATOM      5  C3  OXE d   1      -2.855   1.651   1.895  0.00  0.00     0.003 A 
ATOM      6  C4  OXE d   1      -1.548   1.292   2.247  0.00  0.00    -0.002 A 
ATOM      7  C5  OXE d   1      -1.108  -0.027   2.089  0.00  0.00    -0.002 A 
ATOM      8  C6  OXE d   1      -1.983  -0.981   1.583  0.00  0.00     0.003 A 
ENDROOT
TORSDOF 0
ENDMDL
