MODEL 1
REMARK minimizedAffinity 11.1809807
REMARK minimizedRMSD -1
REMARK  0 active torsions:
REMARK  status: ('A' for Active; 'I' for Inactive)
ROOT
ATOM      1  C2' OXE d   1       1.039   2.799   4.104  0.00  0.00     0.078 C 
ATOM      2  C1' OXE d   1       1.719   0.234   3.188  0.00  0.00     0.078 C 
ATOM      3  C1  OXE d   1       0.317   0.726   2.926  0.00  0.00    -0.078 A 
ATOM      4  C2  OXE d   1      -0.021   1.964   3.418  0.00  0.00    -0.078 A 
ATOM      5  C3  OXE d   1      -1.283   2.488   3.157  0.00  0.00     0.003 A 
ATOM      6  C4  OXE d   1      -2.261   1.705   2.531  0.00  0.00    -0.002 A 
ATOM      7  C5  OXE d   1      -1.949   0.427   2.056  0.00  0.00    -0.002 A 
ATOM      8  C6  OXE d   1      -0.655  -0.060   2.207  0.00  0.00     0.003 A 
ENDROOT
TORSDOF 0
ENDMDL
