MODEL 1
REMARK minimizedAffinity 6.2594142
REMARK minimizedRMSD -1
REMARK  0 active torsions:
REMARK  status: ('A' for Active; 'I' for Inactive)
ROOT
ATOM      1  C2' OXE d   1      -2.103  -0.111   1.823  0.00  0.00     0.078 C 
ATOM      2  C1' OXE d   1       0.096  -1.078   3.275  0.00  0.00     0.078 C 
ATOM      3  C1  OXE d   1      -0.098   0.416   3.204  0.00  0.00    -0.078 A 
ATOM      4  C2  OXE d   1      -1.150   0.882   2.452  0.00  0.00    -0.078 A 
ATOM      5  C3  OXE d   1      -1.407   2.249   2.398  0.00  0.00     0.003 A 
ATOM      6  C4  OXE d   1      -0.514   3.161   2.975  0.00  0.00    -0.002 A 
ATOM      7  C5  OXE d   1       0.586   2.709   3.712  0.00  0.00    -0.002 A 
ATOM      8  C6  OXE d   1       0.784   1.342   3.871  0.00  0.00     0.003 A 
ENDROOT
TORSDOF 0
ENDMDL
