MODEL 1
REMARK minimizedAffinity 4.71168661
REMARK minimizedRMSD -1
REMARK  0 active torsions:
REMARK  status: ('A' for Active; 'I' for Inactive)
ROOT
ATOM      1  C2' OXE d   1      -2.421   1.982   2.750  0.00  0.00     0.078 C 
ATOM      2  C1' OXE d   1      -4.675   0.779   3.912  0.00  0.00     0.078 C 
ATOM      3  C1  OXE d   1      -4.143   0.187   2.631  0.00  0.00    -0.078 A 
ATOM      4  C2  OXE d   1      -3.069   0.811   2.044  0.00  0.00    -0.078 A 
ATOM      5  C3  OXE d   1      -2.505   0.273   0.890  0.00  0.00     0.003 A 
ATOM      6  C4  OXE d   1      -3.116  -0.805   0.239  0.00  0.00    -0.002 A 
ATOM      7  C5  OXE d   1      -4.236  -1.430   0.798  0.00  0.00    -0.002 A 
ATOM      8  C6  OXE d   1      -4.735  -0.974   2.013  0.00  0.00     0.003 A 
ENDROOT
TORSDOF 0
ENDMDL
