MODEL 1
REMARK minimizedAffinity -3.621768
REMARK minimizedRMSD -1
REMARK  1 active torsions:
REMARK  status: ('A' for Active; 'I' for Inactive)
REMARK    1  A    between atoms: C1_2  and  C2_3 
ROOT
ATOM      1  C2  UNL d   1      -3.054   0.681   0.747  0.00  0.00    -0.073 A 
ATOM      2  C3  UNL d   1      -2.478  -0.586   0.600  0.00  0.00    -0.002 A 
ATOM      3  C4  UNL d   1      -1.112  -0.713   0.344  0.00  0.00     0.004 A 
ATOM      4  C5  UNL d   1      -0.308   0.423   0.239  0.00  0.00    -0.004 A 
ATOM      5  C6  UNL d   1      -0.864   1.697   0.395  0.00  0.00    -0.075 A 
ATOM      6  C7  UNL d   1      -0.015   2.928   0.283  0.00  0.00     0.076 C 
ATOM      7  C8  UNL d   1      -2.237   1.816   0.649  0.00  0.00     0.001 A 
ENDROOT
BRANCH   1   8
ATOM      8  C1  UNL d   1      -4.528   0.823   1.030  0.00  0.00     0.053 C 
ATOM      9  C   UNL d   1      -4.937   2.276   1.205  0.00  0.00     0.018 C 
ENDBRANCH   1   8
TORSDOF 1
ENDMDL
