MODEL 1
REMARK minimizedAffinity -0.0217394158
REMARK minimizedRMSD -1
REMARK  1 active torsions:
REMARK  status: ('A' for Active; 'I' for Inactive)
REMARK    1  A    between atoms: C1_2  and  C2_3 
ROOT
ATOM      1  C2  UNL d   1      -3.637   1.445   0.749  0.00  0.00    -0.073 A 
ATOM      2  C3  UNL d   1      -3.442   2.547  -0.091  0.00  0.00    -0.002 A 
ATOM      3  C4  UNL d   1      -2.158   2.891  -0.517  0.00  0.00     0.004 A 
ATOM      4  C5  UNL d   1      -1.059   2.134  -0.113  0.00  0.00    -0.004 A 
ATOM      5  C6  UNL d   1      -1.234   1.022   0.717  0.00  0.00    -0.075 A 
ATOM      6  C7  UNL d   1      -0.061   0.199   1.162  0.00  0.00     0.076 C 
ATOM      7  C8  UNL d   1      -2.526   0.685   1.142  0.00  0.00     0.001 A 
ENDROOT
BRANCH   1   8
ATOM      8  C1  UNL d   1      -5.022   1.066   1.206  0.00  0.00     0.053 C 
ATOM      9  C   UNL d   1      -6.000   2.223   1.081  0.00  0.00     0.018 C 
ENDBRANCH   1   8
TORSDOF 1
ENDMDL
