MODEL 1
REMARK minimizedAffinity 0.862037539
REMARK minimizedRMSD -1
REMARK  1 active torsions:
REMARK  status: ('A' for Active; 'I' for Inactive)
REMARK    1  A    between atoms: C1_2  and  C2_3 
ROOT
ATOM      1  C2  UNL d   1      -3.620   1.669   0.485  0.00  0.00    -0.073 A 
ATOM      2  C3  UNL d   1      -3.309   2.314  -0.717  0.00  0.00    -0.002 A 
ATOM      3  C4  UNL d   1      -2.000   2.721  -0.981  0.00  0.00     0.004 A 
ATOM      4  C5  UNL d   1      -0.990   2.481  -0.050  0.00  0.00    -0.004 A 
ATOM      5  C6  UNL d   1      -1.278   1.828   1.152  0.00  0.00    -0.075 A 
ATOM      6  C7  UNL d   1      -0.203   1.565   2.165  0.00  0.00     0.076 C 
ATOM      7  C8  UNL d   1      -2.595   1.425   1.411  0.00  0.00     0.001 A 
ENDROOT
BRANCH   1   8
ATOM      8  C1  UNL d   1      -5.030   1.222   0.772  0.00  0.00     0.053 C 
ATOM      9  C   UNL d   1      -5.998   2.394   0.834  0.00  0.00     0.018 C 
ENDBRANCH   1   8
TORSDOF 1
ENDMDL
