MODEL 1
REMARK minimizedAffinity -2.81280541
REMARK minimizedRMSD -1
REMARK  1 active torsions:
REMARK  status: ('A' for Active; 'I' for Inactive)
REMARK    1  A    between atoms: C1_2  and  C2_3 
ROOT
ATOM      1  C2  UNL d   1       0.963   1.330   0.664  0.00  0.00    -0.073 A 
ATOM      2  C3  UNL d   1       0.480   0.300   1.477  0.00  0.00    -0.002 A 
ATOM      3  C4  UNL d   1      -0.894   0.111   1.634  0.00  0.00     0.004 A 
ATOM      4  C5  UNL d   1      -1.797   0.945   0.974  0.00  0.00    -0.004 A 
ATOM      5  C6  UNL d   1      -1.333   1.973   0.147  0.00  0.00    -0.075 A 
ATOM      6  C7  UNL d   1      -2.291   2.880  -0.567  0.00  0.00     0.076 C 
ATOM      7  C8  UNL d   1       0.048   2.158  -0.002  0.00  0.00     0.001 A 
ENDROOT
BRANCH   1   8
ATOM      8  C1  UNL d   1       2.446   1.534   0.486  0.00  0.00     0.053 C 
ATOM      9  C   UNL d   1       3.256   0.732   1.493  0.00  0.00     0.018 C 
ENDBRANCH   1   8
TORSDOF 1
ENDMDL
