MODEL 1
REMARK minimizedAffinity -4.19937849
REMARK minimizedRMSD -1
REMARK  1 active torsions:
REMARK  status: ('A' for Active; 'I' for Inactive)
REMARK    1  A    between atoms: C1_2  and  C2_3 
ROOT
ATOM      1  C2  UNL d   1      -3.926   1.326   0.594  0.00  0.00    -0.073 A 
ATOM      2  C3  UNL d   1      -3.172   2.405   0.118  0.00  0.00    -0.002 A 
ATOM      3  C4  UNL d   1      -1.785   2.300   0.003  0.00  0.00     0.004 A 
ATOM      4  C5  UNL d   1      -1.140   1.114   0.356  0.00  0.00    -0.004 A 
ATOM      5  C6  UNL d   1      -1.877   0.021   0.822  0.00  0.00    -0.075 A 
ATOM      6  C7  UNL d   1      -1.198  -1.260   1.207  0.00  0.00     0.076 C 
ATOM      7  C8  UNL d   1      -3.269   0.136   0.937  0.00  0.00     0.001 A 
ENDROOT
BRANCH   1   8
ATOM      8  C1  UNL d   1      -5.424   1.433   0.713  0.00  0.00     0.053 C 
ATOM      9  C   UNL d   1      -5.865   2.828   1.130  0.00  0.00     0.018 C 
ENDBRANCH   1   8
TORSDOF 1
ENDMDL
