MODEL 1
REMARK minimizedAffinity -3.50197864
REMARK minimizedRMSD -1
REMARK  1 active torsions:
REMARK  status: ('A' for Active; 'I' for Inactive)
REMARK    1  A    between atoms: C1_2  and  C2_3 
ROOT
ATOM      1  C2  UNL d   1       0.474   1.443   1.092  0.00  0.00    -0.073 A 
ATOM      2  C3  UNL d   1       0.528   2.165  -0.105  0.00  0.00    -0.002 A 
ATOM      3  C4  UNL d   1      -0.629   2.366  -0.860  0.00  0.00     0.004 A 
ATOM      4  C5  UNL d   1      -1.850   1.854  -0.422  0.00  0.00    -0.004 A 
ATOM      5  C6  UNL d   1      -1.927   1.140   0.778  0.00  0.00    -0.075 A 
ATOM      6  C7  UNL d   1      -3.233   0.581   1.262  0.00  0.00     0.076 C 
ATOM      7  C8  UNL d   1      -0.760   0.940   1.529  0.00  0.00     0.001 A 
ENDROOT
BRANCH   1   8
ATOM      8  C1  UNL d   1       1.719   1.228   1.914  0.00  0.00     0.053 C 
ATOM      9  C   UNL d   1       2.815   0.537   1.118  0.00  0.00     0.018 C 
ENDBRANCH   1   8
TORSDOF 1
ENDMDL
