MODEL 1
REMARK minimizedAffinity -3.13625073
REMARK minimizedRMSD -1
REMARK  1 active torsions:
REMARK  status: ('A' for Active; 'I' for Inactive)
REMARK    1  A    between atoms: C1_2  and  C2_3 
ROOT
ATOM      1  C2  UNL d   1      -2.743   2.324   0.355  0.00  0.00    -0.073 A 
ATOM      2  C3  UNL d   1      -1.600   2.818  -0.284  0.00  0.00    -0.002 A 
ATOM      3  C4  UNL d   1      -0.359   2.214  -0.075  0.00  0.00     0.004 A 
ATOM      4  C5  UNL d   1      -0.249   1.108   0.768  0.00  0.00    -0.004 A 
ATOM      5  C6  UNL d   1      -1.382   0.593   1.406  0.00  0.00    -0.075 A 
ATOM      6  C7  UNL d   1      -1.281  -0.595   2.318  0.00  0.00     0.076 C 
ATOM      7  C8  UNL d   1      -2.624   1.206   1.193  0.00  0.00     0.001 A 
ENDROOT
BRANCH   1   8
ATOM      8  C1  UNL d   1      -4.086   2.968   0.127  0.00  0.00     0.053 C 
ATOM      9  C   UNL d   1      -5.199   2.242   0.866  0.00  0.00     0.018 C 
ENDBRANCH   1   8
TORSDOF 1
ENDMDL
