MODEL 1
REMARK minimizedAffinity 7.58272409
REMARK minimizedRMSD -1
REMARK  1 active torsions:
REMARK  status: ('A' for Active; 'I' for Inactive)
REMARK    1  A    between atoms: C1_2  and  C2_3 
ROOT
ATOM      1  C2  UNL d   1       1.784  -4.283   0.535  0.00  0.00    -0.073 A 
ATOM      2  C3  UNL d   1       2.793  -4.853  -0.250  0.00  0.00    -0.002 A 
ATOM      3  C4  UNL d   1       3.924  -4.111  -0.593  0.00  0.00     0.004 A 
ATOM      4  C5  UNL d   1       4.061  -2.796  -0.149  0.00  0.00    -0.004 A 
ATOM      5  C6  UNL d   1       3.070  -2.212   0.646  0.00  0.00    -0.075 A 
ATOM      6  C7  UNL d   1       3.202  -0.798   1.130  0.00  0.00     0.076 C 
ATOM      7  C8  UNL d   1       1.936  -2.963   0.984  0.00  0.00     0.001 A 
ENDROOT
BRANCH   1   8
ATOM      8  C1  UNL d   1       0.564  -5.082   0.912  0.00  0.00     0.053 C 
ATOM      9  C   UNL d   1      -0.386  -4.289   1.796  0.00  0.00     0.018 C 
ENDBRANCH   1   8
TORSDOF 1
ENDMDL
