MODEL 1
REMARK minimizedAffinity -2.2704699
REMARK minimizedRMSD -1
REMARK  1 active torsions:
REMARK  status: ('A' for Active; 'I' for Inactive)
REMARK    1  A    between atoms: C1_2  and  C2_3 
ROOT
ATOM      1  C2  UNL d   1       2.436   0.770   0.919  0.00  0.00    -0.073 A 
ATOM      2  C3  UNL d   1       2.699   0.934   2.284  0.00  0.00    -0.002 A 
ATOM      3  C4  UNL d   1       1.735   1.492   3.125  0.00  0.00     0.004 A 
ATOM      4  C5  UNL d   1       0.498   1.884   2.612  0.00  0.00    -0.004 A 
ATOM      5  C6  UNL d   1       0.213   1.716   1.253  0.00  0.00    -0.075 A 
ATOM      6  C7  UNL d   1      -1.112   2.135   0.686  0.00  0.00     0.076 C 
ATOM      7  C8  UNL d   1       1.187   1.158   0.415  0.00  0.00     0.001 A 
ENDROOT
BRANCH   1   8
ATOM      8  C1  UNL d   1       3.472   0.162   0.008  0.00  0.00     0.053 C 
ATOM      9  C   UNL d   1       3.593   0.921  -1.304  0.00  0.00     0.018 C 
ENDBRANCH   1   8
TORSDOF 1
ENDMDL
