MODEL 1
REMARK minimizedAffinity -2.54801273
REMARK minimizedRMSD -1
REMARK  1 active torsions:
REMARK  status: ('A' for Active; 'I' for Inactive)
REMARK    1  A    between atoms: C1_2  and  C2_3 
ROOT
ATOM      1  C2  UNL d   1      -3.887   1.038   0.804  0.00  0.00    -0.073 A 
ATOM      2  C3  UNL d   1      -3.411   2.050  -0.038  0.00  0.00    -0.002 A 
ATOM      3  C4  UNL d   1      -2.045   2.167  -0.297  0.00  0.00     0.004 A 
ATOM      4  C5  UNL d   1      -1.143   1.270   0.274  0.00  0.00    -0.004 A 
ATOM      5  C6  UNL d   1      -1.600   0.244   1.108  0.00  0.00    -0.075 A 
ATOM      6  C7  UNL d   1      -0.642  -0.728   1.732  0.00  0.00     0.076 C 
ATOM      7  C8  UNL d   1      -2.973   0.135   1.366  0.00  0.00     0.001 A 
ENDROOT
BRANCH   1   8
ATOM      8  C1  UNL d   1      -5.362   0.904   1.082  0.00  0.00     0.053 C 
ATOM      9  C   UNL d   1      -6.000   2.240   1.428  0.00  0.00     0.018 C 
ENDBRANCH   1   8
TORSDOF 1
ENDMDL
