MODEL 1
REMARK minimizedAffinity -2.66581082
REMARK minimizedRMSD -1
REMARK  1 active torsions:
REMARK  status: ('A' for Active; 'I' for Inactive)
REMARK    1  A    between atoms: C1_2  and  C2_3 
ROOT
ATOM      1  C2  UNL d   1      -2.201   1.618  -0.034  0.00  0.00    -0.073 A 
ATOM      2  C3  UNL d   1      -1.089   2.170  -0.680  0.00  0.00    -0.002 A 
ATOM      3  C4  UNL d   1       0.200   1.904  -0.216  0.00  0.00     0.004 A 
ATOM      4  C5  UNL d   1       0.390   1.080   0.894  0.00  0.00    -0.004 A 
ATOM      5  C6  UNL d   1      -0.708   0.510   1.546  0.00  0.00    -0.075 A 
ATOM      6  C7  UNL d   1      -0.520  -0.377   2.742  0.00  0.00     0.076 C 
ATOM      7  C8  UNL d   1      -1.999   0.784   1.075  0.00  0.00     0.001 A 
ENDROOT
BRANCH   1   8
ATOM      8  C1  UNL d   1      -3.594   1.897  -0.536  0.00  0.00     0.053 C 
ATOM      9  C   UNL d   1      -4.631   1.791   0.572  0.00  0.00     0.018 C 
ENDBRANCH   1   8
TORSDOF 1
ENDMDL
