MODEL 1
REMARK minimizedAffinity 4.59216547
REMARK minimizedRMSD -1
REMARK  0 active torsions:
REMARK  status: ('A' for Active; 'I' for Inactive)
ROOT
ATOM      1  C   UNL d   1      -0.139  -3.857  -1.560  0.00  0.00    -0.002 A 
ATOM      2  C1  UNL d   1       1.007  -4.173  -0.844  0.00  0.00     0.010 A 
ATOM      3  C2  UNL d   1       1.850  -3.166  -0.371  0.00  0.00     0.041 A 
ATOM      4  C3  UNL d   1       1.518  -1.822  -0.630  0.00  0.00    -0.075 A 
ATOM      5  S   UNL d   1       2.400  -0.421  -0.148  0.00  0.00     0.015 SA
ATOM      6  C4  UNL d   1       1.276   0.631  -0.880  0.00  0.00     0.022 A 
ATOM      7  C5  UNL d   1       0.246  -0.053  -1.482  0.00  0.00     0.026 A 
ATOM      8  C6  UNL d   1       0.368  -1.478  -1.348  0.00  0.00    -0.082 A 
ATOM      9  C7  UNL d   1      -0.465  -2.522  -1.815  0.00  0.00     0.045 A 
ENDROOT
TORSDOF 0
ENDMDL
