MODEL 1
REMARK minimizedAffinity 2.65021873
REMARK minimizedRMSD -1
REMARK  0 active torsions:
REMARK  status: ('A' for Active; 'I' for Inactive)
ROOT
ATOM      1  C   UNL d   1       1.177  -0.644  -0.236  0.00  0.00    -0.002 A 
ATOM      2  C1  UNL d   1       1.175   0.069   0.954  0.00  0.00     0.010 A 
ATOM      3  C2  UNL d   1       1.233   1.465   0.947  0.00  0.00     0.041 A 
ATOM      4  C3  UNL d   1       1.290   2.138  -0.290  0.00  0.00    -0.075 A 
ATOM      5  S   UNL d   1       1.365   3.841  -0.543  0.00  0.00     0.015 SA
ATOM      6  C4  UNL d   1       1.400   3.663  -2.238  0.00  0.00     0.022 A 
ATOM      7  C5  UNL d   1       1.356   2.343  -2.618  0.00  0.00     0.026 A 
ATOM      8  C6  UNL d   1       1.292   1.442  -1.502  0.00  0.00    -0.082 A 
ATOM      9  C7  UNL d   1       1.234   0.028  -1.461  0.00  0.00     0.045 A 
ENDROOT
TORSDOF 0
ENDMDL
