MODEL 1
REMARK minimizedAffinity -0.012268425
REMARK minimizedRMSD -1
REMARK  0 active torsions:
REMARK  status: ('A' for Active; 'I' for Inactive)
ROOT
ATOM      1  C   UNL d   1       0.998   0.100  -0.929  0.00  0.00    -0.002 A 
ATOM      2  C1  UNL d   1       1.076   0.360   0.431  0.00  0.00     0.010 A 
ATOM      3  C2  UNL d   1       1.342   1.650   0.894  0.00  0.00     0.041 A 
ATOM      4  C3  UNL d   1       1.529   2.685  -0.043  0.00  0.00    -0.075 A 
ATOM      5  S   UNL d   1       1.864   4.343   0.292  0.00  0.00     0.015 SA
ATOM      6  C4  UNL d   1       1.911   4.745  -1.364  0.00  0.00     0.022 A 
ATOM      7  C5  UNL d   1       1.678   3.653  -2.166  0.00  0.00     0.026 A 
ATOM      8  C6  UNL d   1       1.454   2.448  -1.419  0.00  0.00    -0.082 A 
ATOM      9  C7  UNL d   1       1.183   1.129  -1.856  0.00  0.00     0.045 A 
ENDROOT
TORSDOF 0
ENDMDL
