MODEL 1
REMARK minimizedAffinity 0.156327635
REMARK minimizedRMSD -1
REMARK  0 active torsions:
REMARK  status: ('A' for Active; 'I' for Inactive)
ROOT
ATOM      1  C   UNL d   1       0.956   0.025  -1.369  0.00  0.00    -0.002 A 
ATOM      2  C1  UNL d   1       0.974  -0.015   0.018  0.00  0.00     0.010 A 
ATOM      3  C2  UNL d   1       1.119   1.159   0.760  0.00  0.00     0.041 A 
ATOM      4  C3  UNL d   1       1.245   2.385   0.079  0.00  0.00    -0.075 A 
ATOM      5  S   UNL d   1       1.433   3.949   0.779  0.00  0.00     0.015 SA
ATOM      6  C4  UNL d   1       1.493   4.707  -0.746  0.00  0.00     0.022 A 
ATOM      7  C5  UNL d   1       1.375   3.804  -1.776  0.00  0.00     0.026 A 
ATOM      8  C6  UNL d   1       1.230   2.451  -1.317  0.00  0.00    -0.082 A 
ATOM      9  C7  UNL d   1       1.082   1.243  -2.042  0.00  0.00     0.045 A 
ENDROOT
TORSDOF 0
ENDMDL
