MODEL 1
REMARK minimizedAffinity 16.4368935
REMARK minimizedRMSD -1
REMARK  0 active torsions:
REMARK  status: ('A' for Active; 'I' for Inactive)
ROOT
ATOM      1  C   UNL d   1       1.150   1.377  -2.305  0.00  0.00    -0.002 A 
ATOM      2  C1  UNL d   1       1.175   0.957  -0.983  0.00  0.00     0.010 A 
ATOM      3  C2  UNL d   1       1.392   1.872   0.049  0.00  0.00     0.041 A 
ATOM      4  C3  UNL d   1       1.583   3.230  -0.273  0.00  0.00    -0.075 A 
ATOM      5  S   UNL d   1       1.864   4.529   0.825  0.00  0.00     0.015 SA
ATOM      6  C4  UNL d   1       1.957   5.673  -0.436  0.00  0.00     0.022 A 
ATOM      7  C5  UNL d   1       1.780   5.095  -1.670  0.00  0.00     0.026 A 
ATOM      8  C6  UNL d   1       1.561   3.677  -1.597  0.00  0.00    -0.082 A 
ATOM      9  C7  UNL d   1       1.340   2.725  -2.621  0.00  0.00     0.045 A 
ENDROOT
TORSDOF 0
ENDMDL
