MODEL 1
REMARK minimizedAffinity -3.99556684
REMARK minimizedRMSD -1
REMARK  0 active torsions:
REMARK  status: ('A' for Active; 'I' for Inactive)
ROOT
ATOM      1  C   UNL d   1       0.764  -0.074  -1.277  0.00  0.00    -0.002 A 
ATOM      2  C1  UNL d   1       0.658  -0.194   0.101  0.00  0.00     0.010 A 
ATOM      3  C2  UNL d   1       0.760   0.930   0.922  0.00  0.00     0.041 A 
ATOM      4  C3  UNL d   1       0.970   2.191   0.329  0.00  0.00    -0.075 A 
ATOM      5  S   UNL d   1       1.125   3.706   1.136  0.00  0.00     0.015 SA
ATOM      6  C4  UNL d   1       1.335   4.550  -0.330  0.00  0.00     0.022 A 
ATOM      7  C5  UNL d   1       1.291   3.711  -1.418  0.00  0.00     0.026 A 
ATOM      8  C6  UNL d   1       1.079   2.338  -1.056  0.00  0.00    -0.082 A 
ATOM      9  C7  UNL d   1       0.973   1.178  -1.862  0.00  0.00     0.045 A 
ENDROOT
TORSDOF 0
ENDMDL
