MODEL 1
REMARK minimizedAffinity 1.96689117
REMARK minimizedRMSD -1
REMARK  0 active torsions:
REMARK  status: ('A' for Active; 'I' for Inactive)
ROOT
ATOM      1  C   UNL d   1       1.105  -0.492  -0.540  0.00  0.00    -0.002 A 
ATOM      2  C1  UNL d   1       1.237  -0.062   0.773  0.00  0.00     0.010 A 
ATOM      3  C2  UNL d   1       1.353   1.298   1.067  0.00  0.00     0.041 A 
ATOM      4  C3  UNL d   1       1.331   2.228   0.009  0.00  0.00    -0.075 A 
ATOM      5  S   UNL d   1       1.456   3.944   0.130  0.00  0.00     0.015 SA
ATOM      6  C4  UNL d   1       1.336   4.146  -1.558  0.00  0.00     0.022 A 
ATOM      7  C5  UNL d   1       1.203   2.945  -2.214  0.00  0.00     0.026 A 
ATOM      8  C6  UNL d   1       1.198   1.820  -1.321  0.00  0.00    -0.082 A 
ATOM      9  C7  UNL d   1       1.084   0.434  -1.587  0.00  0.00     0.045 A 
ENDROOT
TORSDOF 0
ENDMDL
