MODEL 1
REMARK minimizedAffinity 5.17903137
REMARK minimizedRMSD -1
REMARK  0 active torsions:
REMARK  status: ('A' for Active; 'I' for Inactive)
ROOT
ATOM      1  C   UNL d   1       1.119  -0.477  -0.930  0.00  0.00    -0.002 A 
ATOM      2  C1  UNL d   1       0.523   0.703  -1.354  0.00  0.00     0.010 A 
ATOM      3  C2  UNL d   1       0.526   1.834  -0.535  0.00  0.00     0.041 A 
ATOM      4  C3  UNL d   1       1.147   1.760   0.727  0.00  0.00    -0.075 A 
ATOM      5  S   UNL d   1       1.274   3.019   1.898  0.00  0.00     0.015 SA
ATOM      6  C4  UNL d   1       2.124   2.021   2.988  0.00  0.00     0.022 A 
ATOM      7  C5  UNL d   1       2.314   0.755   2.487  0.00  0.00     0.026 A 
ATOM      8  C6  UNL d   1       1.754   0.584   1.176  0.00  0.00    -0.082 A 
ATOM      9  C7  UNL d   1       1.733  -0.546   0.323  0.00  0.00     0.045 A 
ENDROOT
TORSDOF 0
ENDMDL
