MODEL 1
REMARK minimizedAffinity 7.80205011
REMARK minimizedRMSD -1
REMARK  0 active torsions:
REMARK  status: ('A' for Active; 'I' for Inactive)
ROOT
ATOM      1  C   UNL d   1       1.280   1.429  -1.747  0.00  0.00    -0.002 A 
ATOM      2  C1  UNL d   1       1.213   1.257  -0.371  0.00  0.00     0.010 A 
ATOM      3  C2  UNL d   1       1.366   2.346   0.489  0.00  0.00     0.041 A 
ATOM      4  C3  UNL d   1       1.588   3.623  -0.062  0.00  0.00    -0.075 A 
ATOM      5  S   UNL d   1       1.803   5.103   0.797  0.00  0.00     0.015 SA
ATOM      6  C4  UNL d   1       1.989   5.998  -0.641  0.00  0.00     0.022 A 
ATOM      7  C5  UNL d   1       1.892   5.203  -1.759  0.00  0.00     0.026 A 
ATOM      8  C6  UNL d   1       1.659   3.822  -1.444  0.00  0.00    -0.082 A 
ATOM      9  C7  UNL d   1       1.501   2.697  -2.289  0.00  0.00     0.045 A 
ENDROOT
TORSDOF 0
ENDMDL
