MODEL 1
REMARK minimizedAffinity 3.49126863
REMARK minimizedRMSD -1
REMARK  0 active torsions:
REMARK  status: ('A' for Active; 'I' for Inactive)
ROOT
ATOM      1  C   UNL d   1       1.566  -0.112   1.004  0.00  0.00    -0.002 A 
ATOM      2  C1  UNL d   1       1.363   1.118   1.614  0.00  0.00     0.010 A 
ATOM      3  C2  UNL d   1       1.095   2.254   0.848  0.00  0.00     0.041 A 
ATOM      4  C3  UNL d   1       1.033   2.132  -0.555  0.00  0.00    -0.075 A 
ATOM      5  S   UNL d   1       0.718   3.386  -1.695  0.00  0.00     0.015 SA
ATOM      6  C4  UNL d   1       0.846   2.318  -3.017  0.00  0.00     0.022 A 
ATOM      7  C5  UNL d   1       1.122   1.032  -2.617  0.00  0.00     0.026 A 
ATOM      8  C6  UNL d   1       1.233   0.903  -1.191  0.00  0.00    -0.082 A 
ATOM      9  C7  UNL d   1       1.504  -0.230  -0.387  0.00  0.00     0.045 A 
ENDROOT
TORSDOF 0
ENDMDL
