MODEL 1
REMARK minimizedAffinity 11.562829
REMARK minimizedRMSD -1
REMARK  0 active torsions:
REMARK  status: ('A' for Active; 'I' for Inactive)
ROOT
ATOM      1  C   UNL d   1       1.579  -0.198  -0.344  0.00  0.00    -0.002 A 
ATOM      2  C1  UNL d   1       0.730  -0.410  -1.421  0.00  0.00     0.010 A 
ATOM      3  C2  UNL d   1       0.207   0.669  -2.136  0.00  0.00     0.041 A 
ATOM      4  C3  UNL d   1       0.558   1.978  -1.748  0.00  0.00    -0.075 A 
ATOM      5  S   UNL d   1       0.040   3.452  -2.478  0.00  0.00     0.015 SA
ATOM      6  C4  UNL d   1       0.935   4.397  -1.377  0.00  0.00     0.022 A 
ATOM      7  C5  UNL d   1       1.618   3.623  -0.469  0.00  0.00     0.026 A 
ATOM      8  C6  UNL d   1       1.412   2.216  -0.668  0.00  0.00    -0.082 A 
ATOM      9  C7  UNL d   1       1.925   1.101   0.038  0.00  0.00     0.045 A 
ENDROOT
TORSDOF 0
ENDMDL
