MODEL 1
REMARK minimizedAffinity 8.85925579
REMARK minimizedRMSD -1
REMARK  1 active torsions:
REMARK  status: ('A' for Active; 'I' for Inactive)
REMARK    1  A    between atoms: C3_4  and  O_7 
ROOT
ATOM      1  C   UNL d   1       1.607  -1.154   3.413  0.00  0.00    -0.033 A 
ATOM      2  C1  UNL d   1       2.974  -0.943   3.601  0.00  0.00     0.039 A 
ATOM      3  C2  UNL d   1       3.644   0.021   2.845  0.00  0.00    -0.080 A 
ATOM      4  C3  UNL d   1       2.936   0.767   1.907  0.00  0.00     0.150 A 
ATOM      5  C4  UNL d   1       1.573   0.564   1.717  0.00  0.00    -0.007 A 
ATOM      6  C5  UNL d   1       0.906  -0.400   2.472  0.00  0.00     0.039 A 
ENDROOT
BRANCH   4   7
ATOM      7  O   UNL d   1       3.547   1.716   1.142  0.00  0.00    -0.526 OA
ATOM      8  H5  UNL d   1       4.494   1.725   1.362  0.00  0.00     0.418 HD
ENDBRANCH   4   7
TORSDOF 1
ENDMDL
