MODEL 1
REMARK minimizedAffinity 11.0065699
REMARK minimizedRMSD -1
REMARK  1 active torsions:
REMARK  status: ('A' for Active; 'I' for Inactive)
REMARK    1  A    between atoms: C3_4  and  O_7 
ROOT
ATOM      1  C   UNL d   1       2.969  -4.225   4.795  0.00  0.00    -0.033 A 
ATOM      2  C1  UNL d   1       2.803  -3.049   5.529  0.00  0.00     0.039 A 
ATOM      3  C2  UNL d   1       2.376  -1.882   4.894  0.00  0.00    -0.080 A 
ATOM      4  C3  UNL d   1       2.116  -1.903   3.527  0.00  0.00     0.150 A 
ATOM      5  C4  UNL d   1       2.275  -3.072   2.790  0.00  0.00    -0.007 A 
ATOM      6  C5  UNL d   1       2.703  -4.237   3.425  0.00  0.00     0.039 A 
ENDROOT
BRANCH   4   7
ATOM      7  O   UNL d   1       1.701  -0.787   2.863  0.00  0.00    -0.526 OA
ATOM      8  H5  UNL d   1       1.663  -0.050   3.494  0.00  0.00     0.418 HD
ENDBRANCH   4   7
TORSDOF 1
ENDMDL
