MODEL 1
REMARK minimizedAffinity 7.88138151
REMARK minimizedRMSD -1
REMARK  1 active torsions:
REMARK  status: ('A' for Active; 'I' for Inactive)
REMARK    1  A    between atoms: C3_4  and  O_7 
ROOT
ATOM      1  C   UNL d   1       3.381   2.340   1.672  0.00  0.00    -0.033 A 
ATOM      2  C1  UNL d   1       3.338   2.414   3.066  0.00  0.00     0.039 A 
ATOM      3  C2  UNL d   1       3.006   1.285   3.817  0.00  0.00    -0.080 A 
ATOM      4  C3  UNL d   1       2.720   0.089   3.163  0.00  0.00     0.150 A 
ATOM      5  C4  UNL d   1       2.765   0.007   1.775  0.00  0.00    -0.007 A 
ATOM      6  C5  UNL d   1       3.096   1.136   1.027  0.00  0.00     0.039 A 
ENDROOT
BRANCH   4   7
ATOM      7  O   UNL d   1       2.387  -1.038   3.853  0.00  0.00    -0.526 OA
ATOM      8  H5  UNL d   1       2.368  -0.824   4.801  0.00  0.00     0.418 HD
ENDBRANCH   4   7
TORSDOF 1
ENDMDL
