MODEL 1
REMARK minimizedAffinity 6.49795437
REMARK minimizedRMSD -1
REMARK  1 active torsions:
REMARK  status: ('A' for Active; 'I' for Inactive)
REMARK    1  A    between atoms: C3_4  and  O_7 
ROOT
ATOM      1  C   UNL d   1       1.618  -1.036   3.723  0.00  0.00    -0.033 A 
ATOM      2  C1  UNL d   1       2.510  -2.040   3.343  0.00  0.00     0.039 A 
ATOM      3  C2  UNL d   1       3.498  -1.776   2.393  0.00  0.00    -0.080 A 
ATOM      4  C3  UNL d   1       3.583  -0.506   1.831  0.00  0.00     0.150 A 
ATOM      5  C4  UNL d   1       2.700   0.501   2.207  0.00  0.00    -0.007 A 
ATOM      6  C5  UNL d   1       1.713   0.235   3.155  0.00  0.00     0.039 A 
ENDROOT
BRANCH   4   7
ATOM      7  O   UNL d   1       4.527  -0.202   0.895  0.00  0.00    -0.526 OA
ATOM      8  H5  UNL d   1       5.048  -1.002   0.713  0.00  0.00     0.418 HD
ENDBRANCH   4   7
TORSDOF 1
ENDMDL
