MODEL 1
REMARK minimizedAffinity 5.61254072
REMARK minimizedRMSD -1
REMARK  1 active torsions:
REMARK  status: ('A' for Active; 'I' for Inactive)
REMARK    1  A    between atoms: C3_4  and  O_7 
ROOT
ATOM      1  C   UNL d   1       3.583  -3.507   4.641  0.00  0.00    -0.033 A 
ATOM      2  C1  UNL d   1       2.615  -2.501   4.644  0.00  0.00     0.039 A 
ATOM      3  C2  UNL d   1       1.313  -2.784   5.061  0.00  0.00    -0.080 A 
ATOM      4  C3  UNL d   1       0.993  -4.075   5.473  0.00  0.00     0.150 A 
ATOM      5  C4  UNL d   1       1.954  -5.081   5.476  0.00  0.00    -0.007 A 
ATOM      6  C5  UNL d   1       3.253  -4.796   5.058  0.00  0.00     0.039 A 
ENDROOT
BRANCH   4   7
ATOM      7  O   UNL d   1      -0.265  -4.401   5.884  0.00  0.00    -0.526 OA
ATOM      8  H5  UNL d   1      -0.829  -3.614   5.802  0.00  0.00     0.418 HD
ENDBRANCH   4   7
TORSDOF 1
ENDMDL
