MODEL 1
REMARK minimizedAffinity 12.2691813
REMARK minimizedRMSD -1
REMARK  1 active torsions:
REMARK  status: ('A' for Active; 'I' for Inactive)
REMARK    1  A    between atoms: C1_2  and  C2_3 
ROOT
ATOM      1  C2  UNL d   1      -0.939  -1.869   2.483  0.00  0.00    -0.081 A 
ATOM      2  C3  UNL d   1      -1.112  -3.092   3.143  0.00  0.00     0.006 A 
ATOM      3  C4  UNL d   1      -0.064  -3.659   3.871  0.00  0.00     0.002 A 
ATOM      4  C5  UNL d   1       1.172  -3.009   3.958  0.00  0.00    -0.080 A 
ATOM      5  C6  UNL d   1       2.297  -3.592   4.762  0.00  0.00     0.076 C 
ATOM      6  C7  UNL d   1       1.351  -1.796   3.285  0.00  0.00     0.002 A 
ATOM      7  C8  UNL d   1       0.304  -1.229   2.556  0.00  0.00     0.006 A 
ENDROOT
BRANCH   1   8
ATOM      8  C1  UNL d   1      -2.087  -1.223   1.751  0.00  0.00     0.054 C 
ATOM      9  C   UNL d   1      -3.405  -1.914   2.070  0.00  0.00     0.018 C 
ENDBRANCH   1   8
TORSDOF 1
ENDMDL
