MODEL 1
REMARK minimizedAffinity 18.5149555
REMARK minimizedRMSD -1
REMARK  1 active torsions:
REMARK  status: ('A' for Active; 'I' for Inactive)
REMARK    1  A    between atoms: C1_2  and  C2_3 
ROOT
ATOM      1  C2  UNL d   1       0.009  -0.664   2.226  0.00  0.00    -0.081 A 
ATOM      2  C3  UNL d   1       0.661  -1.360   1.201  0.00  0.00     0.006 A 
ATOM      3  C4  UNL d   1      -0.074  -2.001   0.202  0.00  0.00     0.002 A 
ATOM      4  C5  UNL d   1      -1.472  -1.950   0.206  0.00  0.00    -0.080 A 
ATOM      5  C6  UNL d   1      -2.273  -2.609  -0.878  0.00  0.00     0.076 C 
ATOM      6  C7  UNL d   1      -2.124  -1.270   1.240  0.00  0.00     0.002 A 
ATOM      7  C8  UNL d   1      -1.389  -0.629   2.240  0.00  0.00     0.006 A 
ENDROOT
BRANCH   1   8
ATOM      8  C1  UNL d   1       0.801   0.083   3.269  0.00  0.00     0.054 C 
ATOM      9  C   UNL d   1       0.279   1.502   3.449  0.00  0.00     0.018 C 
ENDBRANCH   1   8
TORSDOF 1
ENDMDL
