MODEL 1
REMARK minimizedAffinity 11.2695312
REMARK minimizedRMSD -1
REMARK  1 active torsions:
REMARK  status: ('A' for Active; 'I' for Inactive)
REMARK    1  A    between atoms: C1_2  and  C2_3 
ROOT
ATOM      1  C2  UNL d   1       1.914  -0.234   3.252  0.00  0.00    -0.081 A 
ATOM      2  C3  UNL d   1       1.094   0.700   2.608  0.00  0.00     0.006 A 
ATOM      3  C4  UNL d   1      -0.218   0.369   2.261  0.00  0.00     0.002 A 
ATOM      4  C5  UNL d   1      -0.734  -0.896   2.560  0.00  0.00    -0.080 A 
ATOM      5  C6  UNL d   1      -2.151  -1.253   2.221  0.00  0.00     0.076 C 
ATOM      6  C7  UNL d   1       0.091  -1.835   3.189  0.00  0.00     0.002 A 
ATOM      7  C8  UNL d   1       1.403  -1.506   3.534  0.00  0.00     0.006 A 
ENDROOT
BRANCH   1   8
ATOM      8  C1  UNL d   1       3.309   0.140   3.685  0.00  0.00     0.054 C 
ATOM      9  C   UNL d   1       3.795   1.389   2.963  0.00  0.00     0.018 C 
ENDBRANCH   1   8
TORSDOF 1
ENDMDL
