MODEL 1
REMARK minimizedAffinity 8.48574638
REMARK minimizedRMSD -1
REMARK  1 active torsions:
REMARK  status: ('A' for Active; 'I' for Inactive)
REMARK    1  A    between atoms: C1_2  and  C2_3 
ROOT
ATOM      1  C2  UNL d   1      -0.983  -0.460   2.160  0.00  0.00    -0.081 A 
ATOM      2  C3  UNL d   1      -0.603   0.841   2.511  0.00  0.00     0.006 A 
ATOM      3  C4  UNL d   1       0.702   1.110   2.930  0.00  0.00     0.002 A 
ATOM      4  C5  UNL d   1       1.651   0.084   2.998  0.00  0.00    -0.080 A 
ATOM      5  C6  UNL d   1       3.063   0.365   3.418  0.00  0.00     0.076 C 
ATOM      6  C7  UNL d   1       1.267  -1.219   2.665  0.00  0.00     0.002 A 
ATOM      7  C8  UNL d   1      -0.038  -1.489   2.246  0.00  0.00     0.006 A 
ENDROOT
BRANCH   1   8
ATOM      8  C1  UNL d   1      -2.371  -0.742   1.646  0.00  0.00     0.054 C 
ATOM      9  C   UNL d   1      -3.090   0.544   1.262  0.00  0.00     0.018 C 
ENDBRANCH   1   8
TORSDOF 1
ENDMDL
