MODEL 1
REMARK minimizedAffinity 13.6525536
REMARK minimizedRMSD -1
REMARK  1 active torsions:
REMARK  status: ('A' for Active; 'I' for Inactive)
REMARK    1  A    between atoms: C1_2  and  C2_3 
ROOT
ATOM      1  C2  UNL d   1      -0.526  -2.149  -0.944  0.00  0.00    -0.081 A 
ATOM      2  C3  UNL d   1      -1.661  -1.867  -0.175  0.00  0.00     0.006 A 
ATOM      3  C4  UNL d   1      -1.532  -1.314   1.101  0.00  0.00     0.002 A 
ATOM      4  C5  UNL d   1      -0.267  -1.028   1.626  0.00  0.00    -0.080 A 
ATOM      5  C6  UNL d   1      -0.115  -0.407   2.983  0.00  0.00     0.076 C 
ATOM      6  C7  UNL d   1       0.868  -1.327   0.865  0.00  0.00     0.002 A 
ATOM      7  C8  UNL d   1       0.740  -1.880  -0.411  0.00  0.00     0.006 A 
ENDROOT
BRANCH   1   8
ATOM      8  C1  UNL d   1      -0.664  -2.685  -2.347  0.00  0.00     0.054 C 
ATOM      9  C   UNL d   1      -0.222  -1.657  -3.378  0.00  0.00     0.018 C 
ENDBRANCH   1   8
TORSDOF 1
ENDMDL
