MODEL 1
REMARK minimizedAffinity 17.10956
REMARK minimizedRMSD -1
REMARK  1 active torsions:
REMARK  status: ('A' for Active; 'I' for Inactive)
REMARK    1  A    between atoms: C1_2  and  C2_3 
ROOT
ATOM      1  C2  UNL d   1      -1.626  -1.225   2.378  0.00  0.00    -0.081 A 
ATOM      2  C3  UNL d   1      -1.459   0.165   2.415  0.00  0.00     0.006 A 
ATOM      3  C4  UNL d   1      -0.225   0.721   2.759  0.00  0.00     0.002 A 
ATOM      4  C5  UNL d   1       0.865  -0.103   3.063  0.00  0.00    -0.080 A 
ATOM      5  C6  UNL d   1       2.204   0.481   3.404  0.00  0.00     0.076 C 
ATOM      6  C7  UNL d   1       0.694  -1.491   3.042  0.00  0.00     0.002 A 
ATOM      7  C8  UNL d   1      -0.541  -2.047   2.700  0.00  0.00     0.006 A 
ENDROOT
BRANCH   1   8
ATOM      8  C1  UNL d   1      -2.938  -1.828   1.945  0.00  0.00     0.054 C 
ATOM      9  C   UNL d   1      -3.921  -1.904   3.104  0.00  0.00     0.018 C 
ENDBRANCH   1   8
TORSDOF 1
ENDMDL
