MODEL 1
REMARK minimizedAffinity 13.3305855
REMARK minimizedRMSD -1
REMARK  1 active torsions:
REMARK  status: ('A' for Active; 'I' for Inactive)
REMARK    1  A    between atoms: C1_2  and  C2_3 
ROOT
ATOM      1  C2  UNL d   1      -1.709  -0.375   2.909  0.00  0.00    -0.081 A 
ATOM      2  C3  UNL d   1      -1.147   0.899   2.768  0.00  0.00     0.006 A 
ATOM      3  C4  UNL d   1       0.240   1.064   2.757  0.00  0.00     0.002 A 
ATOM      4  C5  UNL d   1       1.088  -0.043   2.878  0.00  0.00    -0.080 A 
ATOM      5  C6  UNL d   1       2.578   0.117   2.837  0.00  0.00     0.076 C 
ATOM      6  C7  UNL d   1       0.526  -1.314   3.037  0.00  0.00     0.002 A 
ATOM      7  C8  UNL d   1      -0.861  -1.479   3.049  0.00  0.00     0.006 A 
ENDROOT
BRANCH   1   8
ATOM      8  C1  UNL d   1      -3.204  -0.563   2.857  0.00  0.00     0.054 C 
ATOM      9  C   UNL d   1      -3.585  -2.023   3.062  0.00  0.00     0.018 C 
ENDBRANCH   1   8
TORSDOF 1
ENDMDL
