MODEL 1
REMARK minimizedAffinity 13.519557
REMARK minimizedRMSD -1
REMARK  1 active torsions:
REMARK  status: ('A' for Active; 'I' for Inactive)
REMARK    1  A    between atoms: C1_2  and  C2_3 
ROOT
ATOM      1  C2  UNL d   1      -1.544  -0.716   2.365  0.00  0.00    -0.081 A 
ATOM      2  C3  UNL d   1      -1.206   0.379   3.170  0.00  0.00     0.006 A 
ATOM      3  C4  UNL d   1       0.133   0.692   3.415  0.00  0.00     0.002 A 
ATOM      4  C5  UNL d   1       1.156  -0.079   2.852  0.00  0.00    -0.080 A 
ATOM      5  C6  UNL d   1       2.598   0.264   3.081  0.00  0.00     0.076 C 
ATOM      6  C7  UNL d   1       0.819  -1.183   2.061  0.00  0.00     0.002 A 
ATOM      7  C8  UNL d   1      -0.520  -1.497   1.817  0.00  0.00     0.006 A 
ENDROOT
BRANCH   1   8
ATOM      8  C1  UNL d   1      -2.986  -1.017   2.047  0.00  0.00     0.054 C 
ATOM      9  C   UNL d   1      -3.382  -2.404   2.533  0.00  0.00     0.018 C 
ENDBRANCH   1   8
TORSDOF 1
ENDMDL
