MODEL 1
REMARK minimizedAffinity 0.0331207141
REMARK minimizedRMSD -1
REMARK  0 active torsions:
REMARK  status: ('A' for Active; 'I' for Inactive)
ROOT
ATOM      1  C1  DEN d   1      -1.869   0.048   2.962  0.00  0.00     0.130 A 
ATOM      2  C2  DEN d   1      -0.772  -0.893   2.752  0.00  0.00    -0.031 A 
ATOM      3  C3  DEN d   1      -0.024  -0.462   1.554  0.00  0.00     0.027 A 
ATOM      4  C4  DEN d   1      -0.452   1.563   0.015  0.00  0.00     0.027 A 
ATOM      5  C5  DEN d   1      -1.274   2.645  -0.214  0.00  0.00    -0.003 A 
ATOM      6  C6  DEN d   1      -2.363   2.914   0.572  0.00  0.00     0.001 A 
ATOM      7  C7  DEN d   1      -2.633   2.118   1.653  0.00  0.00     0.017 A 
ATOM      8  C8  DEN d   1      -1.813   1.022   1.887  0.00  0.00    -0.094 A 
ATOM      9  C9  DEN d   1      -0.710   0.773   1.088  0.00  0.00    -0.072 A 
ENDROOT
TORSDOF 0
ENDMDL
