MODEL 1
REMARK minimizedAffinity 10.3200502
REMARK minimizedRMSD -1
REMARK  0 active torsions:
REMARK  status: ('A' for Active; 'I' for Inactive)
ROOT
ATOM      1  C1  DEN d   1      -0.941   2.125  -1.780  0.00  0.00     0.130 A 
ATOM      2  C2  DEN d   1       0.373   1.490  -1.830  0.00  0.00    -0.031 A 
ATOM      3  C3  DEN d   1       0.733   1.077  -0.458  0.00  0.00     0.027 A 
ATOM      4  C4  DEN d   1      -0.612   1.354   1.725  0.00  0.00     0.027 A 
ATOM      5  C5  DEN d   1      -1.778   1.843   2.270  0.00  0.00    -0.003 A 
ATOM      6  C6  DEN d   1      -2.724   2.486   1.516  0.00  0.00     0.001 A 
ATOM      7  C7  DEN d   1      -2.540   2.617   0.165  0.00  0.00     0.017 A 
ATOM      8  C8  DEN d   1      -1.364   2.132  -0.391  0.00  0.00    -0.094 A 
ATOM      9  C9  DEN d   1      -0.426   1.474   0.386  0.00  0.00    -0.072 A 
ENDROOT
TORSDOF 0
ENDMDL
