MODEL 1
REMARK minimizedAffinity 7.17032814
REMARK minimizedRMSD -1
REMARK  0 active torsions:
REMARK  status: ('A' for Active; 'I' for Inactive)
ROOT
ATOM      1  C1  DEN d   1       0.920   1.043  -0.027  0.00  0.00     0.130 A 
ATOM      2  C2  DEN d   1       0.598   1.761  -1.258  0.00  0.00    -0.031 A 
ATOM      3  C3  DEN d   1      -0.693   2.451  -1.059  0.00  0.00     0.027 A 
ATOM      4  C4  DEN d   1      -2.213   2.481   1.024  0.00  0.00     0.027 A 
ATOM      5  C5  DEN d   1      -2.365   2.011   2.310  0.00  0.00    -0.003 A 
ATOM      6  C6  DEN d   1      -1.458   1.164   2.889  0.00  0.00     0.001 A 
ATOM      7  C7  DEN d   1      -0.333   0.798   2.198  0.00  0.00     0.017 A 
ATOM      8  C8  DEN d   1      -0.177   1.262   0.899  0.00  0.00    -0.094 A 
ATOM      9  C9  DEN d   1      -1.099   2.127   0.335  0.00  0.00    -0.072 A 
ENDROOT
TORSDOF 0
ENDMDL
