MODEL 1
REMARK minimizedAffinity -1.52128506
REMARK minimizedRMSD -1
REMARK  0 active torsions:
REMARK  status: ('A' for Active; 'I' for Inactive)
ROOT
ATOM      1  C1  DEN d   1      -1.655   2.443   0.110  0.00  0.00     0.130 A 
ATOM      2  C2  DEN d   1      -2.325   2.427   1.408  0.00  0.00    -0.031 A 
ATOM      3  C3  DEN d   1      -1.612   1.469   2.277  0.00  0.00     0.027 A 
ATOM      4  C4  DEN d   1       0.455   0.022   1.745  0.00  0.00     0.027 A 
ATOM      5  C5  DEN d   1       1.369  -0.315   0.770  0.00  0.00    -0.003 A 
ATOM      6  C6  DEN d   1       1.318   0.214  -0.492  0.00  0.00     0.001 A 
ATOM      7  C7  DEN d   1       0.360   1.144  -0.801  0.00  0.00     0.017 A 
ATOM      8  C8  DEN d   1      -0.569   1.483   0.174  0.00  0.00    -0.094 A 
ATOM      9  C9  DEN d   1      -0.493   0.946   1.448  0.00  0.00    -0.072 A 
ENDROOT
TORSDOF 0
ENDMDL
