MODEL 1
REMARK minimizedAffinity -1.61457086
REMARK minimizedRMSD -1
REMARK  0 active torsions:
REMARK  status: ('A' for Active; 'I' for Inactive)
ROOT
ATOM      1  C1  DEN d   1       0.728   1.411  -0.918  0.00  0.00     0.130 A 
ATOM      2  C2  DEN d   1       0.123   2.380  -1.828  0.00  0.00    -0.031 A 
ATOM      3  C3  DEN d   1      -1.133   2.859  -1.216  0.00  0.00     0.027 A 
ATOM      4  C4  DEN d   1      -2.192   2.199   1.042  0.00  0.00     0.027 A 
ATOM      5  C5  DEN d   1      -2.052   1.404   2.158  0.00  0.00    -0.003 A 
ATOM      6  C6  DEN d   1      -1.002   0.538   2.310  0.00  0.00     0.001 A 
ATOM      7  C7  DEN d   1      -0.026   0.479   1.350  0.00  0.00     0.017 A 
ATOM      8  C8  DEN d   1      -0.164   1.272   0.219  0.00  0.00    -0.094 A 
ATOM      9  C9  DEN d   1      -1.227   2.150   0.089  0.00  0.00    -0.072 A 
ENDROOT
TORSDOF 0
ENDMDL
