MODEL 1
REMARK minimizedAffinity 7.50400543
REMARK minimizedRMSD -1
REMARK  0 active torsions:
REMARK  status: ('A' for Active; 'I' for Inactive)
ROOT
ATOM      1  C1  DEN d   1       0.522   1.723  -0.662  0.00  0.00     0.130 A 
ATOM      2  C2  DEN d   1       0.011   2.151  -1.961  0.00  0.00    -0.031 A 
ATOM      3  C3  DEN d   1      -1.361   2.661  -1.767  0.00  0.00     0.027 A 
ATOM      4  C4  DEN d   1      -2.735   2.835   0.408  0.00  0.00     0.027 A 
ATOM      5  C5  DEN d   1      -2.729   2.586   1.763  0.00  0.00    -0.003 A 
ATOM      6  C6  DEN d   1      -1.660   2.005   2.394  0.00  0.00     0.001 A 
ATOM      7  C7  DEN d   1      -0.535   1.695   1.676  0.00  0.00     0.017 A 
ATOM      8  C8  DEN d   1      -0.537   1.937   0.309  0.00  0.00    -0.094 A 
ATOM      9  C9  DEN d   1      -1.622   2.536  -0.308  0.00  0.00    -0.072 A 
ENDROOT
TORSDOF 0
ENDMDL
