MODEL 1
REMARK minimizedAffinity 12.1856031
REMARK minimizedRMSD -1
REMARK  0 active torsions:
REMARK  status: ('A' for Active; 'I' for Inactive)
ROOT
ATOM      1  C1  DEN d   1       2.402  -3.000  -4.916  0.00  0.00     0.130 A 
ATOM      2  C2  DEN d   1       2.726  -1.766  -5.626  0.00  0.00    -0.031 A 
ATOM      3  C3  DEN d   1       4.127  -1.416  -5.317  0.00  0.00     0.027 A 
ATOM      4  C4  DEN d   1       5.818  -2.662  -3.821  0.00  0.00     0.027 A 
ATOM      5  C5  DEN d   1       6.000  -3.752  -2.998  0.00  0.00    -0.003 A 
ATOM      6  C6  DEN d   1       4.993  -4.641  -2.733  0.00  0.00     0.001 A 
ATOM      7  C7  DEN d   1       3.771  -4.482  -3.331  0.00  0.00     0.017 A 
ATOM      8  C8  DEN d   1       3.578  -3.382  -4.156  0.00  0.00    -0.094 A 
ATOM      9  C9  DEN d   1       4.612  -2.500  -4.421  0.00  0.00    -0.072 A 
ENDROOT
TORSDOF 0
ENDMDL
