MODEL 1
REMARK minimizedAffinity 11.1593237
REMARK minimizedRMSD -1
REMARK  0 active torsions:
REMARK  status: ('A' for Active; 'I' for Inactive)
ROOT
ATOM      1  C1  DEN d   1      -0.703   2.814  -1.389  0.00  0.00     0.130 A 
ATOM      2  C2  DEN d   1       0.751   2.947  -1.421  0.00  0.00    -0.031 A 
ATOM      3  C3  DEN d   1       1.316   1.666  -1.892  0.00  0.00     0.027 A 
ATOM      4  C4  DEN d   1       0.086  -0.496  -2.575  0.00  0.00     0.027 A 
ATOM      5  C5  DEN d   1      -1.148  -1.093  -2.702  0.00  0.00    -0.003 A 
ATOM      6  C6  DEN d   1      -2.310  -0.446  -2.371  0.00  0.00     0.001 A 
ATOM      7  C7  DEN d   1      -2.263   0.853  -1.939  0.00  0.00     0.017 A 
ATOM      8  C8  DEN d   1      -1.022   1.459  -1.801  0.00  0.00    -0.094 A 
ATOM      9  C9  DEN d   1       0.140   0.792  -2.152  0.00  0.00    -0.072 A 
ENDROOT
TORSDOF 0
ENDMDL
