MODEL 1
REMARK minimizedAffinity 8.77033615
REMARK minimizedRMSD -1
REMARK  0 active torsions:
REMARK  status: ('A' for Active; 'I' for Inactive)
ROOT
ATOM      1  C1  DEN d   1       4.789  -3.807  -2.479  0.00  0.00     0.130 A 
ATOM      2  C2  DEN d   1       4.539  -5.213  -2.782  0.00  0.00    -0.031 A 
ATOM      3  C3  DEN d   1       4.822  -6.000  -1.565  0.00  0.00     0.027 A 
ATOM      4  C4  DEN d   1       5.616  -5.181   0.749  0.00  0.00     0.027 A 
ATOM      5  C5  DEN d   1       5.977  -4.074   1.484  0.00  0.00    -0.003 A 
ATOM      6  C6  DEN d   1       5.999  -2.815   0.946  0.00  0.00     0.001 A 
ATOM      7  C7  DEN d   1       5.611  -2.626  -0.355  0.00  0.00     0.017 A 
ATOM      8  C8  DEN d   1       5.254  -3.738  -1.105  0.00  0.00    -0.094 A 
ATOM      9  C9  DEN d   1       5.225  -5.001  -0.539  0.00  0.00    -0.072 A 
ENDROOT
TORSDOF 0
ENDMDL
