MODEL 1
REMARK minimizedAffinity 11.3625641
REMARK minimizedRMSD -1
REMARK  0 active torsions:
REMARK  status: ('A' for Active; 'I' for Inactive)
ROOT
ATOM      1  C1  DEN d   1       0.527   3.437   1.827  0.00  0.00     0.130 A 
ATOM      2  C2  DEN d   1       1.245   2.722   2.878  0.00  0.00    -0.031 A 
ATOM      3  C3  DEN d   1       0.361   1.657   3.392  0.00  0.00     0.027 A 
ATOM      4  C4  DEN d   1      -2.037   1.046   2.664  0.00  0.00     0.027 A 
ATOM      5  C5  DEN d   1      -3.071   1.377   1.817  0.00  0.00    -0.003 A 
ATOM      6  C6  DEN d   1      -2.992   2.431   0.945  0.00  0.00     0.001 A 
ATOM      7  C7  DEN d   1      -1.837   3.163   0.868  0.00  0.00     0.017 A 
ATOM      8  C8  DEN d   1      -0.793   2.840   1.724  0.00  0.00    -0.094 A 
ATOM      9  C9  DEN d   1      -0.887   1.764   2.590  0.00  0.00    -0.072 A 
ENDROOT
TORSDOF 0
ENDMDL
