MODEL 1
REMARK minimizedAffinity 11.0056391
REMARK minimizedRMSD -1
REMARK  0 active torsions:
REMARK  status: ('A' for Active; 'I' for Inactive)
ROOT
ATOM      1  C1  DEN d   1      -1.821   3.650   1.122  0.00  0.00     0.130 A 
ATOM      2  C2  DEN d   1      -3.150   3.113   0.842  0.00  0.00    -0.031 A 
ATOM      3  C3  DEN d   1      -3.241   1.775   1.461  0.00  0.00     0.027 A 
ATOM      4  C4  DEN d   1      -1.464   0.492   2.820  0.00  0.00     0.027 A 
ATOM      5  C5  DEN d   1      -0.178   0.537   3.311  0.00  0.00    -0.003 A 
ATOM      6  C6  DEN d   1       0.655   1.599   3.079  0.00  0.00     0.001 A 
ATOM      7  C7  DEN d   1       0.197   2.680   2.375  0.00  0.00     0.017 A 
ATOM      8  C8  DEN d   1      -1.097   2.640   1.871  0.00  0.00    -0.094 A 
ATOM      9  C9  DEN d   1      -1.928   1.562   2.127  0.00  0.00    -0.072 A 
ENDROOT
TORSDOF 0
ENDMDL
