MODEL 1
REMARK minimizedAffinity 4.13273573
REMARK minimizedRMSD -1
REMARK  0 active torsions:
REMARK  status: ('A' for Active; 'I' for Inactive)
ROOT
ATOM      1  C1  DEN d   1       4.499  -4.982   1.589  0.00  0.00     0.130 A 
ATOM      2  C2  DEN d   1       3.048  -5.134   1.646  0.00  0.00    -0.031 A 
ATOM      3  C3  DEN d   1       2.438  -3.860   1.213  0.00  0.00     0.027 A 
ATOM      4  C4  DEN d   1       3.595  -1.681   0.460  0.00  0.00     0.027 A 
ATOM      5  C5  DEN d   1       4.812  -1.068   0.259  0.00  0.00    -0.003 A 
ATOM      6  C6  DEN d   1       6.000  -1.699   0.517  0.00  0.00     0.001 A 
ATOM      7  C7  DEN d   1       5.997  -2.999   0.949  0.00  0.00     0.017 A 
ATOM      8  C8  DEN d   1       4.774  -3.622   1.161  0.00  0.00    -0.094 A 
ATOM      9  C9  DEN d   1       3.584  -2.970   0.883  0.00  0.00    -0.072 A 
ENDROOT
TORSDOF 0
ENDMDL
