MODEL 1
REMARK minimizedAffinity 5.08704758
REMARK minimizedRMSD -1
REMARK  0 active torsions:
REMARK  status: ('A' for Active; 'I' for Inactive)
ROOT
ATOM      1  C1  DEN d   1      -0.076   4.912   0.620  0.00  0.00     0.130 A 
ATOM      2  C2  DEN d   1       0.730   5.689  -0.318  0.00  0.00    -0.031 A 
ATOM      3  C3  DEN d   1       1.223   4.772  -1.365  0.00  0.00     0.027 A 
ATOM      4  C4  DEN d   1       0.815   2.238  -1.626  0.00  0.00     0.027 A 
ATOM      5  C5  DEN d   1       0.204   1.136  -1.070  0.00  0.00    -0.003 A 
ATOM      6  C6  DEN d   1      -0.509   1.208   0.098  0.00  0.00     0.001 A 
ATOM      7  C7  DEN d   1      -0.666   2.417   0.723  0.00  0.00     0.017 A 
ATOM      8  C8  DEN d   1      -0.047   3.531   0.172  0.00  0.00    -0.094 A 
ATOM      9  C9  DEN d   1       0.659   3.440  -1.016  0.00  0.00    -0.072 A 
ENDROOT
TORSDOF 0
ENDMDL
