MODEL 1
REMARK minimizedAffinity 12.3765955
REMARK minimizedRMSD -1
REMARK  1 active torsions:
REMARK  status: ('A' for Active; 'I' for Inactive)
REMARK    1  A    between atoms: C1_2  and  C2_3 
ROOT
ATOM      1  C2  UNL d   1       2.628   4.761  -5.603  0.00  0.00    -0.073 A 
ATOM      2  C3  UNL d   1       3.346   5.895  -5.998  0.00  0.00    -0.002 A 
ATOM      3  C4  UNL d   1       4.709   5.999  -5.716  0.00  0.00     0.004 A 
ATOM      4  C5  UNL d   1       5.367   4.971  -5.042  0.00  0.00    -0.004 A 
ATOM      5  C6  UNL d   1       4.669   3.825  -4.649  0.00  0.00    -0.075 A 
ATOM      6  C7  UNL d   1       5.362   2.710  -3.922  0.00  0.00     0.076 C 
ATOM      7  C8  UNL d   1       3.300   3.728  -4.934  0.00  0.00     0.001 A 
ENDROOT
BRANCH   1   8
ATOM      8  C1  UNL d   1       1.158   4.641  -5.911  0.00  0.00     0.053 C 
ATOM      9  C   UNL d   1       0.480   5.999  -5.997  0.00  0.00     0.018 C 
ENDBRANCH   1   8
TORSDOF 1
ENDMDL
