MODEL 1
REMARK minimizedAffinity 6.03932047
REMARK minimizedRMSD -1
REMARK  1 active torsions:
REMARK  status: ('A' for Active; 'I' for Inactive)
REMARK    1  A    between atoms: C1_2  and  C2_3 
ROOT
ATOM      1  C2  UNL d   1       1.560  -1.908   1.453  0.00  0.00    -0.073 A 
ATOM      2  C3  UNL d   1       2.015  -0.890   2.299  0.00  0.00    -0.002 A 
ATOM      3  C4  UNL d   1       1.160  -0.327   3.247  0.00  0.00     0.004 A 
ATOM      4  C5  UNL d   1      -0.154  -0.779   3.364  0.00  0.00    -0.004 A 
ATOM      5  C6  UNL d   1      -0.624  -1.804   2.536  0.00  0.00    -0.075 A 
ATOM      6  C7  UNL d   1      -2.035  -2.300   2.648  0.00  0.00     0.076 C 
ATOM      7  C8  UNL d   1       0.240  -2.362   1.584  0.00  0.00     0.001 A 
ENDROOT
BRANCH   1   8
ATOM      8  C1  UNL d   1       2.481  -2.523   0.432  0.00  0.00     0.053 C 
ATOM      9  C   UNL d   1       3.079  -3.834   0.919  0.00  0.00     0.018 C 
ENDBRANCH   1   8
TORSDOF 1
ENDMDL
