MODEL 1
REMARK minimizedAffinity 10.0130529
REMARK minimizedRMSD -1
REMARK  1 active torsions:
REMARK  status: ('A' for Active; 'I' for Inactive)
REMARK    1  A    between atoms: C1_2  and  C2_3 
ROOT
ATOM      1  C2  UNL d   1       3.686  -2.937   2.846  0.00  0.00    -0.073 A 
ATOM      2  C3  UNL d   1       3.805  -3.465   1.556  0.00  0.00    -0.002 A 
ATOM      3  C4  UNL d   1       2.838  -3.186   0.589  0.00  0.00     0.004 A 
ATOM      4  C5  UNL d   1       1.748  -2.374   0.900  0.00  0.00    -0.004 A 
ATOM      5  C6  UNL d   1       1.618  -1.828   2.181  0.00  0.00    -0.075 A 
ATOM      6  C7  UNL d   1       0.450  -0.954   2.532  0.00  0.00     0.076 C 
ATOM      7  C8  UNL d   1       2.592  -2.114   3.147  0.00  0.00     0.001 A 
ENDROOT
BRANCH   1   8
ATOM      8  C1  UNL d   1       4.731  -3.230   3.892  0.00  0.00     0.053 C 
ATOM      9  C   UNL d   1       4.589  -2.329   5.108  0.00  0.00     0.018 C 
ENDBRANCH   1   8
TORSDOF 1
ENDMDL
