MODEL 1
REMARK minimizedAffinity 8.83430099
REMARK minimizedRMSD -1
REMARK  1 active torsions:
REMARK  status: ('A' for Active; 'I' for Inactive)
REMARK    1  A    between atoms: C1_2  and  C2_3 
ROOT
ATOM      1  C2  UNL d   1       3.289  -2.516   2.507  0.00  0.00    -0.073 A 
ATOM      2  C3  UNL d   1       2.326  -1.589   2.092  0.00  0.00    -0.002 A 
ATOM      3  C4  UNL d   1       1.535  -1.849   0.972  0.00  0.00     0.004 A 
ATOM      4  C5  UNL d   1       1.694  -3.038   0.260  0.00  0.00    -0.004 A 
ATOM      5  C6  UNL d   1       2.643  -3.981   0.666  0.00  0.00    -0.075 A 
ATOM      6  C7  UNL d   1       2.828  -5.264  -0.090  0.00  0.00     0.076 C 
ATOM      7  C8  UNL d   1       3.435  -3.712   1.791  0.00  0.00     0.001 A 
ENDROOT
BRANCH   1   8
ATOM      8  C1  UNL d   1       4.141  -2.243   3.720  0.00  0.00     0.053 C 
ATOM      9  C   UNL d   1       4.103  -3.393   4.713  0.00  0.00     0.018 C 
ENDBRANCH   1   8
TORSDOF 1
ENDMDL
