MODEL 1
REMARK minimizedAffinity 9.16853237
REMARK minimizedRMSD -1
REMARK  1 active torsions:
REMARK  status: ('A' for Active; 'I' for Inactive)
REMARK    1  A    between atoms: C1_2  and  C2_3 
ROOT
ATOM      1  C2  UNL d   1       3.364  -3.180   3.073  0.00  0.00    -0.073 A 
ATOM      2  C3  UNL d   1       2.549  -2.043   3.043  0.00  0.00    -0.002 A 
ATOM      3  C4  UNL d   1       1.791  -1.750   1.909  0.00  0.00     0.004 A 
ATOM      4  C5  UNL d   1       1.835  -2.592   0.797  0.00  0.00    -0.004 A 
ATOM      5  C6  UNL d   1       2.636  -3.739   0.813  0.00  0.00    -0.075 A 
ATOM      6  C7  UNL d   1       2.696  -4.653  -0.375  0.00  0.00     0.076 C 
ATOM      7  C8  UNL d   1       3.396  -4.025   1.955  0.00  0.00     0.001 A 
ENDROOT
BRANCH   1   8
ATOM      8  C1  UNL d   1       4.180  -3.505   4.299  0.00  0.00     0.053 C 
ATOM      9  C   UNL d   1       4.046  -2.436   5.372  0.00  0.00     0.018 C 
ENDBRANCH   1   8
TORSDOF 1
ENDMDL
