MODEL 1
REMARK minimizedAffinity -1.78369963
REMARK minimizedRMSD -1
REMARK  0 active torsions:
REMARK  status: ('A' for Active; 'I' for Inactive)
ROOT
ATOM      1  C   UNL d   1      -0.232  -1.105  -0.231  0.00  0.00     0.172 C 
ATOM      2  N   UNL d   1      -1.132  -1.487  -1.294  0.00  0.00    -0.070 N 
ATOM      3  C1  UNL d   1      -2.104  -2.448  -1.211  0.00  0.00    -0.004 A 
ATOM      4  C2  UNL d   1      -2.741  -2.512  -2.431  0.00  0.00    -0.047 A 
ATOM      5  C3  UNL d   1      -2.130  -1.557  -3.278  0.00  0.00    -0.047 A 
ATOM      6  C4  UNL d   1      -1.137  -0.937  -2.549  0.00  0.00    -0.004 A 
ENDROOT
TORSDOF 0
ENDMDL
