MODEL 1
REMARK minimizedAffinity -3.29612756
REMARK minimizedRMSD -1
REMARK  0 active torsions:
REMARK  status: ('A' for Active; 'I' for Inactive)
ROOT
ATOM      1  C   UNL d   1       2.807   0.024   0.016  0.00  0.00     0.172 C 
ATOM      2  N   UNL d   1       1.520   0.437   0.524  0.00  0.00    -0.070 N 
ATOM      3  C1  UNL d   1       0.305  -0.014   0.081  0.00  0.00    -0.004 A 
ATOM      4  C2  UNL d   1      -0.674   0.618   0.818  0.00  0.00    -0.047 A 
ATOM      5  C3  UNL d   1      -0.025   1.479   1.734  0.00  0.00    -0.047 A 
ATOM      6  C4  UNL d   1       1.333   1.347   1.531  0.00  0.00    -0.004 A 
ENDROOT
TORSDOF 0
ENDMDL
