MODEL 1
REMARK minimizedAffinity -2.52544355
REMARK minimizedRMSD -1
REMARK  0 active torsions:
REMARK  status: ('A' for Active; 'I' for Inactive)
ROOT
ATOM      1  C   UNL d   1       0.427   1.533   1.570  0.00  0.00     0.172 C 
ATOM      2  N   UNL d   1      -0.240   0.719   0.581  0.00  0.00    -0.070 N 
ATOM      3  C1  UNL d   1       0.003  -0.608   0.343  0.00  0.00    -0.004 A 
ATOM      4  C2  UNL d   1      -0.835  -1.015  -0.672  0.00  0.00    -0.047 A 
ATOM      5  C3  UNL d   1      -1.609   0.106  -1.058  0.00  0.00    -0.047 A 
ATOM      6  C4  UNL d   1      -1.220   1.165  -0.266  0.00  0.00    -0.004 A 
ENDROOT
TORSDOF 0
ENDMDL
