MODEL 1
REMARK minimizedAffinity -2.78947997
REMARK minimizedRMSD -1
REMARK  0 active torsions:
REMARK  status: ('A' for Active; 'I' for Inactive)
ROOT
ATOM      1  C   UNL d   1      -1.101  -1.606  -0.944  0.00  0.00     0.172 C 
ATOM      2  N   UNL d   1      -0.795  -0.383  -0.240  0.00  0.00    -0.070 N 
ATOM      3  C1  UNL d   1      -0.500  -0.282   1.093  0.00  0.00    -0.004 A 
ATOM      4  C2  UNL d   1      -0.268   1.047   1.374  0.00  0.00    -0.047 A 
ATOM      5  C3  UNL d   1      -0.430   1.770   0.169  0.00  0.00    -0.047 A 
ATOM      6  C4  UNL d   1      -0.756   0.860  -0.815  0.00  0.00    -0.004 A 
ENDROOT
TORSDOF 0
ENDMDL
