MODEL 1
REMARK minimizedAffinity -2.6716969
REMARK minimizedRMSD -1
REMARK  0 active torsions:
REMARK  status: ('A' for Active; 'I' for Inactive)
ROOT
ATOM      1  C   UNL d   1       0.578  -0.763  -0.417  0.00  0.00     0.172 C 
ATOM      2  N   UNL d   1      -0.558  -1.101  -1.241  0.00  0.00    -0.070 N 
ATOM      3  C1  UNL d   1      -0.648  -0.911  -2.595  0.00  0.00    -0.004 A 
ATOM      4  C2  UNL d   1      -1.884  -1.362  -3.003  0.00  0.00    -0.047 A 
ATOM      5  C3  UNL d   1      -2.562  -1.838  -1.856  0.00  0.00    -0.047 A 
ATOM      6  C4  UNL d   1      -1.718  -1.665  -0.779  0.00  0.00    -0.004 A 
ENDROOT
TORSDOF 0
ENDMDL
