MODEL 1
REMARK minimizedAffinity 0.076351665
REMARK minimizedRMSD -1
REMARK  0 active torsions:
REMARK  status: ('A' for Active; 'I' for Inactive)
ROOT
ATOM      1  C   UNL d   1      -0.326   0.274  -2.112  0.00  0.00     0.172 C 
ATOM      2  N   UNL d   1      -0.436   0.497  -0.689  0.00  0.00    -0.070 N 
ATOM      3  C1  UNL d   1      -1.056   1.563  -0.094  0.00  0.00    -0.004 A 
ATOM      4  C2  UNL d   1      -0.944   1.408   1.271  0.00  0.00    -0.047 A 
ATOM      5  C3  UNL d   1      -0.231   0.208   1.504  0.00  0.00    -0.047 A 
ATOM      6  C4  UNL d   1       0.071  -0.335   0.273  0.00  0.00    -0.004 A 
ENDROOT
TORSDOF 0
ENDMDL
