MODEL 1
REMARK minimizedAffinity -2.84882164
REMARK minimizedRMSD -1
REMARK  0 active torsions:
REMARK  status: ('A' for Active; 'I' for Inactive)
ROOT
ATOM      1  C   UNL d   1       0.739  -1.792  -1.025  0.00  0.00     0.172 C 
ATOM      2  N   UNL d   1      -0.484  -1.816  -1.791  0.00  0.00    -0.070 N 
ATOM      3  C1  UNL d   1      -0.598  -1.515  -3.122  0.00  0.00    -0.004 A 
ATOM      4  C2  UNL d   1      -1.923  -1.655  -3.475  0.00  0.00    -0.047 A 
ATOM      5  C3  UNL d   1      -2.630  -2.053  -2.316  0.00  0.00    -0.047 A 
ATOM      6  C4  UNL d   1      -1.715  -2.145  -1.288  0.00  0.00    -0.004 A 
ENDROOT
TORSDOF 0
ENDMDL
