MODEL 1
REMARK minimizedAffinity -0.713567317
REMARK minimizedRMSD -1
REMARK  0 active torsions:
REMARK  status: ('A' for Active; 'I' for Inactive)
ROOT
ATOM      1  C   UNL d   1       0.278  -1.842  -0.473  0.00  0.00     0.172 C 
ATOM      2  N   UNL d   1      -0.261  -0.679   0.192  0.00  0.00    -0.070 N 
ATOM      3  C1  UNL d   1      -0.371  -0.514   1.547  0.00  0.00    -0.004 A 
ATOM      4  C2  UNL d   1      -0.932   0.724   1.777  0.00  0.00    -0.047 A 
ATOM      5  C3  UNL d   1      -1.167   1.323   0.516  0.00  0.00    -0.047 A 
ATOM      6  C4  UNL d   1      -0.743   0.432  -0.447  0.00  0.00    -0.004 A 
ENDROOT
TORSDOF 0
ENDMDL
