MODEL 1
REMARK minimizedAffinity -1.84030259
REMARK minimizedRMSD -1
REMARK  0 active torsions:
REMARK  status: ('A' for Active; 'I' for Inactive)
ROOT
ATOM      1  C   UNL d   1      -0.849  -0.186  -0.621  0.00  0.00     0.172 C 
ATOM      2  N   UNL d   1      -0.289   0.622   0.436  0.00  0.00    -0.070 N 
ATOM      3  C1  UNL d   1       1.012   0.593   0.861  0.00  0.00    -0.004 A 
ATOM      4  C2  UNL d   1       1.144   1.508   1.882  0.00  0.00    -0.047 A 
ATOM      5  C3  UNL d   1      -0.122   2.108   2.079  0.00  0.00    -0.047 A 
ATOM      6  C4  UNL d   1      -0.991   1.541   1.171  0.00  0.00    -0.004 A 
ENDROOT
TORSDOF 0
ENDMDL
