MODEL 1
REMARK minimizedAffinity -1.29445291
REMARK minimizedRMSD -1
REMARK  0 active torsions:
REMARK  status: ('A' for Active; 'I' for Inactive)
ROOT
ATOM      1  C   UNL d   1      -0.190  -0.378  -0.254  0.00  0.00     0.172 C 
ATOM      2  N   UNL d   1      -1.150  -0.823  -1.237  0.00  0.00    -0.070 N 
ATOM      3  C1  UNL d   1      -2.213  -1.651  -0.997  0.00  0.00    -0.004 A 
ATOM      4  C2  UNL d   1      -2.883  -1.834  -2.188  0.00  0.00    -0.047 A 
ATOM      5  C3  UNL d   1      -2.198  -1.090  -3.178  0.00  0.00    -0.047 A 
ATOM      6  C4  UNL d   1      -1.129  -0.474  -2.562  0.00  0.00    -0.004 A 
ENDROOT
TORSDOF 0
ENDMDL
