MODEL 1
REMARK minimizedAffinity -3.01649404
REMARK minimizedRMSD -1
REMARK  0 active torsions:
REMARK  status: ('A' for Active; 'I' for Inactive)
ROOT
ATOM      1  C   UNL d   1      -0.349  -0.788  -0.163  0.00  0.00     0.172 C 
ATOM      2  N   UNL d   1      -1.293  -1.328  -1.113  0.00  0.00    -0.070 N 
ATOM      3  C1  UNL d   1      -1.059  -1.525  -2.447  0.00  0.00    -0.004 A 
ATOM      4  C2  UNL d   1      -2.203  -2.055  -3.003  0.00  0.00    -0.047 A 
ATOM      5  C3  UNL d   1      -3.159  -2.180  -1.967  0.00  0.00    -0.047 A 
ATOM      6  C4  UNL d   1      -2.569  -1.723  -0.807  0.00  0.00    -0.004 A 
ENDROOT
TORSDOF 0
ENDMDL
