MODEL 1
REMARK minimizedAffinity -1.12844527
REMARK minimizedRMSD -1
REMARK  0 active torsions:
REMARK  status: ('A' for Active; 'I' for Inactive)
ROOT
ATOM      1  C   UNL d   1       0.980   0.190  -4.879  0.00  0.00     0.172 C 
ATOM      2  N   UNL d   1       2.422   0.125  -4.906  0.00  0.00    -0.070 N 
ATOM      3  C1  UNL d   1       3.267   0.807  -4.072  0.00  0.00    -0.004 A 
ATOM      4  C2  UNL d   1       4.560   0.476  -4.417  0.00  0.00    -0.047 A 
ATOM      5  C3  UNL d   1       4.489  -0.436  -5.497  0.00  0.00    -0.047 A 
ATOM      6  C4  UNL d   1       3.154  -0.635  -5.779  0.00  0.00    -0.004 A 
ENDROOT
TORSDOF 0
ENDMDL
