MODEL 1
REMARK minimizedAffinity -2.72880626
REMARK minimizedRMSD -1
REMARK  0 active torsions:
REMARK  status: ('A' for Active; 'I' for Inactive)
ROOT
ATOM      1  C   UNL d   1       0.593   1.613   1.907  0.00  0.00     0.172 C 
ATOM      2  N   UNL d   1       0.588   0.527   0.955  0.00  0.00    -0.070 N 
ATOM      3  C1  UNL d   1      -0.477  -0.290   0.682  0.00  0.00    -0.004 A 
ATOM      4  C2  UNL d   1      -0.079  -1.194  -0.279  0.00  0.00    -0.047 A 
ATOM      5  C3  UNL d   1       1.272  -0.911  -0.594  0.00  0.00    -0.047 A 
ATOM      6  C4  UNL d   1       1.659   0.159   0.185  0.00  0.00    -0.004 A 
ENDROOT
TORSDOF 0
ENDMDL
