MODEL 1
REMARK minimizedAffinity -1.7946887
REMARK minimizedRMSD -1
REMARK  0 active torsions:
REMARK  status: ('A' for Active; 'I' for Inactive)
ROOT
ATOM      1  C   UNL d   1      -3.299  -1.500  -1.500  0.00  0.00     0.172 C 
ATOM      2  N   UNL d   1      -1.890  -1.698  -1.751  0.00  0.00    -0.070 N 
ATOM      3  C1  UNL d   1      -0.877  -1.433  -0.868  0.00  0.00    -0.004 A 
ATOM      4  C2  UNL d   1       0.313  -1.756  -1.483  0.00  0.00    -0.047 A 
ATOM      5  C3  UNL d   1       0.005  -2.230  -2.780  0.00  0.00    -0.047 A 
ATOM      6  C4  UNL d   1      -1.366  -2.184  -2.919  0.00  0.00    -0.004 A 
ENDROOT
TORSDOF 0
ENDMDL
