MODEL 1
REMARK minimizedAffinity -1.22296524
REMARK minimizedRMSD -1
REMARK  0 active torsions:
REMARK  status: ('A' for Active; 'I' for Inactive)
ROOT
ATOM      1  C   UNL d   1      -0.448  -1.325   0.087  0.00  0.00     0.172 C 
ATOM      2  N   UNL d   1      -1.051  -1.586  -1.198  0.00  0.00    -0.070 N 
ATOM      3  C1  UNL d   1      -2.375  -1.858  -1.418  0.00  0.00    -0.004 A 
ATOM      4  C2  UNL d   1      -2.548  -2.047  -2.772  0.00  0.00    -0.047 A 
ATOM      5  C3  UNL d   1      -1.285  -1.883  -3.387  0.00  0.00    -0.047 A 
ATOM      6  C4  UNL d   1      -0.376  -1.599  -2.390  0.00  0.00    -0.004 A 
ENDROOT
TORSDOF 0
ENDMDL
