MODEL 1
REMARK minimizedAffinity 3.44982052
REMARK minimizedRMSD -1
REMARK  1 active torsions:
REMARK  status: ('A' for Active; 'I' for Inactive)
REMARK    1  A    between atoms: C1_2  and  C2_3 
ROOT
ATOM      1  C2  UNL d   1      -3.594  -0.623   0.890  0.00  0.00    -0.076 A 
ATOM      2  C3  UNL d   1      -4.858  -0.714   1.498  0.00  0.00     0.004 A 
ATOM      3  C4  UNL d   1      -6.000  -0.976   0.744  0.00  0.00    -0.003 A 
ATOM      4  C5  UNL d   1      -5.897  -1.154  -0.631  0.00  0.00     0.000 A 
ATOM      5  C6  UNL d   1      -4.649  -1.085  -1.249  0.00  0.00     0.000 A 
ATOM      6  C7  UNL d   1      -3.485  -0.837  -0.501  0.00  0.00    -0.073 A 
ATOM      7  C8  UNL d   1      -2.166  -0.767  -1.220  0.00  0.00     0.078 C 
ENDROOT
BRANCH   1   8
ATOM      8  C1  UNL d   1      -2.394  -0.309   1.755  0.00  0.00     0.053 C 
ATOM      9  C   UNL d   1      -2.640  -0.612   3.224  0.00  0.00     0.018 C 
ENDBRANCH   1   8
TORSDOF 1
ENDMDL
