MODEL 1
REMARK minimizedAffinity 5.88600349
REMARK minimizedRMSD -1
REMARK  1 active torsions:
REMARK  status: ('A' for Active; 'I' for Inactive)
REMARK    1  A    between atoms: C1_2  and  C2_3 
ROOT
ATOM      1  C2  UNL d   1       0.428  -0.457   5.623  0.00  0.00    -0.076 A 
ATOM      2  C3  UNL d   1      -0.933  -0.108   5.643  0.00  0.00     0.004 A 
ATOM      3  C4  UNL d   1      -1.919  -1.076   5.826  0.00  0.00    -0.003 A 
ATOM      4  C5  UNL d   1      -1.560  -2.409   5.993  0.00  0.00     0.000 A 
ATOM      5  C6  UNL d   1      -0.213  -2.771   5.993  0.00  0.00     0.000 A 
ATOM      6  C7  UNL d   1       0.794  -1.805   5.826  0.00  0.00    -0.073 A 
ATOM      7  C8  UNL d   1       2.230  -2.252   5.829  0.00  0.00     0.078 C 
ENDROOT
BRANCH   1   8
ATOM      8  C1  UNL d   1       1.452   0.632   5.393  0.00  0.00     0.053 C 
ATOM      9  C   UNL d   1       0.842   1.885   4.784  0.00  0.00     0.018 C 
ENDBRANCH   1   8
TORSDOF 1
ENDMDL
