MODEL 1
REMARK minimizedAffinity 20.2400818
REMARK minimizedRMSD -1
REMARK  1 active torsions:
REMARK  status: ('A' for Active; 'I' for Inactive)
REMARK    1  A    between atoms: C1_2  and  C2_3 
ROOT
ATOM      1  C2  UNL d   1       0.279   1.241   4.566  0.00  0.00    -0.076 A 
ATOM      2  C3  UNL d   1       0.343   0.647   5.839  0.00  0.00     0.004 A 
ATOM      3  C4  UNL d   1       0.165  -0.726   6.000  0.00  0.00    -0.003 A 
ATOM      4  C5  UNL d   1      -0.079  -1.528   4.890  0.00  0.00     0.000 A 
ATOM      5  C6  UNL d   1      -0.128  -0.958   3.618  0.00  0.00     0.000 A 
ATOM      6  C7  UNL d   1       0.065   0.422   3.437  0.00  0.00    -0.073 A 
ATOM      7  C8  UNL d   1      -0.005   0.984   2.043  0.00  0.00     0.078 C 
ENDROOT
BRANCH   1   8
ATOM      8  C1  UNL d   1       0.452   2.739   4.456  0.00  0.00     0.053 C 
ATOM      9  C   UNL d   1       1.543   3.128   3.471  0.00  0.00     0.018 C 
ENDBRANCH   1   8
TORSDOF 1
ENDMDL
