MODEL 1
REMARK minimizedAffinity 10.9226322
REMARK minimizedRMSD -1
REMARK  1 active torsions:
REMARK  status: ('A' for Active; 'I' for Inactive)
REMARK    1  A    between atoms: C1_2  and  C2_3 
ROOT
ATOM      1  C2  UNL d   1      -1.286  -3.229  -0.663  0.00  0.00    -0.076 A 
ATOM      2  C3  UNL d   1      -0.863  -4.071  -1.707  0.00  0.00     0.004 A 
ATOM      3  C4  UNL d   1      -0.597  -5.420  -1.478  0.00  0.00    -0.003 A 
ATOM      4  C5  UNL d   1      -0.750  -5.949  -0.201  0.00  0.00     0.000 A 
ATOM      5  C6  UNL d   1      -1.185  -5.133   0.842  0.00  0.00     0.000 A 
ATOM      6  C7  UNL d   1      -1.474  -3.775   0.625  0.00  0.00    -0.073 A 
ATOM      7  C8  UNL d   1      -1.934  -2.939   1.788  0.00  0.00     0.078 C 
ENDROOT
BRANCH   1   8
ATOM      8  C1  UNL d   1      -1.533  -1.769  -0.966  0.00  0.00     0.053 C 
ATOM      9  C   UNL d   1      -1.738  -1.507  -2.450  0.00  0.00     0.018 C 
ENDBRANCH   1   8
TORSDOF 1
ENDMDL
