MODEL 1
REMARK minimizedAffinity 27.123518
REMARK minimizedRMSD -1
REMARK  0 active torsions:
REMARK  status: ('A' for Active; 'I' for Inactive)
ROOT
ATOM      1  C   UNL d   1      -3.900   2.582   4.054  0.00  0.00     0.124 A 
ATOM      2  C1  UNL d   1      -4.668   1.474   3.723  0.00  0.00     0.062 A 
ATOM      3  C2  UNL d   1      -4.058   0.319   3.242  0.00  0.00     0.162 A 
ATOM      4  C3  UNL d   1      -2.673   0.265   3.088  0.00  0.00    -0.034 A 
ATOM      5  C4  UNL d   1      -1.908   1.384   3.422  0.00  0.00     0.162 A 
ATOM      6  C5  UNL d   1      -2.521   2.537   3.903  0.00  0.00     0.062 A 
ATOM      7  F   UNL d   1      -1.778   3.606   4.221  0.00  0.00    -0.097 F 
ATOM      8  F1  UNL d   1      -0.573   1.367   3.286  0.00  0.00    -0.096 F 
ATOM      9  I   UNL d   1      -1.758  -1.460   2.369  0.00  0.00    -0.060 I 
ATOM     10  F2  UNL d   1      -4.825  -0.737   2.930  0.00  0.00    -0.096 F 
ATOM     11  F3  UNL d   1      -6.000   1.516   3.867  0.00  0.00    -0.097 F 
ATOM     12  F4  UNL d   1      -4.489   3.693   4.516  0.00  0.00    -0.092 F 
ENDROOT
TORSDOF 0
ENDMDL
