MODEL 1
REMARK minimizedAffinity 25.3475094
REMARK minimizedRMSD -1
REMARK  0 active torsions:
REMARK  status: ('A' for Active; 'I' for Inactive)
ROOT
ATOM      1  C   UNL d   1      -2.662   2.159  -3.270  0.00  0.00     0.124 A 
ATOM      2  C1  UNL d   1      -1.844   1.044  -3.392  0.00  0.00     0.062 A 
ATOM      3  C2  UNL d   1      -1.926   0.011  -2.462  0.00  0.00     0.162 A 
ATOM      4  C3  UNL d   1      -2.830   0.088  -1.403  0.00  0.00    -0.034 A 
ATOM      5  C4  UNL d   1      -3.649   1.213  -1.287  0.00  0.00     0.162 A 
ATOM      6  C5  UNL d   1      -3.563   2.243  -2.218  0.00  0.00     0.062 A 
ATOM      7  F   UNL d   1      -4.354   3.319  -2.099  0.00  0.00    -0.097 F 
ATOM      8  F1  UNL d   1      -4.529   1.319  -0.280  0.00  0.00    -0.096 F 
ATOM      9  I   UNL d   1      -2.956  -1.454  -0.011  0.00  0.00    -0.060 I 
ATOM     10  F2  UNL d   1      -1.124  -1.054  -2.604  0.00  0.00    -0.096 F 
ATOM     11  F3  UNL d   1      -0.972   0.962  -4.407  0.00  0.00    -0.097 F 
ATOM     12  F4  UNL d   1      -2.580   3.152  -4.165  0.00  0.00    -0.092 F 
ENDROOT
TORSDOF 0
ENDMDL
