MODEL 1
REMARK minimizedAffinity 33.9111671
REMARK minimizedRMSD -1
REMARK  0 active torsions:
REMARK  status: ('A' for Active; 'I' for Inactive)
ROOT
ATOM      1  C   UNL d   1       2.427  -4.268  -0.180  0.00  0.00     0.124 A 
ATOM      2  C1  UNL d   1       2.145  -2.949   0.146  0.00  0.00     0.062 A 
ATOM      3  C2  UNL d   1       3.163  -2.000   0.166  0.00  0.00     0.162 A 
ATOM      4  C3  UNL d   1       4.474  -2.367  -0.142  0.00  0.00    -0.034 A 
ATOM      5  C4  UNL d   1       4.749  -3.696  -0.467  0.00  0.00     0.162 A 
ATOM      6  C5  UNL d   1       3.728  -4.641  -0.486  0.00  0.00     0.062 A 
ATOM      7  F   UNL d   1       4.002  -5.915  -0.800  0.00  0.00    -0.097 F 
ATOM      8  F1  UNL d   1       5.998  -4.083  -0.768  0.00  0.00    -0.096 F 
ATOM      9  I   UNL d   1       5.999  -0.951  -0.113  0.00  0.00    -0.060 I 
ATOM     10  F2  UNL d   1       2.862  -0.732   0.484  0.00  0.00    -0.096 F 
ATOM     11  F3  UNL d   1       0.889  -2.586   0.443  0.00  0.00    -0.097 F 
ATOM     12  F4  UNL d   1       1.446  -5.179  -0.197  0.00  0.00    -0.092 F 
ENDROOT
TORSDOF 0
ENDMDL
