MODEL 1
REMARK minimizedAffinity 26.8247547
REMARK minimizedRMSD -1
REMARK  0 active torsions:
REMARK  status: ('A' for Active; 'I' for Inactive)
ROOT
ATOM      1  C   UNL d   1       0.939   5.139   5.047  0.00  0.00     0.124 A 
ATOM      2  C1  UNL d   1       0.043   4.758   4.057  0.00  0.00     0.062 A 
ATOM      3  C2  UNL d   1       0.434   3.864   3.065  0.00  0.00     0.162 A 
ATOM      4  C3  UNL d   1       1.728   3.343   3.057  0.00  0.00    -0.034 A 
ATOM      5  C4  UNL d   1       2.624   3.732   4.055  0.00  0.00     0.162 A 
ATOM      6  C5  UNL d   1       2.228   4.626   5.044  0.00  0.00     0.062 A 
ATOM      7  F   UNL d   1       3.095   4.993   5.999  0.00  0.00    -0.097 F 
ATOM      8  F1  UNL d   1       3.876   3.251   4.077  0.00  0.00    -0.096 F 
ATOM      9  I   UNL d   1       2.317   2.006   1.575  0.00  0.00    -0.060 I 
ATOM     10  F2  UNL d   1      -0.453   3.513   2.122  0.00  0.00    -0.096 F 
ATOM     11  F3  UNL d   1      -1.204   5.253   4.057  0.00  0.00    -0.097 F 
ATOM     12  F4  UNL d   1       0.560   6.000   6.000  0.00  0.00    -0.092 F 
ENDROOT
TORSDOF 0
ENDMDL
