MODEL 1
REMARK minimizedAffinity 24.2449951
REMARK minimizedRMSD -1
REMARK  0 active torsions:
REMARK  status: ('A' for Active; 'I' for Inactive)
ROOT
ATOM      1  C   UNL d   1       2.776   3.463   3.208  0.00  0.00     0.124 A 
ATOM      2  C1  UNL d   1       1.517   3.412   2.626  0.00  0.00     0.062 A 
ATOM      3  C2  UNL d   1       0.462   4.135   3.175  0.00  0.00     0.162 A 
ATOM      4  C3  UNL d   1       0.662   4.916   4.314  0.00  0.00    -0.034 A 
ATOM      5  C4  UNL d   1       1.931   4.961   4.894  0.00  0.00     0.162 A 
ATOM      6  C5  UNL d   1       2.982   4.237   4.341  0.00  0.00     0.062 A 
ATOM      7  F   UNL d   1       4.198   4.287   4.904  0.00  0.00    -0.097 F 
ATOM      8  F1  UNL d   1       2.158   5.702   5.989  0.00  0.00    -0.096 F 
ATOM      9  I   UNL d   1      -0.913   5.998   5.139  0.00  0.00    -0.060 I 
ATOM     10  F2  UNL d   1      -0.744   4.067   2.592  0.00  0.00    -0.096 F 
ATOM     11  F3  UNL d   1       1.316   2.664   1.531  0.00  0.00    -0.097 F 
ATOM     12  F4  UNL d   1       3.789   2.766   2.677  0.00  0.00    -0.092 F 
ENDROOT
TORSDOF 0
ENDMDL
