MODEL 1
REMARK minimizedAffinity 23.9421024
REMARK minimizedRMSD -1
REMARK  0 active torsions:
REMARK  status: ('A' for Active; 'I' for Inactive)
ROOT
ATOM      1  C   UNL d   1      -0.592  -0.433   2.540  0.00  0.00     0.124 A 
ATOM      2  C1  UNL d   1      -1.426  -1.011   1.593  0.00  0.00     0.062 A 
ATOM      3  C2  UNL d   1      -0.886  -1.640   0.476  0.00  0.00     0.162 A 
ATOM      4  C3  UNL d   1       0.497  -1.696   0.299  0.00  0.00    -0.034 A 
ATOM      5  C4  UNL d   1       1.329  -1.112   1.256  0.00  0.00     0.162 A 
ATOM      6  C5  UNL d   1       0.784  -0.484   2.371  0.00  0.00     0.062 A 
ATOM      7  F   UNL d   1       1.592   0.074   3.285  0.00  0.00    -0.097 F 
ATOM      8  F1  UNL d   1       2.663  -1.148   1.117  0.00  0.00    -0.096 F 
ATOM      9  I   UNL d   1       1.309  -2.636  -1.371  0.00  0.00    -0.060 I 
ATOM     10  F2  UNL d   1      -1.715  -2.190  -0.424  0.00  0.00    -0.096 F 
ATOM     11  F3  UNL d   1      -2.756  -0.962   1.754  0.00  0.00    -0.097 F 
ATOM     12  F4  UNL d   1      -1.115   0.173   3.614  0.00  0.00    -0.092 F 
ENDROOT
TORSDOF 0
ENDMDL
