MODEL 1
REMARK minimizedAffinity 15.6103668
REMARK minimizedRMSD -1
REMARK  0 active torsions:
REMARK  status: ('A' for Active; 'I' for Inactive)
ROOT
ATOM      1  C   UNL d   1       2.412  -2.391   0.655  0.00  0.00     0.124 A 
ATOM      2  C1  UNL d   1       2.016  -3.706   0.853  0.00  0.00     0.062 A 
ATOM      3  C2  UNL d   1       2.945  -4.738   0.764  0.00  0.00     0.162 A 
ATOM      4  C3  UNL d   1       4.281  -4.459   0.476  0.00  0.00    -0.034 A 
ATOM      5  C4  UNL d   1       4.672  -3.134   0.277  0.00  0.00     0.162 A 
ATOM      6  C5  UNL d   1       3.739  -2.106   0.367  0.00  0.00     0.062 A 
ATOM      7  F   UNL d   1       4.124  -0.836   0.176  0.00  0.00    -0.097 F 
ATOM      8  F1  UNL d   1       5.948  -2.830  -0.001  0.00  0.00    -0.096 F 
ATOM      9  I   UNL d   1       5.674  -6.000   0.342  0.00  0.00    -0.060 I 
ATOM     10  F2  UNL d   1       2.534  -6.000   0.960  0.00  0.00    -0.096 F 
ATOM     11  F3  UNL d   1       0.733  -3.984   1.131  0.00  0.00    -0.097 F 
ATOM     12  F4  UNL d   1       1.515  -1.399   0.741  0.00  0.00    -0.092 F 
ENDROOT
TORSDOF 0
ENDMDL
