MODEL 1
REMARK minimizedAffinity 17.5793419
REMARK minimizedRMSD -1
REMARK  0 active torsions:
REMARK  status: ('A' for Active; 'I' for Inactive)
ROOT
ATOM      1  C   UNL d   1       2.874  -1.185   1.453  0.00  0.00     0.124 A 
ATOM      2  C1  UNL d   1       2.330  -2.347   0.922  0.00  0.00     0.062 A 
ATOM      3  C2  UNL d   1       1.024  -2.713   1.232  0.00  0.00     0.162 A 
ATOM      4  C3  UNL d   1       0.251  -1.917   2.077  0.00  0.00    -0.034 A 
ATOM      5  C4  UNL d   1       0.805  -0.751   2.609  0.00  0.00     0.162 A 
ATOM      6  C5  UNL d   1       2.111  -0.389   2.296  0.00  0.00     0.062 A 
ATOM      7  F   UNL d   1       2.635   0.733   2.810  0.00  0.00    -0.097 F 
ATOM      8  F1  UNL d   1       0.090   0.038   3.425  0.00  0.00    -0.096 F 
ATOM      9  I   UNL d   1      -1.703  -2.462   2.543  0.00  0.00    -0.060 I 
ATOM     10  F2  UNL d   1       0.524  -3.841   0.704  0.00  0.00    -0.096 F 
ATOM     11  F3  UNL d   1       3.065  -3.118   0.109  0.00  0.00    -0.097 F 
ATOM     12  F4  UNL d   1       4.132  -0.836   1.154  0.00  0.00    -0.092 F 
ENDROOT
TORSDOF 0
ENDMDL
