MODEL 1
REMARK minimizedAffinity 27.7619438
REMARK minimizedRMSD -1
REMARK  0 active torsions:
REMARK  status: ('A' for Active; 'I' for Inactive)
ROOT
ATOM      1  C   UNL d   1       0.184  -3.947   1.197  0.00  0.00     0.124 A 
ATOM      2  C1  UNL d   1      -0.629  -3.241   2.073  0.00  0.00     0.062 A 
ATOM      3  C2  UNL d   1      -0.257  -1.970   2.503  0.00  0.00     0.162 A 
ATOM      4  C3  UNL d   1       0.933  -1.396   2.056  0.00  0.00    -0.034 A 
ATOM      5  C4  UNL d   1       1.745  -2.113   1.175  0.00  0.00     0.162 A 
ATOM      6  C5  UNL d   1       1.370  -3.382   0.749  0.00  0.00     0.062 A 
ATOM      7  F   UNL d   1       2.156  -4.063  -0.098  0.00  0.00    -0.097 F 
ATOM      8  F1  UNL d   1       2.896  -1.590   0.726  0.00  0.00    -0.096 F 
ATOM      9  I   UNL d   1       1.492   0.504   2.696  0.00  0.00    -0.060 I 
ATOM     10  F2  UNL d   1      -1.062  -1.311   3.350  0.00  0.00    -0.096 F 
ATOM     11  F3  UNL d   1      -1.775  -3.785   2.508  0.00  0.00    -0.097 F 
ATOM     12  F4  UNL d   1      -0.176  -5.170   0.786  0.00  0.00    -0.092 F 
ENDROOT
TORSDOF 0
ENDMDL
