MODEL 1
REMARK minimizedAffinity 21.1300488
REMARK minimizedRMSD -1
REMARK  0 active torsions:
REMARK  status: ('A' for Active; 'I' for Inactive)
ROOT
ATOM      1  C   UNL d   1       1.894  -3.999   0.018  0.00  0.00     0.124 A 
ATOM      2  C1  UNL d   1       0.734  -4.500   0.592  0.00  0.00     0.062 A 
ATOM      3  C2  UNL d   1      -0.139  -3.650   1.263  0.00  0.00     0.162 A 
ATOM      4  C3  UNL d   1       0.144  -2.288   1.365  0.00  0.00    -0.034 A 
ATOM      5  C4  UNL d   1       1.313  -1.791   0.786  0.00  0.00     0.162 A 
ATOM      6  C5  UNL d   1       2.183  -2.645   0.116  0.00  0.00     0.062 A 
ATOM      7  F   UNL d   1       3.303  -2.159  -0.438  0.00  0.00    -0.097 F 
ATOM      8  F1  UNL d   1       1.616  -0.486   0.864  0.00  0.00    -0.096 F 
ATOM      9  I   UNL d   1      -1.159  -1.012   2.368  0.00  0.00    -0.060 I 
ATOM     10  F2  UNL d   1      -1.253  -4.162   1.808  0.00  0.00    -0.096 F 
ATOM     11  F3  UNL d   1       0.453  -5.808   0.500  0.00  0.00    -0.097 F 
ATOM     12  F4  UNL d   1       2.733  -4.820  -0.626  0.00  0.00    -0.092 F 
ENDROOT
TORSDOF 0
ENDMDL
