MODEL 1
REMARK minimizedAffinity 1.50545216
REMARK minimizedRMSD -1
REMARK  0 active torsions:
REMARK  status: ('A' for Active; 'I' for Inactive)
ROOT
ATOM      1  C   UNL d   1       1.802  -0.006   0.095  0.00  0.00     0.172 C 
ATOM      2  N   UNL d   1       0.366  -0.045  -0.052  0.00  0.00    -0.070 N 
ATOM      3  C1  UNL d   1      -0.313  -0.607  -1.100  0.00  0.00    -0.004 A 
ATOM      4  C2  UNL d   1      -1.661  -0.438  -0.868  0.00  0.00    -0.047 A 
ATOM      5  C3  UNL d   1      -1.796   0.249   0.362  0.00  0.00    -0.047 A 
ATOM      6  C4  UNL d   1      -0.525   0.480   0.845  0.00  0.00    -0.004 A 
ENDROOT
TORSDOF 0
ENDMDL
