MODEL 1
REMARK minimizedAffinity 0.270887643
REMARK minimizedRMSD -1
REMARK  0 active torsions:
REMARK  status: ('A' for Active; 'I' for Inactive)
ROOT
ATOM      1  C   UNL d   1       1.793  -0.420   0.505  0.00  0.00     0.172 C 
ATOM      2  N   UNL d   1       0.435  -0.240   0.048  0.00  0.00    -0.070 N 
ATOM      3  C1  UNL d   1      -0.115  -0.814  -1.067  0.00  0.00    -0.004 A 
ATOM      4  C2  UNL d   1      -1.425  -0.396  -1.154  0.00  0.00    -0.047 A 
ATOM      5  C3  UNL d   1      -1.671   0.459  -0.054  0.00  0.00    -0.047 A 
ATOM      6  C4  UNL d   1      -0.503   0.538   0.674  0.00  0.00    -0.004 A 
ENDROOT
TORSDOF 0
ENDMDL
