MODEL 1
REMARK minimizedAffinity -1.84591603
REMARK minimizedRMSD -1
REMARK  0 active torsions:
REMARK  status: ('A' for Active; 'I' for Inactive)
ROOT
ATOM      1  C   UNL d   1       0.660   0.965  -3.743  0.00  0.00     0.172 C 
ATOM      2  N   UNL d   1       0.785   0.564  -2.362  0.00  0.00    -0.070 N 
ATOM      3  C1  UNL d   1       1.766   0.971  -1.498  0.00  0.00    -0.004 A 
ATOM      4  C2  UNL d   1       1.533   0.369  -0.280  0.00  0.00    -0.047 A 
ATOM      5  C3  UNL d   1       0.372  -0.429  -0.418  0.00  0.00    -0.047 A 
ATOM      6  C4  UNL d   1      -0.071  -0.289  -1.716  0.00  0.00    -0.004 A 
ENDROOT
TORSDOF 0
ENDMDL
