MODEL 1
REMARK minimizedAffinity -2.64490247
REMARK minimizedRMSD -1
REMARK  0 active torsions:
REMARK  status: ('A' for Active; 'I' for Inactive)
ROOT
ATOM      1  C   UNL d   1       0.349  -0.499  -0.706  0.00  0.00     0.172 C 
ATOM      2  N   UNL d   1      -0.668  -0.199   0.274  0.00  0.00    -0.070 N 
ATOM      3  C1  UNL d   1      -2.017  -0.352   0.096  0.00  0.00    -0.004 A 
ATOM      4  C2  UNL d   1      -2.643   0.042   1.259  0.00  0.00    -0.047 A 
ATOM      5  C3  UNL d   1      -1.636   0.445   2.167  0.00  0.00    -0.047 A 
ATOM      6  C4  UNL d   1      -0.423   0.286   1.531  0.00  0.00    -0.004 A 
ENDROOT
TORSDOF 0
ENDMDL
