MODEL 1
REMARK minimizedAffinity -4.07683468
REMARK minimizedRMSD -1
REMARK  0 active torsions:
REMARK  status: ('A' for Active; 'I' for Inactive)
ROOT
ATOM      1  C   UNL d   1       0.363  -0.390  -0.833  0.00  0.00     0.172 C 
ATOM      2  N   UNL d   1      -0.141   0.229   0.371  0.00  0.00    -0.070 N 
ATOM      3  C1  UNL d   1       0.619   0.666   1.423  0.00  0.00    -0.004 A 
ATOM      4  C2  UNL d   1      -0.233   1.193   2.369  0.00  0.00    -0.047 A 
ATOM      5  C3  UNL d   1      -1.551   1.067   1.869  0.00  0.00    -0.047 A 
ATOM      6  C4  UNL d   1      -1.465   0.467   0.631  0.00  0.00    -0.004 A 
ENDROOT
TORSDOF 0
ENDMDL
