MODEL 1
REMARK minimizedAffinity -3.54455662
REMARK minimizedRMSD -1
REMARK  0 active torsions:
REMARK  status: ('A' for Active; 'I' for Inactive)
ROOT
ATOM      1  C   UNL d   1       0.748  -0.264  -0.564  0.00  0.00     0.172 C 
ATOM      2  N   UNL d   1       0.365   0.404   0.658  0.00  0.00    -0.070 N 
ATOM      3  C1  UNL d   1      -0.746   1.186   0.826  0.00  0.00    -0.004 A 
ATOM      4  C2  UNL d   1      -0.752   1.636   2.129  0.00  0.00    -0.047 A 
ATOM      5  C3  UNL d   1       0.395   1.106   2.765  0.00  0.00    -0.047 A 
ATOM      6  C4  UNL d   1       1.069   0.347   1.832  0.00  0.00    -0.004 A 
ENDROOT
TORSDOF 0
ENDMDL
