MODEL 1
REMARK minimizedAffinity -3.77981496
REMARK minimizedRMSD -1
REMARK  0 active torsions:
REMARK  status: ('A' for Active; 'I' for Inactive)
ROOT
ATOM      1  C   UNL d   1       0.551  -0.154  -0.381  0.00  0.00     0.172 C 
ATOM      2  N   UNL d   1       0.231   0.440   0.896  0.00  0.00    -0.070 N 
ATOM      3  C1  UNL d   1       0.988   0.344   2.033  0.00  0.00    -0.004 A 
ATOM      4  C2  UNL d   1       0.343   1.044   3.029  0.00  0.00    -0.047 A 
ATOM      5  C3  UNL d   1      -0.843   1.578   2.473  0.00  0.00    -0.047 A 
ATOM      6  C4  UNL d   1      -0.888   1.188   1.151  0.00  0.00    -0.004 A 
ENDROOT
TORSDOF 0
ENDMDL
