MODEL 1
REMARK minimizedAffinity -2.52058721
REMARK minimizedRMSD -1
REMARK  0 active torsions:
REMARK  status: ('A' for Active; 'I' for Inactive)
ROOT
ATOM      1  C   UNL d   1       0.486  -0.759  -1.381  0.00  0.00     0.172 C 
ATOM      2  N   UNL d   1      -0.289  -0.226  -0.285  0.00  0.00    -0.070 N 
ATOM      3  C1  UNL d   1      -1.647  -0.325  -0.146  0.00  0.00    -0.004 A 
ATOM      4  C2  UNL d   1      -1.999   0.308   1.026  0.00  0.00    -0.047 A 
ATOM      5  C3  UNL d   1      -0.811   0.807   1.611  0.00  0.00    -0.047 A 
ATOM      6  C4  UNL d   1       0.233   0.462   0.778  0.00  0.00    -0.004 A 
ENDROOT
TORSDOF 0
ENDMDL
