MODEL 1
REMARK minimizedAffinity 5.29805231
REMARK minimizedRMSD -1
REMARK  2 active torsions:
REMARK  status: ('A' for Active; 'I' for Inactive)
REMARK    1  A    between atoms: C2'_3  and  C1'_4 
REMARK    2  A    between atoms: C1'_4  and  C1_5 
ROOT
ATOM      1  C1  I4B d   1      -0.745  -2.266  -0.644  0.00  0.00    -0.075 A 
ATOM      2  C2  I4B d   1       0.095  -3.075   0.080  0.00  0.00     0.003 A 
ATOM      3  C3  I4B d   1      -0.173  -3.342   1.445  0.00  0.00     0.002 A 
ATOM      4  C4  I4B d   1      -1.256  -2.742   2.054  0.00  0.00    -0.004 A 
ATOM      5  C5  I4B d   1      -2.119  -1.940   1.313  0.00  0.00     0.002 A 
ATOM      6  C6  I4B d   1      -1.870  -1.710  -0.047  0.00  0.00     0.003 A 
ENDROOT
BRANCH   1   7
ATOM      7  C1' I4B d   1      -0.414  -1.979  -2.074  0.00  0.00     0.060 C 
BRANCH   7   8
ATOM      8  C2' I4B d   1      -0.456  -3.289  -2.835  0.00  0.00    -0.013 C 
ATOM      9  C4' I4B d   1      -1.584  -3.304  -3.832  0.00  0.00     0.013 C 
ATOM     10  C3' I4B d   1       0.869  -3.473  -3.512  0.00  0.00     0.013 C 
ENDBRANCH   7   8
ENDBRANCH   1   7
TORSDOF 2
ENDMDL
