MODEL 1
REMARK minimizedAffinity 8.77910328
REMARK minimizedRMSD -1
REMARK  2 active torsions:
REMARK  status: ('A' for Active; 'I' for Inactive)
REMARK    1  A    between atoms: C2'_3  and  C1'_4 
REMARK    2  A    between atoms: C1'_4  and  C1_5 
ROOT
ATOM      1  C1  I4B d   1      -1.238  -2.501  -0.585  0.00  0.00    -0.075 A 
ATOM      2  C2  I4B d   1      -2.047  -2.744  -1.667  0.00  0.00     0.003 A 
ATOM      3  C3  I4B d   1      -1.496  -2.806  -2.970  0.00  0.00     0.002 A 
ATOM      4  C4  I4B d   1      -0.148  -2.572  -3.149  0.00  0.00    -0.004 A 
ATOM      5  C5  I4B d   1       0.675  -2.349  -2.049  0.00  0.00     0.002 A 
ATOM      6  C6  I4B d   1       0.129  -2.325  -0.757  0.00  0.00     0.003 A 
ENDROOT
BRANCH   1   7
ATOM      7  C1' I4B d   1      -1.858  -2.409   0.773  0.00  0.00     0.060 C 
BRANCH   7   8
ATOM      8  C2' I4B d   1      -3.333  -2.111   0.593  0.00  0.00    -0.013 C 
ATOM      9  C4' I4B d   1      -4.183  -3.079   1.374  0.00  0.00     0.013 C 
ATOM     10  C3' I4B d   1      -3.577  -0.699   1.033  0.00  0.00     0.013 C 
ENDBRANCH   7   8
ENDBRANCH   1   7
TORSDOF 2
ENDMDL
