MODEL 1
REMARK minimizedAffinity 11.5025244
REMARK minimizedRMSD -1
REMARK  2 active torsions:
REMARK  status: ('A' for Active; 'I' for Inactive)
REMARK    1  A    between atoms: C2'_3  and  C1'_4 
REMARK    2  A    between atoms: C1'_4  and  C1_5 
ROOT
ATOM      1  C1  I4B d   1      -0.799  -2.687  -0.781  0.00  0.00    -0.075 A 
ATOM      2  C2  I4B d   1       0.307  -2.268  -1.478  0.00  0.00     0.003 A 
ATOM      3  C3  I4B d   1       0.369  -2.433  -2.883  0.00  0.00     0.002 A 
ATOM      4  C4  I4B d   1      -0.669  -3.063  -3.539  0.00  0.00    -0.004 A 
ATOM      5  C5  I4B d   1      -1.799  -3.467  -2.834  0.00  0.00     0.002 A 
ATOM      6  C6  I4B d   1      -1.870  -3.266  -1.448  0.00  0.00     0.003 A 
ENDROOT
BRANCH   1   7
ATOM      7  C1' I4B d   1      -0.817  -2.527   0.706  0.00  0.00     0.060 C 
BRANCH   7   8
ATOM      8  C2' I4B d   1      -2.258  -2.350   1.139  0.00  0.00    -0.013 C 
ATOM      9  C4' I4B d   1      -2.435  -2.691   2.595  0.00  0.00     0.013 C 
ATOM     10  C3' I4B d   1      -2.653  -0.929   0.864  0.00  0.00     0.013 C 
ENDBRANCH   7   8
ENDBRANCH   1   7
TORSDOF 2
ENDMDL
