MODEL 1
REMARK minimizedAffinity 4.88707733
REMARK minimizedRMSD -1
REMARK  2 active torsions:
REMARK  status: ('A' for Active; 'I' for Inactive)
REMARK    1  A    between atoms: C2'_3  and  C1'_4 
REMARK    2  A    between atoms: C1'_4  and  C1_5 
ROOT
ATOM      1  C1  I4B d   1      -0.317  -2.845  -2.010  0.00  0.00    -0.075 A 
ATOM      2  C2  I4B d   1      -0.364  -2.235  -3.239  0.00  0.00     0.003 A 
ATOM      3  C3  I4B d   1      -0.279  -3.008  -4.422  0.00  0.00     0.002 A 
ATOM      4  C4  I4B d   1      -0.096  -4.372  -4.331  0.00  0.00    -0.004 A 
ATOM      5  C5  I4B d   1      -0.071  -4.992  -3.084  0.00  0.00     0.002 A 
ATOM      6  C6  I4B d   1      -0.194  -4.225  -1.917  0.00  0.00     0.003 A 
ENDROOT
BRANCH   1   7
ATOM      7  C1' I4B d   1      -0.377  -1.995  -0.781  0.00  0.00     0.060 C 
BRANCH   7   8
ATOM      8  C2' I4B d   1      -0.874  -2.859   0.360  0.00  0.00    -0.013 C 
ATOM      9  C4' I4B d   1       0.249  -3.231   1.292  0.00  0.00     0.013 C 
ATOM     10  C3' I4B d   1      -1.947  -2.100   1.082  0.00  0.00     0.013 C 
ENDBRANCH   7   8
ENDBRANCH   1   7
TORSDOF 2
ENDMDL
