MODEL 1
REMARK minimizedAffinity 8.26310825
REMARK minimizedRMSD -1
REMARK  2 active torsions:
REMARK  status: ('A' for Active; 'I' for Inactive)
REMARK    1  A    between atoms: C2'_3  and  C1'_4 
REMARK    2  A    between atoms: C1'_4  and  C1_5 
ROOT
ATOM      1  C1  I4B d   1      -3.391  -4.136  -4.498  0.00  0.00    -0.075 A 
ATOM      2  C2  I4B d   1      -4.566  -3.698  -3.939  0.00  0.00     0.003 A 
ATOM      3  C3  I4B d   1      -5.766  -4.421  -4.143  0.00  0.00     0.002 A 
ATOM      4  C4  I4B d   1      -5.756  -5.541  -4.949  0.00  0.00    -0.004 A 
ATOM      5  C5  I4B d   1      -4.560  -5.997  -5.496  0.00  0.00     0.002 A 
ATOM      6  C6  I4B d   1      -3.368  -5.298  -5.259  0.00  0.00     0.003 A 
ENDROOT
BRANCH   1   7
ATOM      7  C1' I4B d   1      -2.148  -3.330  -4.289  0.00  0.00     0.060 C 
BRANCH   7   8
ATOM      8  C2' I4B d   1      -0.958  -4.236  -4.532  0.00  0.00    -0.013 C 
ATOM      9  C4' I4B d   1      -0.506  -4.169  -5.967  0.00  0.00     0.013 C 
ATOM     10  C3' I4B d   1       0.138  -3.820  -3.598  0.00  0.00     0.013 C 
ENDBRANCH   7   8
ENDBRANCH   1   7
TORSDOF 2
ENDMDL
