MODEL 1
REMARK minimizedAffinity 6.59142256
REMARK minimizedRMSD -1
REMARK  2 active torsions:
REMARK  status: ('A' for Active; 'I' for Inactive)
REMARK    1  A    between atoms: C2'_3  and  C1'_4 
REMARK    2  A    between atoms: C1'_4  and  C1_5 
ROOT
ATOM      1  C1  I4B d   1       4.532  -3.178   5.889  0.00  0.00    -0.075 A 
ATOM      2  C2  I4B d   1       3.442  -4.011   5.829  0.00  0.00     0.003 A 
ATOM      3  C3  I4B d   1       3.620  -5.414   5.764  0.00  0.00     0.002 A 
ATOM      4  C4  I4B d   1       4.897  -5.935   5.710  0.00  0.00    -0.004 A 
ATOM      5  C5  I4B d   1       6.000  -5.091   5.794  0.00  0.00     0.002 A 
ATOM      6  C6  I4B d   1       5.817  -3.704   5.896  0.00  0.00     0.003 A 
ENDROOT
BRANCH   1   7
ATOM      7  C1' I4B d   1       4.308  -1.699   5.923  0.00  0.00     0.060 C 
BRANCH   7   8
ATOM      8  C2' I4B d   1       3.168  -1.378   4.978  0.00  0.00    -0.013 C 
ATOM      9  C4' I4B d   1       3.012  -2.446   3.928  0.00  0.00     0.013 C 
ATOM     10  C3' I4B d   1       1.918  -1.233   5.793  0.00  0.00     0.013 C 
ENDBRANCH   7   8
ENDBRANCH   1   7
TORSDOF 2
ENDMDL
