MODEL 1
REMARK minimizedAffinity 10.8072443
REMARK minimizedRMSD -1
REMARK  2 active torsions:
REMARK  status: ('A' for Active; 'I' for Inactive)
REMARK    1  A    between atoms: C2'_3  and  C1'_4 
REMARK    2  A    between atoms: C1'_4  and  C1_5 
ROOT
ATOM      1  C1  I4B d   1      -0.867  -2.173  -1.115  0.00  0.00    -0.075 A 
ATOM      2  C2  I4B d   1      -1.887  -2.713  -1.859  0.00  0.00     0.003 A 
ATOM      3  C3  I4B d   1      -1.689  -3.012  -3.229  0.00  0.00     0.002 A 
ATOM      4  C4  I4B d   1      -0.480  -2.710  -3.823  0.00  0.00    -0.004 A 
ATOM      5  C5  I4B d   1       0.560  -2.184  -3.062  0.00  0.00     0.002 A 
ATOM      6  C6  I4B d   1       0.370  -1.925  -1.696  0.00  0.00     0.003 A 
ENDROOT
BRANCH   1   7
ATOM      7  C1' I4B d   1      -1.121  -1.839   0.320  0.00  0.00     0.060 C 
BRANCH   7   8
ATOM      8  C2' I4B d   1      -1.115  -3.133   1.109  0.00  0.00    -0.013 C 
ATOM      9  C4' I4B d   1      -0.152  -4.127   0.517  0.00  0.00     0.013 C 
ATOM     10  C3' I4B d   1      -0.754  -2.808   2.528  0.00  0.00     0.013 C 
ENDBRANCH   7   8
ENDBRANCH   1   7
TORSDOF 2
ENDMDL
