MODEL 1
REMARK minimizedAffinity 15.0870275
REMARK minimizedRMSD -1
REMARK  2 active torsions:
REMARK  status: ('A' for Active; 'I' for Inactive)
REMARK    1  A    between atoms: C2'_3  and  C1'_4 
REMARK    2  A    between atoms: C1'_4  and  C1_5 
ROOT
ATOM      1  C1  I4B d   1      -3.802  -3.977  -4.039  0.00  0.00    -0.075 A 
ATOM      2  C2  I4B d   1      -3.244  -5.003  -4.761  0.00  0.00     0.003 A 
ATOM      3  C3  I4B d   1      -4.068  -6.000  -5.337  0.00  0.00     0.002 A 
ATOM      4  C4  I4B d   1      -5.431  -5.961  -5.123  0.00  0.00    -0.004 A 
ATOM      5  C5  I4B d   1      -5.997  -4.908  -4.410  0.00  0.00     0.002 A 
ATOM      6  C6  I4B d   1      -5.179  -3.903  -3.874  0.00  0.00     0.003 A 
ENDROOT
BRANCH   1   7
ATOM      7  C1' I4B d   1      -2.899  -2.960  -3.417  0.00  0.00     0.060 C 
BRANCH   7   8
ATOM      8  C2' I4B d   1      -1.471  -3.437  -3.587  0.00  0.00    -0.013 C 
ATOM      9  C4' I4B d   1      -1.052  -3.400  -5.033  0.00  0.00     0.013 C 
ATOM     10  C3' I4B d   1      -0.588  -2.564  -2.745  0.00  0.00     0.013 C 
ENDBRANCH   7   8
ENDBRANCH   1   7
TORSDOF 2
ENDMDL
