MODEL 1
REMARK minimizedAffinity 21.4393482
REMARK minimizedRMSD -1
REMARK  2 active torsions:
REMARK  status: ('A' for Active; 'I' for Inactive)
REMARK    1  A    between atoms: C2'_3  and  C1'_4 
REMARK    2  A    between atoms: C1'_4  and  C1_5 
ROOT
ATOM      1  C1  I4B d   1      -0.505  -2.228  -1.981  0.00  0.00    -0.075 A 
ATOM      2  C2  I4B d   1      -0.941  -1.218  -1.161  0.00  0.00     0.003 A 
ATOM      3  C3  I4B d   1      -0.810  -1.334   0.244  0.00  0.00     0.002 A 
ATOM      4  C4  I4B d   1      -0.287  -2.491   0.785  0.00  0.00    -0.004 A 
ATOM      5  C5  I4B d   1       0.176  -3.504  -0.049  0.00  0.00     0.002 A 
ATOM      6  C6  I4B d   1       0.078  -3.367  -1.442  0.00  0.00     0.003 A 
ENDROOT
BRANCH   1   7
ATOM      7  C1' I4B d   1      -0.689  -2.087  -3.459  0.00  0.00     0.060 C 
BRANCH   7   8
ATOM      8  C2' I4B d   1      -1.451  -3.300  -3.953  0.00  0.00    -0.013 C 
ATOM      9  C4' I4B d   1      -2.885  -3.268  -3.492  0.00  0.00     0.013 C 
ATOM     10  C3' I4B d   1      -1.364  -3.324  -5.449  0.00  0.00     0.013 C 
ENDBRANCH   7   8
ENDBRANCH   1   7
TORSDOF 2
ENDMDL
