MODEL 1
REMARK minimizedAffinity 5.61843348
REMARK minimizedRMSD -1
REMARK  2 active torsions:
REMARK  status: ('A' for Active; 'I' for Inactive)
REMARK    1  A    between atoms: C2'_3  and  C1'_4 
REMARK    2  A    between atoms: C1'_4  and  C1_5 
ROOT
ATOM      1  C1  I4B d   1      -1.531  -2.219  -0.672  0.00  0.00    -0.075 A 
ATOM      2  C2  I4B d   1      -0.200  -2.046  -0.959  0.00  0.00     0.003 A 
ATOM      3  C3  I4B d   1       0.271  -2.214  -2.284  0.00  0.00     0.002 A 
ATOM      4  C4  I4B d   1      -0.609  -2.602  -3.274  0.00  0.00    -0.004 A 
ATOM      5  C5  I4B d   1      -1.962  -2.754  -2.985  0.00  0.00     0.002 A 
ATOM      6  C6  I4B d   1      -2.429  -2.549  -1.678  0.00  0.00     0.003 A 
ENDROOT
BRANCH   1   7
ATOM      7  C1' I4B d   1      -1.988  -2.065   0.744  0.00  0.00     0.060 C 
BRANCH   7   8
ATOM      8  C2' I4B d   1      -3.451  -1.671   0.723  0.00  0.00    -0.013 C 
ATOM      9  C4' I4B d   1      -4.336  -2.842   1.058  0.00  0.00     0.013 C 
ATOM     10  C3' I4B d   1      -3.643  -0.550   1.700  0.00  0.00     0.013 C 
ENDBRANCH   7   8
ENDBRANCH   1   7
TORSDOF 2
ENDMDL
