MODEL 1
REMARK minimizedAffinity 9.59723759
REMARK minimizedRMSD -1
REMARK  2 active torsions:
REMARK  status: ('A' for Active; 'I' for Inactive)
REMARK    1  A    between atoms: C2'_3  and  C1'_4 
REMARK    2  A    between atoms: C1'_4  and  C1_5 
ROOT
ATOM      1  C1  I4B d   1      -0.578  -2.059  -3.082  0.00  0.00    -0.075 A 
ATOM      2  C2  I4B d   1      -1.454  -1.351  -2.298  0.00  0.00     0.003 A 
ATOM      3  C3  I4B d   1      -1.313  -1.356  -0.889  0.00  0.00     0.002 A 
ATOM      4  C4  I4B d   1      -0.318  -2.116  -0.308  0.00  0.00    -0.004 A 
ATOM      5  C5  I4B d   1       0.583  -2.815  -1.107  0.00  0.00     0.002 A 
ATOM      6  C6  I4B d   1       0.460  -2.776  -2.503  0.00  0.00     0.003 A 
ENDROOT
BRANCH   1   7
ATOM      7  C1' I4B d   1      -0.777  -2.059  -4.565  0.00  0.00     0.060 C 
BRANCH   7   8
ATOM      8  C2' I4B d   1      -0.681  -3.491  -5.049  0.00  0.00    -0.013 C 
ATOM      9  C4' I4B d   1      -1.942  -3.915  -5.754  0.00  0.00     0.013 C 
ATOM     10  C3' I4B d   1       0.508  -3.594  -5.958  0.00  0.00     0.013 C 
ENDBRANCH   7   8
ENDBRANCH   1   7
TORSDOF 2
ENDMDL
