MODEL 1
REMARK minimizedAffinity 13.292079
REMARK minimizedRMSD -1
REMARK  2 active torsions:
REMARK  status: ('A' for Active; 'I' for Inactive)
REMARK    1  A    between atoms: C2'_3  and  C1'_4 
REMARK    2  A    between atoms: C1'_4  and  C1_5 
ROOT
ATOM      1  C1  I4B d   1      -1.678  -3.244  -3.520  0.00  0.00    -0.075 A 
ATOM      2  C2  I4B d   1      -0.711  -2.919  -4.439  0.00  0.00     0.003 A 
ATOM      3  C3  I4B d   1      -0.699  -3.543  -5.710  0.00  0.00     0.002 A 
ATOM      4  C4  I4B d   1      -1.636  -4.514  -6.000  0.00  0.00    -0.004 A 
ATOM      5  C5  I4B d   1      -2.629  -4.825  -5.075  0.00  0.00     0.002 A 
ATOM      6  C6  I4B d   1      -2.658  -4.177  -3.832  0.00  0.00     0.003 A 
ENDROOT
BRANCH   1   7
ATOM      7  C1' I4B d   1      -1.641  -2.590  -2.174  0.00  0.00     0.060 C 
BRANCH   7   8
ATOM      8  C2' I4B d   1      -0.224  -2.687  -1.647  0.00  0.00    -0.013 C 
ATOM      9  C4' I4B d   1       0.093  -1.541  -0.722  0.00  0.00     0.013 C 
ATOM     10  C3' I4B d   1      -0.080  -4.005  -0.946  0.00  0.00     0.013 C 
ENDBRANCH   7   8
ENDBRANCH   1   7
TORSDOF 2
ENDMDL
