MODEL 1
REMARK minimizedAffinity 16.7236729
REMARK minimizedRMSD -1
REMARK  2 active torsions:
REMARK  status: ('A' for Active; 'I' for Inactive)
REMARK    1  A    between atoms: C2'_3  and  C1'_4 
REMARK    2  A    between atoms: C1'_4  and  C1_5 
ROOT
ATOM      1  C1  I4B d   1      -2.963   0.451   4.942  0.00  0.00    -0.075 A 
ATOM      2  C2  I4B d   1      -2.989  -0.004   3.648  0.00  0.00     0.003 A 
ATOM      3  C3  I4B d   1      -2.752  -1.372   3.368  0.00  0.00     0.002 A 
ATOM      4  C4  I4B d   1      -2.445  -2.234   4.402  0.00  0.00    -0.004 A 
ATOM      5  C5  I4B d   1      -2.442  -1.775   5.716  0.00  0.00     0.002 A 
ATOM      6  C6  I4B d   1      -2.714  -0.426   5.989  0.00  0.00     0.003 A 
ENDROOT
BRANCH   1   7
ATOM      7  C1' I4B d   1      -3.185   1.908   5.198  0.00  0.00     0.060 C 
BRANCH   7   8
ATOM      8  C2' I4B d   1      -4.466   2.052   5.995  0.00  0.00    -0.013 C 
ATOM      9  C4' I4B d   1      -5.101   3.399   5.768  0.00  0.00     0.013 C 
ATOM     10  C3' I4B d   1      -5.390   0.943   5.591  0.00  0.00     0.013 C 
ENDBRANCH   7   8
ENDBRANCH   1   7
TORSDOF 2
ENDMDL
