MODEL 1
REMARK minimizedAffinity -4.07184505
REMARK minimizedRMSD -1
REMARK  0 active torsions:
REMARK  status: ('A' for Active; 'I' for Inactive)
ROOT
ATOM      1  C   UNL d   1      -0.023  -1.039  -0.293  0.00  0.00     0.077 C 
ATOM      2  C1  UNL d   1       0.561   0.112   0.471  0.00  0.00    -0.074 A 
ATOM      3  C2  UNL d   1       0.782   0.022   1.849  0.00  0.00    -0.005 A 
ATOM      4  C3  UNL d   1       1.336   1.096   2.544  0.00  0.00     0.006 A 
ATOM      5  C4  UNL d   1       1.673   2.271   1.870  0.00  0.00    -0.005 A 
ATOM      6  C5  UNL d   1       1.460   2.379   0.492  0.00  0.00    -0.074 A 
ATOM      7  C6  UNL d   1       1.826   3.631  -0.249  0.00  0.00     0.077 C 
ATOM      8  C7  UNL d   1       0.910   1.292  -0.201  0.00  0.00    -0.001 A 
ENDROOT
TORSDOF 0
ENDMDL
