MODEL 1
REMARK minimizedAffinity -3.34284115
REMARK minimizedRMSD -1
REMARK  0 active torsions:
REMARK  status: ('A' for Active; 'I' for Inactive)
ROOT
ATOM      1  C   UNL d   1       0.384  -2.936   1.055  0.00  0.00     0.077 C 
ATOM      2  C1  UNL d   1       0.213  -1.498   0.663  0.00  0.00    -0.074 A 
ATOM      3  C2  UNL d   1      -1.055  -0.973   0.391  0.00  0.00    -0.005 A 
ATOM      4  C3  UNL d   1      -1.199   0.368   0.036  0.00  0.00     0.006 A 
ATOM      5  C4  UNL d   1      -0.080   1.196  -0.050  0.00  0.00    -0.005 A 
ATOM      6  C5  UNL d   1       1.195   0.689   0.219  0.00  0.00    -0.074 A 
ATOM      7  C6  UNL d   1       2.408   1.569   0.141  0.00  0.00     0.077 C 
ATOM      8  C7  UNL d   1       1.332  -0.658   0.581  0.00  0.00    -0.001 A 
ENDROOT
TORSDOF 0
ENDMDL
