MODEL 1
REMARK minimizedAffinity -1.94745898
REMARK minimizedRMSD -1
REMARK  0 active torsions:
REMARK  status: ('A' for Active; 'I' for Inactive)
ROOT
ATOM      1  C   UNL d   1       1.926   3.819   1.348  0.00  0.00     0.077 C 
ATOM      2  C1  UNL d   1       1.371   2.582   0.707  0.00  0.00    -0.074 A 
ATOM      3  C2  UNL d   1       2.033   1.967  -0.360  0.00  0.00    -0.005 A 
ATOM      4  C3  UNL d   1       1.510   0.811  -0.940  0.00  0.00     0.006 A 
ATOM      5  C4  UNL d   1       0.321   0.261  -0.460  0.00  0.00    -0.005 A 
ATOM      6  C5  UNL d   1      -0.355   0.862   0.607  0.00  0.00    -0.074 A 
ATOM      7  C6  UNL d   1      -1.629   0.278   1.142  0.00  0.00     0.077 C 
ATOM      8  C7  UNL d   1       0.181   2.019   1.189  0.00  0.00    -0.001 A 
ENDROOT
TORSDOF 0
ENDMDL
