MODEL 1
REMARK minimizedAffinity -5.62348223
REMARK minimizedRMSD -1
REMARK  0 active torsions:
REMARK  status: ('A' for Active; 'I' for Inactive)
ROOT
ATOM      1  C   UNL d   1      -2.683   0.401   1.936  0.00  0.00     0.077 C 
ATOM      2  C1  UNL d   1      -1.471   0.111   1.101  0.00  0.00    -0.074 A 
ATOM      3  C2  UNL d   1      -0.944   1.079   0.240  0.00  0.00    -0.005 A 
ATOM      4  C3  UNL d   1       0.189   0.798  -0.523  0.00  0.00     0.006 A 
ATOM      5  C4  UNL d   1       0.805  -0.451  -0.434  0.00  0.00    -0.005 A 
ATOM      6  C5  UNL d   1       0.292  -1.431   0.422  0.00  0.00    -0.074 A 
ATOM      7  C6  UNL d   1       0.948  -2.775   0.538  0.00  0.00     0.077 C 
ATOM      8  C7  UNL d   1      -0.842  -1.139   1.191  0.00  0.00    -0.001 A 
ENDROOT
TORSDOF 0
ENDMDL
