MODEL 1
REMARK minimizedAffinity -4.34275913
REMARK minimizedRMSD -1
REMARK  0 active torsions:
REMARK  status: ('A' for Active; 'I' for Inactive)
ROOT
ATOM      1  C   UNL d   1       0.735  -1.691   0.905  0.00  0.00     0.077 C 
ATOM      2  C1  UNL d   1       0.654  -0.238   0.544  0.00  0.00    -0.074 A 
ATOM      3  C2  UNL d   1      -0.272   0.218  -0.400  0.00  0.00    -0.005 A 
ATOM      4  C3  UNL d   1      -0.342   1.574  -0.719  0.00  0.00     0.006 A 
ATOM      5  C4  UNL d   1       0.512   2.486  -0.099  0.00  0.00    -0.005 A 
ATOM      6  C5  UNL d   1       1.443   2.050   0.848  0.00  0.00    -0.074 A 
ATOM      7  C6  UNL d   1       2.362   3.019   1.532  0.00  0.00     0.077 C 
ATOM      8  C7  UNL d   1       1.503   0.686   1.169  0.00  0.00    -0.001 A 
ENDROOT
TORSDOF 0
ENDMDL
