MODEL 1
REMARK minimizedAffinity -1.98289669
REMARK minimizedRMSD -1
REMARK  0 active torsions:
REMARK  status: ('A' for Active; 'I' for Inactive)
ROOT
ATOM      1  C   UNL d   1       0.729   2.635  -0.004  0.00  0.00     0.077 C 
ATOM      2  C1  UNL d   1       0.218   1.239   0.200  0.00  0.00    -0.074 A 
ATOM      3  C2  UNL d   1      -0.731   0.958   1.187  0.00  0.00    -0.005 A 
ATOM      4  C3  UNL d   1      -1.204  -0.343   1.358  0.00  0.00     0.006 A 
ATOM      5  C4  UNL d   1      -0.734  -1.374   0.545  0.00  0.00    -0.005 A 
ATOM      6  C5  UNL d   1       0.214  -1.112  -0.449  0.00  0.00    -0.074 A 
ATOM      7  C6  UNL d   1       0.723  -2.207  -1.339  0.00  0.00     0.077 C 
ATOM      8  C7  UNL d   1       0.680   0.199  -0.619  0.00  0.00    -0.001 A 
ENDROOT
TORSDOF 0
ENDMDL
