MODEL 1
REMARK minimizedAffinity -2.22002077
REMARK minimizedRMSD -1
REMARK  0 active torsions:
REMARK  status: ('A' for Active; 'I' for Inactive)
ROOT
ATOM      1  C   UNL d   1       0.879  -2.335  -1.923  0.00  0.00     0.077 C 
ATOM      2  C1  UNL d   1       0.456  -1.114  -1.160  0.00  0.00    -0.074 A 
ATOM      3  C2  UNL d   1       0.130   0.072  -1.826  0.00  0.00    -0.005 A 
ATOM      4  C3  UNL d   1      -0.272   1.196  -1.104  0.00  0.00     0.006 A 
ATOM      5  C4  UNL d   1      -0.350   1.145   0.288  0.00  0.00    -0.005 A 
ATOM      6  C5  UNL d   1      -0.029  -0.032   0.971  0.00  0.00    -0.074 A 
ATOM      7  C6  UNL d   1      -0.118  -0.107   2.466  0.00  0.00     0.077 C 
ATOM      8  C7  UNL d   1       0.367  -1.160   0.238  0.00  0.00    -0.001 A 
ENDROOT
TORSDOF 0
ENDMDL
