MODEL 1
REMARK minimizedAffinity -2.6945374
REMARK minimizedRMSD -1
REMARK  0 active torsions:
REMARK  status: ('A' for Active; 'I' for Inactive)
ROOT
ATOM      1  C   UNL d   1      -0.045  -1.972  -2.295  0.00  0.00     0.077 C 
ATOM      2  C1  UNL d   1      -0.234  -1.091  -1.096  0.00  0.00    -0.074 A 
ATOM      3  C2  UNL d   1      -0.862  -1.572   0.058  0.00  0.00    -0.005 A 
ATOM      4  C3  UNL d   1      -1.022  -0.744   1.168  0.00  0.00     0.006 A 
ATOM      5  C4  UNL d   1      -0.558   0.572   1.137  0.00  0.00    -0.005 A 
ATOM      6  C5  UNL d   1       0.072   1.070  -0.008  0.00  0.00    -0.074 A 
ATOM      7  C6  UNL d   1       0.586   2.479  -0.055  0.00  0.00     0.077 C 
ATOM      8  C7  UNL d   1       0.236   0.230  -1.117  0.00  0.00    -0.001 A 
ENDROOT
TORSDOF 0
ENDMDL
