MODEL 1
REMARK minimizedAffinity -3.20709538
REMARK minimizedRMSD -1
REMARK  0 active torsions:
REMARK  status: ('A' for Active; 'I' for Inactive)
ROOT
ATOM      1  C   UNL d   1       0.324   0.496  -0.258  0.00  0.00     0.077 C 
ATOM      2  C1  UNL d   1       0.901   1.810   0.178  0.00  0.00    -0.074 A 
ATOM      3  C2  UNL d   1       2.169   2.216  -0.250  0.00  0.00    -0.005 A 
ATOM      4  C3  UNL d   1       2.689   3.445   0.156  0.00  0.00     0.006 A 
ATOM      5  C4  UNL d   1       1.947   4.279   0.993  0.00  0.00    -0.005 A 
ATOM      6  C5  UNL d   1       0.677   3.891   1.431  0.00  0.00    -0.074 A 
ATOM      7  C6  UNL d   1      -0.137   4.780   2.323  0.00  0.00     0.077 C 
ATOM      8  C7  UNL d   1       0.159   2.657   1.013  0.00  0.00    -0.001 A 
ENDROOT
TORSDOF 0
ENDMDL
