MODEL 1
REMARK minimizedAffinity -5.32897472
REMARK minimizedRMSD -1
REMARK  0 active torsions:
REMARK  status: ('A' for Active; 'I' for Inactive)
ROOT
ATOM      1  C   UNL d   1      -0.001   0.479   1.041  0.00  0.00     0.077 C 
ATOM      2  C1  UNL d   1       0.011  -0.625   0.025  0.00  0.00    -0.074 A 
ATOM      3  C2  UNL d   1       0.201  -0.350  -1.333  0.00  0.00    -0.005 A 
ATOM      4  C3  UNL d   1       0.219  -1.388  -2.264  0.00  0.00     0.006 A 
ATOM      5  C4  UNL d   1       0.047  -2.709  -1.848  0.00  0.00    -0.005 A 
ATOM      6  C5  UNL d   1      -0.143  -3.003  -0.494  0.00  0.00    -0.074 A 
ATOM      7  C6  UNL d   1      -0.320  -4.418  -0.029  0.00  0.00     0.077 C 
ATOM      8  C7  UNL d   1      -0.154  -1.955   0.437  0.00  0.00    -0.001 A 
ENDROOT
TORSDOF 0
ENDMDL
