MODEL 1
REMARK minimizedAffinity -1.40749133
REMARK minimizedRMSD -1
REMARK  0 active torsions:
REMARK  status: ('A' for Active; 'I' for Inactive)
ROOT
ATOM      1  C   UNL d   1      -0.156  -1.159   1.438  0.00  0.00     0.077 C 
ATOM      2  C1  UNL d   1       0.033   0.153   0.736  0.00  0.00    -0.074 A 
ATOM      3  C2  UNL d   1      -0.648   0.438  -0.452  0.00  0.00    -0.005 A 
ATOM      4  C3  UNL d   1      -0.469   1.666  -1.088  0.00  0.00     0.006 A 
ATOM      5  C4  UNL d   1       0.391   2.621  -0.544  0.00  0.00    -0.005 A 
ATOM      6  C5  UNL d   1       1.080   2.354   0.644  0.00  0.00    -0.074 A 
ATOM      7  C6  UNL d   1       2.001   3.373   1.247  0.00  0.00     0.077 C 
ATOM      8  C7  UNL d   1       0.890   1.121   1.281  0.00  0.00    -0.001 A 
ENDROOT
TORSDOF 0
ENDMDL
