MODEL 1
REMARK minimizedAffinity -2.26093483
REMARK minimizedRMSD -1
REMARK  0 active torsions:
REMARK  status: ('A' for Active; 'I' for Inactive)
ROOT
ATOM      1  C   UNL d   1      -0.044   2.061   0.015  0.00  0.00     0.077 C 
ATOM      2  C1  UNL d   1       0.128   0.589  -0.214  0.00  0.00    -0.074 A 
ATOM      3  C2  UNL d   1      -0.071  -0.328   0.823  0.00  0.00    -0.005 A 
ATOM      4  C3  UNL d   1       0.083  -1.695   0.593  0.00  0.00     0.006 A 
ATOM      5  C4  UNL d   1       0.437  -2.158  -0.675  0.00  0.00    -0.005 A 
ATOM      6  C5  UNL d   1       0.639  -1.256  -1.725  0.00  0.00    -0.074 A 
ATOM      7  C6  UNL d   1       1.010  -1.738  -3.096  0.00  0.00     0.077 C 
ATOM      8  C7  UNL d   1       0.475   0.115  -1.487  0.00  0.00    -0.001 A 
ENDROOT
TORSDOF 0
ENDMDL
