MODEL 1
REMARK minimizedAffinity -5.56217289
REMARK minimizedRMSD -1
REMARK  0 active torsions:
REMARK  status: ('A' for Active; 'I' for Inactive)
ROOT
ATOM      1  C   UNL d   1       1.493   1.887  -0.572  0.00  0.00     0.077 C 
ATOM      2  C1  UNL d   1       0.671   0.755  -0.030  0.00  0.00    -0.074 A 
ATOM      3  C2  UNL d   1      -0.366   0.991   0.878  0.00  0.00    -0.005 A 
ATOM      4  C3  UNL d   1      -1.128  -0.070   1.366  0.00  0.00     0.006 A 
ATOM      5  C4  UNL d   1      -0.861  -1.376   0.952  0.00  0.00    -0.005 A 
ATOM      6  C5  UNL d   1       0.171  -1.631   0.044  0.00  0.00    -0.074 A 
ATOM      7  C6  UNL d   1       0.465  -3.027  -0.419  0.00  0.00     0.077 C 
ATOM      8  C7  UNL d   1       0.928  -0.558  -0.447  0.00  0.00    -0.001 A 
ENDROOT
TORSDOF 0
ENDMDL
