MODEL 1
REMARK minimizedAffinity -3.33475757
REMARK minimizedRMSD -1
REMARK  0 active torsions:
REMARK  status: ('A' for Active; 'I' for Inactive)
ROOT
ATOM      1  C   UNL d   1       0.373   1.459  -1.431  0.00  0.00     0.077 C 
ATOM      2  C1  UNL d   1       0.660   0.471  -0.339  0.00  0.00    -0.074 A 
ATOM      3  C2  UNL d   1       1.386   0.845   0.796  0.00  0.00    -0.005 A 
ATOM      4  C3  UNL d   1       1.637  -0.082   1.807  0.00  0.00     0.006 A 
ATOM      5  C4  UNL d   1       1.165  -1.390   1.694  0.00  0.00    -0.005 A 
ATOM      6  C5  UNL d   1       0.436  -1.782   0.567  0.00  0.00    -0.074 A 
ATOM      7  C6  UNL d   1      -0.087  -3.182   0.434  0.00  0.00     0.077 C 
ATOM      8  C7  UNL d   1       0.182  -0.843  -0.442  0.00  0.00    -0.001 A 
ENDROOT
TORSDOF 0
ENDMDL
