MODEL 1
REMARK minimizedAffinity 4.36212683
REMARK minimizedRMSD -1
REMARK  0 active torsions:
REMARK  status: ('A' for Active; 'I' for Inactive)
ROOT
ATOM      1  C1  BNZ d   1       0.651   1.366  -2.306  0.00  0.00     0.000 A 
ATOM      2  C2  BNZ d   1       0.773   2.730  -2.278  0.00  0.00     0.000 A 
ATOM      3  C3  BNZ d   1       1.647   3.336  -1.419  0.00  0.00     0.000 A 
ATOM      4  C4  BNZ d   1       2.366   2.582  -0.563  0.00  0.00     0.000 A 
ATOM      5  C5  BNZ d   1       2.247   1.206  -0.573  0.00  0.00     0.000 A 
ATOM      6  C6  BNZ d   1       1.395   0.597  -1.466  0.00  0.00     0.000 A 
ENDROOT
TORSDOF 0
ENDMDL
