MODEL 1
REMARK minimizedAffinity -2.28722048
REMARK minimizedRMSD -1
REMARK  0 active torsions:
REMARK  status: ('A' for Active; 'I' for Inactive)
ROOT
ATOM      1  C1  BNZ d   1       1.437   3.284  -0.677  0.00  0.00     0.000 A 
ATOM      2  C2  BNZ d   1       1.940   2.138  -0.122  0.00  0.00     0.000 A 
ATOM      3  C3  BNZ d   1       1.834   0.941  -0.774  0.00  0.00     0.000 A 
ATOM      4  C4  BNZ d   1       1.192   0.884  -1.958  0.00  0.00     0.000 A 
ATOM      5  C5  BNZ d   1       0.671   2.030  -2.526  0.00  0.00     0.000 A 
ATOM      6  C6  BNZ d   1       0.814   3.240  -1.886  0.00  0.00     0.000 A 
ENDROOT
TORSDOF 0
ENDMDL
