MODEL 1
REMARK minimizedAffinity -3.17925954
REMARK minimizedRMSD -1
REMARK  0 active torsions:
REMARK  status: ('A' for Active; 'I' for Inactive)
ROOT
ATOM      1  C1  BNZ d   1       1.366   1.761  -1.891  0.00  0.00     0.000 A 
ATOM      2  C2  BNZ d   1       1.076   3.066  -1.593  0.00  0.00     0.000 A 
ATOM      3  C3  BNZ d   1       1.161   3.525  -0.308  0.00  0.00     0.000 A 
ATOM      4  C4  BNZ d   1       1.495   2.671   0.681  0.00  0.00     0.000 A 
ATOM      5  C5  BNZ d   1       1.781   1.351   0.397  0.00  0.00     0.000 A 
ATOM      6  C6  BNZ d   1       1.733   0.901  -0.903  0.00  0.00     0.000 A 
ENDROOT
TORSDOF 0
ENDMDL
