MODEL 1
REMARK minimizedAffinity -0.0370203517
REMARK minimizedRMSD -1
REMARK  0 active torsions:
REMARK  status: ('A' for Active; 'I' for Inactive)
ROOT
ATOM      1  C1  BNZ d   1      -3.359  -4.944   3.848  0.00  0.00     0.000 A 
ATOM      2  C2  BNZ d   1      -2.665  -4.103   3.020  0.00  0.00     0.000 A 
ATOM      3  C3  BNZ d   1      -2.092  -2.960   3.505  0.00  0.00     0.000 A 
ATOM      4  C4  BNZ d   1      -2.247  -2.641   4.806  0.00  0.00     0.000 A 
ATOM      5  C5  BNZ d   1      -2.953  -3.474   5.651  0.00  0.00     0.000 A 
ATOM      6  C6  BNZ d   1      -3.495  -4.643   5.168  0.00  0.00     0.000 A 
ENDROOT
TORSDOF 0
ENDMDL
