MODEL 1
REMARK minimizedAffinity 0.903708637
REMARK minimizedRMSD -1
REMARK  0 active torsions:
REMARK  status: ('A' for Active; 'I' for Inactive)
ROOT
ATOM      1  C1  BNZ d   1      -2.494   1.422   5.248  0.00  0.00     0.000 A 
ATOM      2  C2  BNZ d   1      -1.869   0.391   5.897  0.00  0.00     0.000 A 
ATOM      3  C3  BNZ d   1      -1.351  -0.664   5.199  0.00  0.00     0.000 A 
ATOM      4  C4  BNZ d   1      -1.494  -0.707   3.859  0.00  0.00     0.000 A 
ATOM      5  C5  BNZ d   1      -2.130   0.320   3.191  0.00  0.00     0.000 A 
ATOM      6  C6  BNZ d   1      -2.616   1.400   3.893  0.00  0.00     0.000 A 
ENDROOT
TORSDOF 0
ENDMDL
