MODEL 1
REMARK minimizedAffinity -1.38216543
REMARK minimizedRMSD -1
REMARK  0 active torsions:
REMARK  status: ('A' for Active; 'I' for Inactive)
ROOT
ATOM      1  C1  BNZ d   1       1.298  -0.841  -0.836  0.00  0.00     0.000 A 
ATOM      2  C2  BNZ d   1       1.557  -0.092  -1.952  0.00  0.00     0.000 A 
ATOM      3  C3  BNZ d   1       1.619   1.272  -1.881  0.00  0.00     0.000 A 
ATOM      4  C4  BNZ d   1       1.382   1.886  -0.704  0.00  0.00     0.000 A 
ATOM      5  C5  BNZ d   1       1.110   1.145   0.429  0.00  0.00     0.000 A 
ATOM      6  C6  BNZ d   1       1.088  -0.229   0.362  0.00  0.00     0.000 A 
ENDROOT
TORSDOF 0
ENDMDL
