MODEL 1
REMARK minimizedAffinity -0.29218933
REMARK minimizedRMSD -1
REMARK  0 active torsions:
REMARK  status: ('A' for Active; 'I' for Inactive)
ROOT
ATOM      1  C1  BNZ d   1       2.250   2.229  -1.316  0.00  0.00     0.000 A 
ATOM      2  C2  BNZ d   1       1.500   1.563  -2.249  0.00  0.00     0.000 A 
ATOM      3  C3  BNZ d   1       0.306   2.071  -2.679  0.00  0.00     0.000 A 
ATOM      4  C4  BNZ d   1      -0.155   3.221  -2.147  0.00  0.00     0.000 A 
ATOM      5  C5  BNZ d   1       0.585   3.899  -1.199  0.00  0.00     0.000 A 
ATOM      6  C6  BNZ d   1       1.805   3.405  -0.797  0.00  0.00     0.000 A 
ENDROOT
TORSDOF 0
ENDMDL
