MODEL 1
REMARK minimizedAffinity -5.66478109
REMARK minimizedRMSD -1
REMARK  0 active torsions:
REMARK  status: ('A' for Active; 'I' for Inactive)
ROOT
ATOM      1  C1  BNZ d   1       1.310   3.256  -0.542  0.00  0.00     0.000 A 
ATOM      2  C2  BNZ d   1       1.367   2.335  -1.554  0.00  0.00     0.000 A 
ATOM      3  C3  BNZ d   1       1.240   0.999  -1.293  0.00  0.00     0.000 A 
ATOM      4  C4  BNZ d   1       1.096   0.584  -0.018  0.00  0.00     0.000 A 
ATOM      5  C5  BNZ d   1       1.047   1.499   1.014  0.00  0.00     0.000 A 
ATOM      6  C6  BNZ d   1       1.136   2.845   0.744  0.00  0.00     0.000 A 
ENDROOT
TORSDOF 0
ENDMDL
