MODEL 1
REMARK minimizedAffinity -3.45775509
REMARK minimizedRMSD -1
REMARK  0 active torsions:
REMARK  status: ('A' for Active; 'I' for Inactive)
ROOT
ATOM      1  C1  BNZ d   1       1.515   2.199  -1.784  0.00  0.00     0.000 A 
ATOM      2  C2  BNZ d   1       1.650   0.849  -1.603  0.00  0.00     0.000 A 
ATOM      3  C3  BNZ d   1       1.419   0.280  -0.382  0.00  0.00     0.000 A 
ATOM      4  C4  BNZ d   1       1.093   1.065   0.665  0.00  0.00     0.000 A 
ATOM      5  C5  BNZ d   1       0.962   2.430   0.501  0.00  0.00     0.000 A 
ATOM      6  C6  BNZ d   1       1.158   2.994  -0.739  0.00  0.00     0.000 A 
ENDROOT
TORSDOF 0
ENDMDL
