MODEL 1
REMARK minimizedAffinity -0.738506138
REMARK minimizedRMSD -1
REMARK  0 active torsions:
REMARK  status: ('A' for Active; 'I' for Inactive)
ROOT
ATOM      1  C1  BNZ d   1      -5.062  -0.003   3.064  0.00  0.00     0.000 A 
ATOM      2  C2  BNZ d   1      -3.820   0.499   2.780  0.00  0.00     0.000 A 
ATOM      3  C3  BNZ d   1      -3.423   1.710   3.275  0.00  0.00     0.000 A 
ATOM      4  C4  BNZ d   1      -4.283   2.434   4.020  0.00  0.00     0.000 A 
ATOM      5  C5  BNZ d   1      -5.542   1.947   4.307  0.00  0.00     0.000 A 
ATOM      6  C6  BNZ d   1      -5.923   0.710   3.839  0.00  0.00     0.000 A 
ENDROOT
TORSDOF 0
ENDMDL
