MODEL 1
REMARK minimizedAffinity -1.71632755
REMARK minimizedRMSD -1
REMARK  0 active torsions:
REMARK  status: ('A' for Active; 'I' for Inactive)
ROOT
ATOM      1  C1  BNZ d   1       1.482   1.477  -1.953  0.00  0.00     0.000 A 
ATOM      2  C2  BNZ d   1       1.218   2.785  -2.263  0.00  0.00     0.000 A 
ATOM      3  C3  BNZ d   1       1.251   3.753  -1.298  0.00  0.00     0.000 A 
ATOM      4  C4  BNZ d   1       1.508   3.407  -0.020  0.00  0.00     0.000 A 
ATOM      5  C5  BNZ d   1       1.767   2.091   0.309  0.00  0.00     0.000 A 
ATOM      6  C6  BNZ d   1       1.771   1.126  -0.671  0.00  0.00     0.000 A 
ENDROOT
TORSDOF 0
ENDMDL
