MODEL 1
REMARK minimizedAffinity -0.991517305
REMARK minimizedRMSD -1
REMARK  0 active torsions:
REMARK  status: ('A' for Active; 'I' for Inactive)
ROOT
ATOM      1  C1  BNZ d   1       1.452  -0.752  -0.441  0.00  0.00     0.000 A 
ATOM      2  C2  BNZ d   1       0.766  -0.428  -1.581  0.00  0.00     0.000 A 
ATOM      3  C3  BNZ d   1       0.627   0.876  -1.967  0.00  0.00     0.000 A 
ATOM      4  C4  BNZ d   1       1.139   1.855  -1.193  0.00  0.00     0.000 A 
ATOM      5  C5  BNZ d   1       1.825   1.544  -0.036  0.00  0.00     0.000 A 
ATOM      6  C6  BNZ d   1       1.997   0.228   0.329  0.00  0.00     0.000 A 
ENDROOT
TORSDOF 0
ENDMDL
