MODEL 1
REMARK minimizedAffinity -4.40275335
REMARK minimizedRMSD -1
REMARK  0 active torsions:
REMARK  status: ('A' for Active; 'I' for Inactive)
ROOT
ATOM      1  C1  BNZ d   1       1.149   0.744   0.093  0.00  0.00     0.000 A 
ATOM      2  C2  BNZ d   1       1.193   0.813  -1.274  0.00  0.00     0.000 A 
ATOM      3  C3  BNZ d   1       1.377   2.009  -1.909  0.00  0.00     0.000 A 
ATOM      4  C4  BNZ d   1       1.476   3.139  -1.179  0.00  0.00     0.000 A 
ATOM      5  C5  BNZ d   1       1.425   3.087   0.200  0.00  0.00     0.000 A 
ATOM      6  C6  BNZ d   1       1.279   1.876   0.837  0.00  0.00     0.000 A 
ENDROOT
TORSDOF 0
ENDMDL
