MODEL 1
REMARK minimizedAffinity -3.70615935
REMARK minimizedRMSD -1
REMARK  0 active torsions:
REMARK  status: ('A' for Active; 'I' for Inactive)
ROOT
ATOM      1  C1  BNZ d   1       1.062   1.075  -0.075  0.00  0.00     0.000 A 
ATOM      2  C2  BNZ d   1       1.183   1.645  -1.315  0.00  0.00     0.000 A 
ATOM      3  C3  BNZ d   1       1.381   2.990  -1.451  0.00  0.00     0.000 A 
ATOM      4  C4  BNZ d   1       1.417   3.770  -0.351  0.00  0.00     0.000 A 
ATOM      5  C5  BNZ d   1       1.287   3.212   0.905  0.00  0.00     0.000 A 
ATOM      6  C6  BNZ d   1       1.128   1.852   1.040  0.00  0.00     0.000 A 
ENDROOT
TORSDOF 0
ENDMDL
