MODEL 1
REMARK minimizedAffinity -1.24397123
REMARK minimizedRMSD -1
REMARK  0 active torsions:
REMARK  status: ('A' for Active; 'I' for Inactive)
ROOT
ATOM      1  C1  BNZ d   1       1.513   2.778  -0.185  0.00  0.00     0.000 A 
ATOM      2  C2  BNZ d   1       1.261   1.558   0.385  0.00  0.00     0.000 A 
ATOM      3  C3  BNZ d   1       0.866   0.496  -0.380  0.00  0.00     0.000 A 
ATOM      4  C4  BNZ d   1       0.685   0.665  -1.706  0.00  0.00     0.000 A 
ATOM      5  C5  BNZ d   1       0.926   1.891  -2.293  0.00  0.00     0.000 A 
ATOM      6  C6  BNZ d   1       1.361   2.947  -1.526  0.00  0.00     0.000 A 
ENDROOT
TORSDOF 0
ENDMDL
