MODEL 1
REMARK minimizedAffinity 4.80276251
REMARK minimizedRMSD -1
REMARK  0 active torsions:
REMARK  status: ('A' for Active; 'I' for Inactive)
ROOT
ATOM      1  C1  BNZ d   1       1.518   3.567  -1.134  0.00  0.00     0.000 A 
ATOM      2  C2  BNZ d   1       1.111   3.211  -2.392  0.00  0.00     0.000 A 
ATOM      3  C3  BNZ d   1       0.848   1.906  -2.699  0.00  0.00     0.000 A 
ATOM      4  C4  BNZ d   1       1.031   0.954  -1.761  0.00  0.00     0.000 A 
ATOM      5  C5  BNZ d   1       1.450   1.296  -0.491  0.00  0.00     0.000 A 
ATOM      6  C6  BNZ d   1       1.676   2.615  -0.174  0.00  0.00     0.000 A 
ENDROOT
TORSDOF 0
ENDMDL
