MODEL 1
REMARK minimizedAffinity -0.612987041
REMARK minimizedRMSD -1
REMARK  0 active torsions:
REMARK  status: ('A' for Active; 'I' for Inactive)
ROOT
ATOM      1  C   UNL d   1       6.000   4.880   3.777  0.00  0.00     0.077 C 
ATOM      2  C1  UNL d   1       5.470   3.494   3.556  0.00  0.00    -0.074 A 
ATOM      3  C2  UNL d   1       4.513   3.240   2.569  0.00  0.00    -0.005 A 
ATOM      4  C3  UNL d   1       4.037   1.944   2.368  0.00  0.00     0.006 A 
ATOM      5  C4  UNL d   1       4.512   0.892   3.151  0.00  0.00    -0.005 A 
ATOM      6  C5  UNL d   1       5.470   1.127   4.143  0.00  0.00    -0.074 A 
ATOM      7  C6  UNL d   1       5.999   0.006   4.987  0.00  0.00     0.077 C 
ATOM      8  C7  UNL d   1       5.949   2.430   4.333  0.00  0.00    -0.001 A 
ENDROOT
TORSDOF 0
ENDMDL
