MODEL 1
REMARK minimizedAffinity 0.0231322274
REMARK minimizedRMSD -1
REMARK  0 active torsions:
REMARK  status: ('A' for Active; 'I' for Inactive)
ROOT
ATOM      1  C   UNL d   1       5.987   1.522   2.272  0.00  0.00     0.077 C 
ATOM      2  C1  UNL d   1       5.969   0.782   3.577  0.00  0.00    -0.074 A 
ATOM      3  C2  UNL d   1       6.000   1.470   4.794  0.00  0.00    -0.005 A 
ATOM      4  C3  UNL d   1       5.972   0.769   5.999  0.00  0.00     0.006 A 
ATOM      5  C4  UNL d   1       5.913  -0.625   6.000  0.00  0.00    -0.005 A 
ATOM      6  C5  UNL d   1       5.881  -1.331   4.793  0.00  0.00    -0.074 A 
ATOM      7  C6  UNL d   1       5.807  -2.829   4.776  0.00  0.00     0.077 C 
ATOM      8  C7  UNL d   1       5.901  -0.618   3.586  0.00  0.00    -0.001 A 
ENDROOT
TORSDOF 0
ENDMDL
