MODEL 1
REMARK minimizedAffinity -2.62694383
REMARK minimizedRMSD -1
REMARK  0 active torsions:
REMARK  status: ('A' for Active; 'I' for Inactive)
ROOT
ATOM      1  C   UNL d   1       6.000   1.016   5.988  0.00  0.00     0.077 C 
ATOM      2  C1  UNL d   1       5.963   1.871   4.756  0.00  0.00    -0.074 A 
ATOM      3  C2  UNL d   1       5.877   1.296   3.484  0.00  0.00    -0.005 A 
ATOM      4  C3  UNL d   1       5.834   2.104   2.349  0.00  0.00     0.006 A 
ATOM      5  C4  UNL d   1       5.877   3.494   2.473  0.00  0.00    -0.005 A 
ATOM      6  C5  UNL d   1       5.962   4.086   3.737  0.00  0.00    -0.074 A 
ATOM      7  C6  UNL d   1       6.000   5.578   3.889  0.00  0.00     0.077 C 
ATOM      8  C7  UNL d   1       5.998   3.267   4.874  0.00  0.00    -0.001 A 
ENDROOT
TORSDOF 0
ENDMDL
