MODEL 1
REMARK minimizedAffinity 1.80058992
REMARK minimizedRMSD -1
REMARK  0 active torsions:
REMARK  status: ('A' for Active; 'I' for Inactive)
ROOT
ATOM      1  C   UNL d   1       5.964   3.995   6.000  0.00  0.00     0.077 C 
ATOM      2  C1  UNL d   1       5.956   2.925   4.950  0.00  0.00    -0.074 A 
ATOM      3  C2  UNL d   1       5.999   3.251   3.590  0.00  0.00    -0.005 A 
ATOM      4  C3  UNL d   1       6.000   2.244   2.625  0.00  0.00     0.006 A 
ATOM      5  C4  UNL d   1       5.958   0.903   3.009  0.00  0.00    -0.005 A 
ATOM      6  C5  UNL d   1       5.916   0.558   4.363  0.00  0.00    -0.074 A 
ATOM      7  C6  UNL d   1       5.881  -0.879   4.793  0.00  0.00     0.077 C 
ATOM      8  C7  UNL d   1       5.922   1.575   5.327  0.00  0.00    -0.001 A 
ENDROOT
TORSDOF 0
ENDMDL
