MODEL 1
REMARK minimizedAffinity -2.37454605
REMARK minimizedRMSD -1
REMARK  0 active torsions:
REMARK  status: ('A' for Active; 'I' for Inactive)
ROOT
ATOM      1  C   UNL d   1       5.636  -0.345   6.000  0.00  0.00     0.077 C 
ATOM      2  C1  UNL d   1       5.697   0.477   4.747  0.00  0.00    -0.074 A 
ATOM      3  C2  UNL d   1       5.951  -0.120   3.507  0.00  0.00    -0.005 A 
ATOM      4  C3  UNL d   1       5.994   0.656   2.349  0.00  0.00     0.006 A 
ATOM      5  C4  UNL d   1       5.784   2.034   2.418  0.00  0.00    -0.005 A 
ATOM      6  C5  UNL d   1       5.528   2.648   3.648  0.00  0.00    -0.074 A 
ATOM      7  C6  UNL d   1       5.290   4.126   3.738  0.00  0.00     0.077 C 
ATOM      8  C7  UNL d   1       5.479   1.861   4.807  0.00  0.00    -0.001 A 
ENDROOT
TORSDOF 0
ENDMDL
