MODEL 1
REMARK minimizedAffinity 14.4772291
REMARK minimizedRMSD -1
REMARK  0 active torsions:
REMARK  status: ('A' for Active; 'I' for Inactive)
ROOT
ATOM      1  C   UNL d   1      -3.245   4.810   4.723  0.00  0.00     0.077 C 
ATOM      2  C1  UNL d   1      -2.014   4.464   3.940  0.00  0.00    -0.074 A 
ATOM      3  C2  UNL d   1      -0.739   4.722   4.453  0.00  0.00    -0.005 A 
ATOM      4  C3  UNL d   1       0.398   4.386   3.717  0.00  0.00     0.006 A 
ATOM      5  C4  UNL d   1       0.271   3.790   2.462  0.00  0.00    -0.005 A 
ATOM      6  C5  UNL d   1      -0.996   3.523   1.933  0.00  0.00    -0.074 A 
ATOM      7  C6  UNL d   1      -1.150   2.874   0.590  0.00  0.00     0.077 C 
ATOM      8  C7  UNL d   1      -2.133   3.857   2.681  0.00  0.00    -0.001 A 
ENDROOT
TORSDOF 0
ENDMDL
