MODEL 1
REMARK minimizedAffinity 6.08352613
REMARK minimizedRMSD -1
REMARK  0 active torsions:
REMARK  status: ('A' for Active; 'I' for Inactive)
ROOT
ATOM      1  C   UNL d   1      -0.950   4.102   3.343  0.00  0.00     0.077 C 
ATOM      2  C1  UNL d   1      -0.982   2.606   3.228  0.00  0.00    -0.074 A 
ATOM      3  C2  UNL d   1      -1.578   1.822   4.220  0.00  0.00    -0.005 A 
ATOM      4  C3  UNL d   1      -1.609   0.433   4.094  0.00  0.00     0.006 A 
ATOM      5  C4  UNL d   1      -1.045  -0.184   2.977  0.00  0.00    -0.005 A 
ATOM      6  C5  UNL d   1      -0.446   0.584   1.974  0.00  0.00    -0.074 A 
ATOM      7  C6  UNL d   1       0.156  -0.062   0.762  0.00  0.00     0.077 C 
ATOM      8  C7  UNL d   1      -0.425   1.980   2.105  0.00  0.00    -0.001 A 
ENDROOT
TORSDOF 0
ENDMDL
