MODEL 1
REMARK minimizedAffinity -2.34700012
REMARK minimizedRMSD -1
REMARK  0 active torsions:
REMARK  status: ('A' for Active; 'I' for Inactive)
ROOT
ATOM      1  C   UNL d   1       5.998   4.160   3.351  0.00  0.00     0.077 C 
ATOM      2  C1  UNL d   1       6.000   2.739   3.832  0.00  0.00    -0.074 A 
ATOM      3  C2  UNL d   1       5.983   2.443   5.198  0.00  0.00    -0.005 A 
ATOM      4  C3  UNL d   1       5.975   1.117   5.630  0.00  0.00     0.006 A 
ATOM      5  C4  UNL d   1       5.984   0.075   4.702  0.00  0.00    -0.005 A 
ATOM      6  C5  UNL d   1       5.999   0.352   3.331  0.00  0.00    -0.074 A 
ATOM      7  C6  UNL d   1       5.998  -0.756   2.320  0.00  0.00     0.077 C 
ATOM      8  C7  UNL d   1       6.000   1.687   2.905  0.00  0.00    -0.001 A 
ENDROOT
TORSDOF 0
ENDMDL
