MODEL 1
REMARK minimizedAffinity -0.685469925
REMARK minimizedRMSD -1
REMARK  0 active torsions:
REMARK  status: ('A' for Active; 'I' for Inactive)
ROOT
ATOM      1  C   UNL d   1       5.989  -0.583   3.772  0.00  0.00     0.077 C 
ATOM      2  C1  UNL d   1       5.408   0.799   3.782  0.00  0.00    -0.074 A 
ATOM      3  C2  UNL d   1       4.351   1.129   4.637  0.00  0.00    -0.005 A 
ATOM      4  C3  UNL d   1       3.827   2.421   4.642  0.00  0.00     0.006 A 
ATOM      5  C4  UNL d   1       4.353   3.396   3.793  0.00  0.00    -0.005 A 
ATOM      6  C5  UNL d   1       5.409   3.085   2.931  0.00  0.00    -0.074 A 
ATOM      7  C6  UNL d   1       5.992   4.123   2.019  0.00  0.00     0.077 C 
ATOM      8  C7  UNL d   1       5.935   1.786   2.937  0.00  0.00    -0.001 A 
ENDROOT
TORSDOF 0
ENDMDL
