MODEL 1
REMARK minimizedAffinity 0.782049954
REMARK minimizedRMSD -1
REMARK  0 active torsions:
REMARK  status: ('A' for Active; 'I' for Inactive)
ROOT
ATOM      1  C   UNL d   1       5.570  -2.079   4.869  0.00  0.00     0.077 C 
ATOM      2  C1  UNL d   1       5.569  -0.580   4.875  0.00  0.00    -0.074 A 
ATOM      3  C2  UNL d   1       5.998   0.136   5.997  0.00  0.00    -0.005 A 
ATOM      4  C3  UNL d   1       6.000   1.530   5.984  0.00  0.00     0.006 A 
ATOM      5  C4  UNL d   1       5.573   2.223   4.851  0.00  0.00    -0.005 A 
ATOM      6  C5  UNL d   1       5.141   1.525   3.718  0.00  0.00    -0.074 A 
ATOM      7  C6  UNL d   1       4.688   2.254   2.488  0.00  0.00     0.077 C 
ATOM      8  C7  UNL d   1       5.149   0.123   3.737  0.00  0.00    -0.001 A 
ENDROOT
TORSDOF 0
ENDMDL
