MODEL 1
REMARK minimizedAffinity -2.30374169
REMARK minimizedRMSD -1
REMARK  0 active torsions:
REMARK  status: ('A' for Active; 'I' for Inactive)
ROOT
ATOM      1  C   UNL d   1       5.999   5.239   0.791  0.00  0.00     0.077 C 
ATOM      2  C1  UNL d   1       5.610   4.373   1.952  0.00  0.00    -0.074 A 
ATOM      3  C2  UNL d   1       4.880   4.896   3.025  0.00  0.00    -0.005 A 
ATOM      4  C3  UNL d   1       4.517   4.076   4.094  0.00  0.00     0.006 A 
ATOM      5  C4  UNL d   1       4.879   2.729   4.101  0.00  0.00    -0.005 A 
ATOM      6  C5  UNL d   1       5.608   2.189   3.036  0.00  0.00    -0.074 A 
ATOM      7  C6  UNL d   1       5.997   0.740   3.024  0.00  0.00     0.077 C 
ATOM      8  C7  UNL d   1       5.963   3.017   1.963  0.00  0.00    -0.001 A 
ENDROOT
TORSDOF 0
ENDMDL
