MODEL 1
REMARK minimizedAffinity 5.41693306
REMARK minimizedRMSD -1
REMARK  0 active torsions:
REMARK  status: ('A' for Active; 'I' for Inactive)
ROOT
ATOM      1  C   UNL d   1       2.041  -3.624  -0.787  0.00  0.00    -0.002 A 
ATOM      2  C1  UNL d   1       3.200  -3.186  -0.162  0.00  0.00     0.010 A 
ATOM      3  C2  UNL d   1       3.134  -2.307   0.920  0.00  0.00     0.041 A 
ATOM      4  C3  UNL d   1       1.871  -1.872   1.369  0.00  0.00    -0.075 A 
ATOM      5  S   UNL d   1       1.547  -0.796   2.677  0.00  0.00     0.015 SA
ATOM      6  C4  UNL d   1      -0.138  -0.894   2.437  0.00  0.00     0.022 A 
ATOM      7  C5  UNL d   1      -0.462  -1.722   1.389  0.00  0.00     0.026 A 
ATOM      8  C6  UNL d   1       0.690  -2.300   0.756  0.00  0.00    -0.082 A 
ATOM      9  C7  UNL d   1       0.790  -3.191  -0.339  0.00  0.00     0.045 A 
ENDROOT
TORSDOF 0
ENDMDL
