MODEL 1
REMARK minimizedAffinity 3.88094425
REMARK minimizedRMSD -1
REMARK  0 active torsions:
REMARK  status: ('A' for Active; 'I' for Inactive)
ROOT
ATOM      1  C   UNL d   1       2.216  -0.145  -0.837  0.00  0.00    -0.002 A 
ATOM      2  C1  UNL d   1       2.694   0.624   0.215  0.00  0.00     0.010 A 
ATOM      3  C2  UNL d   1       1.967   0.734   1.402  0.00  0.00     0.041 A 
ATOM      4  C3  UNL d   1       0.740   0.050   1.515  0.00  0.00    -0.075 A 
ATOM      5  S   UNL d   1      -0.321   0.038   2.874  0.00  0.00     0.015 SA
ATOM      6  C4  UNL d   1      -1.433  -0.988   2.090  0.00  0.00     0.022 A 
ATOM      7  C5  UNL d   1      -1.021  -1.323   0.822  0.00  0.00     0.026 A 
ATOM      8  C6  UNL d   1       0.239  -0.730   0.470  0.00  0.00    -0.082 A 
ATOM      9  C7  UNL d   1       0.999  -0.821  -0.721  0.00  0.00     0.045 A 
ENDROOT
TORSDOF 0
ENDMDL
