MODEL 1
REMARK minimizedAffinity 3.69782281
REMARK minimizedRMSD -1
REMARK  0 active torsions:
REMARK  status: ('A' for Active; 'I' for Inactive)
ROOT
ATOM      1  C   UNL d   1      -0.479  -1.827   0.803  0.00  0.00    -0.002 A 
ATOM      2  C1  UNL d   1       0.190  -0.611   0.812  0.00  0.00     0.010 A 
ATOM      3  C2  UNL d   1       1.555  -0.549   0.523  0.00  0.00     0.041 A 
ATOM      4  C3  UNL d   1       2.242  -1.741   0.220  0.00  0.00    -0.075 A 
ATOM      5  S   UNL d   1       3.914  -1.908  -0.166  0.00  0.00     0.015 SA
ATOM      6  C4  UNL d   1       3.779  -3.597  -0.353  0.00  0.00     0.022 A 
ATOM      7  C5  UNL d   1       2.497  -4.039  -0.130  0.00  0.00     0.026 A 
ATOM      8  C6  UNL d   1       1.590  -2.978   0.204  0.00  0.00    -0.082 A 
ATOM      9  C7  UNL d   1       0.206  -3.007   0.502  0.00  0.00     0.045 A 
ENDROOT
TORSDOF 0
ENDMDL
