MODEL 1
REMARK minimizedAffinity 1.88381398
REMARK minimizedRMSD -1
REMARK  0 active torsions:
REMARK  status: ('A' for Active; 'I' for Inactive)
ROOT
ATOM      1  C   UNL d   1      -0.434  -1.871   0.425  0.00  0.00    -0.002 A 
ATOM      2  C1  UNL d   1       0.306  -0.711   0.604  0.00  0.00     0.010 A 
ATOM      3  C2  UNL d   1       1.701  -0.744   0.557  0.00  0.00     0.041 A 
ATOM      4  C3  UNL d   1       2.346  -1.974   0.322  0.00  0.00    -0.075 A 
ATOM      5  S   UNL d   1       4.044  -2.255   0.221  0.00  0.00     0.015 SA
ATOM      6  C4  UNL d   1       3.827  -3.921  -0.063  0.00  0.00     0.022 A 
ATOM      7  C5  UNL d   1       2.498  -4.272  -0.083  0.00  0.00     0.026 A 
ATOM      8  C6  UNL d   1       1.623  -3.156   0.138  0.00  0.00    -0.082 A 
ATOM      9  C7  UNL d   1       0.210  -3.090   0.193  0.00  0.00     0.045 A 
ENDROOT
TORSDOF 0
ENDMDL
