MODEL 1
REMARK minimizedAffinity 3.33176374
REMARK minimizedRMSD -1
REMARK  0 active torsions:
REMARK  status: ('A' for Active; 'I' for Inactive)
ROOT
ATOM      1  C   UNL d   1       0.602   0.075   1.491  0.00  0.00    -0.002 A 
ATOM      2  C1  UNL d   1       1.983   0.204   1.498  0.00  0.00     0.010 A 
ATOM      3  C2  UNL d   1       2.800  -0.883   1.183  0.00  0.00     0.041 A 
ATOM      4  C3  UNL d   1       2.200  -2.115   0.856  0.00  0.00    -0.075 A 
ATOM      5  S   UNL d   1       3.000  -3.583   0.435  0.00  0.00     0.015 SA
ATOM      6  C4  UNL d   1       1.527  -4.416   0.235  0.00  0.00     0.022 A 
ATOM      7  C5  UNL d   1       0.441  -3.610   0.479  0.00  0.00     0.026 A 
ATOM      8  C6  UNL d   1       0.811  -2.270   0.840  0.00  0.00    -0.082 A 
ATOM      9  C7  UNL d   1       0.009  -1.149   1.165  0.00  0.00     0.045 A 
ENDROOT
TORSDOF 0
ENDMDL
