MODEL 1
REMARK minimizedAffinity 5.1624918
REMARK minimizedRMSD -1
REMARK  0 active torsions:
REMARK  status: ('A' for Active; 'I' for Inactive)
ROOT
ATOM      1  C   UNL d   1       2.443  -1.691   0.009  0.00  0.00    -0.002 A 
ATOM      2  C1  UNL d   1       1.479  -2.630   0.347  0.00  0.00     0.010 A 
ATOM      3  C2  UNL d   1       1.797  -3.988   0.398  0.00  0.00     0.041 A 
ATOM      4  C3  UNL d   1       3.114  -4.391   0.103  0.00  0.00    -0.075 A 
ATOM      5  S   UNL d   1       3.734  -6.000   0.103  0.00  0.00     0.015 SA
ATOM      6  C4  UNL d   1       5.294  -5.479  -0.346  0.00  0.00     0.022 A 
ATOM      7  C5  UNL d   1       5.358  -4.114  -0.496  0.00  0.00     0.026 A 
ATOM      8  C6  UNL d   1       4.103  -3.464  -0.240  0.00  0.00    -0.082 A 
ATOM      9  C7  UNL d   1       3.748  -2.094  -0.284  0.00  0.00     0.045 A 
ENDROOT
TORSDOF 0
ENDMDL
