MODEL 1
REMARK minimizedAffinity 0.689226568
REMARK minimizedRMSD -1
REMARK  0 active torsions:
REMARK  status: ('A' for Active; 'I' for Inactive)
ROOT
ATOM      1  C   UNL d   1      -0.291  -1.801   0.614  0.00  0.00    -0.002 A 
ATOM      2  C1  UNL d   1       0.436  -0.638   0.825  0.00  0.00     0.010 A 
ATOM      3  C2  UNL d   1       1.830  -0.649   0.747  0.00  0.00     0.041 A 
ATOM      4  C3  UNL d   1       2.487  -1.859   0.450  0.00  0.00    -0.075 A 
ATOM      5  S   UNL d   1       4.186  -2.111   0.303  0.00  0.00     0.015 SA
ATOM      6  C4  UNL d   1       3.986  -3.768  -0.044  0.00  0.00     0.022 A 
ATOM      7  C5  UNL d   1       2.662  -4.137  -0.050  0.00  0.00     0.026 A 
ATOM      8  C6  UNL d   1       1.776  -3.043   0.233  0.00  0.00    -0.082 A 
ATOM      9  C7  UNL d   1       0.364  -3.000   0.320  0.00  0.00     0.045 A 
ENDROOT
TORSDOF 0
ENDMDL
