MODEL 1
REMARK minimizedAffinity -2.69920111
REMARK minimizedRMSD -1
REMARK  0 active torsions:
REMARK  status: ('A' for Active; 'I' for Inactive)
ROOT
ATOM      1  C   UNL d   1      -0.839  -1.840   0.204  0.00  0.00    -0.002 A 
ATOM      2  C1  UNL d   1      -0.028  -0.724   0.350  0.00  0.00     0.010 A 
ATOM      3  C2  UNL d   1       1.362  -0.845   0.311  0.00  0.00     0.041 A 
ATOM      4  C3  UNL d   1       1.929  -2.121   0.120  0.00  0.00    -0.075 A 
ATOM      5  S   UNL d   1       3.607  -2.510   0.038  0.00  0.00     0.015 SA
ATOM      6  C4  UNL d   1       3.287  -4.168  -0.193  0.00  0.00     0.022 A 
ATOM      7  C5  UNL d   1       1.938  -4.436  -0.210  0.00  0.00     0.026 A 
ATOM      8  C6  UNL d   1       1.134  -3.260  -0.030  0.00  0.00    -0.082 A 
ATOM      9  C7  UNL d   1      -0.273  -3.104   0.014  0.00  0.00     0.045 A 
ENDROOT
TORSDOF 0
ENDMDL
