MODEL 1
REMARK minimizedAffinity 0.452504635
REMARK minimizedRMSD -1
REMARK  0 active torsions:
REMARK  status: ('A' for Active; 'I' for Inactive)
ROOT
ATOM      1  C   UNL d   1       1.956  -3.926  -0.402  0.00  0.00    -0.002 A 
ATOM      2  C1  UNL d   1       3.020  -3.190   0.102  0.00  0.00     0.010 A 
ATOM      3  C2  UNL d   1       2.797  -1.974   0.752  0.00  0.00     0.041 A 
ATOM      4  C3  UNL d   1       1.476  -1.507   0.890  0.00  0.00    -0.075 A 
ATOM      5  S   UNL d   1       0.964  -0.047   1.650  0.00  0.00     0.015 SA
ATOM      6  C4  UNL d   1      -0.679  -0.366   1.325  0.00  0.00     0.022 A 
ATOM      7  C5  UNL d   1      -0.850  -1.553   0.654  0.00  0.00     0.026 A 
ATOM      8  C6  UNL d   1       0.388  -2.231   0.392  0.00  0.00    -0.082 A 
ATOM      9  C7  UNL d   1       0.646  -3.459  -0.262  0.00  0.00     0.045 A 
ENDROOT
TORSDOF 0
ENDMDL
