MODEL 1
REMARK minimizedAffinity 4.05969286
REMARK minimizedRMSD -1
REMARK  0 active torsions:
REMARK  status: ('A' for Active; 'I' for Inactive)
ROOT
ATOM      1  C   UNL d   1       0.868  -2.492   0.197  0.00  0.00    -0.002 A 
ATOM      2  C1  UNL d   1       1.858  -1.520   0.186  0.00  0.00     0.010 A 
ATOM      3  C2  UNL d   1       3.205  -1.878   0.095  0.00  0.00     0.041 A 
ATOM      4  C3  UNL d   1       3.543  -3.243   0.012  0.00  0.00    -0.075 A 
ATOM      5  S   UNL d   1       5.125  -3.916  -0.109  0.00  0.00     0.015 SA
ATOM      6  C4  UNL d   1       4.524  -5.511  -0.149  0.00  0.00     0.022 A 
ATOM      7  C5  UNL d   1       3.152  -5.547  -0.073  0.00  0.00     0.026 A 
ATOM      8  C6  UNL d   1       2.564  -4.240   0.020  0.00  0.00    -0.082 A 
ATOM      9  C7  UNL d   1       1.208  -3.845   0.115  0.00  0.00     0.045 A 
ENDROOT
TORSDOF 0
ENDMDL
