MODEL 1
REMARK minimizedAffinity 1.64103246
REMARK minimizedRMSD -1
REMARK  0 active torsions:
REMARK  status: ('A' for Active; 'I' for Inactive)
ROOT
ATOM      1  C   UNL d   1       2.235  -4.104  -0.313  0.00  0.00    -0.002 A 
ATOM      2  C1  UNL d   1       3.281  -3.196  -0.236  0.00  0.00     0.010 A 
ATOM      3  C2  UNL d   1       3.058  -1.892   0.208  0.00  0.00     0.041 A 
ATOM      4  C3  UNL d   1       1.753  -1.511   0.579  0.00  0.00    -0.075 A 
ATOM      5  S   UNL d   1       1.244   0.032   1.153  0.00  0.00     0.015 SA
ATOM      6  C4  UNL d   1      -0.375  -0.477   1.311  0.00  0.00     0.022 A 
ATOM      7  C5  UNL d   1      -0.541  -1.790   0.938  0.00  0.00     0.026 A 
ATOM      8  C6  UNL d   1       0.683  -2.408   0.511  0.00  0.00    -0.082 A 
ATOM      9  C7  UNL d   1       0.942  -3.723   0.055  0.00  0.00     0.045 A 
ENDROOT
TORSDOF 0
ENDMDL
