MODEL 1
REMARK minimizedAffinity -1.91207635
REMARK minimizedRMSD -1
REMARK  0 active torsions:
REMARK  status: ('A' for Active; 'I' for Inactive)
ROOT
ATOM      1  C   UNL d   1      -1.300  -2.031   0.602  0.00  0.00    -0.002 A 
ATOM      2  C1  UNL d   1      -0.733  -0.811   0.942  0.00  0.00     0.010 A 
ATOM      3  C2  UNL d   1       0.653  -0.643   0.931  0.00  0.00     0.041 A 
ATOM      4  C3  UNL d   1       1.468  -1.733   0.566  0.00  0.00    -0.075 A 
ATOM      5  S   UNL d   1       3.190  -1.761   0.480  0.00  0.00     0.015 SA
ATOM      6  C4  UNL d   1       3.214  -3.393  -0.012  0.00  0.00     0.022 A 
ATOM      7  C5  UNL d   1       1.948  -3.919  -0.112  0.00  0.00     0.026 A 
ATOM      8  C6  UNL d   1       0.921  -2.971   0.218  0.00  0.00    -0.082 A 
ATOM      9  C7  UNL d   1      -0.488  -3.109   0.240  0.00  0.00     0.045 A 
ENDROOT
TORSDOF 0
ENDMDL
