MODEL 1
REMARK minimizedAffinity 2.74305677
REMARK minimizedRMSD -1
REMARK  0 active torsions:
REMARK  status: ('A' for Active; 'I' for Inactive)
ROOT
ATOM      1  C   UNL d   1      -1.090  -0.318   0.984  0.00  0.00    -0.002 A 
ATOM      2  C1  UNL d   1      -1.472  -1.648   0.876  0.00  0.00     0.010 A 
ATOM      3  C2  UNL d   1      -0.553  -2.622   0.481  0.00  0.00     0.041 A 
ATOM      4  C3  UNL d   1       0.771  -2.233   0.195  0.00  0.00    -0.075 A 
ATOM      5  S   UNL d   1       2.068  -3.252  -0.306  0.00  0.00     0.015 SA
ATOM      6  C4  UNL d   1       3.161  -1.947  -0.388  0.00  0.00     0.022 A 
ATOM      7  C5  UNL d   1       2.567  -0.755  -0.046  0.00  0.00     0.026 A 
ATOM      8  C6  UNL d   1       1.180  -0.900   0.296  0.00  0.00    -0.082 A 
ATOM      9  C7  UNL d   1       0.224   0.063   0.699  0.00  0.00     0.045 A 
ENDROOT
TORSDOF 0
ENDMDL
