MODEL 1
REMARK minimizedAffinity -0.782169878
REMARK minimizedRMSD -1
REMARK  0 active torsions:
REMARK  status: ('A' for Active; 'I' for Inactive)
ROOT
ATOM      1  C   UNL d   1      -1.005  -0.961   1.270  0.00  0.00    -0.002 A 
ATOM      2  C1  UNL d   1       0.084  -0.102   1.298  0.00  0.00     0.010 A 
ATOM      3  C2  UNL d   1       1.345  -0.541   0.888  0.00  0.00     0.041 A 
ATOM      4  C3  UNL d   1       1.493  -1.870   0.443  0.00  0.00    -0.075 A 
ATOM      5  S   UNL d   1       2.941  -2.627  -0.107  0.00  0.00     0.015 SA
ATOM      6  C4  UNL d   1       2.147  -4.107  -0.393  0.00  0.00     0.022 A 
ATOM      7  C5  UNL d   1       0.809  -4.044  -0.081  0.00  0.00     0.026 A 
ATOM      8  C6  UNL d   1       0.410  -2.753   0.405  0.00  0.00    -0.082 A 
ATOM      9  C7  UNL d   1      -0.855  -2.278   0.828  0.00  0.00     0.045 A 
ENDROOT
TORSDOF 0
ENDMDL
