MODEL 1
REMARK minimizedAffinity -1.05254424
REMARK minimizedRMSD -1
REMARK  0 active torsions:
REMARK  status: ('A' for Active; 'I' for Inactive)
ROOT
ATOM      1  C   UNL d   1       1.232   0.325   0.909  0.00  0.00     0.172 C 
ATOM      2  N   UNL d   1       2.282  -0.289   0.131  0.00  0.00    -0.070 N 
ATOM      3  C1  UNL d   1       2.347  -1.612  -0.219  0.00  0.00    -0.004 A 
ATOM      4  C2  UNL d   1       3.497  -1.797  -0.956  0.00  0.00    -0.047 A 
ATOM      5  C3  UNL d   1       4.145  -0.543  -1.052  0.00  0.00    -0.047 A 
ATOM      6  C4  UNL d   1       3.372   0.373  -0.369  0.00  0.00    -0.004 A 
ENDROOT
TORSDOF 0
ENDMDL
