MODEL 1
REMARK minimizedAffinity 0.288099587
REMARK minimizedRMSD -1
REMARK  0 active torsions:
REMARK  status: ('A' for Active; 'I' for Inactive)
ROOT
ATOM      1  C   UNL d   1       3.350   1.296  -0.156  0.00  0.00     0.172 C 
ATOM      2  N   UNL d   1       3.263  -0.085  -0.570  0.00  0.00    -0.070 N 
ATOM      3  C1  UNL d   1       2.572  -1.071   0.081  0.00  0.00    -0.004 A 
ATOM      4  C2  UNL d   1       2.736  -2.241  -0.629  0.00  0.00    -0.047 A 
ATOM      5  C3  UNL d   1       3.554  -1.947  -1.745  0.00  0.00    -0.047 A 
ATOM      6  C4  UNL d   1       3.866  -0.605  -1.684  0.00  0.00    -0.004 A 
ENDROOT
TORSDOF 0
ENDMDL
