MODEL 1
REMARK minimizedAffinity 4.98882627
REMARK minimizedRMSD -1
REMARK  0 active torsions:
REMARK  status: ('A' for Active; 'I' for Inactive)
ROOT
ATOM      1  C   UNL d   1       3.262   0.543  -0.264  0.00  0.00     0.172 C 
ATOM      2  N   UNL d   1       2.674  -0.776  -0.252  0.00  0.00    -0.070 N 
ATOM      3  C1  UNL d   1       2.305  -1.475   0.867  0.00  0.00    -0.004 A 
ATOM      4  C2  UNL d   1       1.787  -2.685   0.457  0.00  0.00    -0.047 A 
ATOM      5  C3  UNL d   1       1.848  -2.714  -0.956  0.00  0.00    -0.047 A 
ATOM      6  C4  UNL d   1       2.401  -1.521  -1.369  0.00  0.00    -0.004 A 
ENDROOT
TORSDOF 0
ENDMDL
