MODEL 1
REMARK minimizedAffinity 1.39415193
REMARK minimizedRMSD -1
REMARK  0 active torsions:
REMARK  status: ('A' for Active; 'I' for Inactive)
ROOT
ATOM      1  C   UNL d   1       1.389  -0.783   5.298  0.00  0.00     0.172 C 
ATOM      2  N   UNL d   1       0.642  -0.210   4.203  0.00  0.00    -0.070 N 
ATOM      3  C1  UNL d   1       1.181   0.372   3.087  0.00  0.00    -0.004 A 
ATOM      4  C2  UNL d   1       0.141   0.791   2.286  0.00  0.00    -0.047 A 
ATOM      5  C3  UNL d   1      -1.065   0.449   2.943  0.00  0.00    -0.047 A 
ATOM      6  C4  UNL d   1      -0.726  -0.169   4.128  0.00  0.00    -0.004 A 
ENDROOT
TORSDOF 0
ENDMDL
