MODEL 1
REMARK minimizedAffinity 5.80141449
REMARK minimizedRMSD -1
REMARK  0 active torsions:
REMARK  status: ('A' for Active; 'I' for Inactive)
ROOT
ATOM      1  C   UNL d   1      -1.559   1.242  -0.710  0.00  0.00     0.172 C 
ATOM      2  N   UNL d   1      -0.858   1.074   0.542  0.00  0.00    -0.070 N 
ATOM      3  C1  UNL d   1      -1.441   0.979   1.777  0.00  0.00    -0.004 A 
ATOM      4  C2  UNL d   1      -0.436   0.826   2.708  0.00  0.00    -0.047 A 
ATOM      5  C3  UNL d   1       0.793   0.831   2.008  0.00  0.00    -0.047 A 
ATOM      6  C4  UNL d   1       0.503   0.986   0.669  0.00  0.00    -0.004 A 
ENDROOT
TORSDOF 0
ENDMDL
