MODEL 1
REMARK minimizedAffinity 1.08909142
REMARK minimizedRMSD -1
REMARK  0 active torsions:
REMARK  status: ('A' for Active; 'I' for Inactive)
ROOT
ATOM      1  C   UNL d   1       2.202   1.083   0.390  0.00  0.00     0.172 C 
ATOM      2  N   UNL d   1       0.848   1.221   0.873  0.00  0.00    -0.070 N 
ATOM      3  C1  UNL d   1       0.469   1.255   2.189  0.00  0.00    -0.004 A 
ATOM      4  C2  UNL d   1      -0.901   1.398   2.230  0.00  0.00    -0.047 A 
ATOM      5  C3  UNL d   1      -1.361   1.451   0.893  0.00  0.00    -0.047 A 
ATOM      6  C4  UNL d   1      -0.258   1.339   0.073  0.00  0.00    -0.004 A 
ENDROOT
TORSDOF 0
ENDMDL
