MODEL 1
REMARK minimizedAffinity 3.84571886
REMARK minimizedRMSD -1
REMARK  0 active torsions:
REMARK  status: ('A' for Active; 'I' for Inactive)
ROOT
ATOM      1  C   UNL d   1       2.204  -1.931   0.066  0.00  0.00     0.172 C 
ATOM      2  N   UNL d   1       2.830  -0.631   0.016  0.00  0.00    -0.070 N 
ATOM      3  C1  UNL d   1       2.274   0.540   0.458  0.00  0.00    -0.004 A 
ATOM      4  C2  UNL d   1       3.184   1.550   0.235  0.00  0.00    -0.047 A 
ATOM      5  C3  UNL d   1       4.326   0.966  -0.363  0.00  0.00    -0.047 A 
ATOM      6  C4  UNL d   1       4.080  -0.385  -0.487  0.00  0.00    -0.004 A 
ENDROOT
TORSDOF 0
ENDMDL
