MODEL 1
REMARK minimizedAffinity 2.24532914
REMARK minimizedRMSD -1
REMARK  0 active torsions:
REMARK  status: ('A' for Active; 'I' for Inactive)
ROOT
ATOM      1  C   UNL d   1       0.945   1.014   0.412  0.00  0.00     0.172 C 
ATOM      2  N   UNL d   1       2.329   0.944   0.004  0.00  0.00    -0.070 N 
ATOM      3  C1  UNL d   1       3.212   1.990  -0.008  0.00  0.00    -0.004 A 
ATOM      4  C2  UNL d   1       4.424   1.514  -0.459  0.00  0.00    -0.047 A 
ATOM      5  C3  UNL d   1       4.264   0.134  -0.727  0.00  0.00    -0.047 A 
ATOM      6  C4  UNL d   1       2.957  -0.193  -0.432  0.00  0.00    -0.004 A 
ENDROOT
TORSDOF 0
ENDMDL
