MODEL 1
REMARK minimizedAffinity 0.653779685
REMARK minimizedRMSD -1
REMARK  0 active torsions:
REMARK  status: ('A' for Active; 'I' for Inactive)
ROOT
ATOM      1  C   UNL d   1      -1.560   1.154  -0.427  0.00  0.00     0.172 C 
ATOM      2  N   UNL d   1      -0.652   0.806   0.642  0.00  0.00    -0.070 N 
ATOM      3  C1  UNL d   1      -0.986   0.683   1.964  0.00  0.00    -0.004 A 
ATOM      4  C2  UNL d   1       0.155   0.341   2.657  0.00  0.00    -0.047 A 
ATOM      5  C3  UNL d   1       1.211   0.256   1.719  0.00  0.00    -0.047 A 
ATOM      6  C4  UNL d   1       0.684   0.549   0.479  0.00  0.00    -0.004 A 
ENDROOT
TORSDOF 0
ENDMDL
