MODEL 1
REMARK minimizedAffinity 1.7675339
REMARK minimizedRMSD -1
REMARK  0 active torsions:
REMARK  status: ('A' for Active; 'I' for Inactive)
ROOT
ATOM      1  C2' OXE d   1       1.974   5.885  -5.937  0.00  0.00     0.078 C 
ATOM      2  C1' OXE d   1       2.153   3.461  -4.534  0.00  0.00     0.078 C 
ATOM      3  C1  OXE d   1       3.439   4.141  -4.929  0.00  0.00    -0.078 A 
ATOM      4  C2  OXE d   1       3.343   5.303  -5.656  0.00  0.00    -0.078 A 
ATOM      5  C3  OXE d   1       4.498   6.000  -5.999  0.00  0.00     0.003 A 
ATOM      6  C4  OXE d   1       5.760   5.449  -5.745  0.00  0.00    -0.002 A 
ATOM      7  C5  OXE d   1       5.880   4.247  -5.040  0.00  0.00    -0.002 A 
ATOM      8  C6  OXE d   1       4.733   3.603  -4.589  0.00  0.00     0.003 A 
ENDROOT
TORSDOF 0
ENDMDL
