MODEL 1
REMARK minimizedAffinity -0.0373915769
REMARK minimizedRMSD -1
REMARK  0 active torsions:
REMARK  status: ('A' for Active; 'I' for Inactive)
ROOT
ATOM      1  C2' OXE d   1       0.322   5.986  -2.068  0.00  0.00     0.078 C 
ATOM      2  C1' OXE d   1      -0.021   5.966  -4.854  0.00  0.00     0.078 C 
ATOM      3  C1  OXE d   1      -1.260   5.975  -3.993  0.00  0.00    -0.078 A 
ATOM      4  C2  OXE d   1      -1.082   5.937  -2.630  0.00  0.00    -0.078 A 
ATOM      5  C3  OXE d   1      -2.190   5.999  -1.789  0.00  0.00     0.003 A 
ATOM      6  C4  OXE d   1      -3.485   5.944  -2.318  0.00  0.00    -0.002 A 
ATOM      7  C5  OXE d   1      -3.688   5.942  -3.702  0.00  0.00    -0.002 A 
ATOM      8  C6  OXE d   1      -2.589   6.000  -4.551  0.00  0.00     0.003 A 
ENDROOT
TORSDOF 0
ENDMDL
