MODEL 1
REMARK minimizedAffinity 3.21766138
REMARK minimizedRMSD -1
REMARK  0 active torsions:
REMARK  status: ('A' for Active; 'I' for Inactive)
ROOT
ATOM      1  C2' OXE d   1      -2.628   5.943  -1.223  0.00  0.00     0.078 C 
ATOM      2  C1' OXE d   1      -3.412   5.999  -3.918  0.00  0.00     0.078 C 
ATOM      3  C1  OXE d   1      -1.934   5.976  -3.616  0.00  0.00    -0.078 A 
ATOM      4  C2  OXE d   1      -1.559   5.995  -2.294  0.00  0.00    -0.078 A 
ATOM      5  C3  OXE d   1      -0.210   5.920  -1.959  0.00  0.00     0.003 A 
ATOM      6  C4  OXE d   1       0.772   5.979  -2.955  0.00  0.00    -0.002 A 
ATOM      7  C5  OXE d   1       0.412   6.000  -4.307  0.00  0.00    -0.002 A 
ATOM      8  C6  OXE d   1      -0.934   5.955  -4.654  0.00  0.00     0.003 A 
ENDROOT
TORSDOF 0
ENDMDL
