MODEL 1
REMARK minimizedAffinity 4.69945335
REMARK minimizedRMSD -1
REMARK  0 active torsions:
REMARK  status: ('A' for Active; 'I' for Inactive)
ROOT
ATOM      1  C2' OXE d   1       1.007  -1.446  -2.735  0.00  0.00     0.078 C 
ATOM      2  C1' OXE d   1      -0.221  -1.406  -5.258  0.00  0.00     0.078 C 
ATOM      3  C1  OXE d   1      -1.112  -1.369  -4.042  0.00  0.00    -0.078 A 
ATOM      4  C2  OXE d   1      -0.504  -1.435  -2.811  0.00  0.00    -0.078 A 
ATOM      5  C3  OXE d   1      -1.276  -1.349  -1.656  0.00  0.00     0.003 A 
ATOM      6  C4  OXE d   1      -2.674  -1.350  -1.735  0.00  0.00    -0.002 A 
ATOM      7  C5  OXE d   1      -3.314  -1.322  -2.979  0.00  0.00    -0.002 A 
ATOM      8  C6  OXE d   1      -2.549  -1.288  -4.139  0.00  0.00     0.003 A 
ENDROOT
TORSDOF 0
ENDMDL
