MODEL 1
REMARK minimizedAffinity 5.51663876
REMARK minimizedRMSD -1
REMARK  0 active torsions:
REMARK  status: ('A' for Active; 'I' for Inactive)
ROOT
ATOM      1  C2' OXE d   1       4.267   5.992  -5.789  0.00  0.00     0.078 C 
ATOM      2  C1' OXE d   1       4.146   3.350  -4.848  0.00  0.00     0.078 C 
ATOM      3  C1  OXE d   1       2.847   4.033  -5.197  0.00  0.00    -0.078 A 
ATOM      4  C2  OXE d   1       2.912   5.341  -5.613  0.00  0.00    -0.078 A 
ATOM      5  C3  OXE d   1       1.749   6.000  -6.000  0.00  0.00     0.003 A 
ATOM      6  C4  OXE d   1       0.499   5.394  -5.824  0.00  0.00    -0.002 A 
ATOM      7  C5  OXE d   1       0.407   4.076  -5.364  0.00  0.00    -0.002 A 
ATOM      8  C6  OXE d   1       1.572   3.368  -5.087  0.00  0.00     0.003 A 
ENDROOT
TORSDOF 0
ENDMDL
