MODEL 1
REMARK minimizedAffinity 1.65508342
REMARK minimizedRMSD -1
REMARK  0 active torsions:
REMARK  status: ('A' for Active; 'I' for Inactive)
ROOT
ATOM      1  C2' OXE d   1       0.554   0.834   2.257  0.00  0.00     0.078 C 
ATOM      2  C1' OXE d   1       1.493   2.972   0.699  0.00  0.00     0.078 C 
ATOM      3  C1  OXE d   1       1.375   1.620   0.041  0.00  0.00    -0.078 A 
ATOM      4  C2  OXE d   1       0.959   0.570   0.823  0.00  0.00    -0.078 A 
ATOM      5  C3  OXE d   1       0.782  -0.687   0.252  0.00  0.00     0.003 A 
ATOM      6  C4  OXE d   1       1.169  -0.925  -1.072  0.00  0.00    -0.002 A 
ATOM      7  C5  OXE d   1       1.633   0.122  -1.876  0.00  0.00    -0.002 A 
ATOM      8  C6  OXE d   1       1.701   1.407  -1.348  0.00  0.00     0.003 A 
ENDROOT
TORSDOF 0
ENDMDL
