MODEL 1
REMARK minimizedAffinity -0.336182803
REMARK minimizedRMSD -1
REMARK  0 active torsions:
REMARK  status: ('A' for Active; 'I' for Inactive)
ROOT
ATOM      1  C2' OXE d   1      -0.666   5.951  -3.444  0.00  0.00     0.078 C 
ATOM      2  C1' OXE d   1      -0.102   5.958  -0.694  0.00  0.00     0.078 C 
ATOM      3  C1  OXE d   1      -1.550   5.956  -1.115  0.00  0.00    -0.078 A 
ATOM      4  C2  OXE d   1      -1.817   6.000  -2.462  0.00  0.00    -0.078 A 
ATOM      5  C3  OXE d   1      -3.135   5.944  -2.906  0.00  0.00     0.003 A 
ATOM      6  C4  OXE d   1      -4.194   6.000  -1.992  0.00  0.00    -0.002 A 
ATOM      7  C5  OXE d   1      -3.945   5.996  -0.616  0.00  0.00    -0.002 A 
ATOM      8  C6  OXE d   1      -2.632   5.931  -0.161  0.00  0.00     0.003 A 
ENDROOT
TORSDOF 0
ENDMDL
