MODEL 1
REMARK minimizedAffinity 1.46228969
REMARK minimizedRMSD -1
REMARK  0 active torsions:
REMARK  status: ('A' for Active; 'I' for Inactive)
ROOT
ATOM      1  C2' OXE d   1       0.320  -0.634   0.809  0.00  0.00     0.078 C 
ATOM      2  C1' OXE d   1       0.064   0.893   3.150  0.00  0.00     0.078 C 
ATOM      3  C1  OXE d   1       0.656   1.562   1.935  0.00  0.00    -0.078 A 
ATOM      4  C2  OXE d   1       0.821   0.794   0.808  0.00  0.00    -0.078 A 
ATOM      5  C3  OXE d   1       1.312   1.376  -0.357  0.00  0.00     0.003 A 
ATOM      6  C4  OXE d   1       1.782   2.695  -0.347  0.00  0.00    -0.002 A 
ATOM      7  C5  OXE d   1       1.661   3.483   0.803  0.00  0.00    -0.002 A 
ATOM      8  C6  OXE d   1       1.062   2.946   1.937  0.00  0.00     0.003 A 
ENDROOT
TORSDOF 0
ENDMDL
