MODEL 1
REMARK minimizedAffinity 6.42304468
REMARK minimizedRMSD -1
REMARK  0 active torsions:
REMARK  status: ('A' for Active; 'I' for Inactive)
ROOT
ATOM      1  C2' OXE d   1      -1.225   5.913  -4.343  0.00  0.00     0.078 C 
ATOM      2  C1' OXE d   1      -0.208   5.887  -1.727  0.00  0.00     0.078 C 
ATOM      3  C1  OXE d   1      -1.706   5.908  -1.899  0.00  0.00    -0.078 A 
ATOM      4  C2  OXE d   1      -2.194   5.968  -3.182  0.00  0.00    -0.078 A 
ATOM      5  C3  OXE d   1      -3.569   5.934  -3.398  0.00  0.00     0.003 A 
ATOM      6  C4  OXE d   1      -4.458   5.995  -2.319  0.00  0.00    -0.002 A 
ATOM      7  C5  OXE d   1      -3.981   5.974  -1.004  0.00  0.00    -0.002 A 
ATOM      8  C6  OXE d   1      -2.612   5.888  -0.777  0.00  0.00     0.003 A 
ENDROOT
TORSDOF 0
ENDMDL
