MODEL 1
REMARK minimizedAffinity -1.52494013
REMARK minimizedRMSD -1
REMARK  0 active torsions:
REMARK  status: ('A' for Active; 'I' for Inactive)
ROOT
ATOM      1  C2' OXE d   1       0.341   5.947  -3.043  0.00  0.00     0.078 C 
ATOM      2  C1' OXE d   1      -0.692   5.967  -0.433  0.00  0.00     0.078 C 
ATOM      3  C1  OXE d   1      -1.674   5.950  -1.577  0.00  0.00    -0.078 A 
ATOM      4  C2  OXE d   1      -1.160   5.987  -2.851  0.00  0.00    -0.078 A 
ATOM      5  C3  OXE d   1      -2.020   5.919  -3.944  0.00  0.00     0.003 A 
ATOM      6  C4  OXE d   1      -3.407   5.966  -3.758  0.00  0.00    -0.002 A 
ATOM      7  C5  OXE d   1      -3.951   5.969  -2.469  0.00  0.00    -0.002 A 
ATOM      8  C6  OXE d   1      -3.100   5.918  -1.370  0.00  0.00     0.003 A 
ENDROOT
TORSDOF 0
ENDMDL
