MODEL 1
REMARK minimizedAffinity 0.439236969
REMARK minimizedRMSD -1
REMARK  0 active torsions:
REMARK  status: ('A' for Active; 'I' for Inactive)
ROOT
ATOM      1  C2' OXE d   1      -1.417   5.957  -2.084  0.00  0.00     0.078 C 
ATOM      2  C1' OXE d   1      -3.047   5.993  -4.369  0.00  0.00     0.078 C 
ATOM      3  C1  OXE d   1      -1.553   5.969  -4.571  0.00  0.00    -0.078 A 
ATOM      4  C2  OXE d   1      -0.762   5.999  -3.447  0.00  0.00    -0.078 A 
ATOM      5  C3  OXE d   1       0.622   5.924  -3.576  0.00  0.00     0.003 A 
ATOM      6  C4  OXE d   1       1.220   5.974  -4.841  0.00  0.00    -0.002 A 
ATOM      7  C5  OXE d   1       0.434   5.984  -5.998  0.00  0.00    -0.002 A 
ATOM      8  C6  OXE d   1      -0.951   5.939  -5.881  0.00  0.00     0.003 A 
ENDROOT
TORSDOF 0
ENDMDL
