MODEL 1
REMARK minimizedAffinity 2.6422205
REMARK minimizedRMSD -1
REMARK  0 active torsions:
REMARK  status: ('A' for Active; 'I' for Inactive)
ROOT
ATOM      1  C2' OXE d   1      -0.002  -1.097   1.811  0.00  0.00     0.078 C 
ATOM      2  C1' OXE d   1      -0.710   1.017   3.516  0.00  0.00     0.078 C 
ATOM      3  C1  OXE d   1       0.089   1.347   2.281  0.00  0.00    -0.078 A 
ATOM      4  C2  OXE d   1       0.471   0.301   1.476  0.00  0.00    -0.078 A 
ATOM      5  C3  OXE d   1       1.163   0.556   0.296  0.00  0.00     0.003 A 
ATOM      6  C4  OXE d   1       1.606   1.850  -0.001  0.00  0.00    -0.002 A 
ATOM      7  C5  OXE d   1       1.262   2.925   0.826  0.00  0.00    -0.002 A 
ATOM      8  C6  OXE d   1       0.470   2.697   1.945  0.00  0.00     0.003 A 
ENDROOT
TORSDOF 0
ENDMDL
