MODEL 1
REMARK minimizedAffinity 4.13357115
REMARK minimizedRMSD -1
REMARK  0 active torsions:
REMARK  status: ('A' for Active; 'I' for Inactive)
ROOT
ATOM      1  C2' OXE d   1      -0.960   0.259   2.350  0.00  0.00     0.078 C 
ATOM      2  C1' OXE d   1      -0.038  -1.118   0.084  0.00  0.00     0.078 C 
ATOM      3  C1  OXE d   1       0.481   0.279   0.318  0.00  0.00    -0.078 A 
ATOM      4  C2  OXE d   1      -0.012   0.963   1.404  0.00  0.00    -0.078 A 
ATOM      5  C3  OXE d   1       0.474   2.234   1.696  0.00  0.00     0.003 A 
ATOM      6  C4  OXE d   1       1.344   2.881   0.811  0.00  0.00    -0.002 A 
ATOM      7  C5  OXE d   1       1.828   2.218  -0.322  0.00  0.00    -0.002 A 
ATOM      8  C6  OXE d   1       1.440   0.904  -0.560  0.00  0.00     0.003 A 
ENDROOT
TORSDOF 0
ENDMDL
