MODEL 1
REMARK minimizedAffinity 8.82485962
REMARK minimizedRMSD -1
REMARK  0 active torsions:
REMARK  status: ('A' for Active; 'I' for Inactive)
ROOT
ATOM      1  C2' OXE d   1      -1.337   4.824  -3.462  0.00  0.00     0.078 C 
ATOM      2  C1' OXE d   1      -0.383   2.388  -4.480  0.00  0.00     0.078 C 
ATOM      3  C1  OXE d   1       0.417   3.633  -4.770  0.00  0.00    -0.078 A 
ATOM      4  C2  OXE d   1      -0.082   4.827  -4.307  0.00  0.00    -0.078 A 
ATOM      5  C3  OXE d   1       0.645   5.999  -4.500  0.00  0.00     0.003 A 
ATOM      6  C4  OXE d   1       1.800   5.995  -5.291  0.00  0.00    -0.002 A 
ATOM      7  C5  OXE d   1       2.304   4.796  -5.805  0.00  0.00    -0.002 A 
ATOM      8  C6  OXE d   1       1.649   3.603  -5.518  0.00  0.00     0.003 A 
ENDROOT
TORSDOF 0
ENDMDL
