MODEL 1
REMARK minimizedAffinity 0.296577871
REMARK minimizedRMSD -1
REMARK  0 active torsions:
REMARK  status: ('A' for Active; 'I' for Inactive)
ROOT
ATOM      1  C2' OXE d   1       0.068   5.965  -4.047  0.00  0.00     0.078 C 
ATOM      2  C1' OXE d   1       0.103   3.925  -5.974  0.00  0.00     0.078 C 
ATOM      3  C1  OXE d   1       1.428   4.468  -5.501  0.00  0.00    -0.078 A 
ATOM      4  C2  OXE d   1       1.400   5.499  -4.592  0.00  0.00    -0.078 A 
ATOM      5  C3  OXE d   1       2.594   6.000  -4.082  0.00  0.00     0.003 A 
ATOM      6  C4  OXE d   1       3.822   5.570  -4.600  0.00  0.00    -0.002 A 
ATOM      7  C5  OXE d   1       3.871   4.549  -5.555  0.00  0.00    -0.002 A 
ATOM      8  C6  OXE d   1       2.688   3.959  -5.984  0.00  0.00     0.003 A 
ENDROOT
TORSDOF 0
ENDMDL
