MODEL 1
REMARK minimizedAffinity 3.71653008
REMARK minimizedRMSD -1
REMARK  0 active torsions:
REMARK  status: ('A' for Active; 'I' for Inactive)
ROOT
ATOM      1  C2' OXE d   1       1.495   0.693   4.613  0.00  0.00     0.078 C 
ATOM      2  C1' OXE d   1       2.943   0.340   2.234  0.00  0.00     0.078 C 
ATOM      3  C1  OXE d   1       1.438   0.363   2.144  0.00  0.00    -0.078 A 
ATOM      4  C2  OXE d   1       0.736   0.489   3.319  0.00  0.00    -0.078 A 
ATOM      5  C3  OXE d   1      -0.653   0.571   3.287  0.00  0.00     0.003 A 
ATOM      6  C4  OXE d   1      -1.347   0.372   2.087  0.00  0.00    -0.002 A 
ATOM      7  C5  OXE d   1      -0.653   0.202   0.885  0.00  0.00    -0.002 A 
ATOM      8  C6  OXE d   1       0.737   0.238   0.890  0.00  0.00     0.003 A 
ENDROOT
TORSDOF 0
ENDMDL
