MODEL 1
REMARK minimizedAffinity 1.06785214
REMARK minimizedRMSD -1
REMARK  0 active torsions:
REMARK  status: ('A' for Active; 'I' for Inactive)
ROOT
ATOM      1  C2' OXE d   1       5.762   3.102  -3.729  0.00  0.00     0.078 C 
ATOM      2  C1' OXE d   1       2.980   3.038  -3.359  0.00  0.00     0.078 C 
ATOM      3  C1  OXE d   1       3.542   4.081  -4.293  0.00  0.00    -0.078 A 
ATOM      4  C2  OXE d   1       4.908   4.135  -4.432  0.00  0.00    -0.078 A 
ATOM      5  C3  OXE d   1       5.475   5.042  -5.323  0.00  0.00     0.003 A 
ATOM      6  C4  OXE d   1       4.678   6.000  -5.962  0.00  0.00    -0.002 A 
ATOM      7  C5  OXE d   1       3.288   5.988  -5.803  0.00  0.00    -0.002 A 
ATOM      8  C6  OXE d   1       2.702   5.010  -5.008  0.00  0.00     0.003 A 
ENDROOT
TORSDOF 0
ENDMDL
