MODEL 1
REMARK minimizedAffinity 2.2733345
REMARK minimizedRMSD -1
REMARK  0 active torsions:
REMARK  status: ('A' for Active; 'I' for Inactive)
ROOT
ATOM      1  C2' OXE d   1      -1.088   5.947  -5.138  0.00  0.00     0.078 C 
ATOM      2  C1' OXE d   1       0.092   6.000  -2.591  0.00  0.00     0.078 C 
ATOM      3  C1  OXE d   1      -1.414   5.976  -2.668  0.00  0.00    -0.078 A 
ATOM      4  C2  OXE d   1      -1.983   5.997  -3.919  0.00  0.00    -0.078 A 
ATOM      5  C3  OXE d   1      -3.367   5.921  -4.047  0.00  0.00     0.003 A 
ATOM      6  C4  OXE d   1      -4.189   5.978  -2.915  0.00  0.00    -0.002 A 
ATOM      7  C5  OXE d   1      -3.630   5.996  -1.633  0.00  0.00    -0.002 A 
ATOM      8  C6  OXE d   1      -2.247   5.953  -1.491  0.00  0.00     0.003 A 
ENDROOT
TORSDOF 0
ENDMDL
