MODEL 1
REMARK minimizedAffinity 0.837579548
REMARK minimizedRMSD -1
REMARK  0 active torsions:
REMARK  status: ('A' for Active; 'I' for Inactive)
ROOT
ATOM      1  C2' OXE d   1       1.111   1.102   2.104  0.00  0.00     0.078 C 
ATOM      2  C1' OXE d   1       1.886   3.338   0.594  0.00  0.00     0.078 C 
ATOM      3  C1  OXE d   1       1.718   2.025  -0.129  0.00  0.00    -0.078 A 
ATOM      4  C2  OXE d   1       1.384   0.926   0.625  0.00  0.00    -0.078 A 
ATOM      5  C3  OXE d   1       1.163  -0.297   0.000  0.00  0.00     0.003 A 
ATOM      6  C4  OXE d   1       1.427  -0.454  -1.366  0.00  0.00    -0.002 A 
ATOM      7  C5  OXE d   1       1.806   0.644  -2.145  0.00  0.00    -0.002 A 
ATOM      8  C6  OXE d   1       1.915   1.897  -1.552  0.00  0.00     0.003 A 
ENDROOT
TORSDOF 0
ENDMDL
