MODEL 1
REMARK minimizedAffinity -4.84362316
REMARK minimizedRMSD -1
REMARK  3 active torsions:
REMARK  status: ('A' for Active; 'I' for Inactive)
REMARK    1  A    between atoms: C3'_2  and  C2'_3 
REMARK    2  A    between atoms: C2'_3  and  C1'_4 
REMARK    3  A    between atoms: C1'_4  and  C1_5 
ROOT
ATOM      1  C1  N4B d   1       0.006   0.016  -0.323  0.00  0.00    -0.075 A 
ATOM      2  C2  N4B d   1       1.359   0.324  -0.060  0.00  0.00     0.002 A 
ATOM      3  C3  N4B d   1       2.307  -0.668  -0.092  0.00  0.00     0.002 A 
ATOM      4  C4  N4B d   1       1.926  -1.973  -0.364  0.00  0.00    -0.004 A 
ATOM      5  C5  N4B d   1       0.621  -2.258  -0.642  0.00  0.00     0.002 A 
ATOM      6  C6  N4B d   1      -0.343  -1.270  -0.617  0.00  0.00     0.002 A 
ENDROOT
BRANCH   1   7
ATOM      7  C1' N4B d   1      -1.080   1.052  -0.215  0.00  0.00     0.057 C 
BRANCH   7   8
ATOM      8  C2' N4B d   1      -2.336   0.403   0.359  0.00  0.00     0.009 C 
BRANCH   8   9
ATOM      9  C3' N4B d   1      -3.012   1.287   1.392  0.00  0.00     0.004 C 
ATOM     10  C4' N4B d   1      -4.505   1.151   1.387  0.00  0.00     0.003 C 
ENDBRANCH   8   9
ENDBRANCH   7   8
ENDBRANCH   1   7
TORSDOF 3
ENDMDL
