MODEL 1
REMARK minimizedAffinity -3.9113698
REMARK minimizedRMSD -1
REMARK  3 active torsions:
REMARK  status: ('A' for Active; 'I' for Inactive)
REMARK    1  A    between atoms: C3'_2  and  C2'_3 
REMARK    2  A    between atoms: C2'_3  and  C1'_4 
REMARK    3  A    between atoms: C1'_4  and  C1_5 
ROOT
ATOM      1  C1  N4B d   1      -0.393  -0.319   0.007  0.00  0.00    -0.075 A 
ATOM      2  C2  N4B d   1       1.010  -0.201  -0.105  0.00  0.00     0.002 A 
ATOM      3  C3  N4B d   1       1.780  -1.323  -0.291  0.00  0.00     0.002 A 
ATOM      4  C4  N4B d   1       1.174  -2.569  -0.349  0.00  0.00    -0.004 A 
ATOM      5  C5  N4B d   1      -0.183  -2.671  -0.266  0.00  0.00     0.002 A 
ATOM      6  C6  N4B d   1      -0.971  -1.552  -0.083  0.00  0.00     0.002 A 
ENDROOT
BRANCH   1   7
ATOM      7  C1' N4B d   1      -1.269   0.869   0.296  0.00  0.00     0.057 C 
BRANCH   7   8
ATOM      8  C2' N4B d   1      -1.650   0.862   1.774  0.00  0.00     0.009 C 
BRANCH   8   9
ATOM      9  C3' N4B d   1      -3.127   0.571   1.978  0.00  0.00     0.004 C 
ATOM     10  C4' N4B d   1      -3.889   0.502   0.689  0.00  0.00     0.003 C 
ENDBRANCH   8   9
ENDBRANCH   7   8
ENDBRANCH   1   7
TORSDOF 3
ENDMDL
