MODEL 1
REMARK minimizedAffinity -5.9298172
REMARK minimizedRMSD -1
REMARK  3 active torsions:
REMARK  status: ('A' for Active; 'I' for Inactive)
REMARK    1  A    between atoms: C3'_2  and  C2'_3 
REMARK    2  A    between atoms: C2'_3  and  C1'_4 
REMARK    3  A    between atoms: C1'_4  and  C1_5 
ROOT
ATOM      1  C1  N4B d   1       1.419  -0.262  -0.005  0.00  0.00    -0.075 A 
ATOM      2  C2  N4B d   1       2.385  -1.166   0.489  0.00  0.00     0.002 A 
ATOM      3  C3  N4B d   1       3.626  -0.710   0.859  0.00  0.00     0.002 A 
ATOM      4  C4  N4B d   1       3.930   0.636   0.727  0.00  0.00    -0.004 A 
ATOM      5  C5  N4B d   1       2.983   1.507   0.273  0.00  0.00     0.002 A 
ATOM      6  C6  N4B d   1       1.730   1.064  -0.099  0.00  0.00     0.002 A 
ENDROOT
BRANCH   1   7
ATOM      7  C1' N4B d   1       0.078  -0.726  -0.503  0.00  0.00     0.057 C 
BRANCH   7   8
ATOM      8  C2' N4B d   1      -0.751   0.487  -0.914  0.00  0.00     0.009 C 
BRANCH   8   9
ATOM      9  C3' N4B d   1      -2.035   0.597  -0.109  0.00  0.00     0.004 C 
ATOM     10  C4' N4B d   1      -3.248   0.775  -0.972  0.00  0.00     0.003 C 
ENDBRANCH   8   9
ENDBRANCH   7   8
ENDBRANCH   1   7
TORSDOF 3
ENDMDL
