MODEL 1
REMARK minimizedAffinity 0.648958445
REMARK minimizedRMSD -1
REMARK  3 active torsions:
REMARK  status: ('A' for Active; 'I' for Inactive)
REMARK    1  A    between atoms: C3'_2  and  C2'_3 
REMARK    2  A    between atoms: C2'_3  and  C1'_4 
REMARK    3  A    between atoms: C1'_4  and  C1_5 
ROOT
ATOM      1  C1  N4B d   1       2.999  -0.156  -0.735  0.00  0.00    -0.075 A 
ATOM      2  C2  N4B d   1       1.734   0.342  -0.352  0.00  0.00     0.002 A 
ATOM      3  C3  N4B d   1       0.689  -0.525  -0.142  0.00  0.00     0.002 A 
ATOM      4  C4  N4B d   1       0.880  -1.886  -0.328  0.00  0.00    -0.004 A 
ATOM      5  C5  N4B d   1       2.111  -2.361  -0.673  0.00  0.00     0.002 A 
ATOM      6  C6  N4B d   1       3.171  -1.502  -0.882  0.00  0.00     0.002 A 
ENDROOT
BRANCH   1   7
ATOM      7  C1' N4B d   1       4.148   0.759  -1.058  0.00  0.00     0.057 C 
BRANCH   7   8
ATOM      8  C2' N4B d   1       3.742   2.199  -0.758  0.00  0.00     0.009 C 
BRANCH   8   9
ATOM      9  C3' N4B d   1       4.920   3.036  -0.292  0.00  0.00     0.004 C 
ATOM     10  C4' N4B d   1       5.995   2.216   0.357  0.00  0.00     0.003 C 
ENDBRANCH   8   9
ENDBRANCH   7   8
ENDBRANCH   1   7
TORSDOF 3
ENDMDL
