MODEL 1
REMARK minimizedAffinity 5.82279158
REMARK minimizedRMSD -1
REMARK  0 active torsions:
REMARK  status: ('A' for Active; 'I' for Inactive)
ROOT
ATOM      1  C   UNL d   1       2.121  -0.232  -0.062  0.00  0.00     0.023 A 
ATOM      2  C1  UNL d   1       3.296  -0.070   0.673  0.00  0.00     0.003 A 
ATOM      3  C2  UNL d   1       4.255   0.858   0.263  0.00  0.00     0.048 A 
ATOM      4  C3  UNL d   1       4.032   1.623  -0.882  0.00  0.00     0.023 A 
ATOM      5  C4  UNL d   1       2.858   1.465  -1.620  0.00  0.00     0.048 A 
ATOM      6  C5  UNL d   1       1.902   0.535  -1.206  0.00  0.00     0.003 A 
ATOM      7  I   UNL d   1       5.458   3.006  -1.494  0.00  0.00    -0.146 I 
ENDROOT
TORSDOF 0
ENDMDL
