MODEL 1
REMARK minimizedAffinity 5.45554733
REMARK minimizedRMSD -1
REMARK  0 active torsions:
REMARK  status: ('A' for Active; 'I' for Inactive)
ROOT
ATOM      1  C   UNL d   1      -2.843   0.382  -0.494  0.00  0.00     0.023 A 
ATOM      2  C1  UNL d   1      -4.194   0.729  -0.485  0.00  0.00     0.003 A 
ATOM      3  C2  UNL d   1      -4.918   0.752  -1.679  0.00  0.00     0.048 A 
ATOM      4  C3  UNL d   1      -4.286   0.427  -2.878  0.00  0.00     0.023 A 
ATOM      5  C4  UNL d   1      -2.934   0.078  -2.892  0.00  0.00     0.048 A 
ATOM      6  C5  UNL d   1      -2.214   0.057  -1.696  0.00  0.00     0.003 A 
ATOM      7  I   UNL d   1      -5.362   0.460  -4.656  0.00  0.00    -0.146 I 
ENDROOT
TORSDOF 0
ENDMDL
