MODEL 1
REMARK minimizedAffinity 8.76669979
REMARK minimizedRMSD -1
REMARK  0 active torsions:
REMARK  status: ('A' for Active; 'I' for Inactive)
ROOT
ATOM      1  C   UNL d   1      -4.502   5.999   5.988  0.00  0.00     0.023 A 
ATOM      2  C1  UNL d   1      -3.638   5.997   4.893  0.00  0.00     0.003 A 
ATOM      3  C2  UNL d   1      -3.947   5.244   3.759  0.00  0.00     0.048 A 
ATOM      4  C3  UNL d   1      -5.123   4.495   3.726  0.00  0.00     0.023 A 
ATOM      5  C4  UNL d   1      -5.991   4.495   4.818  0.00  0.00     0.048 A 
ATOM      6  C5  UNL d   1      -5.678   5.249   5.951  0.00  0.00     0.003 A 
ATOM      7  I   UNL d   1      -5.585   3.373   2.038  0.00  0.00    -0.146 I 
ENDROOT
TORSDOF 0
ENDMDL
