MODEL 1
REMARK minimizedAffinity 11.3075857
REMARK minimizedRMSD -1
REMARK  0 active torsions:
REMARK  status: ('A' for Active; 'I' for Inactive)
ROOT
ATOM      1  C   UNL d   1       1.953   0.378  -0.902  0.00  0.00     0.023 A 
ATOM      2  C1  UNL d   1       2.066  -0.910  -0.378  0.00  0.00     0.003 A 
ATOM      3  C2  UNL d   1       3.227  -1.291   0.298  0.00  0.00     0.048 A 
ATOM      4  C3  UNL d   1       4.271  -0.379   0.447  0.00  0.00     0.023 A 
ATOM      5  C4  UNL d   1       4.163   0.911  -0.075  0.00  0.00     0.048 A 
ATOM      6  C5  UNL d   1       3.000   1.287  -0.751  0.00  0.00     0.003 A 
ATOM      7  I   UNL d   1       6.000  -0.944   1.453  0.00  0.00    -0.146 I 
ENDROOT
TORSDOF 0
ENDMDL
