MODEL 1
REMARK minimizedAffinity 12.0407896
REMARK minimizedRMSD -1
REMARK  0 active torsions:
REMARK  status: ('A' for Active; 'I' for Inactive)
ROOT
ATOM      1  C   UNL d   1      -5.992   0.455  -0.956  0.00  0.00     0.023 A 
ATOM      2  C1  UNL d   1      -5.676   0.852   0.343  0.00  0.00     0.003 A 
ATOM      3  C2  UNL d   1      -5.082   2.095   0.570  0.00  0.00     0.048 A 
ATOM      4  C3  UNL d   1      -4.807   2.936  -0.507  0.00  0.00     0.023 A 
ATOM      5  C4  UNL d   1      -5.122   2.544  -1.809  0.00  0.00     0.048 A 
ATOM      6  C5  UNL d   1      -5.715   1.300  -2.031  0.00  0.00     0.003 A 
ATOM      7  I   UNL d   1      -3.922   4.787  -0.173  0.00  0.00    -0.146 I 
ENDROOT
TORSDOF 0
ENDMDL
