MODEL 1
REMARK minimizedAffinity 23.6850815
REMARK minimizedRMSD -1
REMARK  0 active torsions:
REMARK  status: ('A' for Active; 'I' for Inactive)
ROOT
ATOM      1  C   UNL d   1      -5.779   0.737  -1.334  0.00  0.00     0.023 A 
ATOM      2  C1  UNL d   1      -5.903   1.769  -2.264  0.00  0.00     0.003 A 
ATOM      3  C2  UNL d   1      -5.312   3.010  -2.015  0.00  0.00     0.048 A 
ATOM      4  C3  UNL d   1      -4.599   3.211  -0.834  0.00  0.00     0.023 A 
ATOM      5  C4  UNL d   1      -4.471   2.181   0.099  0.00  0.00     0.048 A 
ATOM      6  C5  UNL d   1      -5.064   0.943  -0.154  0.00  0.00     0.003 A 
ATOM      7  I   UNL d   1      -3.719   5.057  -0.461  0.00  0.00    -0.146 I 
ENDROOT
TORSDOF 0
ENDMDL
