MODEL 1
REMARK minimizedAffinity 10.921401
REMARK minimizedRMSD -1
REMARK  0 active torsions:
REMARK  status: ('A' for Active; 'I' for Inactive)
ROOT
ATOM      1  C   UNL d   1      -4.508   2.362  -0.000  0.00  0.00     0.023 A 
ATOM      2  C1  UNL d   1      -3.965   1.965   1.222  0.00  0.00     0.003 A 
ATOM      3  C2  UNL d   1      -4.385   2.576   2.405  0.00  0.00     0.048 A 
ATOM      4  C3  UNL d   1      -5.349   3.582   2.359  0.00  0.00     0.023 A 
ATOM      5  C4  UNL d   1      -5.896   3.982   1.139  0.00  0.00     0.048 A 
ATOM      6  C5  UNL d   1      -5.472   3.369  -0.042  0.00  0.00     0.003 A 
ATOM      7  I   UNL d   1      -5.976   4.493   4.119  0.00  0.00    -0.146 I 
ENDROOT
TORSDOF 0
ENDMDL
