MODEL 1
REMARK minimizedAffinity 7.68123913
REMARK minimizedRMSD -1
REMARK  0 active torsions:
REMARK  status: ('A' for Active; 'I' for Inactive)
ROOT
ATOM      1  C   UNL d   1      -4.862   5.980   5.750  0.00  0.00     0.023 A 
ATOM      2  C1  UNL d   1      -5.987   5.227   5.412  0.00  0.00     0.003 A 
ATOM      3  C2  UNL d   1      -5.997   4.475   4.235  0.00  0.00     0.048 A 
ATOM      4  C3  UNL d   1      -4.879   4.481   3.402  0.00  0.00     0.023 A 
ATOM      5  C4  UNL d   1      -3.751   5.232   3.737  0.00  0.00     0.048 A 
ATOM      6  C5  UNL d   1      -3.746   5.983   4.914  0.00  0.00     0.003 A 
ATOM      7  I   UNL d   1      -4.891   3.362   1.650  0.00  0.00    -0.146 I 
ENDROOT
TORSDOF 0
ENDMDL
