MODEL 1
REMARK minimizedAffinity 17.0738983
REMARK minimizedRMSD -1
REMARK  0 active torsions:
REMARK  status: ('A' for Active; 'I' for Inactive)
ROOT
ATOM      1  C   UNL d   1      -0.504  -4.824   5.553  0.00  0.00     0.023 A 
ATOM      2  C1  UNL d   1       0.554  -4.026   5.987  0.00  0.00     0.003 A 
ATOM      3  C2  UNL d   1       0.891  -2.868   5.283  0.00  0.00     0.048 A 
ATOM      4  C3  UNL d   1       0.164  -2.513   4.147  0.00  0.00     0.023 A 
ATOM      5  C4  UNL d   1      -0.897  -3.308   3.710  0.00  0.00     0.048 A 
ATOM      6  C5  UNL d   1      -1.229  -4.466   4.416  0.00  0.00     0.003 A 
ATOM      7  I   UNL d   1       0.663  -0.789   3.099  0.00  0.00    -0.146 I 
ENDROOT
TORSDOF 0
ENDMDL
