MODEL 1
REMARK minimizedAffinity 6.54708958
REMARK minimizedRMSD -1
REMARK  1 active torsions:
REMARK  status: ('A' for Active; 'I' for Inactive)
REMARK    1  A    between atoms: C1_2  and  C2_3 
ROOT
ATOM      1  C2  UNL d   1       3.521  -2.642   2.290  0.00  0.00    -0.077 A 
ATOM      2  C3  UNL d   1       2.614  -1.640   2.662  0.00  0.00     0.002 A 
ATOM      3  C4  UNL d   1       1.612  -1.231   1.780  0.00  0.00     0.002 A 
ATOM      4  C5  UNL d   1       1.505  -1.822   0.522  0.00  0.00    -0.004 A 
ATOM      5  C6  UNL d   1       2.403  -2.819   0.143  0.00  0.00     0.002 A 
ATOM      6  C7  UNL d   1       3.406  -3.227   1.023  0.00  0.00     0.002 A 
ENDROOT
BRANCH   1   7
ATOM      7  C1  UNL d   1       4.571  -3.118   3.259  0.00  0.00     0.055 C 
ATOM      8  C   UNL d   1       4.702  -2.172   4.443  0.00  0.00     0.019 C 
ENDBRANCH   1   7
TORSDOF 1
ENDMDL
