MODEL 1
REMARK minimizedAffinity -0.132286787
REMARK minimizedRMSD -1
REMARK  1 active torsions:
REMARK  status: ('A' for Active; 'I' for Inactive)
REMARK    1  A    between atoms: C1_2  and  C2_3 
ROOT
ATOM      1  C2  UNL d   1       3.231   3.331  -5.985  0.00  0.00    -0.077 A 
ATOM      2  C3  UNL d   1       3.314   1.932  -5.964  0.00  0.00     0.002 A 
ATOM      3  C4  UNL d   1       4.559   1.299  -5.958  0.00  0.00     0.002 A 
ATOM      4  C5  UNL d   1       5.728   2.057  -5.968  0.00  0.00    -0.004 A 
ATOM      5  C6  UNL d   1       5.655   3.449  -5.992  0.00  0.00     0.002 A 
ATOM      6  C7  UNL d   1       4.412   4.083  -5.999  0.00  0.00     0.002 A 
ENDROOT
BRANCH   1   7
ATOM      7  C1  UNL d   1       1.890   4.016  -5.943  0.00  0.00     0.055 C 
ATOM      8  C   UNL d   1       2.040   5.530  -5.974  0.00  0.00     0.019 C 
ENDBRANCH   1   7
TORSDOF 1
ENDMDL
