MODEL 1
REMARK minimizedAffinity 6.24566269
REMARK minimizedRMSD -1
REMARK  1 active torsions:
REMARK  status: ('A' for Active; 'I' for Inactive)
REMARK    1  A    between atoms: C1_2  and  C2_3 
ROOT
ATOM      1  C2  UNL d   1       2.340   3.544  -5.964  0.00  0.00    -0.077 A 
ATOM      2  C3  UNL d   1       3.629   4.095  -5.984  0.00  0.00     0.002 A 
ATOM      3  C4  UNL d   1       4.752   3.264  -5.999  0.00  0.00     0.002 A 
ATOM      4  C5  UNL d   1       4.597   1.880  -5.998  0.00  0.00    -0.004 A 
ATOM      5  C6  UNL d   1       3.319   1.322  -5.976  0.00  0.00     0.002 A 
ATOM      6  C7  UNL d   1       2.196   2.150  -5.960  0.00  0.00     0.002 A 
ENDROOT
BRANCH   1   7
ATOM      7  C1  UNL d   1       1.128   4.437  -5.997  0.00  0.00     0.055 C 
ATOM      8  C   UNL d   1       1.522   5.906  -5.982  0.00  0.00     0.019 C 
ENDBRANCH   1   7
TORSDOF 1
ENDMDL
