MODEL 1
REMARK minimizedAffinity 4.12390518
REMARK minimizedRMSD -1
REMARK  1 active torsions:
REMARK  status: ('A' for Active; 'I' for Inactive)
REMARK    1  A    between atoms: C1_2  and  C2_3 
ROOT
ATOM      1  C2  UNL d   1       1.243   2.861  -5.764  0.00  0.00    -0.077 A 
ATOM      2  C3  UNL d   1       1.684   4.188  -5.860  0.00  0.00     0.002 A 
ATOM      3  C4  UNL d   1       3.048   4.474  -5.948  0.00  0.00     0.002 A 
ATOM      4  C5  UNL d   1       3.980   3.438  -5.946  0.00  0.00    -0.004 A 
ATOM      5  C6  UNL d   1       3.551   2.115  -5.849  0.00  0.00     0.002 A 
ATOM      6  C7  UNL d   1       2.189   1.827  -5.759  0.00  0.00     0.002 A 
ENDROOT
BRANCH   1   7
ATOM      7  C1  UNL d   1      -0.230   2.548  -5.718  0.00  0.00     0.055 C 
ATOM      8  C   UNL d   1      -0.769   2.628  -4.297  0.00  0.00     0.019 C 
ENDBRANCH   1   7
TORSDOF 1
ENDMDL
