MODEL 1
REMARK minimizedAffinity 0.266062051
REMARK minimizedRMSD -1
REMARK  1 active torsions:
REMARK  status: ('A' for Active; 'I' for Inactive)
REMARK    1  A    between atoms: C1_2  and  C2_3 
ROOT
ATOM      1  C2  UNL d   1       3.679   4.569  -5.952  0.00  0.00    -0.077 A 
ATOM      2  C3  UNL d   1       4.506   3.437  -5.944  0.00  0.00     0.002 A 
ATOM      3  C4  UNL d   1       3.949   2.156  -5.946  0.00  0.00     0.002 A 
ATOM      4  C5  UNL d   1       2.566   1.996  -5.959  0.00  0.00    -0.004 A 
ATOM      5  C6  UNL d   1       1.735   3.115  -5.965  0.00  0.00     0.002 A 
ATOM      6  C7  UNL d   1       2.289   4.396  -5.962  0.00  0.00     0.002 A 
ENDROOT
BRANCH   1   7
ATOM      7  C1  UNL d   1       4.277   5.950  -6.000  0.00  0.00     0.055 C 
ATOM      8  C   UNL d   1       5.798   5.896  -5.990  0.00  0.00     0.019 C 
ENDBRANCH   1   7
TORSDOF 1
ENDMDL
