MODEL 1
REMARK minimizedAffinity 0.372020334
REMARK minimizedRMSD -1
REMARK  1 active torsions:
REMARK  status: ('A' for Active; 'I' for Inactive)
REMARK    1  A    between atoms: C1_2  and  C2_3 
ROOT
ATOM      1  C2  UNL d   1       3.866  -3.743   2.405  0.00  0.00    -0.077 A 
ATOM      2  C3  UNL d   1       4.562  -3.967   1.208  0.00  0.00     0.002 A 
ATOM      3  C4  UNL d   1       4.016  -3.564  -0.012  0.00  0.00     0.002 A 
ATOM      4  C5  UNL d   1       2.776  -2.931  -0.047  0.00  0.00    -0.004 A 
ATOM      5  C6  UNL d   1       2.075  -2.706   1.137  0.00  0.00     0.002 A 
ATOM      6  C7  UNL d   1       2.618  -3.109   2.357  0.00  0.00     0.002 A 
ENDROOT
BRANCH   1   7
ATOM      7  C1  UNL d   1       4.474  -4.133   3.726  0.00  0.00     0.055 C 
ATOM      8  C   UNL d   1       4.835  -2.907   4.553  0.00  0.00     0.019 C 
ENDBRANCH   1   7
TORSDOF 1
ENDMDL
