MODEL 1
REMARK minimizedAffinity 10.629281
REMARK minimizedRMSD -1
REMARK  0 active torsions:
REMARK  status: ('A' for Active; 'I' for Inactive)
ROOT
ATOM      1  C   UNL d   1       0.479   5.253  -0.856  0.00  0.00    -0.002 A 
ATOM      2  C1  UNL d   1       1.838   5.013  -0.710  0.00  0.00     0.010 A 
ATOM      3  C2  UNL d   1       2.293   3.794  -0.203  0.00  0.00     0.041 A 
ATOM      4  C3  UNL d   1       1.351   2.811   0.158  0.00  0.00    -0.075 A 
ATOM      5  S   UNL d   1       1.677   1.244   0.799  0.00  0.00     0.015 SA
ATOM      6  C4  UNL d   1       0.020   0.857   0.894  0.00  0.00     0.022 A 
ATOM      7  C5  UNL d   1      -0.777   1.886   0.451  0.00  0.00     0.026 A 
ATOM      8  C6  UNL d   1      -0.023   3.029   0.019  0.00  0.00    -0.082 A 
ATOM      9  C7  UNL d   1      -0.453   4.275  -0.498  0.00  0.00     0.045 A 
ENDROOT
TORSDOF 0
ENDMDL
