MODEL 1
REMARK minimizedAffinity 1.35236633
REMARK minimizedRMSD -1
REMARK  0 active torsions:
REMARK  status: ('A' for Active; 'I' for Inactive)
ROOT
ATOM      1  C   UNL d   1      -3.131   2.310  -2.570  0.00  0.00    -0.002 A 
ATOM      2  C1  UNL d   1      -2.263   3.291  -3.026  0.00  0.00     0.010 A 
ATOM      3  C2  UNL d   1      -2.626   4.124  -4.086  0.00  0.00     0.041 A 
ATOM      4  C3  UNL d   1      -3.889   3.953  -4.685  0.00  0.00    -0.075 A 
ATOM      5  S   UNL d   1      -4.549   4.858  -5.997  0.00  0.00     0.015 SA
ATOM      6  C4  UNL d   1      -6.000   3.963  -5.982  0.00  0.00     0.022 A 
ATOM      7  C5  UNL d   1      -5.998   2.994  -5.006  0.00  0.00     0.026 A 
ATOM      8  C6  UNL d   1      -4.782   2.973  -4.243  0.00  0.00    -0.082 A 
ATOM      9  C7  UNL d   1      -4.384   2.144  -3.166  0.00  0.00     0.045 A 
ENDROOT
TORSDOF 0
ENDMDL
