MODEL 1
REMARK minimizedAffinity 7.19173145
REMARK minimizedRMSD -1
REMARK  0 active torsions:
REMARK  status: ('A' for Active; 'I' for Inactive)
ROOT
ATOM      1  C   UNL d   1       1.016   5.293  -1.502  0.00  0.00    -0.002 A 
ATOM      2  C1  UNL d   1      -0.152   5.997  -1.756  0.00  0.00     0.010 A 
ATOM      3  C2  UNL d   1      -1.374   5.554  -1.245  0.00  0.00     0.041 A 
ATOM      4  C3  UNL d   1      -1.402   4.381  -0.466  0.00  0.00    -0.075 A 
ATOM      5  S   UNL d   1      -2.782   3.650   0.264  0.00  0.00     0.015 SA
ATOM      6  C4  UNL d   1      -1.853   2.386   0.931  0.00  0.00     0.022 A 
ATOM      7  C5  UNL d   1      -0.521   2.503   0.614  0.00  0.00     0.026 A 
ATOM      8  C6  UNL d   1      -0.238   3.655  -0.196  0.00  0.00    -0.082 A 
ATOM      9  C7  UNL d   1       0.985   4.129  -0.729  0.00  0.00     0.045 A 
ENDROOT
TORSDOF 0
ENDMDL
