MODEL 1
REMARK minimizedAffinity 12.5495367
REMARK minimizedRMSD -1
REMARK  0 active torsions:
REMARK  status: ('A' for Active; 'I' for Inactive)
ROOT
ATOM      1  C   UNL d   1      -0.438   2.107  -0.417  0.00  0.00    -0.002 A 
ATOM      2  C1  UNL d   1      -1.489   2.618  -1.165  0.00  0.00     0.010 A 
ATOM      3  C2  UNL d   1      -1.348   3.822  -1.858  0.00  0.00     0.041 A 
ATOM      4  C3  UNL d   1      -0.120   4.509  -1.788  0.00  0.00    -0.075 A 
ATOM      5  S   UNL d   1       0.282   6.000  -2.556  0.00  0.00     0.015 SA
ATOM      6  C4  UNL d   1       1.859   5.992  -1.910  0.00  0.00     0.022 A 
ATOM      7  C5  UNL d   1       2.090   4.887  -1.126  0.00  0.00     0.026 A 
ATOM      8  C6  UNL d   1       0.953   4.014  -1.043  0.00  0.00    -0.082 A 
ATOM      9  C7  UNL d   1       0.779   2.791  -0.350  0.00  0.00     0.045 A 
ENDROOT
TORSDOF 0
ENDMDL
