MODEL 1
REMARK minimizedAffinity 22.7202244
REMARK minimizedRMSD -1
REMARK  0 active torsions:
REMARK  status: ('A' for Active; 'I' for Inactive)
ROOT
ATOM      1  C   UNL d   1      -1.449   0.299  -5.238  0.00  0.00    -0.002 A 
ATOM      2  C1  UNL d   1      -0.769   0.975  -4.235  0.00  0.00     0.010 A 
ATOM      3  C2  UNL d   1      -1.459   1.512  -3.146  0.00  0.00     0.041 A 
ATOM      4  C3  UNL d   1      -2.858   1.354  -3.081  0.00  0.00    -0.075 A 
ATOM      5  S   UNL d   1      -3.911   1.925  -1.842  0.00  0.00     0.015 SA
ATOM      6  C4  UNL d   1      -5.289   1.284  -2.614  0.00  0.00     0.022 A 
ATOM      7  C5  UNL d   1      -4.971   0.647  -3.790  0.00  0.00     0.026 A 
ATOM      8  C6  UNL d   1      -3.564   0.676  -4.078  0.00  0.00    -0.082 A 
ATOM      9  C7  UNL d   1      -2.836   0.145  -5.170  0.00  0.00     0.045 A 
ENDROOT
TORSDOF 0
ENDMDL
