MODEL 1
REMARK minimizedAffinity 11.6080847
REMARK minimizedRMSD -1
REMARK  0 active torsions:
REMARK  status: ('A' for Active; 'I' for Inactive)
ROOT
ATOM      1  C   UNL d   1       5.518  -2.948   2.024  0.00  0.00    -0.002 A 
ATOM      2  C1  UNL d   1       5.339  -2.955   0.648  0.00  0.00     0.010 A 
ATOM      3  C2  UNL d   1       4.189  -2.405   0.078  0.00  0.00     0.041 A 
ATOM      4  C3  UNL d   1       3.213  -1.841   0.923  0.00  0.00    -0.075 A 
ATOM      5  S   UNL d   1       1.726  -1.109   0.449  0.00  0.00     0.015 SA
ATOM      6  C4  UNL d   1       1.293  -0.769   2.061  0.00  0.00     0.022 A 
ATOM      7  C5  UNL d   1       2.248  -1.196   2.953  0.00  0.00     0.026 A 
ATOM      8  C6  UNL d   1       3.371  -1.821   2.311  0.00  0.00    -0.082 A 
ATOM      9  C7  UNL d   1       4.547  -2.387   2.858  0.00  0.00     0.045 A 
ENDROOT
TORSDOF 0
ENDMDL
