MODEL 1
REMARK minimizedAffinity 15.9899874
REMARK minimizedRMSD -1
REMARK  0 active torsions:
REMARK  status: ('A' for Active; 'I' for Inactive)
ROOT
ATOM      1  C   UNL d   1       1.867  -0.724   2.628  0.00  0.00    -0.002 A 
ATOM      2  C1  UNL d   1       1.745  -0.879   1.254  0.00  0.00     0.010 A 
ATOM      3  C2  UNL d   1       2.745  -1.520   0.520  0.00  0.00     0.041 A 
ATOM      4  C3  UNL d   1       3.880  -2.009   1.197  0.00  0.00    -0.075 A 
ATOM      5  S   UNL d   1       5.230  -2.828   0.505  0.00  0.00     0.015 SA
ATOM      6  C4  UNL d   1       6.000  -2.993   2.016  0.00  0.00     0.022 A 
ATOM      7  C5  UNL d   1       5.259  -2.441   3.035  0.00  0.00     0.026 A 
ATOM      8  C6  UNL d   1       4.025  -1.866   2.579  0.00  0.00    -0.082 A 
ATOM      9  C7  UNL d   1       2.994  -1.211   3.295  0.00  0.00     0.045 A 
ENDROOT
TORSDOF 0
ENDMDL
