MODEL 1
REMARK minimizedAffinity 11.308733
REMARK minimizedRMSD -1
REMARK  0 active torsions:
REMARK  status: ('A' for Active; 'I' for Inactive)
ROOT
ATOM      1  C   UNL d   1       2.009   4.773  -1.576  0.00  0.00    -0.002 A 
ATOM      2  C1  UNL d   1       1.379   5.954  -1.942  0.00  0.00     0.010 A 
ATOM      3  C2  UNL d   1      -0.007   5.999  -2.107  0.00  0.00     0.041 A 
ATOM      4  C3  UNL d   1      -0.757   4.826  -1.894  0.00  0.00    -0.075 A 
ATOM      5  S   UNL d   1      -2.465   4.644  -2.037  0.00  0.00     0.015 SA
ATOM      6  C4  UNL d   1      -2.400   2.994  -1.614  0.00  0.00     0.022 A 
ATOM      7  C5  UNL d   1      -1.114   2.576  -1.368  0.00  0.00     0.026 A 
ATOM      8  C6  UNL d   1      -0.146   3.624  -1.524  0.00  0.00    -0.082 A 
ATOM      9  C7  UNL d   1       1.261   3.611  -1.366  0.00  0.00     0.045 A 
ENDROOT
TORSDOF 0
ENDMDL
