MODEL 1
REMARK minimizedAffinity 0.509980977
REMARK minimizedRMSD -1
REMARK  0 active torsions:
REMARK  status: ('A' for Active; 'I' for Inactive)
ROOT
ATOM      1  C   UNL d   1      -1.483   2.973   0.961  0.00  0.00    -0.002 A 
ATOM      2  C1  UNL d   1      -2.388   2.066   1.494  0.00  0.00     0.010 A 
ATOM      3  C2  UNL d   1      -3.699   2.455   1.777  0.00  0.00     0.041 A 
ATOM      4  C3  UNL d   1      -4.089   3.782   1.510  0.00  0.00    -0.075 A 
ATOM      5  S   UNL d   1      -5.643   4.481   1.775  0.00  0.00     0.015 SA
ATOM      6  C4  UNL d   1      -5.142   6.000   1.185  0.00  0.00     0.022 A 
ATOM      7  C5  UNL d   1      -3.824   5.991   0.792  0.00  0.00     0.026 A 
ATOM      8  C6  UNL d   1      -3.196   4.713   0.972  0.00  0.00    -0.082 A 
ATOM      9  C7  UNL d   1      -1.874   4.289   0.697  0.00  0.00     0.045 A 
ENDROOT
TORSDOF 0
ENDMDL
