MODEL 1
REMARK minimizedAffinity 9.36033058
REMARK minimizedRMSD -1
REMARK  0 active torsions:
REMARK  status: ('A' for Active; 'I' for Inactive)
ROOT
ATOM      1  C   UNL d   1       1.681  -0.953   2.564  0.00  0.00    -0.002 A 
ATOM      2  C1  UNL d   1       1.213  -1.188   1.279  0.00  0.00     0.010 A 
ATOM      3  C2  UNL d   1       2.051  -1.737   0.307  0.00  0.00     0.041 A 
ATOM      4  C3  UNL d   1       3.380  -2.051   0.652  0.00  0.00    -0.075 A 
ATOM      5  S   UNL d   1       4.587  -2.732  -0.374  0.00  0.00     0.015 SA
ATOM      6  C4  UNL d   1       5.753  -2.728   0.870  0.00  0.00     0.022 A 
ATOM      7  C5  UNL d   1       5.250  -2.223   2.046  0.00  0.00     0.026 A 
ATOM      8  C6  UNL d   1       3.875  -1.825   1.939  0.00  0.00    -0.082 A 
ATOM      9  C7  UNL d   1       3.000  -1.266   2.902  0.00  0.00     0.045 A 
ENDROOT
TORSDOF 0
ENDMDL
