MODEL 1
REMARK minimizedAffinity -4.49492168
REMARK minimizedRMSD -1
REMARK  0 active torsions:
REMARK  status: ('A' for Active; 'I' for Inactive)
ROOT
ATOM      1  C1  BNZ d   1       1.958  -0.020  -0.016  0.00  0.00     0.000 A 
ATOM      2  C2  BNZ d   1       2.274  -1.264   0.461  0.00  0.00     0.000 A 
ATOM      3  C3  BNZ d   1       1.294  -2.137   0.842  0.00  0.00     0.000 A 
ATOM      4  C4  BNZ d   1       0.003  -1.751   0.784  0.00  0.00     0.000 A 
ATOM      5  C5  BNZ d   1      -0.331  -0.497   0.315  0.00  0.00     0.000 A 
ATOM      6  C6  BNZ d   1       0.656   0.365  -0.105  0.00  0.00     0.000 A 
ENDROOT
TORSDOF 0
ENDMDL
