MODEL 1
REMARK minimizedAffinity -4.90083456
REMARK minimizedRMSD -1
REMARK  0 active torsions:
REMARK  status: ('A' for Active; 'I' for Inactive)
ROOT
ATOM      1  C1  BNZ d   1      -0.121  -1.981   0.955  0.00  0.00     0.000 A 
ATOM      2  C2  BNZ d   1      -0.631  -0.753   0.628  0.00  0.00     0.000 A 
ATOM      3  C3  BNZ d   1       0.188   0.254   0.200  0.00  0.00     0.000 A 
ATOM      4  C4  BNZ d   1       1.519   0.045   0.138  0.00  0.00     0.000 A 
ATOM      5  C5  BNZ d   1       2.050  -1.185   0.473  0.00  0.00     0.000 A 
ATOM      6  C6  BNZ d   1       1.218  -2.208   0.866  0.00  0.00     0.000 A 
ENDROOT
TORSDOF 0
ENDMDL
