MODEL 1
REMARK minimizedAffinity -4.93010426
REMARK minimizedRMSD -1
REMARK  0 active torsions:
REMARK  status: ('A' for Active; 'I' for Inactive)
ROOT
ATOM      1  C1  BNZ d   1       2.238  -1.409   0.859  0.00  0.00     0.000 A 
ATOM      2  C2  BNZ d   1       1.719  -0.263   0.317  0.00  0.00     0.000 A 
ATOM      3  C3  BNZ d   1       0.501  -0.271  -0.303  0.00  0.00     0.000 A 
ATOM      4  C4  BNZ d   1      -0.177  -1.431  -0.416  0.00  0.00     0.000 A 
ATOM      5  C5  BNZ d   1       0.337  -2.597   0.116  0.00  0.00     0.000 A 
ATOM      6  C6  BNZ d   1       1.545  -2.577   0.774  0.00  0.00     0.000 A 
ENDROOT
TORSDOF 0
ENDMDL
