MODEL 1
REMARK minimizedAffinity -2.88249707
REMARK minimizedRMSD -1
REMARK  0 active torsions:
REMARK  status: ('A' for Active; 'I' for Inactive)
ROOT
ATOM      1  C1  BNZ d   1      -0.554  -1.030   0.354  0.00  0.00     0.000 A 
ATOM      2  C2  BNZ d   1       0.190  -1.963   1.025  0.00  0.00     0.000 A 
ATOM      3  C3  BNZ d   1       1.555  -1.948   0.961  0.00  0.00     0.000 A 
ATOM      4  C4  BNZ d   1       2.172  -1.026   0.195  0.00  0.00     0.000 A 
ATOM      5  C5  BNZ d   1       1.436  -0.084  -0.496  0.00  0.00     0.000 A 
ATOM      6  C6  BNZ d   1       0.063  -0.079  -0.398  0.00  0.00     0.000 A 
ENDROOT
TORSDOF 0
ENDMDL
