MODEL 1
REMARK minimizedAffinity -5.34606218
REMARK minimizedRMSD -1
REMARK  0 active torsions:
REMARK  status: ('A' for Active; 'I' for Inactive)
ROOT
ATOM      1  C1  BNZ d   1       0.416  -2.589   2.314  0.00  0.00     0.000 A 
ATOM      2  C2  BNZ d   1       1.421  -2.849   1.421  0.00  0.00     0.000 A 
ATOM      3  C3  BNZ d   1       1.640  -2.023   0.354  0.00  0.00     0.000 A 
ATOM      4  C4  BNZ d   1       0.830  -0.962   0.159  0.00  0.00     0.000 A 
ATOM      5  C5  BNZ d   1      -0.193  -0.692   1.045  0.00  0.00     0.000 A 
ATOM      6  C6  BNZ d   1      -0.386  -1.503   2.140  0.00  0.00     0.000 A 
ENDROOT
TORSDOF 0
ENDMDL
