MODEL 1
REMARK minimizedAffinity -4.50293875
REMARK minimizedRMSD -1
REMARK  0 active torsions:
REMARK  status: ('A' for Active; 'I' for Inactive)
ROOT
ATOM      1  C1  BNZ d   1       0.809  -1.682   1.023  0.00  0.00     0.000 A 
ATOM      2  C2  BNZ d   1       1.847  -1.327   0.203  0.00  0.00     0.000 A 
ATOM      3  C3  BNZ d   1       1.773  -0.207  -0.576  0.00  0.00     0.000 A 
ATOM      4  C4  BNZ d   1       0.646   0.535  -0.565  0.00  0.00     0.000 A 
ATOM      5  C5  BNZ d   1      -0.413   0.185   0.249  0.00  0.00     0.000 A 
ATOM      6  C6  BNZ d   1      -0.319  -0.921   1.061  0.00  0.00     0.000 A 
ENDROOT
TORSDOF 0
ENDMDL
