MODEL 1
REMARK minimizedAffinity -4.04395533
REMARK minimizedRMSD -1
REMARK  0 active torsions:
REMARK  status: ('A' for Active; 'I' for Inactive)
ROOT
ATOM      1  C1  BNZ d   1       0.142   0.199   0.078  0.00  0.00     0.000 A 
ATOM      2  C2  BNZ d   1       0.514  -1.029   0.556  0.00  0.00     0.000 A 
ATOM      3  C3  BNZ d   1       1.718  -1.578   0.213  0.00  0.00     0.000 A 
ATOM      4  C4  BNZ d   1       2.530  -0.917  -0.637  0.00  0.00     0.000 A 
ATOM      5  C5  BNZ d   1       2.165   0.318  -1.135  0.00  0.00     0.000 A 
ATOM      6  C6  BNZ d   1       0.969   0.885  -0.757  0.00  0.00     0.000 A 
ENDROOT
TORSDOF 0
ENDMDL
