MODEL 1
REMARK minimizedAffinity -4.59409142
REMARK minimizedRMSD -1
REMARK  0 active torsions:
REMARK  status: ('A' for Active; 'I' for Inactive)
ROOT
ATOM      1  C1  BNZ d   1      -0.583  -0.249   0.163  0.00  0.00     0.000 A 
ATOM      2  C2  BNZ d   1      -0.618  -1.572   0.516  0.00  0.00     0.000 A 
ATOM      3  C3  BNZ d   1       0.496  -2.356   0.403  0.00  0.00     0.000 A 
ATOM      4  C4  BNZ d   1       1.630  -1.828  -0.100  0.00  0.00     0.000 A 
ATOM      5  C5  BNZ d   1       1.678  -0.499  -0.469  0.00  0.00     0.000 A 
ATOM      6  C6  BNZ d   1       0.566   0.297  -0.318  0.00  0.00     0.000 A 
ENDROOT
TORSDOF 0
ENDMDL
