MODEL 1
REMARK minimizedAffinity -3.67280006
REMARK minimizedRMSD -1
REMARK  0 active torsions:
REMARK  status: ('A' for Active; 'I' for Inactive)
ROOT
ATOM      1  C1  BNZ d   1       0.249  -1.851   1.187  0.00  0.00     0.000 A 
ATOM      2  C2  BNZ d   1      -0.291  -0.599   1.058  0.00  0.00     0.000 A 
ATOM      3  C3  BNZ d   1       0.405   0.404   0.445  0.00  0.00     0.000 A 
ATOM      4  C4  BNZ d   1       1.655   0.166  -0.003  0.00  0.00     0.000 A 
ATOM      5  C5  BNZ d   1       2.217  -1.088   0.127  0.00  0.00     0.000 A 
ATOM      6  C6  BNZ d   1       1.498  -2.106   0.710  0.00  0.00     0.000 A 
ENDROOT
TORSDOF 0
ENDMDL
