MODEL 1
REMARK minimizedAffinity -4.64459419
REMARK minimizedRMSD -1
REMARK  0 active torsions:
REMARK  status: ('A' for Active; 'I' for Inactive)
ROOT
ATOM      1  C1  BNZ d   1       1.535  -2.596   0.899  0.00  0.00     0.000 A 
ATOM      2  C2  BNZ d   1       2.338  -1.760   0.171  0.00  0.00     0.000 A 
ATOM      3  C3  BNZ d   1       1.889  -0.533  -0.232  0.00  0.00     0.000 A 
ATOM      4  C4  BNZ d   1       0.626  -0.161   0.059  0.00  0.00     0.000 A 
ATOM      5  C5  BNZ d   1      -0.199  -0.997   0.785  0.00  0.00     0.000 A 
ATOM      6  C6  BNZ d   1       0.269  -2.215   1.222  0.00  0.00     0.000 A 
ENDROOT
TORSDOF 0
ENDMDL
