MODEL 1
REMARK minimizedAffinity -3.23130465
REMARK minimizedRMSD -1
REMARK  0 active torsions:
REMARK  status: ('A' for Active; 'I' for Inactive)
ROOT
ATOM      1  C1  BNZ d   1       2.171  -1.753   0.357  0.00  0.00     0.000 A 
ATOM      2  C2  BNZ d   1       1.877  -0.661  -0.416  0.00  0.00     0.000 A 
ATOM      3  C3  BNZ d   1       0.768   0.097  -0.163  0.00  0.00     0.000 A 
ATOM      4  C4  BNZ d   1      -0.066  -0.260   0.835  0.00  0.00     0.000 A 
ATOM      5  C5  BNZ d   1       0.212  -1.363   1.617  0.00  0.00     0.000 A 
ATOM      6  C6  BNZ d   1       1.349  -2.101   1.385  0.00  0.00     0.000 A 
ENDROOT
TORSDOF 0
ENDMDL
