MODEL 1
REMARK minimizedAffinity -2.45435596
REMARK minimizedRMSD -1
REMARK  0 active torsions:
REMARK  status: ('A' for Active; 'I' for Inactive)
ROOT
ATOM      1  C1  BNZ d   1       1.754  -1.554  -0.101  0.00  0.00     0.000 A 
ATOM      2  C2  BNZ d   1       2.121  -0.468  -0.850  0.00  0.00     0.000 A 
ATOM      3  C3  BNZ d   1       1.311   0.630  -0.934  0.00  0.00     0.000 A 
ATOM      4  C4  BNZ d   1       0.119   0.624  -0.303  0.00  0.00     0.000 A 
ATOM      5  C5  BNZ d   1      -0.269  -0.467   0.448  0.00  0.00     0.000 A 
ATOM      6  C6  BNZ d   1       0.566  -1.555   0.563  0.00  0.00     0.000 A 
ENDROOT
TORSDOF 0
ENDMDL
