MODEL 1
REMARK minimizedAffinity -2.33199763
REMARK minimizedRMSD -1
REMARK  0 active torsions:
REMARK  status: ('A' for Active; 'I' for Inactive)
ROOT
ATOM      1  C1  BNZ d   1       1.602  -0.257  -0.123  0.00  0.00     0.000 A 
ATOM      2  C2  BNZ d   1       0.435   0.422   0.105  0.00  0.00     0.000 A 
ATOM      3  C3  BNZ d   1      -0.724  -0.250   0.376  0.00  0.00     0.000 A 
ATOM      4  C4  BNZ d   1      -0.723  -1.599   0.379  0.00  0.00     0.000 A 
ATOM      5  C5  BNZ d   1       0.444  -2.298   0.142  0.00  0.00     0.000 A 
ATOM      6  C6  BNZ d   1       1.617  -1.617  -0.092  0.00  0.00     0.000 A 
ENDROOT
TORSDOF 0
ENDMDL
