MODEL 1
REMARK minimizedAffinity -4.95840502
REMARK minimizedRMSD -1
REMARK  0 active torsions:
REMARK  status: ('A' for Active; 'I' for Inactive)
ROOT
ATOM      1  C1  BNZ d   1      -0.921  -0.974   1.066  0.00  0.00     0.000 A 
ATOM      2  C2  BNZ d   1       0.121  -1.831   0.829  0.00  0.00     0.000 A 
ATOM      3  C3  BNZ d   1       1.231  -1.412   0.150  0.00  0.00     0.000 A 
ATOM      4  C4  BNZ d   1       1.281  -0.151  -0.326  0.00  0.00     0.000 A 
ATOM      5  C5  BNZ d   1       0.235   0.722  -0.103  0.00  0.00     0.000 A 
ATOM      6  C6  BNZ d   1      -0.864   0.308   0.614  0.00  0.00     0.000 A 
ENDROOT
TORSDOF 0
ENDMDL
