MODEL 1
REMARK minimizedAffinity -3.76042891
REMARK minimizedRMSD -1
REMARK  0 active torsions:
REMARK  status: ('A' for Active; 'I' for Inactive)
ROOT
ATOM      1  C1  BNZ d   1       1.789   0.174  -0.307  0.00  0.00     0.000 A 
ATOM      2  C2  BNZ d   1       2.191  -1.095   0.013  0.00  0.00     0.000 A 
ATOM      3  C3  BNZ d   1       1.275  -2.076   0.270  0.00  0.00     0.000 A 
ATOM      4  C4  BNZ d   1      -0.040  -1.778   0.246  0.00  0.00     0.000 A 
ATOM      5  C5  BNZ d   1      -0.462  -0.500  -0.066  0.00  0.00     0.000 A 
ATOM      6  C6  BNZ d   1       0.463   0.475  -0.362  0.00  0.00     0.000 A 
ENDROOT
TORSDOF 0
ENDMDL
