MODEL 1
REMARK minimizedAffinity 4.80955124
REMARK minimizedRMSD -1
REMARK  0 active torsions:
REMARK  status: ('A' for Active; 'I' for Inactive)
ROOT
ATOM      1  C1  BNZ d   1       1.858  -0.648   2.326  0.00  0.00     0.000 A 
ATOM      2  C2  BNZ d   1       1.773  -1.864   2.949  0.00  0.00     0.000 A 
ATOM      3  C3  BNZ d   1       1.653  -1.948   4.308  0.00  0.00     0.000 A 
ATOM      4  C4  BNZ d   1       1.658  -0.819   5.045  0.00  0.00     0.000 A 
ATOM      5  C5  BNZ d   1       1.752   0.415   4.433  0.00  0.00     0.000 A 
ATOM      6  C6  BNZ d   1       1.833   0.497   3.061  0.00  0.00     0.000 A 
ENDROOT
TORSDOF 0
ENDMDL
