MODEL 1
REMARK minimizedAffinity 7.04761505
REMARK minimizedRMSD -1
REMARK  0 active torsions:
REMARK  status: ('A' for Active; 'I' for Inactive)
ROOT
ATOM      1  C1  BNZ d   1       0.187   5.957  -0.090  0.00  0.00     0.000 A 
ATOM      2  C2  BNZ d   1       0.706   4.752  -0.482  0.00  0.00     0.000 A 
ATOM      3  C3  BNZ d   1       0.213   3.580   0.022  0.00  0.00     0.000 A 
ATOM      4  C4  BNZ d   1      -0.769   3.617   0.945  0.00  0.00     0.000 A 
ATOM      5  C5  BNZ d   1      -1.297   4.824   1.357  0.00  0.00     0.000 A 
ATOM      6  C6  BNZ d   1      -0.825   6.000   0.819  0.00  0.00     0.000 A 
ENDROOT
TORSDOF 0
ENDMDL
