MODEL 1
REMARK minimizedAffinity 5.31732988
REMARK minimizedRMSD -1
REMARK  0 active torsions:
REMARK  status: ('A' for Active; 'I' for Inactive)
ROOT
ATOM      1  C1  BNZ d   1       1.242  -2.627   4.985  0.00  0.00     0.000 A 
ATOM      2  C2  BNZ d   1       0.916  -1.550   4.205  0.00  0.00     0.000 A 
ATOM      3  C3  BNZ d   1       1.335  -1.474   2.906  0.00  0.00     0.000 A 
ATOM      4  C4  BNZ d   1       2.112  -2.454   2.402  0.00  0.00     0.000 A 
ATOM      5  C5  BNZ d   1       2.458  -3.542   3.179  0.00  0.00     0.000 A 
ATOM      6  C6  BNZ d   1       2.002  -3.634   4.474  0.00  0.00     0.000 A 
ENDROOT
TORSDOF 0
ENDMDL
