MODEL 1
REMARK minimizedAffinity 5.6423049
REMARK minimizedRMSD -1
REMARK  0 active torsions:
REMARK  status: ('A' for Active; 'I' for Inactive)
ROOT
ATOM      1  C1  BNZ d   1       1.541  -1.578   4.930  0.00  0.00     0.000 A 
ATOM      2  C2  BNZ d   1       1.430  -0.699   3.886  0.00  0.00     0.000 A 
ATOM      3  C3  BNZ d   1       1.776  -1.071   2.617  0.00  0.00     0.000 A 
ATOM      4  C4  BNZ d   1       2.270  -2.307   2.400  0.00  0.00     0.000 A 
ATOM      5  C5  BNZ d   1       2.396  -3.202   3.443  0.00  0.00     0.000 A 
ATOM      6  C6  BNZ d   1       2.010  -2.837   4.713  0.00  0.00     0.000 A 
ENDROOT
TORSDOF 0
ENDMDL
