MODEL 1
REMARK minimizedAffinity -0.0622871816
REMARK minimizedRMSD -1
REMARK  0 active torsions:
REMARK  status: ('A' for Active; 'I' for Inactive)
ROOT
ATOM      1  C1  BNZ d   1      -2.561   0.694   0.088  0.00  0.00     0.000 A 
ATOM      2  C2  BNZ d   1      -1.493   1.238   0.750  0.00  0.00     0.000 A 
ATOM      3  C3  BNZ d   1      -0.635   0.448   1.463  0.00  0.00     0.000 A 
ATOM      4  C4  BNZ d   1      -0.869  -0.878   1.547  0.00  0.00     0.000 A 
ATOM      5  C5  BNZ d   1      -1.947  -1.440   0.893  0.00  0.00     0.000 A 
ATOM      6  C6  BNZ d   1      -2.787  -0.647   0.145  0.00  0.00     0.000 A 
ENDROOT
TORSDOF 0
ENDMDL
