MODEL 1
REMARK minimizedAffinity 3.03549719
REMARK minimizedRMSD -1
REMARK  0 active torsions:
REMARK  status: ('A' for Active; 'I' for Inactive)
ROOT
ATOM      1  C1  BNZ d   1      -5.138   3.800  -1.803  0.00  0.00     0.000 A 
ATOM      2  C2  BNZ d   1      -5.149   3.813  -3.172  0.00  0.00     0.000 A 
ATOM      3  C3  BNZ d   1      -5.559   4.921  -3.859  0.00  0.00     0.000 A 
ATOM      4  C4  BNZ d   1      -5.995   6.000  -3.177  0.00  0.00     0.000 A 
ATOM      5  C5  BNZ d   1      -5.999   5.999  -1.796  0.00  0.00     0.000 A 
ATOM      6  C6  BNZ d   1      -5.548   4.896  -1.108  0.00  0.00     0.000 A 
ENDROOT
TORSDOF 0
ENDMDL
