MODEL 1
REMARK minimizedAffinity -2.01775527
REMARK minimizedRMSD -1
REMARK  0 active torsions:
REMARK  status: ('A' for Active; 'I' for Inactive)
ROOT
ATOM      1  C1  BNZ d   1       5.991   3.791  -3.108  0.00  0.00     0.000 A 
ATOM      2  C2  BNZ d   1       6.000   4.540  -1.961  0.00  0.00     0.000 A 
ATOM      3  C3  BNZ d   1       4.945   4.501  -1.092  0.00  0.00     0.000 A 
ATOM      4  C4  BNZ d   1       3.868   3.747  -1.390  0.00  0.00     0.000 A 
ATOM      5  C5  BNZ d   1       3.840   2.995  -2.548  0.00  0.00     0.000 A 
ATOM      6  C6  BNZ d   1       4.919   3.005  -3.401  0.00  0.00     0.000 A 
ENDROOT
TORSDOF 0
ENDMDL
