MODEL 1
REMARK minimizedAffinity -0.590094268
REMARK minimizedRMSD -1
REMARK  0 active torsions:
REMARK  status: ('A' for Active; 'I' for Inactive)
ROOT
ATOM      1  C1  BNZ d   1       3.691   3.209  -3.885  0.00  0.00     0.000 A 
ATOM      2  C2  BNZ d   1       3.709   3.370  -2.525  0.00  0.00     0.000 A 
ATOM      3  C3  BNZ d   1       4.860   3.719  -1.877  0.00  0.00     0.000 A 
ATOM      4  C4  BNZ d   1       6.000   3.868  -2.583  0.00  0.00     0.000 A 
ATOM      5  C5  BNZ d   1       6.000   3.700  -3.953  0.00  0.00     0.000 A 
ATOM      6  C6  BNZ d   1       4.831   3.386  -4.607  0.00  0.00     0.000 A 
ENDROOT
TORSDOF 0
ENDMDL
