MODEL 1
REMARK minimizedAffinity -2.21269083
REMARK minimizedRMSD -1
REMARK  0 active torsions:
REMARK  status: ('A' for Active; 'I' for Inactive)
ROOT
ATOM      1  C   UNL d   1       1.312   0.578  -0.207  0.00  0.00     0.124 A 
ATOM      2  C1  UNL d   1       1.596   1.037  -1.486  0.00  0.00     0.062 A 
ATOM      3  C2  UNL d   1       1.704   2.403  -1.732  0.00  0.00     0.162 A 
ATOM      4  C3  UNL d   1       1.531   3.320  -0.695  0.00  0.00    -0.034 A 
ATOM      5  C4  UNL d   1       1.245   2.851   0.588  0.00  0.00     0.162 A 
ATOM      6  C5  UNL d   1       1.138   1.485   0.828  0.00  0.00     0.062 A 
ATOM      7  F   UNL d   1       0.864   1.043   2.064  0.00  0.00    -0.097 F 
ATOM      8  F1  UNL d   1       1.072   3.705   1.607  0.00  0.00    -0.096 F 
ATOM      9  I   UNL d   1       1.693   5.363  -1.058  0.00  0.00    -0.060 I 
ATOM     10  F2  UNL d   1       1.979   2.818  -2.977  0.00  0.00    -0.096 F 
ATOM     11  F3  UNL d   1       1.764   0.163  -2.489  0.00  0.00    -0.097 F 
ATOM     12  F4  UNL d   1       1.207  -0.737   0.026  0.00  0.00    -0.092 F 
ENDROOT
TORSDOF 0
ENDMDL
