MODEL 1
REMARK minimizedAffinity 3.93799448
REMARK minimizedRMSD -1
REMARK  0 active torsions:
REMARK  status: ('A' for Active; 'I' for Inactive)
ROOT
ATOM      1  C   UNL d   1       0.896   0.578   0.030  0.00  0.00     0.124 A 
ATOM      2  C1  UNL d   1       0.884   1.566   1.005  0.00  0.00     0.062 A 
ATOM      3  C2  UNL d   1       1.134   2.891   0.661  0.00  0.00     0.162 A 
ATOM      4  C3  UNL d   1       1.397   3.237  -0.665  0.00  0.00    -0.034 A 
ATOM      5  C4  UNL d   1       1.408   2.237  -1.639  0.00  0.00     0.162 A 
ATOM      6  C5  UNL d   1       1.158   0.914  -1.290  0.00  0.00     0.062 A 
ATOM      7  F   UNL d   1       1.170  -0.039  -2.233  0.00  0.00    -0.097 F 
ATOM      8  F1  UNL d   1       1.658   2.534  -2.923  0.00  0.00    -0.096 F 
ATOM      9  I   UNL d   1       1.771   5.217  -1.183  0.00  0.00    -0.060 I 
ATOM     10  F2  UNL d   1       1.116   3.825   1.623  0.00  0.00    -0.096 F 
ATOM     11  F3  UNL d   1       0.632   1.243   2.282  0.00  0.00    -0.097 F 
ATOM     12  F4  UNL d   1       0.656  -0.697   0.364  0.00  0.00    -0.092 F 
ENDROOT
TORSDOF 0
ENDMDL
