MODEL 1
REMARK minimizedAffinity 6.4881053
REMARK minimizedRMSD -1
REMARK  0 active torsions:
REMARK  status: ('A' for Active; 'I' for Inactive)
ROOT
ATOM      1  C   UNL d   1       0.839   0.637  -0.699  0.00  0.00     0.124 A 
ATOM      2  C1  UNL d   1       0.943   1.230  -1.950  0.00  0.00     0.062 A 
ATOM      3  C2  UNL d   1       1.177   2.598  -2.058  0.00  0.00     0.162 A 
ATOM      4  C3  UNL d   1       1.311   3.383  -0.913  0.00  0.00    -0.034 A 
ATOM      5  C4  UNL d   1       1.204   2.779   0.341  0.00  0.00     0.162 A 
ATOM      6  C5  UNL d   1       0.970   1.412   0.445  0.00  0.00     0.062 A 
ATOM      7  F   UNL d   1       0.870   0.841   1.654  0.00  0.00    -0.097 F 
ATOM      8  F1  UNL d   1       1.327   3.504   1.463  0.00  0.00    -0.096 F 
ATOM      9  I   UNL d   1       1.661   5.428  -1.071  0.00  0.00    -0.060 I 
ATOM     10  F2  UNL d   1       1.273   3.144  -3.280  0.00  0.00    -0.096 F 
ATOM     11  F3  UNL d   1       0.816   0.484  -3.056  0.00  0.00    -0.097 F 
ATOM     12  F4  UNL d   1       0.613  -0.679  -0.597  0.00  0.00    -0.092 F 
ENDROOT
TORSDOF 0
ENDMDL
