MODEL 1
REMARK minimizedAffinity 1.91185081
REMARK minimizedRMSD -1
REMARK  0 active torsions:
REMARK  status: ('A' for Active; 'I' for Inactive)
ROOT
ATOM      1  C   UNL d   1       1.915  -3.402   0.145  0.00  0.00     0.124 A 
ATOM      2  C1  UNL d   1       0.758  -3.078  -0.550  0.00  0.00     0.062 A 
ATOM      3  C2  UNL d   1       0.531  -1.768  -0.960  0.00  0.00     0.162 A 
ATOM      4  C3  UNL d   1       1.464  -0.770  -0.677  0.00  0.00    -0.034 A 
ATOM      5  C4  UNL d   1       2.625  -1.103   0.023  0.00  0.00     0.162 A 
ATOM      6  C5  UNL d   1       2.847  -2.415   0.431  0.00  0.00     0.062 A 
ATOM      7  F   UNL d   1       3.965  -2.725   1.103  0.00  0.00    -0.097 F 
ATOM      8  F1  UNL d   1       3.543  -0.169   0.312  0.00  0.00    -0.096 F 
ATOM      9  I   UNL d   1       1.128   1.190  -1.288  0.00  0.00    -0.060 I 
ATOM     10  F2  UNL d   1      -0.596  -1.484  -1.630  0.00  0.00    -0.096 F 
ATOM     11  F3  UNL d   1      -0.145  -4.031  -0.826  0.00  0.00    -0.097 F 
ATOM     12  F4  UNL d   1       2.130  -4.664   0.540  0.00  0.00    -0.092 F 
ENDROOT
TORSDOF 0
ENDMDL
