MODEL 1
REMARK minimizedAffinity -0.796164453
REMARK minimizedRMSD -1
REMARK  0 active torsions:
REMARK  status: ('A' for Active; 'I' for Inactive)
ROOT
ATOM      1  C   UNL d   1       1.210   3.477  -0.228  0.00  0.00     0.124 A 
ATOM      2  C1  UNL d   1       0.995   2.702  -1.359  0.00  0.00     0.062 A 
ATOM      3  C2  UNL d   1       1.111   1.317  -1.292  0.00  0.00     0.162 A 
ATOM      4  C3  UNL d   1       1.442   0.696  -0.087  0.00  0.00    -0.034 A 
ATOM      5  C4  UNL d   1       1.658   1.482   1.047  0.00  0.00     0.162 A 
ATOM      6  C5  UNL d   1       1.541   2.867   0.974  0.00  0.00     0.062 A 
ATOM      7  F   UNL d   1       1.749   3.613   2.068  0.00  0.00    -0.097 F 
ATOM      8  F1  UNL d   1       1.978   0.919   2.221  0.00  0.00    -0.096 F 
ATOM      9  I   UNL d   1       1.617  -1.375   0.019  0.00  0.00    -0.060 I 
ATOM     10  F2  UNL d   1       0.898   0.593  -2.401  0.00  0.00    -0.096 F 
ATOM     11  F3  UNL d   1       0.676   3.290  -2.522  0.00  0.00    -0.097 F 
ATOM     12  F4  UNL d   1       1.099   4.810  -0.296  0.00  0.00    -0.092 F 
ENDROOT
TORSDOF 0
ENDMDL
