MODEL 1
REMARK minimizedAffinity -0.123746678
REMARK minimizedRMSD -1
REMARK  0 active torsions:
REMARK  status: ('A' for Active; 'I' for Inactive)
ROOT
ATOM      1  C   UNL d   1       1.357   2.985  -1.055  0.00  0.00     0.124 A 
ATOM      2  C1  UNL d   1       1.381   2.118  -2.139  0.00  0.00     0.062 A 
ATOM      3  C2  UNL d   1       1.323   0.742  -1.936  0.00  0.00     0.162 A 
ATOM      4  C3  UNL d   1       1.240   0.224  -0.644  0.00  0.00    -0.034 A 
ATOM      5  C4  UNL d   1       1.217   1.102   0.441  0.00  0.00     0.162 A 
ATOM      6  C5  UNL d   1       1.275   2.476   0.233  0.00  0.00     0.062 A 
ATOM      7  F   UNL d   1       1.252   3.312   1.282  0.00  0.00    -0.097 F 
ATOM      8  F1  UNL d   1       1.138   0.637   1.697  0.00  0.00    -0.096 F 
ATOM      9  I   UNL d   1       1.153  -1.833  -0.337  0.00  0.00    -0.060 I 
ATOM     10  F2  UNL d   1       1.347  -0.072  -3.002  0.00  0.00    -0.096 F 
ATOM     11  F3  UNL d   1       1.460   2.607  -3.385  0.00  0.00    -0.097 F 
ATOM     12  F4  UNL d   1       1.414   4.308  -1.253  0.00  0.00    -0.092 F 
ENDROOT
TORSDOF 0
ENDMDL
