MODEL 1
REMARK minimizedAffinity 9.27625561
REMARK minimizedRMSD -1
REMARK  0 active torsions:
REMARK  status: ('A' for Active; 'I' for Inactive)
ROOT
ATOM      1  C   UNL d   1       2.011   1.021   0.184  0.00  0.00     0.124 A 
ATOM      2  C1  UNL d   1       1.131   1.600  -0.720  0.00  0.00     0.062 A 
ATOM      3  C2  UNL d   1       1.007   1.082  -2.006  0.00  0.00     0.162 A 
ATOM      4  C3  UNL d   1       1.765  -0.023  -2.395  0.00  0.00    -0.034 A 
ATOM      5  C4  UNL d   1       2.648  -0.599  -1.481  0.00  0.00     0.162 A 
ATOM      6  C5  UNL d   1       2.768  -0.077  -0.197  0.00  0.00     0.062 A 
ATOM      7  F   UNL d   1       3.618  -0.638   0.676  0.00  0.00    -0.097 F 
ATOM      8  F1  UNL d   1       3.391  -1.662  -1.822  0.00  0.00    -0.096 F 
ATOM      9  I   UNL d   1       1.582  -0.801  -4.317  0.00  0.00    -0.060 I 
ATOM     10  F2  UNL d   1       0.150   1.662  -2.859  0.00  0.00    -0.096 F 
ATOM     11  F3  UNL d   1       0.399   2.663  -0.355  0.00  0.00    -0.097 F 
ATOM     12  F4  UNL d   1       2.129   1.523   1.421  0.00  0.00    -0.092 F 
ENDROOT
TORSDOF 0
ENDMDL
