MODEL 1
REMARK minimizedAffinity 2.02883077
REMARK minimizedRMSD -1
REMARK  0 active torsions:
REMARK  status: ('A' for Active; 'I' for Inactive)
ROOT
ATOM      1  C   UNL d   1       2.335  -1.277  -0.677  0.00  0.00     0.124 A 
ATOM      2  C1  UNL d   1       1.317  -0.505  -1.220  0.00  0.00     0.062 A 
ATOM      3  C2  UNL d   1       1.309   0.874  -1.036  0.00  0.00     0.162 A 
ATOM      4  C3  UNL d   1       2.325   1.493  -0.307  0.00  0.00    -0.034 A 
ATOM      5  C4  UNL d   1       3.345   0.710   0.237  0.00  0.00     0.162 A 
ATOM      6  C5  UNL d   1       3.348  -0.668   0.051  0.00  0.00     0.062 A 
ATOM      7  F   UNL d   1       4.332  -1.412   0.577  0.00  0.00    -0.097 F 
ATOM      8  F1  UNL d   1       4.337   1.272   0.944  0.00  0.00    -0.096 F 
ATOM      9  I   UNL d   1       2.318   3.555  -0.031  0.00  0.00    -0.060 I 
ATOM     10  F2  UNL d   1       0.313   1.595  -1.573  0.00  0.00    -0.096 F 
ATOM     11  F3  UNL d   1       0.336  -1.091  -1.922  0.00  0.00    -0.097 F 
ATOM     12  F4  UNL d   1       2.339  -2.604  -0.854  0.00  0.00    -0.092 F 
ENDROOT
TORSDOF 0
ENDMDL
