MODEL 1
REMARK minimizedAffinity 2.6407373
REMARK minimizedRMSD -1
REMARK  0 active torsions:
REMARK  status: ('A' for Active; 'I' for Inactive)
ROOT
ATOM      1  C   UNL d   1       1.070   2.559  -0.788  0.00  0.00     0.124 A 
ATOM      2  C1  UNL d   1       1.123   1.660  -1.845  0.00  0.00     0.062 A 
ATOM      3  C2  UNL d   1       1.129   0.290  -1.600  0.00  0.00     0.162 A 
ATOM      4  C3  UNL d   1       1.082  -0.190  -0.291  0.00  0.00    -0.034 A 
ATOM      5  C4  UNL d   1       1.030   0.719   0.767  0.00  0.00     0.162 A 
ATOM      6  C5  UNL d   1       1.024   2.087   0.516  0.00  0.00     0.062 A 
ATOM      7  F   UNL d   1       0.973   2.954   1.538  0.00  0.00    -0.097 F 
ATOM      8  F1  UNL d   1       0.984   0.291   2.037  0.00  0.00    -0.096 F 
ATOM      9  I   UNL d   1       1.091  -2.238   0.080  0.00  0.00    -0.060 I 
ATOM     10  F2  UNL d   1       1.180  -0.555  -2.640  0.00  0.00    -0.096 F 
ATOM     11  F3  UNL d   1       1.169   2.113  -3.106  0.00  0.00    -0.097 F 
ATOM     12  F4  UNL d   1       1.065   3.876  -1.028  0.00  0.00    -0.092 F 
ENDROOT
TORSDOF 0
ENDMDL
