MODEL 1
REMARK minimizedAffinity 10.1343813
REMARK minimizedRMSD -1
REMARK  0 active torsions:
REMARK  status: ('A' for Active; 'I' for Inactive)
ROOT
ATOM      1  C   UNL d   1       1.357   3.502  -0.904  0.00  0.00     0.124 A 
ATOM      2  C1  UNL d   1       1.496   2.681  -2.015  0.00  0.00     0.062 A 
ATOM      3  C2  UNL d   1       1.398   1.299  -1.882  0.00  0.00     0.162 A 
ATOM      4  C3  UNL d   1       1.157   0.728  -0.632  0.00  0.00    -0.034 A 
ATOM      5  C4  UNL d   1       1.019   1.560   0.481  0.00  0.00     0.162 A 
ATOM      6  C5  UNL d   1       1.118   2.940   0.342  0.00  0.00     0.062 A 
ATOM      7  F   UNL d   1       0.983   3.731   1.417  0.00  0.00    -0.097 F 
ATOM      8  F1  UNL d   1       0.787   1.044   1.697  0.00  0.00    -0.096 F 
ATOM      9  I   UNL d   1       1.009  -1.338  -0.429  0.00  0.00    -0.060 I 
ATOM     10  F2  UNL d   1       1.536   0.531  -2.973  0.00  0.00    -0.096 F 
ATOM     11  F3  UNL d   1       1.728   3.221  -3.221  0.00  0.00    -0.097 F 
ATOM     12  F4  UNL d   1       1.453   4.831  -1.036  0.00  0.00    -0.092 F 
ENDROOT
TORSDOF 0
ENDMDL
