MODEL 1
REMARK minimizedAffinity 2.13536763
REMARK minimizedRMSD -1
REMARK  0 active torsions:
REMARK  status: ('A' for Active; 'I' for Inactive)
ROOT
ATOM      1  C   UNL d   1       0.936   0.543  -0.250  0.00  0.00     0.124 A 
ATOM      2  C1  UNL d   1       0.984   1.458   0.793  0.00  0.00     0.062 A 
ATOM      3  C2  UNL d   1       1.251   2.799   0.535  0.00  0.00     0.162 A 
ATOM      4  C3  UNL d   1       1.470   3.235  -0.771  0.00  0.00    -0.034 A 
ATOM      5  C4  UNL d   1       1.421   2.310  -1.815  0.00  0.00     0.162 A 
ATOM      6  C5  UNL d   1       1.154   0.970  -1.553  0.00  0.00     0.062 A 
ATOM      7  F   UNL d   1       1.108   0.088  -2.562  0.00  0.00    -0.097 F 
ATOM      8  F1  UNL d   1       1.627   2.695  -3.083  0.00  0.00    -0.096 F 
ATOM      9  I   UNL d   1       1.869   5.241  -1.160  0.00  0.00    -0.060 I 
ATOM     10  F2  UNL d   1       1.291   3.661   1.563  0.00  0.00    -0.096 F 
ATOM     11  F3  UNL d   1       0.774   1.048   2.052  0.00  0.00    -0.097 F 
ATOM     12  F4  UNL d   1       0.680  -0.747  -0.000  0.00  0.00    -0.092 F 
ENDROOT
TORSDOF 0
ENDMDL
