MODEL 1
REMARK minimizedAffinity -0.303953737
REMARK minimizedRMSD -1
REMARK  0 active torsions:
REMARK  status: ('A' for Active; 'I' for Inactive)
ROOT
ATOM      1  C   UNL d   1       1.225   0.623  -0.042  0.00  0.00     0.124 A 
ATOM      2  C1  UNL d   1       1.233   1.062  -1.358  0.00  0.00     0.062 A 
ATOM      3  C2  UNL d   1       1.364   2.418  -1.644  0.00  0.00     0.162 A 
ATOM      4  C3  UNL d   1       1.490   3.346  -0.609  0.00  0.00    -0.034 A 
ATOM      5  C4  UNL d   1       1.480   2.897   0.712  0.00  0.00     0.162 A 
ATOM      6  C5  UNL d   1       1.348   1.540   0.992  0.00  0.00     0.062 A 
ATOM      7  F   UNL d   1       1.341   1.118   2.265  0.00  0.00    -0.097 F 
ATOM      8  F1  UNL d   1       1.599   3.762   1.731  0.00  0.00    -0.096 F 
ATOM      9  I   UNL d   1       1.686   5.374  -1.032  0.00  0.00    -0.060 I 
ATOM     10  F2  UNL d   1       1.369   2.813  -2.925  0.00  0.00    -0.096 F 
ATOM     11  F3  UNL d   1       1.112   0.178  -2.359  0.00  0.00    -0.097 F 
ATOM     12  F4  UNL d   1       1.097  -0.682   0.230  0.00  0.00    -0.092 F 
ENDROOT
TORSDOF 0
ENDMDL
