MODEL 1
REMARK minimizedAffinity 6.3032341
REMARK minimizedRMSD -1
REMARK  0 active torsions:
REMARK  status: ('A' for Active; 'I' for Inactive)
ROOT
ATOM      1  C   UNL d   1       1.510   2.755  -0.858  0.00  0.00     0.124 A 
ATOM      2  C1  UNL d   1       1.785   1.744  -1.770  0.00  0.00     0.062 A 
ATOM      3  C2  UNL d   1       1.549   0.415  -1.433  0.00  0.00     0.162 A 
ATOM      4  C3  UNL d   1       1.033   0.087  -0.179  0.00  0.00    -0.034 A 
ATOM      5  C4  UNL d   1       0.760   1.108   0.732  0.00  0.00     0.162 A 
ATOM      6  C5  UNL d   1       0.999   2.436   0.392  0.00  0.00     0.062 A 
ATOM      7  F   UNL d   1       0.733   3.410   1.274  0.00  0.00    -0.097 F 
ATOM      8  F1  UNL d   1       0.264   0.828   1.947  0.00  0.00    -0.096 F 
ATOM      9  I   UNL d   1       0.678  -1.900   0.327  0.00  0.00    -0.060 I 
ATOM     10  F2  UNL d   1       1.823  -0.541  -2.334  0.00  0.00    -0.096 F 
ATOM     11  F3  UNL d   1       2.281   2.050  -2.978  0.00  0.00    -0.097 F 
ATOM     12  F4  UNL d   1       1.740   4.033  -1.184  0.00  0.00    -0.092 F 
ENDROOT
TORSDOF 0
ENDMDL
