MODEL 1
REMARK minimizedAffinity 7.05451202
REMARK minimizedRMSD -1
REMARK  0 active torsions:
REMARK  status: ('A' for Active; 'I' for Inactive)
ROOT
ATOM      1  C   UNL d   1       1.072   0.634  -0.357  0.00  0.00     0.124 A 
ATOM      2  C1  UNL d   1       1.164   1.069  -1.671  0.00  0.00     0.062 A 
ATOM      3  C2  UNL d   1       1.378   2.416  -1.950  0.00  0.00     0.162 A 
ATOM      4  C3  UNL d   1       1.503   3.338  -0.910  0.00  0.00    -0.034 A 
ATOM      5  C4  UNL d   1       1.409   2.893   0.409  0.00  0.00     0.162 A 
ATOM      6  C5  UNL d   1       1.195   1.546   0.682  0.00  0.00     0.062 A 
ATOM      7  F   UNL d   1       1.106   1.127   1.953  0.00  0.00    -0.097 F 
ATOM      8  F1  UNL d   1       1.525   3.753   1.433  0.00  0.00    -0.096 F 
ATOM      9  I   UNL d   1       1.824   5.353  -1.322  0.00  0.00    -0.060 I 
ATOM     10  F2  UNL d   1       1.463   2.809  -3.229  0.00  0.00    -0.096 F 
ATOM     11  F3  UNL d   1       1.045   0.191  -2.677  0.00  0.00    -0.097 F 
ATOM     12  F4  UNL d   1       0.865  -0.662  -0.092  0.00  0.00    -0.092 F 
ENDROOT
TORSDOF 0
ENDMDL
