MODEL 1
REMARK minimizedAffinity -0.496622711
REMARK minimizedRMSD -1
REMARK  0 active torsions:
REMARK  status: ('A' for Active; 'I' for Inactive)
ROOT
ATOM      1  C   UNL d   1       0.988   0.375  -0.127  0.00  0.00     0.124 A 
ATOM      2  C1  UNL d   1       1.185   0.777  -1.441  0.00  0.00     0.062 A 
ATOM      3  C2  UNL d   1       1.366   2.124  -1.742  0.00  0.00     0.162 A 
ATOM      4  C3  UNL d   1       1.351   3.080  -0.726  0.00  0.00    -0.034 A 
ATOM      5  C4  UNL d   1       1.152   2.669   0.593  0.00  0.00     0.162 A 
ATOM      6  C5  UNL d   1       0.972   1.321   0.888  0.00  0.00     0.062 A 
ATOM      7  F   UNL d   1       0.781   0.935   2.158  0.00  0.00    -0.097 F 
ATOM      8  F1  UNL d   1       1.132   3.561   1.594  0.00  0.00    -0.096 F 
ATOM      9  I   UNL d   1       1.621   5.095  -1.172  0.00  0.00    -0.060 I 
ATOM     10  F2  UNL d   1       1.554   2.483  -3.020  0.00  0.00    -0.096 F 
ATOM     11  F3  UNL d   1       1.201  -0.135  -2.424  0.00  0.00    -0.097 F 
ATOM     12  F4  UNL d   1       0.814  -0.921   0.159  0.00  0.00    -0.092 F 
ENDROOT
TORSDOF 0
ENDMDL
