MODEL 1
REMARK minimizedAffinity 7.78653526
REMARK minimizedRMSD -1
REMARK  0 active torsions:
REMARK  status: ('A' for Active; 'I' for Inactive)
ROOT
ATOM      1  C   UNL d   1       1.089   0.232  -0.247  0.00  0.00     0.124 A 
ATOM      2  C1  UNL d   1       1.069   0.568  -1.593  0.00  0.00     0.062 A 
ATOM      3  C2  UNL d   1       1.291   1.884  -1.989  0.00  0.00     0.162 A 
ATOM      4  C3  UNL d   1       1.537   2.874  -1.038  0.00  0.00    -0.034 A 
ATOM      5  C4  UNL d   1       1.555   2.528   0.315  0.00  0.00     0.162 A 
ATOM      6  C5  UNL d   1       1.332   1.211   0.706  0.00  0.00     0.062 A 
ATOM      7  F   UNL d   1       1.352   0.888   2.007  0.00  0.00    -0.097 F 
ATOM      8  F1  UNL d   1       1.788   3.454   1.256  0.00  0.00    -0.096 F 
ATOM      9  I   UNL d   1       1.870   4.842  -1.626  0.00  0.00    -0.060 I 
ATOM     10  F2  UNL d   1       1.265   2.181  -3.297  0.00  0.00    -0.096 F 
ATOM     11  F3  UNL d   1       0.833  -0.376  -2.516  0.00  0.00    -0.097 F 
ATOM     12  F4  UNL d   1       0.874  -1.035   0.131  0.00  0.00    -0.092 F 
ENDROOT
TORSDOF 0
ENDMDL
