MODEL 1
REMARK minimizedAffinity 4.88835049
REMARK minimizedRMSD -1
REMARK  0 active torsions:
REMARK  status: ('A' for Active; 'I' for Inactive)
ROOT
ATOM      1  C   UNL d   1       1.178   0.790  -0.213  0.00  0.00     0.124 A 
ATOM      2  C1  UNL d   1       1.397   1.629   0.871  0.00  0.00     0.062 A 
ATOM      3  C2  UNL d   1       1.629   2.987   0.670  0.00  0.00     0.162 A 
ATOM      4  C3  UNL d   1       1.642   3.515  -0.621  0.00  0.00    -0.034 A 
ATOM      5  C4  UNL d   1       1.422   2.665  -1.706  0.00  0.00     0.162 A 
ATOM      6  C5  UNL d   1       1.190   1.309  -1.500  0.00  0.00     0.062 A 
ATOM      7  F   UNL d   1       0.979   0.500  -2.549  0.00  0.00    -0.097 F 
ATOM      8  F1  UNL d   1       1.427   3.140  -2.960  0.00  0.00    -0.096 F 
ATOM      9  I   UNL d   1       1.988   5.544  -0.925  0.00  0.00    -0.060 I 
ATOM     10  F2  UNL d   1       1.838   3.773   1.736  0.00  0.00    -0.096 F 
ATOM     11  F3  UNL d   1       1.387   1.130   2.116  0.00  0.00    -0.097 F 
ATOM     12  F4  UNL d   1       0.956  -0.516  -0.017  0.00  0.00    -0.092 F 
ENDROOT
TORSDOF 0
ENDMDL
