MODEL 1
REMARK minimizedAffinity 2.2476449
REMARK minimizedRMSD -1
REMARK  0 active torsions:
REMARK  status: ('A' for Active; 'I' for Inactive)
ROOT
ATOM      1  C   UNL d   1      -2.795  -2.083  -1.154  0.00  0.00     0.020 A 
ATOM      2  C1  UNL d   1      -2.246  -2.011  -2.434  0.00  0.00     0.020 A 
ATOM      3  C2  UNL d   1      -0.865  -2.124  -2.608  0.00  0.00     0.034 A 
ATOM      4  C3  UNL d   1      -0.028  -2.310  -1.502  0.00  0.00     0.017 A 
ATOM      5  C4  UNL d   1      -0.580  -2.382  -0.218  0.00  0.00     0.017 A 
ATOM      6  C5  UNL d   1      -1.964  -2.268  -0.048  0.00  0.00     0.034 A 
ATOM      7 Cl   UNL d   1       0.388  -2.609   1.196  0.00  0.00    -0.070 Cl
ATOM      8 Cl1  UNL d   1       1.670  -2.442  -1.792  0.00  0.00    -0.070 Cl
ENDROOT
TORSDOF 0
ENDMDL
