MODEL 1
REMARK minimizedAffinity 2.98825431
REMARK minimizedRMSD -1
REMARK  0 active torsions:
REMARK  status: ('A' for Active; 'I' for Inactive)
ROOT
ATOM      1  C   UNL d   1       1.811   1.823   0.208  0.00  0.00     0.020 A 
ATOM      2  C1  UNL d   1       2.803   1.989   1.174  0.00  0.00     0.020 A 
ATOM      3  C2  UNL d   1       2.935   1.057   2.206  0.00  0.00     0.034 A 
ATOM      4  C3  UNL d   1       2.074  -0.044   2.274  0.00  0.00     0.017 A 
ATOM      5  C4  UNL d   1       1.079  -0.210   1.304  0.00  0.00     0.017 A 
ATOM      6  C5  UNL d   1       0.951   0.726   0.273  0.00  0.00     0.034 A 
ATOM      7 Cl   UNL d   1      -0.021  -1.543   1.322  0.00  0.00    -0.070 Cl
ATOM      8 Cl1  UNL d   1       2.294  -1.157   3.578  0.00  0.00    -0.070 Cl
ENDROOT
TORSDOF 0
ENDMDL
