MODEL 1
REMARK minimizedAffinity 8.0948143
REMARK minimizedRMSD -1
REMARK  0 active torsions:
REMARK  status: ('A' for Active; 'I' for Inactive)
ROOT
ATOM      1  C   UNL d   1      -2.052   0.124   1.314  0.00  0.00     0.020 A 
ATOM      2  C1  UNL d   1      -1.466   1.383   1.439  0.00  0.00     0.020 A 
ATOM      3  C2  UNL d   1      -0.076   1.513   1.402  0.00  0.00     0.034 A 
ATOM      4  C3  UNL d   1       0.733   0.382   1.241  0.00  0.00     0.017 A 
ATOM      5  C4  UNL d   1       0.144  -0.881   1.116  0.00  0.00     0.017 A 
ATOM      6  C5  UNL d   1      -1.248  -1.006   1.153  0.00  0.00     0.034 A 
ATOM      7 Cl   UNL d   1       1.076  -2.323   0.913  0.00  0.00    -0.070 Cl
ATOM      8 Cl1  UNL d   1       2.444   0.617   1.204  0.00  0.00    -0.070 Cl
ENDROOT
TORSDOF 0
ENDMDL
