MODEL 1
REMARK minimizedAffinity 8.88971329
REMARK minimizedRMSD -1
REMARK  0 active torsions:
REMARK  status: ('A' for Active; 'I' for Inactive)
ROOT
ATOM      1  C   UNL d   1       1.047  -3.107   3.096  0.00  0.00     0.020 A 
ATOM      2  C1  UNL d   1       0.371  -2.870   1.900  0.00  0.00     0.020 A 
ATOM      3  C2  UNL d   1       0.593  -1.684   1.196  0.00  0.00     0.034 A 
ATOM      4  C3  UNL d   1       1.492  -0.731   1.689  0.00  0.00     0.017 A 
ATOM      5  C4  UNL d   1       2.169  -0.970   2.890  0.00  0.00     0.017 A 
ATOM      6  C5  UNL d   1       1.944  -2.160   3.590  0.00  0.00     0.034 A 
ATOM      7 Cl   UNL d   1       3.294   0.158   3.561  0.00  0.00    -0.070 Cl
ATOM      8 Cl1  UNL d   1       1.717   0.713   0.767  0.00  0.00    -0.070 Cl
ENDROOT
TORSDOF 0
ENDMDL
