MODEL 1
REMARK minimizedAffinity 3.27658629
REMARK minimizedRMSD -1
REMARK  0 active torsions:
REMARK  status: ('A' for Active; 'I' for Inactive)
ROOT
ATOM      1  C   UNL d   1       2.748   0.555   1.915  0.00  0.00     0.020 A 
ATOM      2  C1  UNL d   1       1.854   1.272   1.121  0.00  0.00     0.020 A 
ATOM      3  C2  UNL d   1       0.618   0.717   0.784  0.00  0.00     0.034 A 
ATOM      4  C3  UNL d   1       0.273  -0.561   1.241  0.00  0.00     0.017 A 
ATOM      5  C4  UNL d   1       1.171  -1.280   2.037  0.00  0.00     0.017 A 
ATOM      6  C5  UNL d   1       2.407  -0.719   2.372  0.00  0.00     0.034 A 
ATOM      7 Cl   UNL d   1       0.815  -2.861   2.638  0.00  0.00    -0.070 Cl
ATOM      8 Cl1  UNL d   1      -1.272  -1.186   0.785  0.00  0.00    -0.070 Cl
ENDROOT
TORSDOF 0
ENDMDL
