MODEL 1
REMARK minimizedAffinity 5.83335257
REMARK minimizedRMSD -1
REMARK  0 active torsions:
REMARK  status: ('A' for Active; 'I' for Inactive)
ROOT
ATOM      1  C   UNL d   1       1.727   2.136   0.471  0.00  0.00     0.020 A 
ATOM      2  C1  UNL d   1       2.872   1.659   1.109  0.00  0.00     0.020 A 
ATOM      3  C2  UNL d   1       2.822   0.466   1.833  0.00  0.00     0.034 A 
ATOM      4  C3  UNL d   1       1.625  -0.254   1.921  0.00  0.00     0.017 A 
ATOM      5  C4  UNL d   1       0.477   0.225   1.280  0.00  0.00     0.017 A 
ATOM      6  C5  UNL d   1       0.532   1.420   0.557  0.00  0.00     0.034 A 
ATOM      7 Cl   UNL d   1      -1.036  -0.609   1.343  0.00  0.00    -0.070 Cl
ATOM      8 Cl1  UNL d   1       1.636  -1.722   2.833  0.00  0.00    -0.070 Cl
ENDROOT
TORSDOF 0
ENDMDL
