MODEL 1
REMARK minimizedAffinity 2.01315165
REMARK minimizedRMSD -1
REMARK  0 active torsions:
REMARK  status: ('A' for Active; 'I' for Inactive)
ROOT
ATOM      1  C   UNL d   1       0.247  -2.463   1.663  0.00  0.00     0.020 A 
ATOM      2  C1  UNL d   1       1.103  -2.406   2.761  0.00  0.00     0.020 A 
ATOM      3  C2  UNL d   1       1.705  -1.197   3.117  0.00  0.00     0.034 A 
ATOM      4  C3  UNL d   1       1.450  -0.039   2.373  0.00  0.00     0.017 A 
ATOM      5  C4  UNL d   1       0.591  -0.097   1.270  0.00  0.00     0.017 A 
ATOM      6  C5  UNL d   1      -0.009  -1.310   0.918  0.00  0.00     0.034 A 
ATOM      7 Cl   UNL d   1       0.229   1.290   0.303  0.00  0.00    -0.070 Cl
ATOM      8 Cl1  UNL d   1       2.228   1.422   2.869  0.00  0.00    -0.070 Cl
ENDROOT
TORSDOF 0
ENDMDL
