MODEL 1
REMARK minimizedAffinity 3.92888927
REMARK minimizedRMSD -1
REMARK  0 active torsions:
REMARK  status: ('A' for Active; 'I' for Inactive)
ROOT
ATOM      1  C   UNL d   1       1.935  -0.484   1.717  0.00  0.00     0.020 A 
ATOM      2  C1  UNL d   1       0.613  -0.917   1.619  0.00  0.00     0.020 A 
ATOM      3  C2  UNL d   1       0.164  -1.975   2.413  0.00  0.00     0.034 A 
ATOM      4  C3  UNL d   1       1.038  -2.604   3.307  0.00  0.00     0.017 A 
ATOM      5  C4  UNL d   1       2.365  -2.169   3.404  0.00  0.00     0.017 A 
ATOM      6  C5  UNL d   1       2.808  -1.109   2.608  0.00  0.00     0.034 A 
ATOM      7 Cl   UNL d   1       3.501  -2.895   4.485  0.00  0.00    -0.070 Cl
ATOM      8 Cl1  UNL d   1       0.415  -3.905   4.258  0.00  0.00    -0.070 Cl
ENDROOT
TORSDOF 0
ENDMDL
