MODEL 1
REMARK minimizedAffinity -3.46491623
REMARK minimizedRMSD -1
REMARK  0 active torsions:
REMARK  status: ('A' for Active; 'I' for Inactive)
ROOT
ATOM      1  C4' PXY d   1       1.735   0.708   0.149  0.00  0.00     0.077 C 
ATOM      2  C1' PXY d   1      -2.235  -3.320   1.345  0.00  0.00     0.077 C 
ATOM      3  C1  PXY d   1      -1.200  -2.261   1.021  0.00  0.00    -0.082 A 
ATOM      4  C2  PXY d   1       0.016  -2.356   1.532  0.00  0.00     0.003 A 
ATOM      5  C3  PXY d   1       0.955  -1.390   1.275  0.00  0.00     0.003 A 
ATOM      6  C4  PXY d   1       0.661  -0.344   0.442  0.00  0.00    -0.082 A 
ATOM      7  C5  PXY d   1      -0.574  -0.245  -0.092  0.00  0.00     0.003 A 
ATOM      8  C6  PXY d   1      -1.525  -1.214   0.214  0.00  0.00     0.003 A 
ENDROOT
TORSDOF 0
ENDMDL
