MODEL 1
REMARK minimizedAffinity -5.60129786
REMARK minimizedRMSD -1
REMARK  0 active torsions:
REMARK  status: ('A' for Active; 'I' for Inactive)
ROOT
ATOM      1  C4' PXY d   1       2.022   0.056  -0.028  0.00  0.00     0.077 C 
ATOM      2  C1' PXY d   1      -3.442  -1.831  -0.010  0.00  0.00     0.077 C 
ATOM      3  C1  PXY d   1      -2.010  -1.335  -0.028  0.00  0.00    -0.082 A 
ATOM      4  C2  PXY d   1      -1.188  -1.674   0.952  0.00  0.00     0.003 A 
ATOM      5  C3  PXY d   1       0.101  -1.207   0.969  0.00  0.00     0.003 A 
ATOM      6  C4  PXY d   1       0.570  -0.430  -0.056  0.00  0.00    -0.082 A 
ATOM      7  C5  PXY d   1      -0.259  -0.089  -1.065  0.00  0.00     0.003 A 
ATOM      8  C6  PXY d   1      -1.576  -0.539  -1.042  0.00  0.00     0.003 A 
ENDROOT
TORSDOF 0
ENDMDL
