MODEL 1
REMARK minimizedAffinity -4.7665
REMARK minimizedRMSD -1
REMARK  0 active torsions:
REMARK  status: ('A' for Active; 'I' for Inactive)
ROOT
ATOM      1  C4' PXY d   1      -3.410  -1.014  -0.274  0.00  0.00     0.077 C 
ATOM      2  C1' PXY d   1       2.167   0.505  -0.272  0.00  0.00     0.077 C 
ATOM      3  C1  PXY d   1       0.702   0.116  -0.282  0.00  0.00    -0.082 A 
ATOM      4  C2  PXY d   1       0.173  -0.465   0.783  0.00  0.00     0.003 A 
ATOM      5  C3  PXY d   1      -1.142  -0.853   0.779  0.00  0.00     0.003 A 
ATOM      6  C4  PXY d   1      -1.938  -0.595  -0.305  0.00  0.00    -0.082 A 
ATOM      7  C5  PXY d   1      -1.408   0.007  -1.391  0.00  0.00     0.003 A 
ATOM      8  C6  PXY d   1      -0.060   0.356  -1.383  0.00  0.00     0.003 A 
ENDROOT
TORSDOF 0
ENDMDL
