MODEL 1
REMARK minimizedAffinity -4.33279657
REMARK minimizedRMSD -1
REMARK  0 active torsions:
REMARK  status: ('A' for Active; 'I' for Inactive)
ROOT
ATOM      1  C4' PXY d   1      -2.210  -2.300   2.043  0.00  0.00     0.077 C 
ATOM      2  C1' PXY d   1      -0.493   0.662  -2.614  0.00  0.00     0.077 C 
ATOM      3  C1  PXY d   1      -0.956  -0.115  -1.397  0.00  0.00    -0.082 A 
ATOM      4  C2  PXY d   1      -0.281  -0.017  -0.263  0.00  0.00     0.003 A 
ATOM      5  C3  PXY d   1      -0.667  -0.738   0.838  0.00  0.00     0.003 A 
ATOM      6  C4  PXY d   1      -1.785  -1.526   0.792  0.00  0.00    -0.082 A 
ATOM      7  C5  PXY d   1      -2.485  -1.623  -0.358  0.00  0.00     0.003 A 
ATOM      8  C6  PXY d   1      -2.053  -0.915  -1.476  0.00  0.00     0.003 A 
ENDROOT
TORSDOF 0
ENDMDL
