MODEL 1
REMARK minimizedAffinity -4.7552247
REMARK minimizedRMSD -1
REMARK  0 active torsions:
REMARK  status: ('A' for Active; 'I' for Inactive)
ROOT
ATOM      1  C4' PXY d   1       1.939   0.069   0.749  0.00  0.00     0.077 C 
ATOM      2  C1' PXY d   1      -3.547  -1.669   0.200  0.00  0.00     0.077 C 
ATOM      3  C1  PXY d   1      -2.109  -1.216   0.357  0.00  0.00    -0.082 A 
ATOM      4  C2  PXY d   1      -1.587  -0.379  -0.525  0.00  0.00     0.003 A 
ATOM      5  C3  PXY d   1      -0.278   0.016  -0.417  0.00  0.00     0.003 A 
ATOM      6  C4  PXY d   1       0.488  -0.408   0.636  0.00  0.00    -0.082 A 
ATOM      7  C5  PXY d   1      -0.041  -1.253   1.546  0.00  0.00     0.003 A 
ATOM      8  C6  PXY d   1      -1.358  -1.675   1.395  0.00  0.00     0.003 A 
ENDROOT
TORSDOF 0
ENDMDL
