MODEL 1
REMARK minimizedAffinity -3.99827266
REMARK minimizedRMSD -1
REMARK  0 active torsions:
REMARK  status: ('A' for Active; 'I' for Inactive)
ROOT
ATOM      1  C4' PXY d   1      -2.975  -0.613  -1.567  0.00  0.00     0.077 C 
ATOM      2  C1' PXY d   1      -0.875  -3.273   3.115  0.00  0.00     0.077 C 
ATOM      3  C1  PXY d   1      -1.420  -2.564   1.891  0.00  0.00    -0.082 A 
ATOM      4  C2  PXY d   1      -2.483  -3.051   1.273  0.00  0.00     0.003 A 
ATOM      5  C3  PXY d   1      -2.971  -2.441   0.146  0.00  0.00     0.003 A 
ATOM      6  C4  PXY d   1      -2.396  -1.290  -0.322  0.00  0.00    -0.082 A 
ATOM      7  C5  PXY d   1      -1.317  -0.780   0.309  0.00  0.00     0.003 A 
ATOM      8  C6  PXY d   1      -0.813  -1.438   1.428  0.00  0.00     0.003 A 
ENDROOT
TORSDOF 0
ENDMDL
