MODEL 1
REMARK minimizedAffinity -4.45506907
REMARK minimizedRMSD -1
REMARK  0 active torsions:
REMARK  status: ('A' for Active; 'I' for Inactive)
ROOT
ATOM      1  C4' PXY d   1       2.479   1.626  -0.365  0.00  0.00     0.077 C 
ATOM      2  C1' PXY d   1      -2.646  -1.041  -0.191  0.00  0.00     0.077 C 
ATOM      3  C1  PXY d   1      -1.302  -0.343  -0.250  0.00  0.00    -0.082 A 
ATOM      4  C2  PXY d   1      -0.520  -0.339   0.818  0.00  0.00     0.003 A 
ATOM      5  C3  PXY d   1       0.685   0.315   0.792  0.00  0.00     0.003 A 
ATOM      6  C4  PXY d   1       1.118   0.925  -0.355  0.00  0.00    -0.082 A 
ATOM      7  C5  PXY d   1       0.331   0.916  -1.451  0.00  0.00     0.003 A 
ATOM      8  C6  PXY d   1      -0.907   0.282  -1.392  0.00  0.00     0.003 A 
ENDROOT
TORSDOF 0
ENDMDL
