MODEL 1
REMARK minimizedAffinity -5.4180522
REMARK minimizedRMSD -1
REMARK  0 active torsions:
REMARK  status: ('A' for Active; 'I' for Inactive)
ROOT
ATOM      1  C4' PXY d   1      -0.376   0.634  -2.455  0.00  0.00     0.077 C 
ATOM      2  C1' PXY d   1      -2.060  -2.572   2.051  0.00  0.00     0.077 C 
ATOM      3  C1  PXY d   1      -1.608  -1.727   0.876  0.00  0.00    -0.082 A 
ATOM      4  C2  PXY d   1      -2.496  -1.319  -0.015  0.00  0.00     0.003 A 
ATOM      5  C3  PXY d   1      -2.100  -0.581  -1.101  0.00  0.00     0.003 A 
ATOM      6  C4  PXY d   1      -0.789  -0.213  -1.247  0.00  0.00    -0.082 A 
ATOM      7  C5  PXY d   1       0.121  -0.617  -0.336  0.00  0.00     0.003 A 
ATOM      8  C6  PXY d   1      -0.295  -1.400   0.737  0.00  0.00     0.003 A 
ENDROOT
TORSDOF 0
ENDMDL
