MODEL 1
REMARK minimizedAffinity -5.40920162
REMARK minimizedRMSD -1
REMARK  0 active torsions:
REMARK  status: ('A' for Active; 'I' for Inactive)
ROOT
ATOM      1  C4' PXY d   1      -0.244   0.531  -2.513  0.00  0.00     0.077 C 
ATOM      2  C1' PXY d   1      -1.525  -2.344   2.336  0.00  0.00     0.077 C 
ATOM      3  C1  PXY d   1      -1.178  -1.585   1.070  0.00  0.00    -0.082 A 
ATOM      4  C2  PXY d   1      -2.132  -1.292   0.201  0.00  0.00     0.003 A 
ATOM      5  C3  PXY d   1      -1.831  -0.634  -0.964  0.00  0.00     0.003 A 
ATOM      6  C4  PXY d   1      -0.549  -0.226  -1.217  0.00  0.00    -0.082 A 
ATOM      7  C5  PXY d   1       0.428  -0.512  -0.331  0.00  0.00     0.003 A 
ATOM      8  C6  PXY d   1       0.109  -1.216   0.826  0.00  0.00     0.003 A 
ENDROOT
TORSDOF 0
ENDMDL
