MODEL 1
REMARK minimizedAffinity -5.12503242
REMARK minimizedRMSD -1
REMARK  0 active torsions:
REMARK  status: ('A' for Active; 'I' for Inactive)
ROOT
ATOM      1  C4' PXY d   1       1.514   0.176   0.175  0.00  0.00     0.077 C 
ATOM      2  C1' PXY d   1      -3.779  -2.141   0.360  0.00  0.00     0.077 C 
ATOM      3  C1  PXY d   1      -2.393  -1.529   0.299  0.00  0.00    -0.082 A 
ATOM      4  C2  PXY d   1      -1.440  -1.989   1.093  0.00  0.00     0.003 A 
ATOM      5  C3  PXY d   1      -0.190  -1.427   1.074  0.00  0.00     0.003 A 
ATOM      6  C4  PXY d   1       0.102  -0.418   0.196  0.00  0.00    -0.082 A 
ATOM      7  C5  PXY d   1      -0.862   0.050  -0.625  0.00  0.00     0.003 A 
ATOM      8  C6  PXY d   1      -2.136  -0.507  -0.561  0.00  0.00     0.003 A 
ENDROOT
TORSDOF 0
ENDMDL
