MODEL 1
REMARK minimizedAffinity -3.58110094
REMARK minimizedRMSD -1
REMARK  0 active torsions:
REMARK  status: ('A' for Active; 'I' for Inactive)
ROOT
ATOM      1  C4' PXY d   1      -3.133  -1.234  -0.328  0.00  0.00     0.077 C 
ATOM      2  C1' PXY d   1       2.199   0.937   0.189  0.00  0.00     0.077 C 
ATOM      3  C1  PXY d   1       0.798   0.377   0.045  0.00  0.00    -0.082 A 
ATOM      4  C2  PXY d   1       0.261  -0.308   1.041  0.00  0.00     0.003 A 
ATOM      5  C3  PXY d   1      -0.993  -0.849   0.915  0.00  0.00     0.003 A 
ATOM      6  C4  PXY d   1      -1.725  -0.642  -0.223  0.00  0.00    -0.082 A 
ATOM      7  C5  PXY d   1      -1.189   0.065  -1.240  0.00  0.00     0.003 A 
ATOM      8  C6  PXY d   1       0.101   0.570  -1.108  0.00  0.00     0.003 A 
ENDROOT
TORSDOF 0
ENDMDL
