MODEL 1
REMARK minimizedAffinity -5.29337406
REMARK minimizedRMSD -1
REMARK  0 active torsions:
REMARK  status: ('A' for Active; 'I' for Inactive)
ROOT
ATOM      1  C4' PXY d   1       1.468   0.755   0.184  0.00  0.00     0.077 C 
ATOM      2  C1' PXY d   1      -3.656  -1.908   0.439  0.00  0.00     0.077 C 
ATOM      3  C1  PXY d   1      -2.314  -1.207   0.360  0.00  0.00    -0.082 A 
ATOM      4  C2  PXY d   1      -1.375  -1.490   1.248  0.00  0.00     0.003 A 
ATOM      5  C3  PXY d   1      -0.167  -0.842   1.210  0.00  0.00     0.003 A 
ATOM      6  C4  PXY d   1       0.102   0.065   0.220  0.00  0.00    -0.082 A 
ATOM      7  C5  PXY d   1      -0.848   0.351  -0.696  0.00  0.00     0.003 A 
ATOM      8  C6  PXY d   1      -2.082  -0.287  -0.615  0.00  0.00     0.003 A 
ENDROOT
TORSDOF 0
ENDMDL
