MODEL 1
REMARK minimizedAffinity -5.45823288
REMARK minimizedRMSD -1
REMARK  0 active torsions:
REMARK  status: ('A' for Active; 'I' for Inactive)
ROOT
ATOM      1  C4' PXY d   1       1.725   0.760  -0.047  0.00  0.00     0.077 C 
ATOM      2  C1' PXY d   1      -3.491  -1.714   0.247  0.00  0.00     0.077 C 
ATOM      3  C1  PXY d   1      -2.121  -1.069   0.182  0.00  0.00    -0.082 A 
ATOM      4  C2  PXY d   1      -1.903  -0.080  -0.669  0.00  0.00     0.003 A 
ATOM      5  C3  PXY d   1      -0.661   0.493  -0.764  0.00  0.00     0.003 A 
ATOM      6  C4  PXY d   1       0.355   0.085   0.059  0.00  0.00    -0.082 A 
ATOM      7  C5  PXY d   1       0.137  -0.916   0.938  0.00  0.00     0.003 A 
ATOM      8  C6  PXY d   1      -1.119  -1.513   0.989  0.00  0.00     0.003 A 
ENDROOT
TORSDOF 0
ENDMDL
