MODEL 1
REMARK minimizedAffinity -5.97646856
REMARK minimizedRMSD -1
REMARK  0 active torsions:
REMARK  status: ('A' for Active; 'I' for Inactive)
ROOT
ATOM      1  C4' PXY d   1      -0.544   1.267  -1.690  0.00  0.00     0.077 C 
ATOM      2  C1' PXY d   1      -2.607  -2.767   1.900  0.00  0.00     0.077 C 
ATOM      3  C1  PXY d   1      -2.059  -1.705   0.968  0.00  0.00    -0.082 A 
ATOM      4  C2  PXY d   1      -2.765  -1.331  -0.086  0.00  0.00     0.003 A 
ATOM      5  C3  PXY d   1      -2.270  -0.395  -0.957  0.00  0.00     0.003 A 
ATOM      6  C4  PXY d   1      -1.063   0.204  -0.717  0.00  0.00    -0.082 A 
ATOM      7  C5  PXY d   1      -0.341  -0.163   0.363  0.00  0.00     0.003 A 
ATOM      8  C6  PXY d   1      -0.842  -1.145   1.212  0.00  0.00     0.003 A 
ENDROOT
TORSDOF 0
ENDMDL
