MODEL 1
REMARK minimizedAffinity -4.50261164
REMARK minimizedRMSD -1
REMARK  0 active torsions:
REMARK  status: ('A' for Active; 'I' for Inactive)
ROOT
ATOM      1  C4' PXY d   1      -3.134  -1.581  -0.081  0.00  0.00     0.077 C 
ATOM      2  C1' PXY d   1       1.992   1.090  -0.046  0.00  0.00     0.077 C 
ATOM      3  C1  PXY d   1       0.643   0.399  -0.063  0.00  0.00    -0.082 A 
ATOM      4  C2  PXY d   1       0.313  -0.417   0.925  0.00  0.00     0.003 A 
ATOM      5  C3  PXY d   1      -0.889  -1.075   0.910  0.00  0.00     0.003 A 
ATOM      6  C4  PXY d   1      -1.787  -0.855  -0.101  0.00  0.00    -0.082 A 
ATOM      7  C5  PXY d   1      -1.463  -0.015  -1.107  0.00  0.00     0.003 A 
ATOM      8  C6  PXY d   1      -0.220   0.611  -1.093  0.00  0.00     0.003 A 
ENDROOT
TORSDOF 0
ENDMDL
