MODEL 1
REMARK minimizedAffinity -5.72089338
REMARK minimizedRMSD -1
REMARK  0 active torsions:
REMARK  status: ('A' for Active; 'I' for Inactive)
ROOT
ATOM      1  C4' PXY d   1       1.732   0.019  -0.110  0.00  0.00     0.077 C 
ATOM      2  C1' PXY d   1      -3.903  -1.263   0.039  0.00  0.00     0.077 C 
ATOM      3  C1  PXY d   1      -2.426  -0.924  -0.013  0.00  0.00    -0.082 A 
ATOM      4  C2  PXY d   1      -1.602  -1.452   0.878  0.00  0.00     0.003 A 
ATOM      5  C3  PXY d   1      -0.269  -1.131   0.865  0.00  0.00     0.003 A 
ATOM      6  C4  PXY d   1       0.235  -0.302  -0.101  0.00  0.00    -0.082 A 
ATOM      7  C5  PXY d   1      -0.597   0.232  -1.020  0.00  0.00     0.003 A 
ATOM      8  C6  PXY d   1      -1.954  -0.074  -0.965  0.00  0.00     0.003 A 
ENDROOT
TORSDOF 0
ENDMDL
