MODEL 1
REMARK minimizedAffinity -3.76490331
REMARK minimizedRMSD -1
REMARK  0 active torsions:
REMARK  status: ('A' for Active; 'I' for Inactive)
ROOT
ATOM      1  C4' PXY d   1       2.554   0.779   0.280  0.00  0.00     0.077 C 
ATOM      2  C1' PXY d   1      -2.947  -0.633  -0.799  0.00  0.00     0.077 C 
ATOM      3  C1  PXY d   1      -1.503  -0.259  -0.529  0.00  0.00    -0.082 A 
ATOM      4  C2  PXY d   1      -0.852  -0.839   0.466  0.00  0.00     0.003 A 
ATOM      5  C3  PXY d   1       0.444  -0.490   0.745  0.00  0.00     0.003 A 
ATOM      6  C4  PXY d   1       1.098   0.425  -0.036  0.00  0.00    -0.082 A 
ATOM      7  C5  PXY d   1       0.445   1.015  -1.060  0.00  0.00     0.003 A 
ATOM      8  C6  PXY d   1      -0.884   0.676  -1.300  0.00  0.00     0.003 A 
ENDROOT
TORSDOF 0
ENDMDL
