MODEL 1
REMARK minimizedAffinity -5.77233934
REMARK minimizedRMSD -1
REMARK  0 active torsions:
REMARK  status: ('A' for Active; 'I' for Inactive)
ROOT
ATOM      1  C4' PXY d   1       1.545   0.283   0.145  0.00  0.00     0.077 C 
ATOM      2  C1' PXY d   1      -3.875  -1.692  -0.221  0.00  0.00     0.077 C 
ATOM      3  C1  PXY d   1      -2.454  -1.171  -0.138  0.00  0.00    -0.082 A 
ATOM      4  C2  PXY d   1      -1.659  -1.590   0.834  0.00  0.00     0.003 A 
ATOM      5  C3  PXY d   1      -0.381  -1.105   0.943  0.00  0.00     0.003 A 
ATOM      6  C4  PXY d   1       0.106  -0.223   0.017  0.00  0.00    -0.082 A 
ATOM      7  C5  PXY d   1      -0.695   0.201  -0.984  0.00  0.00     0.003 A 
ATOM      8  C6  PXY d   1      -2.002  -0.272  -1.053  0.00  0.00     0.003 A 
ENDROOT
TORSDOF 0
ENDMDL
