MODEL 1
REMARK minimizedAffinity -4.36374712
REMARK minimizedRMSD -1
REMARK  0 active torsions:
REMARK  status: ('A' for Active; 'I' for Inactive)
ROOT
ATOM      1  C4' PXY d   1       1.786   0.671  -0.235  0.00  0.00     0.077 C 
ATOM      2  C1' PXY d   1      -3.590  -1.446  -0.057  0.00  0.00     0.077 C 
ATOM      3  C1  PXY d   1      -2.180  -0.893  -0.117  0.00  0.00    -0.082 A 
ATOM      4  C2  PXY d   1      -1.431  -0.892   0.974  0.00  0.00     0.003 A 
ATOM      5  C3  PXY d   1      -0.165  -0.367   0.946  0.00  0.00     0.003 A 
ATOM      6  C4  PXY d   1       0.360   0.114  -0.224  0.00  0.00    -0.082 A 
ATOM      7  C5  PXY d   1      -0.394   0.106  -1.344  0.00  0.00     0.003 A 
ATOM      8  C6  PXY d   1      -1.692  -0.394  -1.284  0.00  0.00     0.003 A 
ENDROOT
TORSDOF 0
ENDMDL
