MODEL 1
REMARK minimizedAffinity -4.25602865
REMARK minimizedRMSD -1
REMARK  0 active torsions:
REMARK  status: ('A' for Active; 'I' for Inactive)
ROOT
ATOM      1  C4' PXY d   1       2.099   0.477  -0.438  0.00  0.00     0.077 C 
ATOM      2  C1' PXY d   1      -3.500  -0.932  -0.150  0.00  0.00     0.077 C 
ATOM      3  C1  PXY d   1      -2.032  -0.563  -0.239  0.00  0.00    -0.082 A 
ATOM      4  C2  PXY d   1      -1.235  -0.798   0.791  0.00  0.00     0.003 A 
ATOM      5  C3  PXY d   1       0.088  -0.441   0.740  0.00  0.00     0.003 A 
ATOM      6  C4  PXY d   1       0.612   0.113  -0.397  0.00  0.00    -0.082 A 
ATOM      7  C5  PXY d   1      -0.191   0.346  -1.456  0.00  0.00     0.003 A 
ATOM      8  C6  PXY d   1      -1.541   0.014  -1.369  0.00  0.00     0.003 A 
ENDROOT
TORSDOF 0
ENDMDL
