MODEL 1
REMARK minimizedAffinity -0.0851071402
REMARK minimizedRMSD -1
REMARK  1 active torsions:
REMARK  status: ('A' for Active; 'I' for Inactive)
REMARK    1  A    between atoms: N_2  and  C1_3 
ROOT
ATOM      1  C1  UNL d   1       0.828  -0.106   1.228  0.00  0.00     0.143 A 
ATOM      2  C2  UNL d   1      -0.124   0.813   0.777  0.00  0.00    -0.057 A 
ATOM      3  C3  UNL d   1      -0.442   0.923  -0.582  0.00  0.00     0.033 A 
ATOM      4  C4  UNL d   1       0.212   0.132  -1.521  0.00  0.00    -0.042 A 
ATOM      5  C5  UNL d   1       1.181  -0.772  -1.099  0.00  0.00     0.033 A 
ATOM      6  C6  UNL d   1       1.488  -0.881   0.261  0.00  0.00    -0.057 A 
ENDROOT
BRANCH   1   7
ATOM      7  N   UNL d   1       1.258  -0.194   2.554  0.00  0.00    -0.732 N 
ATOM      8  C   UNL d   1       2.329  -1.095   2.924  0.00  0.00     0.284 C 
ATOM      9  H3  UNL d   1       1.305   0.715   3.008  0.00  0.00     0.395 HD
ENDBRANCH   1   7
TORSDOF 1
ENDMDL
