MODEL 1
REMARK minimizedAffinity 5.33135939
REMARK minimizedRMSD -1
REMARK  1 active torsions:
REMARK  status: ('A' for Active; 'I' for Inactive)
REMARK    1  A    between atoms: N_2  and  C1_3 
ROOT
ATOM      1  C1  UNL d   1       0.329   0.016   0.698  0.00  0.00     0.143 A 
ATOM      2  C2  UNL d   1      -0.241   0.730  -0.361  0.00  0.00    -0.057 A 
ATOM      3  C3  UNL d   1       0.226   0.579  -1.673  0.00  0.00     0.033 A 
ATOM      4  C4  UNL d   1       1.294  -0.270  -1.944  0.00  0.00    -0.042 A 
ATOM      5  C5  UNL d   1       1.892  -0.971  -0.903  0.00  0.00     0.033 A 
ATOM      6  C6  UNL d   1       1.417  -0.820   0.404  0.00  0.00    -0.057 A 
ENDROOT
BRANCH   1   7
ATOM      7  N   UNL d   1      -0.025   0.197   2.038  0.00  0.00    -0.732 N 
ATOM      8  C   UNL d   1      -0.077   1.524   2.613  0.00  0.00     0.284 C 
ATOM      9  H3  UNL d   1      -0.789  -0.410   2.323  0.00  0.00     0.395 HD
ENDBRANCH   1   7
TORSDOF 1
ENDMDL
