MODEL 1
REMARK minimizedAffinity 5.55297613
REMARK minimizedRMSD -1
REMARK  1 active torsions:
REMARK  status: ('A' for Active; 'I' for Inactive)
REMARK    1  A    between atoms: N_2  and  C1_3 
ROOT
ATOM      1  C1  UNL d   1      -4.713   4.921  -3.503  0.00  0.00     0.143 A 
ATOM      2  C2  UNL d   1      -4.985   6.000  -4.352  0.00  0.00    -0.057 A 
ATOM      3  C3  UNL d   1      -5.635   5.812  -5.578  0.00  0.00     0.033 A 
ATOM      4  C4  UNL d   1      -5.999   4.535  -5.991  0.00  0.00    -0.042 A 
ATOM      5  C5  UNL d   1      -5.716   3.446  -5.175  0.00  0.00     0.033 A 
ATOM      6  C6  UNL d   1      -5.073   3.640  -3.949  0.00  0.00    -0.057 A 
ENDROOT
BRANCH   1   7
ATOM      7  N   UNL d   1      -3.982   5.030  -2.318  0.00  0.00    -0.732 N 
ATOM      8  C   UNL d   1      -2.603   4.595  -2.259  0.00  0.00     0.284 C 
ATOM      9  H3  UNL d   1      -4.163   5.904  -1.828  0.00  0.00     0.395 HD
ENDBRANCH   1   7
TORSDOF 1
ENDMDL
