MODEL 1
REMARK minimizedAffinity 3.72383308
REMARK minimizedRMSD -1
REMARK  1 active torsions:
REMARK  status: ('A' for Active; 'I' for Inactive)
REMARK    1  A    between atoms: N_2  and  C1_3 
ROOT
ATOM      1  C1  UNL d   1       1.997  -3.271  -2.461  0.00  0.00     0.143 A 
ATOM      2  C2  UNL d   1       2.313  -4.473  -1.818  0.00  0.00    -0.057 A 
ATOM      3  C3  UNL d   1       2.572  -5.639  -2.547  0.00  0.00     0.033 A 
ATOM      4  C4  UNL d   1       2.491  -5.631  -3.936  0.00  0.00    -0.042 A 
ATOM      5  C5  UNL d   1       2.155  -4.454  -4.595  0.00  0.00     0.033 A 
ATOM      6  C6  UNL d   1       1.904  -3.290  -3.861  0.00  0.00    -0.057 A 
ENDROOT
BRANCH   1   7
ATOM      7  N   UNL d   1       1.633  -2.101  -1.788  0.00  0.00    -0.732 N 
ATOM      8  C   UNL d   1       2.609  -1.358  -1.021  0.00  0.00     0.284 C 
ATOM      9  H3  UNL d   1       1.003  -1.519  -2.335  0.00  0.00     0.395 HD
ENDBRANCH   1   7
TORSDOF 1
ENDMDL
