MODEL 1
REMARK minimizedAffinity 12.1525869
REMARK minimizedRMSD -1
REMARK  1 active torsions:
REMARK  status: ('A' for Active; 'I' for Inactive)
REMARK    1  A    between atoms: N_2  and  C1_3 
ROOT
ATOM      1  C1  UNL d   1       0.325   2.041   1.050  0.00  0.00     0.143 A 
ATOM      2  C2  UNL d   1       0.660   1.425  -0.160  0.00  0.00    -0.057 A 
ATOM      3  C3  UNL d   1      -0.258   1.348  -1.215  0.00  0.00     0.033 A 
ATOM      4  C4  UNL d   1      -1.542   1.862  -1.066  0.00  0.00    -0.042 A 
ATOM      5  C5  UNL d   1      -1.905   2.456   0.138  0.00  0.00     0.033 A 
ATOM      6  C6  UNL d   1      -0.982   2.536   1.184  0.00  0.00    -0.057 A 
ENDROOT
BRANCH   1   7
ATOM      7  N   UNL d   1       1.160   2.062   2.170  0.00  0.00    -0.732 N 
ATOM      8  C   UNL d   1       2.505   2.588   2.076  0.00  0.00     0.284 C 
ATOM      9  H3  UNL d   1       0.667   2.331   3.018  0.00  0.00     0.395 HD
ENDBRANCH   1   7
TORSDOF 1
ENDMDL
