MODEL 1
REMARK minimizedAffinity 2.8861599
REMARK minimizedRMSD -1
REMARK  1 active torsions:
REMARK  status: ('A' for Active; 'I' for Inactive)
REMARK    1  A    between atoms: N_2  and  C1_3 
ROOT
ATOM      1  C1  UNL d   1      -0.547   2.277  -0.592  0.00  0.00     0.143 A 
ATOM      2  C2  UNL d   1       0.391   2.214   0.445  0.00  0.00    -0.057 A 
ATOM      3  C3  UNL d   1       0.014   2.418   1.778  0.00  0.00     0.033 A 
ATOM      4  C4  UNL d   1      -1.307   2.718   2.095  0.00  0.00    -0.042 A 
ATOM      5  C5  UNL d   1      -2.251   2.810   1.078  0.00  0.00     0.033 A 
ATOM      6  C6  UNL d   1      -1.869   2.599  -0.250  0.00  0.00    -0.057 A 
ENDROOT
BRANCH   1   7
ATOM      7  N   UNL d   1      -0.216   2.180  -1.946  0.00  0.00    -0.732 N 
ATOM      8  C   UNL d   1       0.063   0.894  -2.547  0.00  0.00     0.284 C 
ATOM      9  H3  UNL d   1      -0.778   2.798  -2.528  0.00  0.00     0.395 HD
ENDBRANCH   1   7
TORSDOF 1
ENDMDL
