MODEL 1
REMARK minimizedAffinity 0.372137606
REMARK minimizedRMSD -1
REMARK  0 active torsions:
REMARK  status: ('A' for Active; 'I' for Inactive)
ROOT
ATOM      1  C   UNL d   1      -0.499  -0.832   0.431  0.00  0.00     0.172 C 
ATOM      2  N   UNL d   1       0.109  -0.431  -0.816  0.00  0.00    -0.070 N 
ATOM      3  C1  UNL d   1       0.592  -1.279  -1.777  0.00  0.00    -0.004 A 
ATOM      4  C2  UNL d   1       1.090  -0.510  -2.806  0.00  0.00    -0.047 A 
ATOM      5  C3  UNL d   1       0.900   0.847  -2.452  0.00  0.00    -0.047 A 
ATOM      6  C4  UNL d   1       0.291   0.867  -1.215  0.00  0.00    -0.004 A 
ENDROOT
TORSDOF 0
ENDMDL
