MODEL 1
REMARK minimizedAffinity 1.51658356
REMARK minimizedRMSD -1
REMARK  0 active torsions:
REMARK  status: ('A' for Active; 'I' for Inactive)
ROOT
ATOM      1  C   UNL d   1       1.146  -1.133  -4.123  0.00  0.00     0.172 C 
ATOM      2  N   UNL d   1       0.792  -0.462  -2.894  0.00  0.00    -0.070 N 
ATOM      3  C1  UNL d   1       0.327  -1.070  -1.758  0.00  0.00    -0.004 A 
ATOM      4  C2  UNL d   1       0.108  -0.090  -0.814  0.00  0.00    -0.047 A 
ATOM      5  C3  UNL d   1       0.452   1.150  -1.403  0.00  0.00    -0.047 A 
ATOM      6  C4  UNL d   1       0.873   0.890  -2.690  0.00  0.00    -0.004 A 
ENDROOT
TORSDOF 0
ENDMDL
