MODEL 1
REMARK minimizedAffinity -3.87858486
REMARK minimizedRMSD -1
REMARK  0 active torsions:
REMARK  status: ('A' for Active; 'I' for Inactive)
ROOT
ATOM      1  C   UNL d   1      -3.397   5.994   4.519  0.00  0.00     0.172 C 
ATOM      2  N   UNL d   1      -3.399   4.555   4.638  0.00  0.00    -0.070 N 
ATOM      3  C1  UNL d   1      -3.286   3.668   3.600  0.00  0.00    -0.004 A 
ATOM      4  C2  UNL d   1      -3.331   2.395   4.127  0.00  0.00    -0.047 A 
ATOM      5  C3  UNL d   1      -3.477   2.521   5.529  0.00  0.00    -0.047 A 
ATOM      6  C4  UNL d   1      -3.517   3.869   5.818  0.00  0.00    -0.004 A 
ENDROOT
TORSDOF 0
ENDMDL
