MODEL 1
REMARK minimizedAffinity 2.10561585
REMARK minimizedRMSD -1
REMARK  0 active torsions:
REMARK  status: ('A' for Active; 'I' for Inactive)
ROOT
ATOM      1  C   UNL d   1      -3.270   5.970   2.406  0.00  0.00     0.172 C 
ATOM      2  N   UNL d   1      -3.717   5.968   3.779  0.00  0.00    -0.070 N 
ATOM      3  C1  UNL d   1      -5.022   5.934   4.193  0.00  0.00    -0.004 A 
ATOM      4  C2  UNL d   1      -5.027   5.943   5.571  0.00  0.00    -0.047 A 
ATOM      5  C3  UNL d   1      -3.679   5.985   6.000  0.00  0.00    -0.047 A 
ATOM      6  C4  UNL d   1      -2.890   6.000   4.870  0.00  0.00    -0.004 A 
ENDROOT
TORSDOF 0
ENDMDL
