MODEL 1
REMARK minimizedAffinity 2.74148965
REMARK minimizedRMSD -1
REMARK  0 active torsions:
REMARK  status: ('A' for Active; 'I' for Inactive)
ROOT
ATOM      1  C   UNL d   1       1.284  -0.420  -2.770  0.00  0.00     0.172 C 
ATOM      2  N   UNL d   1       1.659   0.507  -1.729  0.00  0.00    -0.070 N 
ATOM      3  C1  UNL d   1       0.816   1.036  -0.789  0.00  0.00    -0.004 A 
ATOM      4  C2  UNL d   1       1.556   1.872   0.020  0.00  0.00    -0.047 A 
ATOM      5  C3  UNL d   1       2.890   1.844  -0.451  0.00  0.00    -0.047 A 
ATOM      6  C4  UNL d   1       2.926   0.992  -1.534  0.00  0.00    -0.004 A 
ENDROOT
TORSDOF 0
ENDMDL
