MODEL 1
REMARK minimizedAffinity -0.208918944
REMARK minimizedRMSD -1
REMARK  0 active torsions:
REMARK  status: ('A' for Active; 'I' for Inactive)
ROOT
ATOM      1  C   UNL d   1       4.121   2.236   2.275  0.00  0.00     0.172 C 
ATOM      2  N   UNL d   1       4.667   1.089   2.962  0.00  0.00    -0.070 N 
ATOM      3  C1  UNL d   1       4.149  -0.178   2.936  0.00  0.00    -0.004 A 
ATOM      4  C2  UNL d   1       4.956  -0.980   3.713  0.00  0.00    -0.047 A 
ATOM      5  C3  UNL d   1       5.995  -0.167   4.225  0.00  0.00    -0.047 A 
ATOM      6  C4  UNL d   1       5.792   1.110   3.744  0.00  0.00    -0.004 A 
ENDROOT
TORSDOF 0
ENDMDL
