MODEL 1
REMARK minimizedAffinity 6.67908096
REMARK minimizedRMSD -1
REMARK  0 active torsions:
REMARK  status: ('A' for Active; 'I' for Inactive)
ROOT
ATOM      1  C   UNL d   1       1.157  -1.870  -2.988  0.00  0.00     0.172 C 
ATOM      2  N   UNL d   1       0.876  -0.510  -2.592  0.00  0.00    -0.070 N 
ATOM      3  C1  UNL d   1       0.446  -0.112  -1.354  0.00  0.00    -0.004 A 
ATOM      4  C2  UNL d   1       0.295   1.258  -1.381  0.00  0.00    -0.047 A 
ATOM      5  C3  UNL d   1       0.644   1.697  -2.680  0.00  0.00    -0.047 A 
ATOM      6  C4  UNL d   1       1.000   0.582  -3.409  0.00  0.00    -0.004 A 
ENDROOT
TORSDOF 0
ENDMDL
