MODEL 1
REMARK minimizedAffinity -2.02658892
REMARK minimizedRMSD -1
REMARK  0 active torsions:
REMARK  status: ('A' for Active; 'I' for Inactive)
ROOT
ATOM      1  C   UNL d   1       5.132   3.864  -4.802  0.00  0.00     0.172 C 
ATOM      2  N   UNL d   1       5.223   2.440  -5.025  0.00  0.00    -0.070 N 
ATOM      3  C1  UNL d   1       4.554   1.739  -5.992  0.00  0.00    -0.004 A 
ATOM      4  C2  UNL d   1       4.910   0.413  -5.874  0.00  0.00    -0.047 A 
ATOM      5  C3  UNL d   1       5.824   0.314  -4.798  0.00  0.00    -0.047 A 
ATOM      6  C4  UNL d   1       6.000   1.583  -4.290  0.00  0.00    -0.004 A 
ENDROOT
TORSDOF 0
ENDMDL
