MODEL 1
REMARK minimizedAffinity 1.026106
REMARK minimizedRMSD -1
REMARK  0 active torsions:
REMARK  status: ('A' for Active; 'I' for Inactive)
ROOT
ATOM      1  C   UNL d   1      -3.750   1.164   6.000  0.00  0.00     0.172 C 
ATOM      2  N   UNL d   1      -3.633   0.169   4.960  0.00  0.00    -0.070 N 
ATOM      3  C1  UNL d   1      -4.502   0.001   3.915  0.00  0.00    -0.004 A 
ATOM      4  C2  UNL d   1      -4.041  -1.048   3.148  0.00  0.00    -0.047 A 
ATOM      5  C3  UNL d   1      -2.855  -1.526   3.754  0.00  0.00    -0.047 A 
ATOM      6  C4  UNL d   1      -2.626  -0.755   4.874  0.00  0.00    -0.004 A 
ENDROOT
TORSDOF 0
ENDMDL
