MODEL 1
REMARK minimizedAffinity 7.92370367
REMARK minimizedRMSD -1
REMARK  0 active torsions:
REMARK  status: ('A' for Active; 'I' for Inactive)
ROOT
ATOM      1  C   UNL d   1      -4.528   5.999   5.999  0.00  0.00     0.172 C 
ATOM      2  N   UNL d   1      -3.850   5.349   4.903  0.00  0.00    -0.070 N 
ATOM      3  C1  UNL d   1      -3.630   4.002   4.786  0.00  0.00    -0.004 A 
ATOM      4  C2  UNL d   1      -2.956   3.785   3.604  0.00  0.00    -0.047 A 
ATOM      5  C3  UNL d   1      -2.763   5.045   2.989  0.00  0.00    -0.047 A 
ATOM      6  C4  UNL d   1      -3.326   5.995   3.814  0.00  0.00    -0.004 A 
ENDROOT
TORSDOF 0
ENDMDL
