MODEL 1
REMARK minimizedAffinity 4.83381605
REMARK minimizedRMSD -1
REMARK  0 active torsions:
REMARK  status: ('A' for Active; 'I' for Inactive)
ROOT
ATOM      1  C   UNL d   1       2.269   3.759  -5.999  0.00  0.00     0.172 C 
ATOM      2  N   UNL d   1       3.596   3.507  -5.490  0.00  0.00    -0.070 N 
ATOM      3  C1  UNL d   1       4.487   2.600  -5.999  0.00  0.00    -0.004 A 
ATOM      4  C2  UNL d   1       5.634   2.663  -5.238  0.00  0.00    -0.047 A 
ATOM      5  C3  UNL d   1       5.425   3.640  -4.236  0.00  0.00    -0.047 A 
ATOM      6  C4  UNL d   1       4.155   4.147  -4.416  0.00  0.00    -0.004 A 
ENDROOT
TORSDOF 0
ENDMDL
