MODEL 1
REMARK minimizedAffinity 2.62796211
REMARK minimizedRMSD -1
REMARK  0 active torsions:
REMARK  status: ('A' for Active; 'I' for Inactive)
ROOT
ATOM      1  C   UNL d   1      -3.744   5.960   2.420  0.00  0.00     0.172 C 
ATOM      2  N   UNL d   1      -4.239   5.976   3.776  0.00  0.00    -0.070 N 
ATOM      3  C1  UNL d   1      -5.558   5.986   4.145  0.00  0.00    -0.004 A 
ATOM      4  C2  UNL d   1      -5.612   6.000   5.522  0.00  0.00    -0.047 A 
ATOM      5  C3  UNL d   1      -4.279   6.000   5.997  0.00  0.00    -0.047 A 
ATOM      6  C4  UNL d   1      -3.450   5.985   4.896  0.00  0.00    -0.004 A 
ENDROOT
TORSDOF 0
ENDMDL
