MODEL 1
REMARK minimizedAffinity 16.4856453
REMARK minimizedRMSD -1
REMARK  1 active torsions:
REMARK  status: ('A' for Active; 'I' for Inactive)
REMARK    1  A    between atoms: C1_2  and  C2_3 
ROOT
ATOM      1  C2  UNL d   1       1.479   1.867   0.558  0.00  0.00    -0.077 A 
ATOM      2  C3  UNL d   1       2.851   2.033   0.795  0.00  0.00     0.002 A 
ATOM      3  C4  UNL d   1       3.574   1.050   1.475  0.00  0.00     0.002 A 
ATOM      4  C5  UNL d   1       2.935  -0.106   1.919  0.00  0.00    -0.004 A 
ATOM      5  C6  UNL d   1       1.571  -0.279   1.689  0.00  0.00     0.002 A 
ATOM      6  C7  UNL d   1       0.846   0.702   1.011  0.00  0.00     0.002 A 
ENDROOT
BRANCH   1   7
ATOM      7  C1  UNL d   1       0.708   2.902  -0.218  0.00  0.00     0.055 C 
ATOM      8  C   UNL d   1       0.426   2.434  -1.638  0.00  0.00     0.019 C 
ENDBRANCH   1   7
TORSDOF 1
ENDMDL
