MODEL 1
REMARK minimizedAffinity 8.15547085
REMARK minimizedRMSD -1
REMARK  1 active torsions:
REMARK  status: ('A' for Active; 'I' for Inactive)
REMARK    1  A    between atoms: C1_2  and  C2_3 
ROOT
ATOM      1  C2  UNL d   1       0.801  -2.778   1.314  0.00  0.00    -0.077 A 
ATOM      2  C3  UNL d   1      -0.489  -3.324   1.365  0.00  0.00     0.002 A 
ATOM      3  C4  UNL d   1      -0.670  -4.697   1.542  0.00  0.00     0.002 A 
ATOM      4  C5  UNL d   1       0.435  -5.535   1.674  0.00  0.00    -0.004 A 
ATOM      5  C6  UNL d   1       1.723  -5.003   1.623  0.00  0.00     0.002 A 
ATOM      6  C7  UNL d   1       1.905  -3.631   1.445  0.00  0.00     0.002 A 
ENDROOT
BRANCH   1   7
ATOM      7  C1  UNL d   1       0.997  -1.292   1.173  0.00  0.00     0.055 C 
ATOM      8  C   UNL d   1       2.460  -0.908   1.337  0.00  0.00     0.019 C 
ENDBRANCH   1   7
TORSDOF 1
ENDMDL
