MODEL 1
REMARK minimizedAffinity -0.141062945
REMARK minimizedRMSD -1
REMARK  1 active torsions:
REMARK  status: ('A' for Active; 'I' for Inactive)
REMARK    1  A    between atoms: C1_2  and  C2_3 
ROOT
ATOM      1  C2  UNL d   1      -4.927  -4.874   0.259  0.00  0.00    -0.077 A 
ATOM      2  C3  UNL d   1      -5.438  -6.000   0.921  0.00  0.00     0.002 A 
ATOM      3  C4  UNL d   1      -5.617  -5.985   2.305  0.00  0.00     0.002 A 
ATOM      4  C5  UNL d   1      -5.292  -4.846   3.039  0.00  0.00    -0.004 A 
ATOM      5  C6  UNL d   1      -4.782  -3.722   2.391  0.00  0.00     0.002 A 
ATOM      6  C7  UNL d   1      -4.601  -3.736   1.007  0.00  0.00     0.002 A 
ENDROOT
BRANCH   1   7
ATOM      7  C1  UNL d   1      -4.779  -4.871  -1.240  0.00  0.00     0.055 C 
ATOM      8  C   UNL d   1      -5.583  -5.995  -1.878  0.00  0.00     0.019 C 
ENDBRANCH   1   7
TORSDOF 1
ENDMDL
