MODEL 1
REMARK minimizedAffinity 5.2390337
REMARK minimizedRMSD -1
REMARK  1 active torsions:
REMARK  status: ('A' for Active; 'I' for Inactive)
REMARK    1  A    between atoms: C1_2  and  C2_3 
ROOT
ATOM      1  C2  UNL d   1      -4.326  -4.085   3.489  0.00  0.00    -0.077 A 
ATOM      2  C3  UNL d   1      -4.365  -3.290   4.643  0.00  0.00     0.002 A 
ATOM      3  C4  UNL d   1      -5.200  -3.633   5.708  0.00  0.00     0.002 A 
ATOM      4  C5  UNL d   1      -5.998  -4.773   5.632  0.00  0.00    -0.004 A 
ATOM      5  C6  UNL d   1      -5.967  -5.569   4.487  0.00  0.00     0.002 A 
ATOM      6  C7  UNL d   1      -5.134  -5.227   3.421  0.00  0.00     0.002 A 
ENDROOT
BRANCH   1   7
ATOM      7  C1  UNL d   1      -3.389  -3.745   2.359  0.00  0.00     0.055 C 
ATOM      8  C   UNL d   1      -4.124  -3.050   1.222  0.00  0.00     0.019 C 
ENDBRANCH   1   7
TORSDOF 1
ENDMDL
