MODEL 1
REMARK minimizedAffinity 12.1579218
REMARK minimizedRMSD -1
REMARK  1 active torsions:
REMARK  status: ('A' for Active; 'I' for Inactive)
REMARK    1  A    between atoms: C1_2  and  C2_3 
ROOT
ATOM      1  C2  UNL d   1       1.597  -2.653   0.644  0.00  0.00    -0.077 A 
ATOM      2  C3  UNL d   1       0.652  -1.906   1.361  0.00  0.00     0.002 A 
ATOM      3  C4  UNL d   1       0.910  -0.575   1.694  0.00  0.00     0.002 A 
ATOM      4  C5  UNL d   1       2.109   0.022   1.311  0.00  0.00    -0.004 A 
ATOM      5  C6  UNL d   1       3.056  -0.714   0.599  0.00  0.00     0.002 A 
ATOM      6  C7  UNL d   1       2.801  -2.045   0.266  0.00  0.00     0.002 A 
ENDROOT
BRANCH   1   7
ATOM      7  C1  UNL d   1       1.300  -4.074   0.241  0.00  0.00     0.055 C 
ATOM      8  C   UNL d   1       0.823  -4.152  -1.202  0.00  0.00     0.019 C 
ENDBRANCH   1   7
TORSDOF 1
ENDMDL
