MODEL 1
REMARK minimizedAffinity 5.59105349
REMARK minimizedRMSD -1
REMARK  1 active torsions:
REMARK  status: ('A' for Active; 'I' for Inactive)
REMARK    1  A    between atoms: C1_2  and  C2_3 
ROOT
ATOM      1  C2  UNL d   1      -1.415  -2.179   2.704  0.00  0.00    -0.077 A 
ATOM      2  C3  UNL d   1      -0.890  -1.023   3.299  0.00  0.00     0.002 A 
ATOM      3  C4  UNL d   1       0.410  -0.606   3.007  0.00  0.00     0.002 A 
ATOM      4  C5  UNL d   1       1.194  -1.336   2.116  0.00  0.00    -0.004 A 
ATOM      5  C6  UNL d   1       0.682  -2.488   1.520  0.00  0.00     0.002 A 
ATOM      6  C7  UNL d   1      -0.617  -2.907   1.812  0.00  0.00     0.002 A 
ENDROOT
BRANCH   1   7
ATOM      7  C1  UNL d   1      -2.834  -2.603   2.980  0.00  0.00     0.055 C 
ATOM      8  C   UNL d   1      -3.401  -3.421   1.829  0.00  0.00     0.019 C 
ENDBRANCH   1   7
TORSDOF 1
ENDMDL
