MODEL 1
REMARK minimizedAffinity 8.8415966
REMARK minimizedRMSD -1
REMARK  1 active torsions:
REMARK  status: ('A' for Active; 'I' for Inactive)
REMARK    1  A    between atoms: C1_2  and  C2_3 
ROOT
ATOM      1  C2  UNL d   1      -3.220  -4.823   0.365  0.00  0.00    -0.077 A 
ATOM      2  C3  UNL d   1      -3.953  -5.961  -0.002  0.00  0.00     0.002 A 
ATOM      3  C4  UNL d   1      -5.336  -6.000   0.181  0.00  0.00     0.002 A 
ATOM      4  C5  UNL d   1      -5.999  -4.902   0.727  0.00  0.00    -0.004 A 
ATOM      5  C6  UNL d   1      -5.280  -3.767   1.096  0.00  0.00     0.002 A 
ATOM      6  C7  UNL d   1      -3.896  -3.727   0.915  0.00  0.00     0.002 A 
ENDROOT
BRANCH   1   7
ATOM      7  C1  UNL d   1      -1.735  -4.761   0.123  0.00  0.00     0.055 C 
ATOM      8  C   UNL d   1      -1.315  -3.392  -0.393  0.00  0.00     0.019 C 
ENDBRANCH   1   7
TORSDOF 1
ENDMDL
