MODEL 1
REMARK minimizedAffinity 13.0665054
REMARK minimizedRMSD -1
REMARK  1 active torsions:
REMARK  status: ('A' for Active; 'I' for Inactive)
REMARK    1  A    between atoms: C1_2  and  C2_3 
ROOT
ATOM      1  C2  UNL d   1      -1.811  -2.433   3.305  0.00  0.00    -0.077 A 
ATOM      2  C3  UNL d   1      -1.509  -1.193   3.886  0.00  0.00     0.002 A 
ATOM      3  C4  UNL d   1      -0.337  -0.518   3.539  0.00  0.00     0.002 A 
ATOM      4  C5  UNL d   1       0.539  -1.071   2.608  0.00  0.00    -0.004 A 
ATOM      5  C6  UNL d   1       0.248  -2.304   2.026  0.00  0.00     0.002 A 
ATOM      6  C7  UNL d   1      -0.922  -2.981   2.372  0.00  0.00     0.002 A 
ENDROOT
BRANCH   1   7
ATOM      7  C1  UNL d   1      -3.098  -3.139   3.640  0.00  0.00     0.055 C 
ATOM      8  C   UNL d   1      -3.815  -3.610   2.383  0.00  0.00     0.019 C 
ENDBRANCH   1   7
TORSDOF 1
ENDMDL
