MODEL 1
REMARK minimizedAffinity 7.29571009
REMARK minimizedRMSD -1
REMARK  1 active torsions:
REMARK  status: ('A' for Active; 'I' for Inactive)
REMARK    1  A    between atoms: C1_2  and  C2_3 
ROOT
ATOM      1  C2  UNL d   1      -4.303  -4.351   3.054  0.00  0.00    -0.077 A 
ATOM      2  C3  UNL d   1      -5.157  -5.460   3.125  0.00  0.00     0.002 A 
ATOM      3  C4  UNL d   1      -6.000  -5.634   4.224  0.00  0.00     0.002 A 
ATOM      4  C5  UNL d   1      -6.000  -4.700   5.258  0.00  0.00    -0.004 A 
ATOM      5  C6  UNL d   1      -5.153  -3.594   5.198  0.00  0.00     0.002 A 
ATOM      6  C7  UNL d   1      -4.309  -3.420   4.100  0.00  0.00     0.002 A 
ENDROOT
BRANCH   1   7
ATOM      7  C1  UNL d   1      -3.429  -4.136   1.846  0.00  0.00     0.055 C 
ATOM      8  C   UNL d   1      -4.260  -3.820   0.610  0.00  0.00     0.019 C 
ENDBRANCH   1   7
TORSDOF 1
ENDMDL
