MODEL 1
REMARK minimizedAffinity -0.812306404
REMARK minimizedRMSD -1
REMARK  1 active torsions:
REMARK  status: ('A' for Active; 'I' for Inactive)
REMARK    1  A    between atoms: C1_2  and  C2_3 
ROOT
ATOM      1  C2  UNL d   1       3.142  -4.080  -5.486  0.00  0.00    -0.077 A 
ATOM      2  C3  UNL d   1       2.826  -5.346  -5.999  0.00  0.00     0.002 A 
ATOM      3  C4  UNL d   1       1.660  -6.000  -5.598  0.00  0.00     0.002 A 
ATOM      4  C5  UNL d   1       0.798  -5.394  -4.686  0.00  0.00    -0.004 A 
ATOM      5  C6  UNL d   1       1.104  -4.136  -4.169  0.00  0.00     0.002 A 
ATOM      6  C7  UNL d   1       2.270  -3.481  -4.568  0.00  0.00     0.002 A 
ENDROOT
BRANCH   1   7
ATOM      7  C1  UNL d   1       4.375  -3.352  -5.955  0.00  0.00     0.055 C 
ATOM      8  C   UNL d   1       5.582  -4.278  -5.997  0.00  0.00     0.019 C 
ENDBRANCH   1   7
TORSDOF 1
ENDMDL
