MODEL 1
REMARK minimizedAffinity 11.6717234
REMARK minimizedRMSD -1
REMARK  1 active torsions:
REMARK  status: ('A' for Active; 'I' for Inactive)
REMARK    1  A    between atoms: C1_2  and  C2_3 
ROOT
ATOM      1  C2  UNL d   1       3.823  -4.699  -5.746  0.00  0.00    -0.077 A 
ATOM      2  C3  UNL d   1       3.018  -5.827  -5.962  0.00  0.00     0.002 A 
ATOM      3  C4  UNL d   1       1.631  -5.739  -5.836  0.00  0.00     0.002 A 
ATOM      4  C5  UNL d   1       1.036  -4.526  -5.496  0.00  0.00    -0.004 A 
ATOM      5  C6  UNL d   1       1.827  -3.399  -5.277  0.00  0.00     0.002 A 
ATOM      6  C7  UNL d   1       3.214  -3.485  -5.402  0.00  0.00     0.002 A 
ENDROOT
BRANCH   1   7
ATOM      7  C1  UNL d   1       5.316  -4.780  -5.930  0.00  0.00     0.055 C 
ATOM      8  C   UNL d   1       5.901  -5.976  -5.194  0.00  0.00     0.019 C 
ENDBRANCH   1   7
TORSDOF 1
ENDMDL
