MODEL 1
REMARK minimizedAffinity 0.233823717
REMARK minimizedRMSD -1
REMARK  1 active torsions:
REMARK  status: ('A' for Active; 'I' for Inactive)
REMARK    1  A    between atoms: C1_2  and  C2_3 
ROOT
ATOM      1  C2  UNL d   1      -4.128  -5.151   0.209  0.00  0.00    -0.077 A 
ATOM      2  C3  UNL d   1      -3.624  -3.960   0.751  0.00  0.00     0.002 A 
ATOM      3  C4  UNL d   1      -3.957  -3.582   2.053  0.00  0.00     0.002 A 
ATOM      4  C5  UNL d   1      -4.791  -4.389   2.824  0.00  0.00    -0.004 A 
ATOM      5  C6  UNL d   1      -5.299  -5.574   2.293  0.00  0.00     0.002 A 
ATOM      6  C7  UNL d   1      -4.968  -5.953   0.991  0.00  0.00     0.002 A 
ENDROOT
BRANCH   1   7
ATOM      7  C1  UNL d   1      -3.731  -5.586  -1.178  0.00  0.00     0.055 C 
ATOM      8  C   UNL d   1      -4.945  -6.000  -1.997  0.00  0.00     0.019 C 
ENDBRANCH   1   7
TORSDOF 1
ENDMDL
