MODEL 1
REMARK minimizedAffinity 1.55570281
REMARK minimizedRMSD -1
REMARK  0 active torsions:
REMARK  status: ('A' for Active; 'I' for Inactive)
ROOT
ATOM      1  N1  IND d   1       2.302  -0.494   4.579  0.00  0.00    -0.196 N 
ATOM      2  C2  IND d   1       2.408   0.084   3.345  0.00  0.00     0.054 A 
ATOM      3  C3  IND d   1       3.641  -0.125   2.831  0.00  0.00    -0.031 A 
ATOM      4  C4  IND d   1       5.608  -1.475   3.798  0.00  0.00     0.051 A 
ATOM      5  C5  IND d   1       6.000  -2.157   4.916  0.00  0.00    -0.031 A 
ATOM      6  C6  IND d   1       5.162  -2.326   5.999  0.00  0.00     0.015 A 
ATOM      7  C7  IND d   1       3.890  -1.826   6.000  0.00  0.00    -0.016 A 
ATOM      8  C8  IND d   1       3.491  -1.126   4.870  0.00  0.00    -0.047 A 
ATOM      9  C9  IND d   1       4.352  -0.916   3.785  0.00  0.00    -0.096 A 
ATOM     10  HN1 IND d   1       1.610  -0.468   5.088  0.00  0.00     0.298 HD
ENDROOT
TORSDOF 0
ENDMDL
