MODEL 1
REMARK minimizedAffinity 12.0415974
REMARK minimizedRMSD -1
REMARK  0 active torsions:
REMARK  status: ('A' for Active; 'I' for Inactive)
ROOT
ATOM      1  N1  IND d   1       2.041  -0.099   4.837  0.00  0.00    -0.196 N 
ATOM      2  C2  IND d   1       2.006  -1.293   4.171  0.00  0.00     0.054 A 
ATOM      3  C3  IND d   1       2.314  -1.113   2.867  0.00  0.00    -0.031 A 
ATOM      4  C4  IND d   1       3.005   1.037   1.631  0.00  0.00     0.051 A 
ATOM      5  C5  IND d   1       3.145   2.385   1.810  0.00  0.00    -0.031 A 
ATOM      6  C6  IND d   1       2.922   2.985   3.032  0.00  0.00     0.015 A 
ATOM      7  C7  IND d   1       2.560   2.255   4.129  0.00  0.00    -0.016 A 
ATOM      8  C8  IND d   1       2.410   0.887   3.950  0.00  0.00    -0.047 A 
ATOM      9  C9  IND d   1       2.594   0.278   2.702  0.00  0.00    -0.096 A 
ATOM     10  HN1 IND d   1       1.862   0.016   5.670  0.00  0.00     0.298 HD
ENDROOT
TORSDOF 0
ENDMDL
