MODEL 1
REMARK minimizedAffinity 13.7378407
REMARK minimizedRMSD -1
REMARK  0 active torsions:
REMARK  status: ('A' for Active; 'I' for Inactive)
ROOT
ATOM      1  N1  IND d   1       1.399  -0.528   2.889  0.00  0.00    -0.196 N 
ATOM      2  C2  IND d   1       2.653  -1.063   2.980  0.00  0.00     0.054 A 
ATOM      3  C3  IND d   1       2.946  -1.766   1.863  0.00  0.00    -0.031 A 
ATOM      4  C4  IND d   1       1.556  -2.086  -0.280  0.00  0.00     0.051 A 
ATOM      5  C5  IND d   1       0.328  -1.818  -0.818  0.00  0.00    -0.031 A 
ATOM      6  C6  IND d   1      -0.623  -1.088  -0.135  0.00  0.00     0.015 A 
ATOM      7  C7  IND d   1      -0.377  -0.588   1.113  0.00  0.00    -0.016 A 
ATOM      8  C8  IND d   1       0.865  -0.865   1.665  0.00  0.00    -0.047 A 
ATOM      9  C9  IND d   1       1.819  -1.641   0.994  0.00  0.00    -0.096 A 
ATOM     10  HN1 IND d   1       1.009  -0.059   3.496  0.00  0.00     0.298 HD
ENDROOT
TORSDOF 0
ENDMDL
