MODEL 1
REMARK minimizedAffinity 5.0619235
REMARK minimizedRMSD -1
REMARK  0 active torsions:
REMARK  status: ('A' for Active; 'I' for Inactive)
ROOT
ATOM      1  N1  IND d   1       2.334   0.309   3.141  0.00  0.00    -0.196 N 
ATOM      2  C2  IND d   1       2.650   0.468   1.821  0.00  0.00     0.054 A 
ATOM      3  C3  IND d   1       2.837  -0.736   1.234  0.00  0.00    -0.031 A 
ATOM      4  C4  IND d   1       2.575  -3.097   2.226  0.00  0.00     0.051 A 
ATOM      5  C5  IND d   1       2.334  -3.751   3.402  0.00  0.00    -0.031 A 
ATOM      6  C6  IND d   1       2.073  -3.071   4.574  0.00  0.00     0.015 A 
ATOM      7  C7  IND d   1       2.032  -1.706   4.612  0.00  0.00    -0.016 A 
ATOM      8  C8  IND d   1       2.283  -1.039   3.421  0.00  0.00    -0.047 A 
ATOM      9  C9  IND d   1       2.590  -1.722   2.238  0.00  0.00    -0.096 A 
ATOM     10  HN1 IND d   1       2.191   0.945   3.703  0.00  0.00     0.298 HD
ENDROOT
TORSDOF 0
ENDMDL
