MODEL 1
REMARK minimizedAffinity 15.8603954
REMARK minimizedRMSD -1
REMARK  0 active torsions:
REMARK  status: ('A' for Active; 'I' for Inactive)
ROOT
ATOM      1  N1  IND d   1      -4.619   2.242   3.118  0.00  0.00    -0.196 N 
ATOM      2  C2  IND d   1      -5.900   2.649   2.870  0.00  0.00     0.054 A 
ATOM      3  C3  IND d   1      -5.933   3.466   1.793  0.00  0.00    -0.031 A 
ATOM      4  C4  IND d   1      -4.021   4.187   0.227  0.00  0.00     0.051 A 
ATOM      5  C5  IND d   1      -2.666   4.100   0.071  0.00  0.00    -0.031 A 
ATOM      6  C6  IND d   1      -1.877   3.372   0.938  0.00  0.00     0.015 A 
ATOM      7  C7  IND d   1      -2.418   2.692   1.992  0.00  0.00    -0.016 A 
ATOM      8  C8  IND d   1      -3.792   2.784   2.158  0.00  0.00    -0.047 A 
ATOM      9  C9  IND d   1      -4.593   3.555   1.306  0.00  0.00    -0.096 A 
ATOM     10  HN1 IND d   1      -4.371   1.733   3.765  0.00  0.00     0.298 HD
ENDROOT
TORSDOF 0
ENDMDL
