MODEL 1
REMARK minimizedAffinity 16.4154968
REMARK minimizedRMSD -1
REMARK  0 active torsions:
REMARK  status: ('A' for Active; 'I' for Inactive)
ROOT
ATOM      1  N1  IND d   1      -5.998   4.388   1.392  0.00  0.00    -0.196 N 
ATOM      2  C2  IND d   1      -5.970   3.598   0.277  0.00  0.00     0.054 A 
ATOM      3  C3  IND d   1      -5.875   2.295   0.626  0.00  0.00    -0.031 A 
ATOM      4  C4  IND d   1      -5.855   1.227   2.968  0.00  0.00     0.051 A 
ATOM      5  C5  IND d   1      -5.825   1.545   4.297  0.00  0.00    -0.031 A 
ATOM      6  C6  IND d   1      -5.854   2.853   4.734  0.00  0.00     0.015 A 
ATOM      7  C7  IND d   1      -5.927   3.896   3.855  0.00  0.00    -0.016 A 
ATOM      8  C8  IND d   1      -5.950   3.577   2.505  0.00  0.00    -0.047 A 
ATOM      9  C9  IND d   1      -5.878   2.253   2.054  0.00  0.00    -0.096 A 
ATOM     10  HN1 IND d   1      -6.039   5.247   1.397  0.00  0.00     0.298 HD
ENDROOT
TORSDOF 0
ENDMDL
