MODEL 1
REMARK minimizedAffinity 7.14414883
REMARK minimizedRMSD -1
REMARK  0 active torsions:
REMARK  status: ('A' for Active; 'I' for Inactive)
ROOT
ATOM      1  N1  IND d   1       1.641  -0.344   2.450  0.00  0.00    -0.196 N 
ATOM      2  C2  IND d   1       2.258  -0.431   1.233  0.00  0.00     0.054 A 
ATOM      3  C3  IND d   1       2.866  -1.631   1.100  0.00  0.00    -0.031 A 
ATOM      4  C4  IND d   1       2.892  -3.640   2.709  0.00  0.00     0.051 A 
ATOM      5  C5  IND d   1       2.498  -4.023   3.961  0.00  0.00    -0.031 A 
ATOM      6  C6  IND d   1       1.781  -3.182   4.788  0.00  0.00     0.015 A 
ATOM      7  C7  IND d   1       1.421  -1.927   4.389  0.00  0.00    -0.016 A 
ATOM      8  C8  IND d   1       1.825  -1.532   3.121  0.00  0.00    -0.047 A 
ATOM      9  C9  IND d   1       2.589  -2.365   2.293  0.00  0.00    -0.096 A 
ATOM     10  HN1 IND d   1       1.211   0.339   2.746  0.00  0.00     0.298 HD
ENDROOT
TORSDOF 0
ENDMDL
