MODEL 1
REMARK minimizedAffinity 12.302947
REMARK minimizedRMSD -1
REMARK  0 active torsions:
REMARK  status: ('A' for Active; 'I' for Inactive)
ROOT
ATOM      1  N1  IND d   1      -6.000   3.484   2.318  0.00  0.00    -0.196 N 
ATOM      2  C2  IND d   1      -5.007   3.929   3.145  0.00  0.00     0.054 A 
ATOM      3  C3  IND d   1      -3.796   3.725   2.578  0.00  0.00    -0.031 A 
ATOM      4  C4  IND d   1      -3.216   2.769   0.260  0.00  0.00     0.051 A 
ATOM      5  C5  IND d   1      -3.785   2.192  -0.841  0.00  0.00    -0.031 A 
ATOM      6  C6  IND d   1      -5.149   2.015  -0.948  0.00  0.00     0.015 A 
ATOM      7  C7  IND d   1      -6.000   2.420   0.041  0.00  0.00    -0.016 A 
ATOM      8  C8  IND d   1      -5.425   3.000   1.163  0.00  0.00    -0.047 A 
ATOM      9  C9  IND d   1      -4.038   3.144   1.296  0.00  0.00    -0.096 A 
ATOM     10  HN1 IND d   1      -6.842   3.502   2.490  0.00  0.00     0.298 HD
ENDROOT
TORSDOF 0
ENDMDL
