MODEL 1
REMARK minimizedAffinity 10.8502092
REMARK minimizedRMSD -1
REMARK  0 active torsions:
REMARK  status: ('A' for Active; 'I' for Inactive)
ROOT
ATOM      1  N1  IND d   1      -1.957   3.016   2.227  0.00  0.00    -0.196 N 
ATOM      2  C2  IND d   1      -1.564   3.592   1.052  0.00  0.00     0.054 A 
ATOM      3  C3  IND d   1      -2.642   3.931   0.310  0.00  0.00    -0.031 A 
ATOM      4  C4  IND d   1      -5.146   3.727   0.875  0.00  0.00     0.051 A 
ATOM      5  C5  IND d   1      -6.000   3.230   1.819  0.00  0.00    -0.031 A 
ATOM      6  C6  IND d   1      -5.541   2.627   2.972  0.00  0.00     0.015 A 
ATOM      7  C7  IND d   1      -4.205   2.508   3.231  0.00  0.00    -0.016 A 
ATOM      8  C8  IND d   1      -3.334   3.005   2.271  0.00  0.00    -0.047 A 
ATOM      9  C9  IND d   1      -3.794   3.580   1.079  0.00  0.00    -0.096 A 
ATOM     10  HN1 IND d   1      -1.433   2.713   2.837  0.00  0.00     0.298 HD
ENDROOT
TORSDOF 0
ENDMDL
