MODEL 1
REMARK minimizedAffinity -5.56471395
REMARK minimizedRMSD -1
REMARK  2 active torsions:
REMARK  status: ('A' for Active; 'I' for Inactive)
REMARK    1  A    between atoms: C1_2  and  C2_3 
REMARK    2  A    between atoms: C2_3  and  C3_4 
ROOT
ATOM      1  C3  UNL d   1      -0.429  -1.097  -0.422  0.00  0.00    -0.075 A 
ATOM      2  C4  UNL d   1      -0.089  -1.590  -1.690  0.00  0.00     0.002 A 
ATOM      3  C5  UNL d   1       0.325  -2.913  -1.848  0.00  0.00     0.002 A 
ATOM      4  C6  UNL d   1       0.414  -3.755  -0.741  0.00  0.00    -0.004 A 
ATOM      5  C7  UNL d   1       0.094  -3.271   0.526  0.00  0.00     0.002 A 
ATOM      6  C8  UNL d   1      -0.325  -1.949   0.686  0.00  0.00     0.002 A 
ENDROOT
BRANCH   1   7
ATOM      7  C2  UNL d   1      -0.906   0.325  -0.249  0.00  0.00     0.056 C 
BRANCH   7   8
ATOM      8  C1  UNL d   1      -0.187   1.338  -1.146  0.00  0.00     0.007 C 
ATOM      9  C   UNL d   1       1.046   1.949  -0.494  0.00  0.00     0.009 C 
ENDBRANCH   7   8
ENDBRANCH   1   7
TORSDOF 2
ENDMDL
