MODEL 1
REMARK minimizedAffinity -4.77173376
REMARK minimizedRMSD -1
REMARK  2 active torsions:
REMARK  status: ('A' for Active; 'I' for Inactive)
REMARK    1  A    between atoms: C1_2  and  C2_3 
REMARK    2  A    between atoms: C2_3  and  C3_4 
ROOT
ATOM      1  C3  UNL d   1       0.163  -1.553  -0.323  0.00  0.00    -0.075 A 
ATOM      2  C4  UNL d   1       0.419  -1.698  -1.694  0.00  0.00     0.002 A 
ATOM      3  C5  UNL d   1       0.571  -2.966  -2.256  0.00  0.00     0.002 A 
ATOM      4  C6  UNL d   1       0.478  -4.102  -1.454  0.00  0.00    -0.004 A 
ATOM      5  C7  UNL d   1       0.240  -3.969  -0.088  0.00  0.00     0.002 A 
ATOM      6  C8  UNL d   1       0.084  -2.701   0.475  0.00  0.00     0.002 A 
ENDROOT
BRANCH   1   7
ATOM      7  C2  UNL d   1      -0.032  -0.184   0.285  0.00  0.00     0.056 C 
BRANCH   7   8
ATOM      8  C1  UNL d   1       0.104   0.968  -0.715  0.00  0.00     0.007 C 
ATOM      9  C   UNL d   1       1.063   2.057  -0.250  0.00  0.00     0.009 C 
ENDBRANCH   7   8
ENDBRANCH   1   7
TORSDOF 2
ENDMDL
