MODEL 1
REMARK minimizedAffinity -5.99340391
REMARK minimizedRMSD -1
REMARK  2 active torsions:
REMARK  status: ('A' for Active; 'I' for Inactive)
REMARK    1  A    between atoms: C1_2  and  C2_3 
REMARK    2  A    between atoms: C2_3  and  C3_4 
ROOT
ATOM      1  C3  UNL d   1       0.022  -1.239  -0.084  0.00  0.00    -0.075 A 
ATOM      2  C4  UNL d   1       0.465  -1.149  -1.411  0.00  0.00     0.002 A 
ATOM      3  C5  UNL d   1       0.677  -2.302  -2.167  0.00  0.00     0.002 A 
ATOM      4  C6  UNL d   1       0.459  -3.558  -1.604  0.00  0.00    -0.004 A 
ATOM      5  C7  UNL d   1       0.034  -3.660  -0.281  0.00  0.00     0.002 A 
ATOM      6  C8  UNL d   1      -0.183  -2.507   0.476  0.00  0.00     0.002 A 
ENDROOT
BRANCH   1   7
ATOM      7  C2  UNL d   1      -0.237   0.006   0.731  0.00  0.00     0.056 C 
BRANCH   7   8
ATOM      8  C1  UNL d   1      -0.213   1.302  -0.087  0.00  0.00     0.007 C 
ATOM      9  C   UNL d   1       0.830   2.299   0.399  0.00  0.00     0.009 C 
ENDBRANCH   7   8
ENDBRANCH   1   7
TORSDOF 2
ENDMDL
