MODEL 1
REMARK minimizedAffinity -4.72890902
REMARK minimizedRMSD -1
REMARK  2 active torsions:
REMARK  status: ('A' for Active; 'I' for Inactive)
REMARK    1  A    between atoms: C1_2  and  C2_3 
REMARK    2  A    between atoms: C2_3  and  C3_4 
ROOT
ATOM      1  C3  UNL d   1      -0.022  -0.974   0.302  0.00  0.00    -0.075 A 
ATOM      2  C4  UNL d   1       0.654  -1.913  -0.490  0.00  0.00     0.002 A 
ATOM      3  C5  UNL d   1       0.031  -3.103  -0.867  0.00  0.00     0.002 A 
ATOM      4  C6  UNL d   1      -1.270  -3.374  -0.449  0.00  0.00    -0.004 A 
ATOM      5  C7  UNL d   1      -1.946  -2.456   0.353  0.00  0.00     0.002 A 
ATOM      6  C8  UNL d   1      -1.326  -1.263   0.727  0.00  0.00     0.002 A 
ENDROOT
BRANCH   1   7
ATOM      7  C2  UNL d   1       0.636   0.328   0.688  0.00  0.00     0.056 C 
BRANCH   7   8
ATOM      8  C1  UNL d   1       0.159   1.534  -0.128  0.00  0.00     0.007 C 
ATOM      9  C   UNL d   1       0.859   2.832   0.254  0.00  0.00     0.009 C 
ENDBRANCH   7   8
ENDBRANCH   1   7
TORSDOF 2
ENDMDL
