MODEL 1
REMARK minimizedAffinity -5.09261274
REMARK minimizedRMSD -1
REMARK  2 active torsions:
REMARK  status: ('A' for Active; 'I' for Inactive)
REMARK    1  A    between atoms: C1_2  and  C2_3 
REMARK    2  A    between atoms: C2_3  and  C3_4 
ROOT
ATOM      1  C3  UNL d   1      -0.111  -0.343  -0.074  0.00  0.00    -0.075 A 
ATOM      2  C4  UNL d   1      -0.785  -0.909   1.018  0.00  0.00     0.002 A 
ATOM      3  C5  UNL d   1      -0.817  -2.293   1.189  0.00  0.00     0.002 A 
ATOM      4  C6  UNL d   1      -0.188  -3.128   0.268  0.00  0.00    -0.004 A 
ATOM      5  C7  UNL d   1       0.470  -2.576  -0.830  0.00  0.00     0.002 A 
ATOM      6  C8  UNL d   1       0.508  -1.191  -1.001  0.00  0.00     0.002 A 
ENDROOT
BRANCH   1   7
ATOM      7  C2  UNL d   1      -0.047   1.156  -0.249  0.00  0.00     0.056 C 
BRANCH   7   8
ATOM      8  C1  UNL d   1       1.373   1.729  -0.202  0.00  0.00     0.007 C 
ATOM      9  C   UNL d   1       1.481   2.998   0.632  0.00  0.00     0.009 C 
ENDBRANCH   7   8
ENDBRANCH   1   7
TORSDOF 2
ENDMDL
