MODEL 1
REMARK minimizedAffinity -4.04629612
REMARK minimizedRMSD -1
REMARK  2 active torsions:
REMARK  status: ('A' for Active; 'I' for Inactive)
REMARK    1  A    between atoms: C1_2  and  C2_3 
REMARK    2  A    between atoms: C2_3  and  C3_4 
ROOT
ATOM      1  C3  UNL d   1       0.447   1.709  -0.073  0.00  0.00    -0.075 A 
ATOM      2  C4  UNL d   1       1.750   1.728  -0.593  0.00  0.00     0.002 A 
ATOM      3  C5  UNL d   1       2.570   2.842  -0.411  0.00  0.00     0.002 A 
ATOM      4  C6  UNL d   1       2.096   3.953   0.283  0.00  0.00    -0.004 A 
ATOM      5  C7  UNL d   1       0.798   3.952   0.789  0.00  0.00     0.002 A 
ATOM      6  C8  UNL d   1      -0.023   2.837   0.612  0.00  0.00     0.002 A 
ENDROOT
BRANCH   1   7
ATOM      7  C2  UNL d   1      -0.435   0.495  -0.242  0.00  0.00     0.056 C 
BRANCH   7   8
ATOM      8  C1  UNL d   1       0.227  -0.820   0.183  0.00  0.00     0.007 C 
ATOM      9  C   UNL d   1      -0.579  -1.589   1.222  0.00  0.00     0.009 C 
ENDBRANCH   7   8
ENDBRANCH   1   7
TORSDOF 2
ENDMDL
