MODEL 1
REMARK minimizedAffinity -4.3723402
REMARK minimizedRMSD -1
REMARK  2 active torsions:
REMARK  status: ('A' for Active; 'I' for Inactive)
REMARK    1  A    between atoms: C1_2  and  C2_3 
REMARK    2  A    between atoms: C2_3  and  C3_4 
ROOT
ATOM      1  C3  UNL d   1      -0.165  -0.925  -0.426  0.00  0.00    -0.075 A 
ATOM      2  C4  UNL d   1       0.298  -0.885  -1.749  0.00  0.00     0.002 A 
ATOM      3  C5  UNL d   1       0.248  -2.024  -2.552  0.00  0.00     0.002 A 
ATOM      4  C6  UNL d   1      -0.254  -3.219  -2.041  0.00  0.00    -0.004 A 
ATOM      5  C7  UNL d   1      -0.701  -3.275  -0.722  0.00  0.00     0.002 A 
ATOM      6  C8  UNL d   1      -0.656  -2.135   0.082  0.00  0.00     0.002 A 
ENDROOT
BRANCH   1   7
ATOM      7  C2  UNL d   1      -0.141   0.312   0.440  0.00  0.00     0.056 C 
BRANCH   7   8
ATOM      8  C1  UNL d   1      -0.129   1.625  -0.350  0.00  0.00     0.007 C 
ATOM      9  C   UNL d   1       0.739   2.701   0.288  0.00  0.00     0.009 C 
ENDBRANCH   7   8
ENDBRANCH   1   7
TORSDOF 2
ENDMDL
