MODEL 1
REMARK minimizedAffinity -4.90764999
REMARK minimizedRMSD -1
REMARK  2 active torsions:
REMARK  status: ('A' for Active; 'I' for Inactive)
REMARK    1  A    between atoms: C1_2  and  C2_3 
REMARK    2  A    between atoms: C2_3  and  C3_4 
ROOT
ATOM      1  C3  UNL d   1      -0.346   0.734  -0.103  0.00  0.00    -0.075 A 
ATOM      2  C4  UNL d   1      -1.271   0.683   0.950  0.00  0.00     0.002 A 
ATOM      3  C5  UNL d   1      -1.632  -0.540   1.517  0.00  0.00     0.002 A 
ATOM      4  C6  UNL d   1      -1.081  -1.725   1.033  0.00  0.00    -0.004 A 
ATOM      5  C7  UNL d   1      -0.173  -1.687  -0.023  0.00  0.00     0.002 A 
ATOM      6  C8  UNL d   1       0.193  -0.465  -0.589  0.00  0.00     0.002 A 
ENDROOT
BRANCH   1   7
ATOM      7  C2  UNL d   1       0.071   2.056  -0.701  0.00  0.00     0.056 C 
BRANCH   7   8
ATOM      8  C1  UNL d   1       0.620   3.058   0.320  0.00  0.00     0.007 C 
ATOM      9  C   UNL d   1       2.040   3.514   0.010  0.00  0.00     0.009 C 
ENDBRANCH   7   8
ENDBRANCH   1   7
TORSDOF 2
ENDMDL
