MODEL 1
REMARK minimizedAffinity -6.13634968
REMARK minimizedRMSD -1
REMARK  2 active torsions:
REMARK  status: ('A' for Active; 'I' for Inactive)
REMARK    1  A    between atoms: C1_2  and  C2_3 
REMARK    2  A    between atoms: C2_3  and  C3_4 
ROOT
ATOM      1  C3  UNL d   1      -0.313   0.227   0.063  0.00  0.00    -0.075 A 
ATOM      2  C4  UNL d   1      -0.964  -0.286   1.193  0.00  0.00     0.002 A 
ATOM      3  C5  UNL d   1      -1.091  -1.664   1.373  0.00  0.00     0.002 A 
ATOM      4  C6  UNL d   1      -0.579  -2.544   0.423  0.00  0.00    -0.004 A 
ATOM      5  C7  UNL d   1       0.055  -2.045  -0.713  0.00  0.00     0.002 A 
ATOM      6  C8  UNL d   1       0.188  -0.667  -0.893  0.00  0.00     0.002 A 
ENDROOT
BRANCH   1   7
ATOM      7  C2  UNL d   1      -0.146   1.716  -0.123  0.00  0.00     0.056 C 
BRANCH   7   8
ATOM      8  C1  UNL d   1       1.304   2.158  -0.350  0.00  0.00     0.007 C 
ATOM      9  C   UNL d   1       1.633   3.495   0.300  0.00  0.00     0.009 C 
ENDBRANCH   7   8
ENDBRANCH   1   7
TORSDOF 2
ENDMDL
