MODEL 1
REMARK minimizedAffinity -4.70414305
REMARK minimizedRMSD -1
REMARK  2 active torsions:
REMARK  status: ('A' for Active; 'I' for Inactive)
REMARK    1  A    between atoms: C1_2  and  C2_3 
REMARK    2  A    between atoms: C2_3  and  C3_4 
ROOT
ATOM      1  C3  UNL d   1       0.130  -0.472  -0.335  0.00  0.00    -0.075 A 
ATOM      2  C4  UNL d   1       0.362  -1.380  -1.378  0.00  0.00     0.002 A 
ATOM      3  C5  UNL d   1       0.210  -2.751  -1.171  0.00  0.00     0.002 A 
ATOM      4  C6  UNL d   1      -0.165  -3.232   0.081  0.00  0.00    -0.004 A 
ATOM      5  C7  UNL d   1      -0.382  -2.341   1.129  0.00  0.00     0.002 A 
ATOM      6  C8  UNL d   1      -0.235  -0.968   0.924  0.00  0.00     0.002 A 
ENDROOT
BRANCH   1   7
ATOM      7  C2  UNL d   1       0.265   1.015  -0.560  0.00  0.00     0.056 C 
BRANCH   7   8
ATOM      8  C1  UNL d   1       1.020   1.749   0.553  0.00  0.00     0.007 C 
ATOM      9  C   UNL d   1       2.000   2.790   0.029  0.00  0.00     0.009 C 
ENDBRANCH   7   8
ENDBRANCH   1   7
TORSDOF 2
ENDMDL
