MODEL 1
REMARK minimizedAffinity -2.87347817
REMARK minimizedRMSD -1
REMARK  2 active torsions:
REMARK  status: ('A' for Active; 'I' for Inactive)
REMARK    1  A    between atoms: C1_2  and  C2_3 
REMARK    2  A    between atoms: C2_3  and  C3_4 
ROOT
ATOM      1  C3  UNL d   1       0.698   1.082  -0.124  0.00  0.00    -0.075 A 
ATOM      2  C4  UNL d   1       2.094   1.218  -0.120  0.00  0.00     0.002 A 
ATOM      3  C5  UNL d   1       2.683   2.469   0.067  0.00  0.00     0.002 A 
ATOM      4  C6  UNL d   1       1.887   3.599   0.242  0.00  0.00    -0.004 A 
ATOM      5  C7  UNL d   1       0.499   3.478   0.224  0.00  0.00     0.002 A 
ATOM      6  C8  UNL d   1      -0.093   2.227   0.041  0.00  0.00     0.002 A 
ENDROOT
BRANCH   1   7
ATOM      7  C2  UNL d   1       0.055  -0.273  -0.297  0.00  0.00     0.056 C 
BRANCH   7   8
ATOM      8  C1  UNL d   1      -0.761  -0.735   0.915  0.00  0.00     0.007 C 
ATOM      9  C   UNL d   1      -1.259  -2.169   0.792  0.00  0.00     0.009 C 
ENDBRANCH   7   8
ENDBRANCH   1   7
TORSDOF 2
ENDMDL
