MODEL 1
REMARK minimizedAffinity -5.00862789
REMARK minimizedRMSD -1
REMARK  2 active torsions:
REMARK  status: ('A' for Active; 'I' for Inactive)
REMARK    1  A    between atoms: C1_2  and  C2_3 
REMARK    2  A    between atoms: C2_3  and  C3_4 
ROOT
ATOM      1  C3  UNL d   1       0.004   0.466  -0.151  0.00  0.00    -0.075 A 
ATOM      2  C4  UNL d   1      -0.165  -0.526   0.826  0.00  0.00     0.002 A 
ATOM      3  C5  UNL d   1      -0.478  -1.835   0.460  0.00  0.00     0.002 A 
ATOM      4  C6  UNL d   1      -0.637  -2.167  -0.883  0.00  0.00    -0.004 A 
ATOM      5  C7  UNL d   1      -0.488  -1.187  -1.862  0.00  0.00     0.002 A 
ATOM      6  C8  UNL d   1      -0.170   0.123  -1.499  0.00  0.00     0.002 A 
ENDROOT
BRANCH   1   7
ATOM      7  C2  UNL d   1       0.372   1.878   0.236  0.00  0.00     0.056 C 
BRANCH   7   8
ATOM      8  C1  UNL d   1       1.837   2.050   0.649  0.00  0.00     0.007 C 
ATOM      9  C   UNL d   1       2.193   3.483   1.020  0.00  0.00     0.009 C 
ENDBRANCH   7   8
ENDBRANCH   1   7
TORSDOF 2
ENDMDL
