MODEL 1
REMARK minimizedAffinity -4.49589682
REMARK minimizedRMSD -1
REMARK  2 active torsions:
REMARK  status: ('A' for Active; 'I' for Inactive)
REMARK    1  A    between atoms: C1_2  and  C2_3 
REMARK    2  A    between atoms: C2_3  and  C3_4 
ROOT
ATOM      1  C3  UNL d   1      -0.024   0.270  -0.067  0.00  0.00    -0.075 A 
ATOM      2  C4  UNL d   1      -0.801   0.260   1.100  0.00  0.00     0.002 A 
ATOM      3  C5  UNL d   1      -1.098  -0.942   1.743  0.00  0.00     0.002 A 
ATOM      4  C6  UNL d   1      -0.632  -2.148   1.223  0.00  0.00    -0.004 A 
ATOM      5  C7  UNL d   1       0.127  -2.151   0.054  0.00  0.00     0.002 A 
ATOM      6  C8  UNL d   1       0.429  -0.949  -0.588  0.00  0.00     0.002 A 
ENDROOT
BRANCH   1   7
ATOM      7  C2  UNL d   1       0.325   1.570  -0.751  0.00  0.00     0.056 C 
BRANCH   7   8
ATOM      8  C1  UNL d   1       1.764   2.037  -0.506  0.00  0.00     0.007 C 
ATOM      9  C   UNL d   1       1.860   3.199   0.473  0.00  0.00     0.009 C 
ENDBRANCH   7   8
ENDBRANCH   1   7
TORSDOF 2
ENDMDL
