MODEL 1
REMARK minimizedAffinity -0.307799637
REMARK minimizedRMSD -1
REMARK  2 active torsions:
REMARK  status: ('A' for Active; 'I' for Inactive)
REMARK    1  A    between atoms: C1_2  and  C2_3 
REMARK    2  A    between atoms: C2_3  and  C3_4 
ROOT
ATOM      1  C3  UNL d   1      -0.257   0.069  -0.027  0.00  0.00    -0.075 A 
ATOM      2  C4  UNL d   1      -0.754  -0.982   0.757  0.00  0.00     0.002 A 
ATOM      3  C5  UNL d   1      -0.642  -2.304   0.324  0.00  0.00     0.002 A 
ATOM      4  C6  UNL d   1      -0.042  -2.590  -0.901  0.00  0.00    -0.004 A 
ATOM      5  C7  UNL d   1       0.441  -1.552  -1.695  0.00  0.00     0.002 A 
ATOM      6  C8  UNL d   1       0.334  -0.229  -1.262  0.00  0.00     0.002 A 
ENDROOT
BRANCH   1   7
ATOM      7  C2  UNL d   1      -0.349   1.499   0.451  0.00  0.00     0.056 C 
BRANCH   7   8
ATOM      8  C1  UNL d   1       0.734   1.890   1.462  0.00  0.00     0.007 C 
ATOM      9  C   UNL d   1       1.158   3.348   1.354  0.00  0.00     0.009 C 
ENDBRANCH   7   8
ENDBRANCH   1   7
TORSDOF 2
ENDMDL
