MODEL 1
REMARK minimizedAffinity -3.98791957
REMARK minimizedRMSD -1
REMARK  0 active torsions:
REMARK  status: ('A' for Active; 'I' for Inactive)
ROOT
ATOM      1  C1  DEN d   1       1.387   0.483  -1.126  0.00  0.00     0.130 A 
ATOM      2  C2  DEN d   1       0.651  -0.776  -1.049  0.00  0.00    -0.031 A 
ATOM      3  C3  DEN d   1      -0.721  -0.533  -1.540  0.00  0.00     0.027 A 
ATOM      4  C4  DEN d   1      -1.768   1.656  -2.413  0.00  0.00     0.027 A 
ATOM      5  C5  DEN d   1      -1.537   2.992  -2.657  0.00  0.00    -0.003 A 
ATOM      6  C6  DEN d   1      -0.336   3.588  -2.379  0.00  0.00     0.001 A 
ATOM      7  C7  DEN d   1       0.696   2.836  -1.881  0.00  0.00     0.017 A 
ATOM      8  C8  DEN d   1       0.468   1.490  -1.626  0.00  0.00    -0.094 A 
ATOM      9  C9  DEN d   1      -0.750   0.903  -1.926  0.00  0.00    -0.072 A 
ENDROOT
TORSDOF 0
ENDMDL
