MODEL 1
REMARK minimizedAffinity -2.8297081
REMARK minimizedRMSD -1
REMARK  0 active torsions:
REMARK  status: ('A' for Active; 'I' for Inactive)
ROOT
ATOM      1  C1  DEN d   1      -1.085   0.662  -0.761  0.00  0.00     0.130 A 
ATOM      2  C2  DEN d   1       0.317   0.354  -0.491  0.00  0.00    -0.031 A 
ATOM      3  C3  DEN d   1       1.146   1.390  -1.141  0.00  0.00     0.027 A 
ATOM      4  C4  DEN d   1       0.398   3.432  -2.527  0.00  0.00     0.027 A 
ATOM      5  C5  DEN d   1      -0.690   4.105  -3.038  0.00  0.00    -0.003 A 
ATOM      6  C6  DEN d   1      -1.974   3.662  -2.856  0.00  0.00     0.001 A 
ATOM      7  C7  DEN d   1      -2.204   2.539  -2.106  0.00  0.00     0.017 A 
ATOM      8  C8  DEN d   1      -1.112   1.851  -1.594  0.00  0.00    -0.094 A 
ATOM      9  C9  DEN d   1       0.177   2.322  -1.779  0.00  0.00    -0.072 A 
ENDROOT
TORSDOF 0
ENDMDL
