MODEL 1
REMARK minimizedAffinity -6.81040478
REMARK minimizedRMSD -1
REMARK  0 active torsions:
REMARK  status: ('A' for Active; 'I' for Inactive)
ROOT
ATOM      1  C1  DEN d   1      -0.288  -0.616  -1.002  0.00  0.00     0.130 A 
ATOM      2  C2  DEN d   1       0.980  -0.924  -1.658  0.00  0.00    -0.031 A 
ATOM      3  C3  DEN d   1       2.011  -1.072  -0.611  0.00  0.00     0.027 A 
ATOM      4  C4  DEN d   1       1.768  -0.860   1.948  0.00  0.00     0.027 A 
ATOM      5  C5  DEN d   1       0.887  -0.598   2.974  0.00  0.00    -0.003 A 
ATOM      6  C6  DEN d   1      -0.428  -0.292   2.747  0.00  0.00     0.001 A 
ATOM      7  C7  DEN d   1      -0.912  -0.286   1.465  0.00  0.00     0.017 A 
ATOM      8  C8  DEN d   1      -0.028  -0.542   0.425  0.00  0.00    -0.094 A 
ATOM      9  C9  DEN d   1       1.295  -0.861   0.676  0.00  0.00    -0.072 A 
ENDROOT
TORSDOF 0
ENDMDL
