MODEL 1
REMARK minimizedAffinity -4.23160076
REMARK minimizedRMSD -1
REMARK  0 active torsions:
REMARK  status: ('A' for Active; 'I' for Inactive)
ROOT
ATOM      1  C1  DEN d   1       0.024  -0.741  -1.154  0.00  0.00     0.130 A 
ATOM      2  C2  DEN d   1      -0.667   0.542  -1.236  0.00  0.00    -0.031 A 
ATOM      3  C3  DEN d   1      -0.461   1.254   0.041  0.00  0.00     0.027 A 
ATOM      4  C4  DEN d   1       0.859   0.500   2.124  0.00  0.00     0.027 A 
ATOM      5  C5  DEN d   1       1.609  -0.518   2.670  0.00  0.00    -0.003 A 
ATOM      6  C6  DEN d   1       1.853  -1.686   1.998  0.00  0.00     0.001 A 
ATOM      7  C7  DEN d   1       1.380  -1.847   0.723  0.00  0.00     0.017 A 
ATOM      8  C8  DEN d   1       0.616  -0.828   0.168  0.00  0.00    -0.094 A 
ATOM      9  C9  DEN d   1       0.391   0.350   0.859  0.00  0.00    -0.072 A 
ENDROOT
TORSDOF 0
ENDMDL
