MODEL 1
REMARK minimizedAffinity -6.76959944
REMARK minimizedRMSD -1
REMARK  0 active torsions:
REMARK  status: ('A' for Active; 'I' for Inactive)
ROOT
ATOM      1  C1  DEN d   1      -0.499   0.101   0.744  0.00  0.00     0.130 A 
ATOM      2  C2  DEN d   1      -0.177   0.189  -0.678  0.00  0.00    -0.031 A 
ATOM      3  C3  DEN d   1       1.137  -0.449  -0.890  0.00  0.00     0.027 A 
ATOM      4  C4  DEN d   1       2.696  -1.564   0.837  0.00  0.00     0.027 A 
ATOM      5  C5  DEN d   1       2.858  -1.872   2.169  0.00  0.00    -0.003 A 
ATOM      6  C6  DEN d   1       1.935  -1.517   3.118  0.00  0.00     0.001 A 
ATOM      7  C7  DEN d   1       0.787  -0.872   2.740  0.00  0.00     0.017 A 
ATOM      8  C8  DEN d   1       0.621  -0.552   1.399  0.00  0.00    -0.094 A 
ATOM      9  C9  DEN d   1       1.559  -0.930   0.454  0.00  0.00    -0.072 A 
ENDROOT
TORSDOF 0
ENDMDL
