MODEL 1
REMARK minimizedAffinity -3.79404211
REMARK minimizedRMSD -1
REMARK  0 active torsions:
REMARK  status: ('A' for Active; 'I' for Inactive)
ROOT
ATOM      1  C1  DEN d   1       1.694  -1.974   1.782  0.00  0.00     0.130 A 
ATOM      2  C2  DEN d   1       2.436  -2.190   0.544  0.00  0.00    -0.031 A 
ATOM      3  C3  DEN d   1       1.750  -1.449  -0.534  0.00  0.00     0.027 A 
ATOM      4  C4  DEN d   1      -0.375   0.006  -0.405  0.00  0.00     0.027 A 
ATOM      5  C5  DEN d   1      -1.363   0.478   0.430  0.00  0.00    -0.003 A 
ATOM      6  C6  DEN d   1      -1.421   0.141   1.757  0.00  0.00     0.001 A 
ATOM      7  C7  DEN d   1      -0.446  -0.656   2.297  0.00  0.00     0.017 A 
ATOM      8  C8  DEN d   1       0.549  -1.141   1.460  0.00  0.00    -0.094 A 
ATOM      9  C9  DEN d   1       0.597  -0.779   0.124  0.00  0.00    -0.072 A 
ENDROOT
TORSDOF 0
ENDMDL
