MODEL 1
REMARK minimizedAffinity -1.24433029
REMARK minimizedRMSD -1
REMARK  0 active torsions:
REMARK  status: ('A' for Active; 'I' for Inactive)
ROOT
ATOM      1  C1  DEN d   1      -0.091   1.108   0.722  0.00  0.00     0.130 A 
ATOM      2  C2  DEN d   1      -0.346  -0.329   0.768  0.00  0.00    -0.031 A 
ATOM      3  C3  DEN d   1      -0.923  -0.732  -0.530  0.00  0.00     0.027 A 
ATOM      4  C4  DEN d   1      -1.439   0.721  -2.597  0.00  0.00     0.027 A 
ATOM      5  C5  DEN d   1      -1.405   2.000  -3.107  0.00  0.00    -0.003 A 
ATOM      6  C6  DEN d   1      -0.967   3.068  -2.370  0.00  0.00     0.001 A 
ATOM      7  C7  DEN d   1      -0.501   2.870  -1.097  0.00  0.00     0.017 A 
ATOM      8  C8  DEN d   1      -0.539   1.584  -0.574  0.00  0.00    -0.094 A 
ATOM      9  C9  DEN d   1      -0.975   0.515  -1.339  0.00  0.00    -0.072 A 
ENDROOT
TORSDOF 0
ENDMDL
