MODEL 1
REMARK minimizedAffinity -4.48955584
REMARK minimizedRMSD -1
REMARK  0 active torsions:
REMARK  status: ('A' for Active; 'I' for Inactive)
ROOT
ATOM      1  C1  DEN d   1       0.199  -0.650   0.598  0.00  0.00     0.130 A 
ATOM      2  C2  DEN d   1      -0.662  -1.501   1.416  0.00  0.00    -0.031 A 
ATOM      3  C3  DEN d   1       0.143  -2.015   2.542  0.00  0.00     0.027 A 
ATOM      4  C4  DEN d   1       2.623  -1.576   3.099  0.00  0.00     0.027 A 
ATOM      5  C5  DEN d   1       3.767  -0.928   2.690  0.00  0.00    -0.003 A 
ATOM      6  C6  DEN d   1       3.811  -0.176   1.546  0.00  0.00     0.001 A 
ATOM      7  C7  DEN d   1       2.677  -0.016   0.795  0.00  0.00     0.017 A 
ATOM      8  C8  DEN d   1       1.521  -0.672   1.197  0.00  0.00    -0.094 A 
ATOM      9  C9  DEN d   1       1.494  -1.418   2.363  0.00  0.00    -0.072 A 
ENDROOT
TORSDOF 0
ENDMDL
