MODEL 1
REMARK minimizedAffinity -1.44162977
REMARK minimizedRMSD -1
REMARK  0 active torsions:
REMARK  status: ('A' for Active; 'I' for Inactive)
ROOT
ATOM      1  O1  BZF d   1       1.223   0.504  -3.420  0.00  0.00    -0.204 OA
ATOM      2  C2  BZF d   1       1.439   1.856  -3.605  0.00  0.00     0.174 A 
ATOM      3  C3  BZF d   1       1.130   2.548  -2.490  0.00  0.00    -0.012 A 
ATOM      4  C3A BZF d   1       0.780   1.558  -1.518  0.00  0.00    -0.107 A 
ATOM      5  C4  BZF d   1       0.394   1.622  -0.210  0.00  0.00     0.055 A 
ATOM      6  C5  BZF d   1       0.054   0.475   0.436  0.00  0.00    -0.016 A 
ATOM      7  C6  BZF d   1       0.083  -0.750  -0.198  0.00  0.00     0.022 A 
ATOM      8  C7  BZF d   1       0.463  -0.864  -1.493  0.00  0.00     0.029 A 
ATOM      9  C7A BZF d   1       0.839   0.288  -2.138  0.00  0.00     0.058 A 
ENDROOT
TORSDOF 0
ENDMDL
