MODEL 1
REMARK minimizedAffinity -4.21587658
REMARK minimizedRMSD -1
REMARK  0 active torsions:
REMARK  status: ('A' for Active; 'I' for Inactive)
ROOT
ATOM      1  O1  BZF d   1      -0.342   1.283   0.640  0.00  0.00    -0.204 OA
ATOM      2  C2  BZF d   1       0.793   0.956  -0.076  0.00  0.00     0.174 A 
ATOM      3  C3  BZF d   1       1.152  -0.324   0.155  0.00  0.00    -0.012 A 
ATOM      4  C3A BZF d   1       0.128  -0.855   1.002  0.00  0.00    -0.107 A 
ATOM      5  C4  BZF d   1      -0.084  -2.082   1.562  0.00  0.00     0.055 A 
ATOM      6  C5  BZF d   1      -1.142  -2.252   2.398  0.00  0.00    -0.016 A 
ATOM      7  C6  BZF d   1      -2.002  -1.217   2.700  0.00  0.00     0.022 A 
ATOM      8  C7  BZF d   1      -1.835   0.017   2.165  0.00  0.00     0.029 A 
ATOM      9  C7A BZF d   1      -0.787   0.183   1.294  0.00  0.00     0.058 A 
ENDROOT
TORSDOF 0
ENDMDL
