MODEL 1
REMARK minimizedAffinity -0.298598528
REMARK minimizedRMSD -1
REMARK  0 active torsions:
REMARK  status: ('A' for Active; 'I' for Inactive)
ROOT
ATOM      1  O1  BZF d   1       1.192   1.486  -0.066  0.00  0.00    -0.204 OA
ATOM      2  C2  BZF d   1       1.954   0.363  -0.324  0.00  0.00     0.174 A 
ATOM      3  C3  BZF d   1       1.245  -0.760  -0.087  0.00  0.00    -0.012 A 
ATOM      4  C3A BZF d   1      -0.069  -0.310   0.257  0.00  0.00    -0.107 A 
ATOM      5  C4  BZF d   1      -1.227  -0.956   0.583  0.00  0.00     0.055 A 
ATOM      6  C5  BZF d   1      -2.315  -0.223   0.937  0.00  0.00    -0.016 A 
ATOM      7  C6  BZF d   1      -2.279   1.156   0.981  0.00  0.00     0.022 A 
ATOM      8  C7  BZF d   1      -1.154   1.841   0.660  0.00  0.00     0.029 A 
ATOM      9  C7A BZF d   1      -0.063   1.104   0.270  0.00  0.00     0.058 A 
ENDROOT
TORSDOF 0
ENDMDL
