MODEL 1
REMARK minimizedAffinity -4.53762388
REMARK minimizedRMSD -1
REMARK  0 active torsions:
REMARK  status: ('A' for Active; 'I' for Inactive)
ROOT
ATOM      1  O1  BZF d   1       0.048   1.302  -1.906  0.00  0.00    -0.204 OA
ATOM      2  C2  BZF d   1       0.178   0.848  -0.608  0.00  0.00     0.174 A 
ATOM      3  C3  BZF d   1       1.470   0.868  -0.221  0.00  0.00    -0.012 A 
ATOM      4  C3A BZF d   1       2.181   1.452  -1.317  0.00  0.00    -0.107 A 
ATOM      5  C4  BZF d   1       3.497   1.753  -1.528  0.00  0.00     0.055 A 
ATOM      6  C5  BZF d   1       3.875   2.250  -2.735  0.00  0.00    -0.016 A 
ATOM      7  C6  BZF d   1       2.966   2.453  -3.753  0.00  0.00     0.022 A 
ATOM      8  C7  BZF d   1       1.650   2.174  -3.589  0.00  0.00     0.029 A 
ATOM      9  C7A BZF d   1       1.260   1.703  -2.360  0.00  0.00     0.058 A 
ENDROOT
TORSDOF 0
ENDMDL
