MODEL 1
REMARK minimizedAffinity -5.67794085
REMARK minimizedRMSD -1
REMARK  0 active torsions:
REMARK  status: ('A' for Active; 'I' for Inactive)
ROOT
ATOM      1  O1  BZF d   1       0.170   0.817  -0.188  0.00  0.00    -0.204 OA
ATOM      2  C2  BZF d   1       0.766   0.864  -1.433  0.00  0.00     0.174 A 
ATOM      3  C3  BZF d   1       0.929  -0.378  -1.932  0.00  0.00    -0.012 A 
ATOM      4  C3A BZF d   1       0.317  -1.251  -0.978  0.00  0.00    -0.107 A 
ATOM      5  C4  BZF d   1       0.142  -2.604  -0.920  0.00  0.00     0.055 A 
ATOM      6  C5  BZF d   1      -0.432  -3.149   0.185  0.00  0.00    -0.016 A 
ATOM      7  C6  BZF d   1      -0.837  -2.372   1.251  0.00  0.00     0.022 A 
ATOM      8  C7  BZF d   1      -0.689  -1.025   1.237  0.00  0.00     0.029 A 
ATOM      9  C7A BZF d   1      -0.140  -0.468   0.108  0.00  0.00     0.058 A 
ENDROOT
TORSDOF 0
ENDMDL
