MODEL 1
REMARK minimizedAffinity -2.44907522
REMARK minimizedRMSD -1
REMARK  0 active torsions:
REMARK  status: ('A' for Active; 'I' for Inactive)
ROOT
ATOM      1  O1  BZF d   1       0.156   0.084  -0.897  0.00  0.00    -0.204 OA
ATOM      2  C2  BZF d   1       1.409   0.328  -0.368  0.00  0.00     0.174 A 
ATOM      3  C3  BZF d   1       1.555  -0.289   0.822  0.00  0.00    -0.012 A 
ATOM      4  C3A BZF d   1       0.349  -1.036   1.009  0.00  0.00    -0.107 A 
ATOM      5  C4  BZF d   1      -0.098  -1.867   1.996  0.00  0.00     0.055 A 
ATOM      6  C5  BZF d   1      -1.353  -2.380   1.911  0.00  0.00    -0.016 A 
ATOM      7  C6  BZF d   1      -2.190  -2.080   0.856  0.00  0.00     0.022 A 
ATOM      8  C7  BZF d   1      -1.790  -1.265  -0.150  0.00  0.00     0.029 A 
ATOM      9  C7A BZF d   1      -0.510  -0.771  -0.083  0.00  0.00     0.058 A 
ENDROOT
TORSDOF 0
ENDMDL
