MODEL 1
REMARK minimizedAffinity -4.72337627
REMARK minimizedRMSD -1
REMARK  0 active torsions:
REMARK  status: ('A' for Active; 'I' for Inactive)
ROOT
ATOM      1  O1  BZF d   1      -2.298  -0.540   2.191  0.00  0.00    -0.204 OA
ATOM      2  C2  BZF d   1      -2.009  -1.890   2.229  0.00  0.00     0.174 A 
ATOM      3  C3  BZF d   1      -0.940  -2.173   1.458  0.00  0.00    -0.012 A 
ATOM      4  C3A BZF d   1      -0.479  -0.908   0.975  0.00  0.00    -0.107 A 
ATOM      5  C4  BZF d   1       0.560  -0.531   0.173  0.00  0.00     0.055 A 
ATOM      6  C5  BZF d   1       0.691   0.778  -0.166  0.00  0.00    -0.016 A 
ATOM      7  C6  BZF d   1      -0.200   1.735   0.273  0.00  0.00     0.022 A 
ATOM      8  C7  BZF d   1      -1.243   1.410   1.074  0.00  0.00     0.029 A 
ATOM      9  C7A BZF d   1      -1.360   0.093   1.446  0.00  0.00     0.058 A 
ENDROOT
TORSDOF 0
ENDMDL
