MODEL 1
REMARK minimizedAffinity -5.15283537
REMARK minimizedRMSD -1
REMARK  0 active torsions:
REMARK  status: ('A' for Active; 'I' for Inactive)
ROOT
ATOM      1  O1  BZF d   1       0.779   0.610   0.802  0.00  0.00    -0.204 OA
ATOM      2  C2  BZF d   1       0.936   1.171  -0.451  0.00  0.00     0.174 A 
ATOM      3  C3  BZF d   1       0.346   0.408  -1.394  0.00  0.00    -0.012 A 
ATOM      4  C3A BZF d   1      -0.295  -0.650  -0.675  0.00  0.00    -0.107 A 
ATOM      5  C4  BZF d   1      -1.057  -1.717  -1.057  0.00  0.00     0.055 A 
ATOM      6  C5  BZF d   1      -1.469  -2.605  -0.115  0.00  0.00    -0.016 A 
ATOM      7  C6  BZF d   1      -1.134  -2.460   1.215  0.00  0.00     0.022 A 
ATOM      8  C7  BZF d   1      -0.384  -1.415   1.643  0.00  0.00     0.029 A 
ATOM      9  C7A BZF d   1       0.006  -0.498   0.698  0.00  0.00     0.058 A 
ENDROOT
TORSDOF 0
ENDMDL
