MODEL 1
REMARK minimizedAffinity -4.43290138
REMARK minimizedRMSD -1
REMARK  0 active torsions:
REMARK  status: ('A' for Active; 'I' for Inactive)
ROOT
ATOM      1  O1  BZF d   1       0.908   0.288   1.126  0.00  0.00    -0.204 OA
ATOM      2  C2  BZF d   1       0.355   1.479   0.698  0.00  0.00     0.174 A 
ATOM      3  C3  BZF d   1      -0.922   1.299   0.302  0.00  0.00    -0.012 A 
ATOM      4  C3A BZF d   1      -1.212  -0.074   0.581  0.00  0.00    -0.107 A 
ATOM      5  C4  BZF d   1      -2.325  -0.849   0.424  0.00  0.00     0.055 A 
ATOM      6  C5  BZF d   1      -2.257  -2.172   0.727  0.00  0.00    -0.016 A 
ATOM      7  C6  BZF d   1      -1.093  -2.753   1.185  0.00  0.00     0.022 A 
ATOM      8  C7  BZF d   1       0.036  -2.024   1.362  0.00  0.00     0.029 A 
ATOM      9  C7A BZF d   1      -0.039  -0.680   1.088  0.00  0.00     0.058 A 
ENDROOT
TORSDOF 0
ENDMDL
