MODEL 1
REMARK minimizedAffinity -3.58785057
REMARK minimizedRMSD -1
REMARK  0 active torsions:
REMARK  status: ('A' for Active; 'I' for Inactive)
ROOT
ATOM      1  O1  BZF d   1      -0.422   0.793   0.209  0.00  0.00    -0.204 OA
ATOM      2  C2  BZF d   1       0.750   1.175  -0.414  0.00  0.00     0.174 A 
ATOM      3  C3  BZF d   1       1.652   0.173  -0.392  0.00  0.00    -0.012 A 
ATOM      4  C3A BZF d   1       0.971  -0.933   0.207  0.00  0.00    -0.107 A 
ATOM      5  C4  BZF d   1       1.336  -2.218   0.490  0.00  0.00     0.055 A 
ATOM      6  C5  BZF d   1       0.460  -3.025   1.144  0.00  0.00    -0.016 A 
ATOM      7  C6  BZF d   1      -0.786  -2.579   1.534  0.00  0.00     0.022 A 
ATOM      8  C7  BZF d   1      -1.195  -1.314   1.270  0.00  0.00     0.029 A 
ATOM      9  C7A BZF d   1      -0.324  -0.506   0.580  0.00  0.00     0.058 A 
ENDROOT
TORSDOF 0
ENDMDL
