MODEL 1
REMARK minimizedAffinity -4.84075356
REMARK minimizedRMSD -1
REMARK  0 active torsions:
REMARK  status: ('A' for Active; 'I' for Inactive)
ROOT
ATOM      1  O1  BZF d   1      -0.416  -3.125   1.511  0.00  0.00    -0.204 OA
ATOM      2  C2  BZF d   1      -1.732  -2.943   1.130  0.00  0.00     0.174 A 
ATOM      3  C3  BZF d   1      -1.886  -1.767   0.488  0.00  0.00    -0.012 A 
ATOM      4  C3A BZF d   1      -0.568  -1.219   0.385  0.00  0.00    -0.107 A 
ATOM      5  C4  BZF d   1      -0.068  -0.074  -0.165  0.00  0.00     0.055 A 
ATOM      6  C5  BZF d   1       1.256   0.200  -0.031  0.00  0.00    -0.016 A 
ATOM      7  C6  BZF d   1       2.107  -0.646   0.650  0.00  0.00     0.022 A 
ATOM      8  C7  BZF d   1       1.658  -1.797   1.208  0.00  0.00     0.029 A 
ATOM      9  C7A BZF d   1       0.327  -2.092   1.046  0.00  0.00     0.058 A 
ENDROOT
TORSDOF 0
ENDMDL
