MODEL 1
REMARK minimizedAffinity -0.870584488
REMARK minimizedRMSD -1
REMARK  0 active torsions:
REMARK  status: ('A' for Active; 'I' for Inactive)
ROOT
ATOM      1  O1  BZF d   1      -0.399   1.008   0.399  0.00  0.00    -0.204 OA
ATOM      2  C2  BZF d   1      -0.116   1.403  -0.894  0.00  0.00     0.174 A 
ATOM      3  C3  BZF d   1       0.443   0.393  -1.591  0.00  0.00    -0.012 A 
ATOM      4  C3A BZF d   1       0.428  -0.730  -0.704  0.00  0.00    -0.107 A 
ATOM      5  C4  BZF d   1       0.833  -2.028  -0.826  0.00  0.00     0.055 A 
ATOM      6  C5  BZF d   1       0.747  -2.851   0.252  0.00  0.00    -0.016 A 
ATOM      7  C6  BZF d   1       0.266  -2.409   1.467  0.00  0.00     0.022 A 
ATOM      8  C7  BZF d   1      -0.153  -1.131   1.635  0.00  0.00     0.029 A 
ATOM      9  C7A BZF d   1      -0.098  -0.305   0.538  0.00  0.00     0.058 A 
ENDROOT
TORSDOF 0
ENDMDL
