MODEL 1
REMARK minimizedAffinity -4.88988638
REMARK minimizedRMSD -1
REMARK  0 active torsions:
REMARK  status: ('A' for Active; 'I' for Inactive)
ROOT
ATOM      1  O1  BZF d   1       0.029  -0.276  -0.887  0.00  0.00    -0.204 OA
ATOM      2  C2  BZF d   1       0.381   0.389   0.271  0.00  0.00     0.174 A 
ATOM      3  C3  BZF d   1       0.930   1.588  -0.014  0.00  0.00    -0.012 A 
ATOM      4  C3A BZF d   1       0.836   1.716  -1.436  0.00  0.00    -0.107 A 
ATOM      5  C4  BZF d   1       1.197   2.696  -2.316  0.00  0.00     0.055 A 
ATOM      6  C5  BZF d   1       1.036   2.480  -3.648  0.00  0.00    -0.016 A 
ATOM      7  C6  BZF d   1       0.521   1.296  -4.134  0.00  0.00     0.022 A 
ATOM      8  C7  BZF d   1       0.144   0.297  -3.300  0.00  0.00     0.029 A 
ATOM      9  C7A BZF d   1       0.275   0.525  -1.952  0.00  0.00     0.058 A 
ENDROOT
TORSDOF 0
ENDMDL
