MODEL 1
REMARK minimizedAffinity -4.41678429
REMARK minimizedRMSD -1
REMARK  0 active torsions:
REMARK  status: ('A' for Active; 'I' for Inactive)
ROOT
ATOM      1  O1  BZF d   1      -1.483  -1.500   1.488  0.00  0.00    -0.204 OA
ATOM      2  C2  BZF d   1      -0.872  -2.700   1.797  0.00  0.00     0.174 A 
ATOM      3  C3  BZF d   1       0.325  -2.799   1.185  0.00  0.00    -0.012 A 
ATOM      4  C3A BZF d   1       0.513  -1.545   0.522  0.00  0.00    -0.107 A 
ATOM      5  C4  BZF d   1       1.521  -1.029  -0.243  0.00  0.00     0.055 A 
ATOM      6  C5  BZF d   1       1.362   0.200  -0.802  0.00  0.00    -0.016 A 
ATOM      7  C6  BZF d   1       0.210   0.936  -0.622  0.00  0.00     0.022 A 
ATOM      8  C7  BZF d   1      -0.815   0.468   0.132  0.00  0.00     0.029 A 
ATOM      9  C7A BZF d   1      -0.644  -0.759   0.725  0.00  0.00     0.058 A 
ENDROOT
TORSDOF 0
ENDMDL
