MODEL 1
REMARK minimizedAffinity -2.84684205
REMARK minimizedRMSD -1
REMARK  0 active torsions:
REMARK  status: ('A' for Active; 'I' for Inactive)
ROOT
ATOM      1  O1  BZF d   1       0.452  -1.680  -0.606  0.00  0.00    -0.204 OA
ATOM      2  C2  BZF d   1       0.490  -1.516   0.766  0.00  0.00     0.174 A 
ATOM      3  C3  BZF d   1       0.912  -0.276   1.088  0.00  0.00    -0.012 A 
ATOM      4  C3A BZF d   1       1.064   0.406  -0.160  0.00  0.00    -0.107 A 
ATOM      5  C4  BZF d   1       1.443   1.674  -0.497  0.00  0.00     0.055 A 
ATOM      6  C5  BZF d   1       1.560   2.001  -1.811  0.00  0.00    -0.016 A 
ATOM      7  C6  BZF d   1       1.311   1.086  -2.812  0.00  0.00     0.022 A 
ATOM      8  C7  BZF d   1       0.928  -0.183  -2.527  0.00  0.00     0.029 A 
ATOM      9  C7A BZF d   1       0.777  -0.507  -1.201  0.00  0.00     0.058 A 
ENDROOT
TORSDOF 0
ENDMDL
