MODEL 1
REMARK minimizedAffinity -2.69735146
REMARK minimizedRMSD -1
REMARK  0 active torsions:
REMARK  status: ('A' for Active; 'I' for Inactive)
ROOT
ATOM      1  O1  BZF d   1       1.209   0.216  -3.516  0.00  0.00    -0.204 OA
ATOM      2  C2  BZF d   1       1.288   1.576  -3.743  0.00  0.00     0.174 A 
ATOM      3  C3  BZF d   1       0.925   2.267  -2.643  0.00  0.00    -0.012 A 
ATOM      4  C3A BZF d   1       0.687   1.276  -1.638  0.00  0.00    -0.107 A 
ATOM      5  C4  BZF d   1       0.314   1.340  -0.326  0.00  0.00     0.055 A 
ATOM      6  C5  BZF d   1       0.097   0.185   0.356  0.00  0.00    -0.016 A 
ATOM      7  C6  BZF d   1       0.239  -1.049  -0.242  0.00  0.00     0.022 A 
ATOM      8  C7  BZF d   1       0.613  -1.164  -1.540  0.00  0.00     0.029 A 
ATOM      9  C7A BZF d   1       0.865   0.001  -2.223  0.00  0.00     0.058 A 
ENDROOT
TORSDOF 0
ENDMDL
