MODEL 1
REMARK minimizedAffinity -2.03675938
REMARK minimizedRMSD -1
REMARK  0 active torsions:
REMARK  status: ('A' for Active; 'I' for Inactive)
ROOT
ATOM      1  O1  BZF d   1       1.690   0.246  -3.078  0.00  0.00    -0.204 OA
ATOM      2  C2  BZF d   1       1.835   1.615  -2.959  0.00  0.00     0.174 A 
ATOM      3  C3  BZF d   1       1.468   2.029  -1.729  0.00  0.00    -0.012 A 
ATOM      4  C3A BZF d   1       1.158   0.834  -1.006  0.00  0.00    -0.107 A 
ATOM      5  C4  BZF d   1       0.747   0.590   0.274  0.00  0.00     0.055 A 
ATOM      6  C5  BZF d   1       0.460  -0.685   0.643  0.00  0.00    -0.016 A 
ATOM      7  C6  BZF d   1       0.567  -1.739  -0.240  0.00  0.00     0.022 A 
ATOM      8  C7  BZF d   1       0.975  -1.548  -1.519  0.00  0.00     0.029 A 
ATOM      9  C7A BZF d   1       1.298  -0.264  -1.886  0.00  0.00     0.058 A 
ENDROOT
TORSDOF 0
ENDMDL
