MODEL 1
REMARK minimizedAffinity -1.36068439
REMARK minimizedRMSD -1
REMARK  0 active torsions:
REMARK  status: ('A' for Active; 'I' for Inactive)
ROOT
ATOM      1  O1  BZF d   1       2.080   0.524  -2.856  0.00  0.00    -0.204 OA
ATOM      2  C2  BZF d   1       2.266   1.891  -2.925  0.00  0.00     0.174 A 
ATOM      3  C3  BZF d   1       1.631   2.512  -1.910  0.00  0.00    -0.012 A 
ATOM      4  C3A BZF d   1       1.087   1.460  -1.107  0.00  0.00    -0.107 A 
ATOM      5  C4  BZF d   1       0.361   1.441   0.049  0.00  0.00     0.055 A 
ATOM      6  C5  BZF d   1      -0.078   0.249   0.534  0.00  0.00    -0.016 A 
ATOM      7  C6  BZF d   1       0.186  -0.940  -0.114  0.00  0.00     0.022 A 
ATOM      8  C7  BZF d   1       0.906  -0.972  -1.261  0.00  0.00     0.029 A 
ATOM      9  C7A BZF d   1       1.379   0.227  -1.736  0.00  0.00     0.058 A 
ENDROOT
TORSDOF 0
ENDMDL
