MODEL 1
REMARK minimizedAffinity -2.719033
REMARK minimizedRMSD -1
REMARK  0 active torsions:
REMARK  status: ('A' for Active; 'I' for Inactive)
ROOT
ATOM      1  O1  BZF d   1      -0.350   0.522  -1.549  0.00  0.00    -0.204 OA
ATOM      2  C2  BZF d   1       0.308   1.725  -1.385  0.00  0.00     0.174 A 
ATOM      3  C3  BZF d   1       1.243   1.630  -0.417  0.00  0.00    -0.012 A 
ATOM      4  C3A BZF d   1       1.227   0.259  -0.011  0.00  0.00    -0.107 A 
ATOM      5  C4  BZF d   1       1.942  -0.458   0.906  0.00  0.00     0.055 A 
ATOM      6  C5  BZF d   1       1.631  -1.764   1.111  0.00  0.00    -0.016 A 
ATOM      7  C6  BZF d   1       0.609  -2.385   0.423  0.00  0.00     0.022 A 
ATOM      8  C7  BZF d   1      -0.125  -1.717  -0.500  0.00  0.00     0.029 A 
ATOM      9  C7A BZF d   1       0.209  -0.405  -0.734  0.00  0.00     0.058 A 
ENDROOT
TORSDOF 0
ENDMDL
