MODEL 1
REMARK minimizedAffinity 6.12250137
REMARK minimizedRMSD -1
REMARK  2 active torsions:
REMARK  status: ('A' for Active; 'I' for Inactive)
REMARK    1  A    between atoms: C1_2  and  C2_3 
REMARK    2  A    between atoms: C2_3  and  C3_4 
ROOT
ATOM      1  C3  UNL d   1       0.557  -0.896   3.568  0.00  0.00    -0.075 A 
ATOM      2  C4  UNL d   1      -0.174  -1.989   3.079  0.00  0.00     0.002 A 
ATOM      3  C5  UNL d   1      -0.179  -3.202   3.768  0.00  0.00     0.002 A 
ATOM      4  C6  UNL d   1       0.553  -3.342   4.945  0.00  0.00    -0.004 A 
ATOM      5  C7  UNL d   1       1.295  -2.268   5.431  0.00  0.00     0.002 A 
ATOM      6  C8  UNL d   1       1.299  -1.051   4.747  0.00  0.00     0.002 A 
ENDROOT
BRANCH   1   7
ATOM      7  C2  UNL d   1       0.543   0.429   2.844  0.00  0.00     0.056 C 
BRANCH   7   8
ATOM      8  C1  UNL d   1      -0.812   0.788   2.226  0.00  0.00     0.007 C 
ATOM      9  C   UNL d   1      -0.763   2.036   1.355  0.00  0.00     0.009 C 
ENDBRANCH   7   8
ENDBRANCH   1   7
TORSDOF 2
ENDMDL
