MODEL 1
REMARK minimizedAffinity 18.6976776
REMARK minimizedRMSD -1
REMARK  2 active torsions:
REMARK  status: ('A' for Active; 'I' for Inactive)
REMARK    1  A    between atoms: C1_2  and  C2_3 
REMARK    2  A    between atoms: C2_3  and  C3_4 
ROOT
ATOM      1  C3  UNL d   1      -4.454   2.568  -3.882  0.00  0.00    -0.075 A 
ATOM      2  C4  UNL d   1      -3.563   3.215  -4.750  0.00  0.00     0.002 A 
ATOM      3  C5  UNL d   1      -2.724   2.474  -5.584  0.00  0.00     0.002 A 
ATOM      4  C6  UNL d   1      -2.758   1.082  -5.553  0.00  0.00    -0.004 A 
ATOM      5  C7  UNL d   1      -3.628   0.429  -4.683  0.00  0.00     0.002 A 
ATOM      6  C8  UNL d   1      -4.472   1.167  -3.851  0.00  0.00     0.002 A 
ENDROOT
BRANCH   1   7
ATOM      7  C2  UNL d   1      -5.386   3.363  -2.999  0.00  0.00     0.056 C 
BRANCH   7   8
ATOM      8  C1  UNL d   1      -5.943   2.574  -1.809  0.00  0.00     0.007 C 
ATOM      9  C   UNL d   1      -6.000   3.388  -0.523  0.00  0.00     0.009 C 
ENDBRANCH   7   8
ENDBRANCH   1   7
TORSDOF 2
ENDMDL
