MODEL 1
REMARK minimizedAffinity 6.55061388
REMARK minimizedRMSD -1
REMARK  2 active torsions:
REMARK  status: ('A' for Active; 'I' for Inactive)
REMARK    1  A    between atoms: C1_2  and  C2_3 
REMARK    2  A    between atoms: C2_3  and  C3_4 
ROOT
ATOM      1  C3  UNL d   1       1.903   0.009   0.147  0.00  0.00    -0.075 A 
ATOM      2  C4  UNL d   1       1.646   0.180   1.515  0.00  0.00     0.002 A 
ATOM      3  C5  UNL d   1       0.553   0.933   1.942  0.00  0.00     0.002 A 
ATOM      4  C6  UNL d   1      -0.291   1.533   1.009  0.00  0.00    -0.004 A 
ATOM      5  C7  UNL d   1      -0.035   1.384  -0.353  0.00  0.00     0.002 A 
ATOM      6  C8  UNL d   1       1.056   0.627  -0.783  0.00  0.00     0.002 A 
ENDROOT
BRANCH   1   7
ATOM      7  C2  UNL d   1       3.068  -0.829  -0.322  0.00  0.00     0.056 C 
BRANCH   7   8
ATOM      8  C1  UNL d   1       4.432  -0.148  -0.161  0.00  0.00     0.007 C 
ATOM      9  C   UNL d   1       4.922   0.523  -1.437  0.00  0.00     0.009 C 
ENDBRANCH   7   8
ENDBRANCH   1   7
TORSDOF 2
ENDMDL
