MODEL 1
REMARK minimizedAffinity 15.2256908
REMARK minimizedRMSD -1
REMARK  2 active torsions:
REMARK  status: ('A' for Active; 'I' for Inactive)
REMARK    1  A    between atoms: C1_2  and  C2_3 
REMARK    2  A    between atoms: C2_3  and  C3_4 
ROOT
ATOM      1  C3  UNL d   1       1.976   0.398   0.077  0.00  0.00    -0.075 A 
ATOM      2  C4  UNL d   1       1.018   0.937  -0.795  0.00  0.00     0.002 A 
ATOM      3  C5  UNL d   1      -0.005   1.750  -0.307  0.00  0.00     0.002 A 
ATOM      4  C6  UNL d   1      -0.089   2.027   1.056  0.00  0.00    -0.004 A 
ATOM      5  C7  UNL d   1       0.847   1.484   1.933  0.00  0.00     0.002 A 
ATOM      6  C8  UNL d   1       1.874   0.673   1.447  0.00  0.00     0.002 A 
ENDROOT
BRANCH   1   7
ATOM      7  C2  UNL d   1       3.103  -0.459  -0.448  0.00  0.00     0.056 C 
BRANCH   7   8
ATOM      8  C1  UNL d   1       4.368   0.326  -0.809  0.00  0.00     0.007 C 
ATOM      9  C   UNL d   1       5.478   0.185   0.223  0.00  0.00     0.009 C 
ENDBRANCH   7   8
ENDBRANCH   1   7
TORSDOF 2
ENDMDL
