MODEL 1
REMARK minimizedAffinity 0.979529679
REMARK minimizedRMSD -1
REMARK  2 active torsions:
REMARK  status: ('A' for Active; 'I' for Inactive)
REMARK    1  A    between atoms: C1_2  and  C2_3 
REMARK    2  A    between atoms: C2_3  and  C3_4 
ROOT
ATOM      1  C3  UNL d   1      -0.755  -2.849  -2.155  0.00  0.00    -0.075 A 
ATOM      2  C4  UNL d   1      -0.720  -1.850  -3.138  0.00  0.00     0.002 A 
ATOM      3  C5  UNL d   1      -1.248  -2.086  -4.407  0.00  0.00     0.002 A 
ATOM      4  C6  UNL d   1      -1.807  -3.325  -4.713  0.00  0.00    -0.004 A 
ATOM      5  C7  UNL d   1      -1.832  -4.331  -3.750  0.00  0.00     0.002 A 
ATOM      6  C8  UNL d   1      -1.309  -4.096  -2.477  0.00  0.00     0.002 A 
ENDROOT
BRANCH   1   7
ATOM      7  C2  UNL d   1      -0.212  -2.591  -0.770  0.00  0.00     0.056 C 
BRANCH   7   8
ATOM      8  C1  UNL d   1       1.101  -1.802  -0.752  0.00  0.00     0.007 C 
ATOM      9  C   UNL d   1       1.021  -0.521   0.068  0.00  0.00     0.009 C 
ENDBRANCH   7   8
ENDBRANCH   1   7
TORSDOF 2
ENDMDL
