MODEL 1
REMARK minimizedAffinity -4.09857559
REMARK minimizedRMSD -1
REMARK  0 active torsions:
REMARK  status: ('A' for Active; 'I' for Inactive)
ROOT
ATOM      1  C1  BNZ d   1      -1.667  -0.603   1.756  0.00  0.00     0.000 A 
ATOM      2  C2  BNZ d   1      -1.033  -0.610   0.542  0.00  0.00     0.000 A 
ATOM      3  C3  BNZ d   1       0.317  -0.414   0.457  0.00  0.00     0.000 A 
ATOM      4  C4  BNZ d   1       1.024  -0.172   1.579  0.00  0.00     0.000 A 
ATOM      5  C5  BNZ d   1       0.398  -0.153   2.810  0.00  0.00     0.000 A 
ATOM      6  C6  BNZ d   1      -0.955  -0.389   2.896  0.00  0.00     0.000 A 
ENDROOT
TORSDOF 0
ENDMDL
