MODEL 1
REMARK minimizedAffinity -4.91119862
REMARK minimizedRMSD -1
REMARK  0 active torsions:
REMARK  status: ('A' for Active; 'I' for Inactive)
ROOT
ATOM      1  C1  BNZ d   1       0.631   0.154   0.241  0.00  0.00     0.000 A 
ATOM      2  C2  BNZ d   1       1.314   0.165   1.427  0.00  0.00     0.000 A 
ATOM      3  C3  BNZ d   1       0.706  -0.222   2.589  0.00  0.00     0.000 A 
ATOM      4  C4  BNZ d   1      -0.594  -0.581   2.568  0.00  0.00     0.000 A 
ATOM      5  C5  BNZ d   1      -1.299  -0.588   1.381  0.00  0.00     0.000 A 
ATOM      6  C6  BNZ d   1      -0.672  -0.235   0.208  0.00  0.00     0.000 A 
ENDROOT
TORSDOF 0
ENDMDL
