MODEL 1
REMARK minimizedAffinity -2.49742293
REMARK minimizedRMSD -1
REMARK  0 active torsions:
REMARK  status: ('A' for Active; 'I' for Inactive)
ROOT
ATOM      1  C1  BNZ d   1      -1.071  -1.452   1.523  0.00  0.00     0.000 A 
ATOM      2  C2  BNZ d   1      -0.603  -1.150   0.272  0.00  0.00     0.000 A 
ATOM      3  C3  BNZ d   1       0.410  -0.248   0.103  0.00  0.00     0.000 A 
ATOM      4  C4  BNZ d   1       0.926   0.379   1.180  0.00  0.00     0.000 A 
ATOM      5  C5  BNZ d   1       0.458   0.092   2.447  0.00  0.00     0.000 A 
ATOM      6  C6  BNZ d   1      -0.535  -0.845   2.617  0.00  0.00     0.000 A 
ENDROOT
TORSDOF 0
ENDMDL
