MODEL 1
REMARK minimizedAffinity -4.52604771
REMARK minimizedRMSD -1
REMARK  0 active torsions:
REMARK  status: ('A' for Active; 'I' for Inactive)
ROOT
ATOM      1  C1  BNZ d   1      -1.190  -0.379   0.444  0.00  0.00     0.000 A 
ATOM      2  C2  BNZ d   1      -0.698   0.275  -0.654  0.00  0.00     0.000 A 
ATOM      3  C3  BNZ d   1       0.514   0.906  -0.608  0.00  0.00     0.000 A 
ATOM      4  C4  BNZ d   1       1.213   0.916   0.545  0.00  0.00     0.000 A 
ATOM      5  C5  BNZ d   1       0.726   0.269   1.663  0.00  0.00     0.000 A 
ATOM      6  C6  BNZ d   1      -0.476  -0.397   1.602  0.00  0.00     0.000 A 
ENDROOT
TORSDOF 0
ENDMDL
