MODEL 1
REMARK minimizedAffinity -3.88960791
REMARK minimizedRMSD -1
REMARK  0 active torsions:
REMARK  status: ('A' for Active; 'I' for Inactive)
ROOT
ATOM      1  C1  BNZ d   1      -1.410  -0.951   1.515  0.00  0.00     0.000 A 
ATOM      2  C2  BNZ d   1      -1.053  -0.632   0.232  0.00  0.00     0.000 A 
ATOM      3  C3  BNZ d   1       0.072   0.103  -0.019  0.00  0.00     0.000 A 
ATOM      4  C4  BNZ d   1       0.816   0.551   1.013  0.00  0.00     0.000 A 
ATOM      5  C5  BNZ d   1       0.464   0.245   2.312  0.00  0.00     0.000 A 
ATOM      6  C6  BNZ d   1      -0.648  -0.528   2.560  0.00  0.00     0.000 A 
ENDROOT
TORSDOF 0
ENDMDL
