MODEL 1
REMARK minimizedAffinity -4.23865318
REMARK minimizedRMSD -1
REMARK  0 active torsions:
REMARK  status: ('A' for Active; 'I' for Inactive)
ROOT
ATOM      1  C1  BNZ d   1      -1.361  -0.250   2.562  0.00  0.00     0.000 A 
ATOM      2  C2  BNZ d   1      -1.986  -0.176   1.346  0.00  0.00     0.000 A 
ATOM      3  C3  BNZ d   1      -1.263  -0.016   0.197  0.00  0.00     0.000 A 
ATOM      4  C4  BNZ d   1       0.078   0.110   0.268  0.00  0.00     0.000 A 
ATOM      5  C5  BNZ d   1       0.722   0.047   1.488  0.00  0.00     0.000 A 
ATOM      6  C6  BNZ d   1      -0.005  -0.154   2.639  0.00  0.00     0.000 A 
ENDROOT
TORSDOF 0
ENDMDL
