MODEL 1
REMARK minimizedAffinity -4.26862335
REMARK minimizedRMSD -1
REMARK  0 active torsions:
REMARK  status: ('A' for Active; 'I' for Inactive)
ROOT
ATOM      1  C1  BNZ d   1      -1.125  -0.302   1.875  0.00  0.00     0.000 A 
ATOM      2  C2  BNZ d   1      -0.305  -0.304   2.971  0.00  0.00     0.000 A 
ATOM      3  C3  BNZ d   1       0.986   0.138   2.880  0.00  0.00     0.000 A 
ATOM      4  C4  BNZ d   1       1.466   0.541   1.686  0.00  0.00     0.000 A 
ATOM      5  C5  BNZ d   1       0.654   0.540   0.570  0.00  0.00     0.000 A 
ATOM      6  C6  BNZ d   1      -0.656   0.132   0.673  0.00  0.00     0.000 A 
ENDROOT
TORSDOF 0
ENDMDL
