MODEL 1
REMARK minimizedAffinity -4.73587942
REMARK minimizedRMSD -1
REMARK  0 active torsions:
REMARK  status: ('A' for Active; 'I' for Inactive)
ROOT
ATOM      1  C1  BNZ d   1       1.056   0.047   2.157  0.00  0.00     0.000 A 
ATOM      2  C2  BNZ d   1       1.563   0.350   0.921  0.00  0.00     0.000 A 
ATOM      3  C3  BNZ d   1       0.786   0.244  -0.199  0.00  0.00     0.000 A 
ATOM      4  C4  BNZ d   1      -0.482  -0.202  -0.087  0.00  0.00     0.000 A 
ATOM      5  C5  BNZ d   1      -1.004  -0.520   1.151  0.00  0.00     0.000 A 
ATOM      6  C6  BNZ d   1      -0.232  -0.375   2.281  0.00  0.00     0.000 A 
ENDROOT
TORSDOF 0
ENDMDL
