MODEL 1
REMARK minimizedAffinity -4.73007488
REMARK minimizedRMSD -1
REMARK  0 active torsions:
REMARK  status: ('A' for Active; 'I' for Inactive)
ROOT
ATOM      1  C1  BNZ d   1      -2.381   0.225   0.445  0.00  0.00     0.000 A 
ATOM      2  C2  BNZ d   1      -2.832   0.160   1.736  0.00  0.00     0.000 A 
ATOM      3  C3  BNZ d   1      -1.955   0.061   2.780  0.00  0.00     0.000 A 
ATOM      4  C4  BNZ d   1      -0.632  -0.013   2.530  0.00  0.00     0.000 A 
ATOM      5  C5  BNZ d   1      -0.162   0.042   1.233  0.00  0.00     0.000 A 
ATOM      6  C6  BNZ d   1      -1.045   0.181   0.187  0.00  0.00     0.000 A 
ENDROOT
TORSDOF 0
ENDMDL
