MODEL 1
REMARK minimizedAffinity -3.43232632
REMARK minimizedRMSD -1
REMARK  0 active torsions:
REMARK  status: ('A' for Active; 'I' for Inactive)
ROOT
ATOM      1  C1  BNZ d   1      -0.101  -0.729  -1.785  0.00  0.00     0.000 A 
ATOM      2  C2  BNZ d   1       0.043  -1.820  -2.601  0.00  0.00     0.000 A 
ATOM      3  C3  BNZ d   1       1.055  -1.878  -3.519  0.00  0.00     0.000 A 
ATOM      4  C4  BNZ d   1       1.896  -0.831  -3.646  0.00  0.00     0.000 A 
ATOM      5  C5  BNZ d   1       1.757   0.279  -2.837  0.00  0.00     0.000 A 
ATOM      6  C6  BNZ d   1       0.762   0.318  -1.888  0.00  0.00     0.000 A 
ENDROOT
TORSDOF 0
ENDMDL
