MODEL 1
REMARK minimizedAffinity -4.33107901
REMARK minimizedRMSD -1
REMARK  0 active torsions:
REMARK  status: ('A' for Active; 'I' for Inactive)
ROOT
ATOM      1  C1  BNZ d   1      -0.922  -0.636   2.197  0.00  0.00     0.000 A 
ATOM      2  C2  BNZ d   1      -1.507  -0.537   0.963  0.00  0.00     0.000 A 
ATOM      3  C3  BNZ d   1      -0.762  -0.233  -0.142  0.00  0.00     0.000 A 
ATOM      4  C4  BNZ d   1       0.557   0.010  -0.006  0.00  0.00     0.000 A 
ATOM      5  C5  BNZ d   1       1.160  -0.078   1.233  0.00  0.00     0.000 A 
ATOM      6  C6  BNZ d   1       0.415  -0.422   2.337  0.00  0.00     0.000 A 
ENDROOT
TORSDOF 0
ENDMDL
