MODEL 1
REMARK minimizedAffinity -2.15911245
REMARK minimizedRMSD -1
REMARK  0 active torsions:
REMARK  status: ('A' for Active; 'I' for Inactive)
ROOT
ATOM      1  C1  BNZ d   1       2.179  -1.322  -4.188  0.00  0.00     0.000 A 
ATOM      2  C2  BNZ d   1       1.695  -0.081  -3.870  0.00  0.00     0.000 A 
ATOM      3  C3  BNZ d   1       0.704   0.067  -2.941  0.00  0.00     0.000 A 
ATOM      4  C4  BNZ d   1       0.172  -1.028  -2.359  0.00  0.00     0.000 A 
ATOM      5  C5  BNZ d   1       0.643  -2.286  -2.675  0.00  0.00     0.000 A 
ATOM      6  C6  BNZ d   1       1.667  -2.429  -3.583  0.00  0.00     0.000 A 
ENDROOT
TORSDOF 0
ENDMDL
