MODEL 1
REMARK minimizedAffinity -4.34080124
REMARK minimizedRMSD -1
REMARK  0 active torsions:
REMARK  status: ('A' for Active; 'I' for Inactive)
ROOT
ATOM      1  C1  BNZ d   1       0.633   0.100   0.944  0.00  0.00     0.000 A 
ATOM      2  C2  BNZ d   1       0.048  -0.205   2.144  0.00  0.00     0.000 A 
ATOM      3  C3  BNZ d   1      -1.293  -0.457   2.225  0.00  0.00     0.000 A 
ATOM      4  C4  BNZ d   1      -2.053  -0.365   1.115  0.00  0.00     0.000 A 
ATOM      5  C5  BNZ d   1      -1.480  -0.049  -0.100  0.00  0.00     0.000 A 
ATOM      6  C6  BNZ d   1      -0.123   0.165  -0.185  0.00  0.00     0.000 A 
ENDROOT
TORSDOF 0
ENDMDL
