MODEL 1
REMARK minimizedAffinity -5.21317959
REMARK minimizedRMSD -1
REMARK  1 active torsions:
REMARK  status: ('A' for Active; 'I' for Inactive)
REMARK    1  A    between atoms: C1_2  and  C2_3 
ROOT
ATOM      1  C2  UNL d   1      -0.433   0.161   0.022  0.00  0.00    -0.073 A 
ATOM      2  C3  UNL d   1      -0.800  -0.598   1.138  0.00  0.00    -0.002 A 
ATOM      3  C4  UNL d   1      -0.933  -1.984   1.037  0.00  0.00     0.004 A 
ATOM      4  C5  UNL d   1      -0.693  -2.625  -0.179  0.00  0.00    -0.004 A 
ATOM      5  C6  UNL d   1      -0.313  -1.885  -1.303  0.00  0.00    -0.075 A 
ATOM      6  C7  UNL d   1      -0.053  -2.558  -2.619  0.00  0.00     0.076 C 
ATOM      7  C8  UNL d   1      -0.185  -0.493  -1.194  0.00  0.00     0.001 A 
ENDROOT
BRANCH   1   8
ATOM      8  C1  UNL d   1      -0.282   1.656   0.128  0.00  0.00     0.053 C 
ATOM      9  C   UNL d   1       1.166   2.095  -0.024  0.00  0.00     0.018 C 
ENDBRANCH   1   8
TORSDOF 1
ENDMDL
