MODEL 1
REMARK minimizedAffinity -4.21803236
REMARK minimizedRMSD -1
REMARK  1 active torsions:
REMARK  status: ('A' for Active; 'I' for Inactive)
REMARK    1  A    between atoms: C1_2  and  C2_3 
ROOT
ATOM      1  C2  UNL d   1       0.086   0.310   0.515  0.00  0.00    -0.073 A 
ATOM      2  C3  UNL d   1      -0.076   0.270  -0.874  0.00  0.00    -0.002 A 
ATOM      3  C4  UNL d   1       0.379   1.325  -1.667  0.00  0.00     0.004 A 
ATOM      4  C5  UNL d   1       1.005   2.425  -1.081  0.00  0.00    -0.004 A 
ATOM      5  C6  UNL d   1       1.186   2.478   0.305  0.00  0.00    -0.075 A 
ATOM      6  C7  UNL d   1       1.856   3.655   0.951  0.00  0.00     0.076 C 
ATOM      7  C8  UNL d   1       0.725   1.416   1.095  0.00  0.00     0.001 A 
ENDROOT
BRANCH   1   8
ATOM      8  C1  UNL d   1      -0.397  -0.829   1.375  0.00  0.00     0.053 C 
ATOM      9  C   UNL d   1      -0.368  -2.156   0.632  0.00  0.00     0.018 C 
ENDBRANCH   1   8
TORSDOF 1
ENDMDL
