MODEL 1
REMARK minimizedAffinity -3.61578417
REMARK minimizedRMSD -1
REMARK  1 active torsions:
REMARK  status: ('A' for Active; 'I' for Inactive)
REMARK    1  A    between atoms: C1_2  and  C2_3 
ROOT
ATOM      1  C2  UNL d   1      -0.285  -1.360  -1.160  0.00  0.00    -0.073 A 
ATOM      2  C3  UNL d   1      -0.864  -1.918  -0.015  0.00  0.00    -0.002 A 
ATOM      3  C4  UNL d   1      -1.019  -1.152   1.141  0.00  0.00     0.004 A 
ATOM      4  C5  UNL d   1      -0.603   0.179   1.163  0.00  0.00    -0.004 A 
ATOM      5  C6  UNL d   1      -0.032   0.758   0.025  0.00  0.00    -0.075 A 
ATOM      6  C7  UNL d   1       0.422   2.188   0.033  0.00  0.00     0.076 C 
ATOM      7  C8  UNL d   1       0.122  -0.018  -1.132  0.00  0.00     0.001 A 
ENDROOT
BRANCH   1   8
ATOM      8  C1  UNL d   1      -0.122  -2.180  -2.413  0.00  0.00     0.053 C 
ATOM      9  C   UNL d   1      -0.677  -3.587  -2.250  0.00  0.00     0.018 C 
ENDBRANCH   1   8
TORSDOF 1
ENDMDL
