MODEL 1
REMARK minimizedAffinity -0.943956137
REMARK minimizedRMSD -1
REMARK  1 active torsions:
REMARK  status: ('A' for Active; 'I' for Inactive)
REMARK    1  A    between atoms: C1_2  and  C2_3 
ROOT
ATOM      1  C2  UNL d   1       0.655   0.761   0.448  0.00  0.00    -0.073 A 
ATOM      2  C3  UNL d   1      -0.522   1.388   0.873  0.00  0.00    -0.002 A 
ATOM      3  C4  UNL d   1      -1.660   0.633   1.158  0.00  0.00     0.004 A 
ATOM      4  C5  UNL d   1      -1.632  -0.755   1.028  0.00  0.00    -0.004 A 
ATOM      5  C6  UNL d   1      -0.462  -1.402   0.617  0.00  0.00    -0.075 A 
ATOM      6  C7  UNL d   1      -0.416  -2.894   0.470  0.00  0.00     0.076 C 
ATOM      7  C8  UNL d   1       0.676  -0.636   0.330  0.00  0.00     0.001 A 
ENDROOT
BRANCH   1   8
ATOM      8  C1  UNL d   1       1.888   1.572   0.145  0.00  0.00     0.053 C 
ATOM      9  C   UNL d   1       1.959   2.837   0.986  0.00  0.00     0.018 C 
ENDBRANCH   1   8
TORSDOF 1
ENDMDL
