MODEL 1
REMARK minimizedAffinity -3.99813581
REMARK minimizedRMSD -1
REMARK  1 active torsions:
REMARK  status: ('A' for Active; 'I' for Inactive)
REMARK    1  A    between atoms: C1_2  and  C2_3 
ROOT
ATOM      1  C2  UNL d   1      -0.058   0.173  -0.028  0.00  0.00    -0.073 A 
ATOM      2  C3  UNL d   1      -0.560  -0.519   1.080  0.00  0.00    -0.002 A 
ATOM      3  C4  UNL d   1      -0.915  -1.864   0.970  0.00  0.00     0.004 A 
ATOM      4  C5  UNL d   1      -0.766  -2.532  -0.245  0.00  0.00    -0.004 A 
ATOM      5  C6  UNL d   1      -0.255  -1.861  -1.361  0.00  0.00    -0.075 A 
ATOM      6  C7  UNL d   1      -0.090  -2.565  -2.676  0.00  0.00     0.076 C 
ATOM      7  C8  UNL d   1       0.097  -0.510  -1.243  0.00  0.00     0.001 A 
ENDROOT
BRANCH   1   8
ATOM      8  C1  UNL d   1       0.332   1.624   0.088  0.00  0.00     0.053 C 
ATOM      9  C   UNL d   1       1.823   1.832  -0.129  0.00  0.00     0.018 C 
ENDBRANCH   1   8
TORSDOF 1
ENDMDL
