MODEL 1
REMARK minimizedAffinity 0.3219513
REMARK minimizedRMSD -1
REMARK  1 active torsions:
REMARK  status: ('A' for Active; 'I' for Inactive)
REMARK    1  A    between atoms: C1_2  and  C2_3 
ROOT
ATOM      1  C2  UNL d   1       0.677   1.687   0.175  0.00  0.00    -0.073 A 
ATOM      2  C3  UNL d   1      -0.459   1.760   0.990  0.00  0.00    -0.002 A 
ATOM      3  C4  UNL d   1      -1.413   0.742   0.962  0.00  0.00     0.004 A 
ATOM      4  C5  UNL d   1      -1.238  -0.361   0.126  0.00  0.00    -0.004 A 
ATOM      5  C6  UNL d   1      -0.104  -0.458  -0.686  0.00  0.00    -0.075 A 
ATOM      6  C7  UNL d   1       0.098  -1.637  -1.592  0.00  0.00     0.076 C 
ATOM      7  C8  UNL d   1       0.849   0.570  -0.654  0.00  0.00     0.001 A 
ENDROOT
BRANCH   1   8
ATOM      8  C1  UNL d   1       1.713   2.781   0.207  0.00  0.00     0.053 C 
ATOM      9  C   UNL d   1       1.942   3.310   1.614  0.00  0.00     0.018 C 
ENDBRANCH   1   8
TORSDOF 1
ENDMDL
