MODEL 1
REMARK minimizedAffinity 8.72175312
REMARK minimizedRMSD -1
REMARK  1 active torsions:
REMARK  status: ('A' for Active; 'I' for Inactive)
REMARK    1  A    between atoms: C1_2  and  C2_3 
ROOT
ATOM      1  C2  UNL d   1       1.897  -0.107   1.544  0.00  0.00    -0.081 A 
ATOM      2  C3  UNL d   1       3.175  -0.651   1.720  0.00  0.00     0.006 A 
ATOM      3  C4  UNL d   1       4.082  -0.689   0.658  0.00  0.00     0.002 A 
ATOM      4  C5  UNL d   1       3.729  -0.176  -0.595  0.00  0.00    -0.080 A 
ATOM      5  C6  UNL d   1       4.703  -0.183  -1.735  0.00  0.00     0.076 C 
ATOM      6  C7  UNL d   1       2.446   0.352  -0.775  0.00  0.00     0.002 A 
ATOM      7  C8  UNL d   1       1.539   0.390   0.286  0.00  0.00     0.006 A 
ENDROOT
BRANCH   1   8
ATOM      8  C1  UNL d   1       0.941  -0.006   2.705  0.00  0.00     0.054 C 
ATOM      9  C   UNL d   1       1.579  -0.504   3.993  0.00  0.00     0.018 C 
ENDBRANCH   1   8
TORSDOF 1
ENDMDL
