MODEL 1
REMARK minimizedAffinity 8.68925571
REMARK minimizedRMSD -1
REMARK  1 active torsions:
REMARK  status: ('A' for Active; 'I' for Inactive)
REMARK    1  A    between atoms: C1_2  and  C2_3 
ROOT
ATOM      1  C2  UNL d   1      -1.136  -3.235  -2.118  0.00  0.00    -0.081 A 
ATOM      2  C3  UNL d   1      -1.725  -2.213  -2.872  0.00  0.00     0.006 A 
ATOM      3  C4  UNL d   1      -2.260  -2.482  -4.134  0.00  0.00     0.002 A 
ATOM      4  C5  UNL d   1      -2.223  -3.779  -4.659  0.00  0.00    -0.080 A 
ATOM      5  C6  UNL d   1      -2.821  -4.087  -5.999  0.00  0.00     0.076 C 
ATOM      6  C7  UNL d   1      -1.619  -4.796  -3.913  0.00  0.00     0.002 A 
ATOM      7  C8  UNL d   1      -1.083  -4.527  -2.651  0.00  0.00     0.006 A 
ENDROOT
BRANCH   1   8
ATOM      8  C1  UNL d   1      -0.616  -2.961  -0.730  0.00  0.00     0.054 C 
ATOM      9  C   UNL d   1      -1.676  -2.296   0.137  0.00  0.00     0.018 C 
ENDBRANCH   1   8
TORSDOF 1
ENDMDL
