MODEL 1
REMARK minimizedAffinity -2.60043216
REMARK minimizedRMSD -1
REMARK  0 active torsions:
REMARK  status: ('A' for Active; 'I' for Inactive)
ROOT
ATOM      1  C   UNL d   1       1.879   2.069   1.650  0.00  0.00     0.077 C 
ATOM      2  C1  UNL d   1       0.927   1.307   0.778  0.00  0.00    -0.074 A 
ATOM      3  C2  UNL d   1       0.321   1.914  -0.327  0.00  0.00    -0.005 A 
ATOM      4  C3  UNL d   1      -0.555   1.190  -1.136  0.00  0.00     0.006 A 
ATOM      5  C4  UNL d   1      -0.834  -0.146  -0.848  0.00  0.00    -0.005 A 
ATOM      6  C5  UNL d   1      -0.238  -0.771   0.252  0.00  0.00    -0.074 A 
ATOM      7  C6  UNL d   1      -0.519  -2.209   0.570  0.00  0.00     0.077 C 
ATOM      8  C7  UNL d   1       0.647  -0.038   1.055  0.00  0.00    -0.001 A 
ENDROOT
TORSDOF 0
ENDMDL
