MODEL 1
REMARK minimizedAffinity -4.35197544
REMARK minimizedRMSD -1
REMARK  0 active torsions:
REMARK  status: ('A' for Active; 'I' for Inactive)
ROOT
ATOM      1  C   UNL d   1       0.794   2.426   0.949  0.00  0.00     0.077 C 
ATOM      2  C1  UNL d   1       0.303   1.186   0.263  0.00  0.00    -0.074 A 
ATOM      3  C2  UNL d   1       0.478   1.009  -1.113  0.00  0.00    -0.005 A 
ATOM      4  C3  UNL d   1       0.024  -0.154  -1.736  0.00  0.00     0.006 A 
ATOM      5  C4  UNL d   1      -0.607  -1.150  -0.991  0.00  0.00    -0.005 A 
ATOM      6  C5  UNL d   1      -0.790  -0.991   0.387  0.00  0.00    -0.074 A 
ATOM      7  C6  UNL d   1      -1.458  -2.056   1.205  0.00  0.00     0.077 C 
ATOM      8  C7  UNL d   1      -0.325   0.177   1.007  0.00  0.00    -0.001 A 
ENDROOT
TORSDOF 0
ENDMDL
