MODEL 1
REMARK minimizedAffinity -0.549860418
REMARK minimizedRMSD -1
REMARK  0 active torsions:
REMARK  status: ('A' for Active; 'I' for Inactive)
ROOT
ATOM      1  C   UNL d   1       0.750   0.717  -2.076  0.00  0.00     0.077 C 
ATOM      2  C1  UNL d   1       0.035   0.293  -0.828  0.00  0.00    -0.074 A 
ATOM      3  C2  UNL d   1      -0.605   1.232  -0.013  0.00  0.00    -0.005 A 
ATOM      4  C3  UNL d   1      -1.275   0.822   1.140  0.00  0.00     0.006 A 
ATOM      5  C4  UNL d   1      -1.311  -0.529   1.489  0.00  0.00    -0.005 A 
ATOM      6  C5  UNL d   1      -0.678  -1.482   0.685  0.00  0.00    -0.074 A 
ATOM      7  C6  UNL d   1      -0.716  -2.939   1.040  0.00  0.00     0.077 C 
ATOM      8  C7  UNL d   1      -0.013  -1.063  -0.476  0.00  0.00    -0.001 A 
ENDROOT
TORSDOF 0
ENDMDL
