MODEL 1
REMARK minimizedAffinity -3.84922886
REMARK minimizedRMSD -1
REMARK  0 active torsions:
REMARK  status: ('A' for Active; 'I' for Inactive)
ROOT
ATOM      1  C   UNL d   1       0.050  -3.104   0.511  0.00  0.00     0.077 C 
ATOM      2  C1  UNL d   1       0.273  -1.831  -0.251  0.00  0.00    -0.074 A 
ATOM      3  C2  UNL d   1       0.649  -1.857  -1.598  0.00  0.00    -0.005 A 
ATOM      4  C3  UNL d   1       0.843  -0.665  -2.296  0.00  0.00     0.006 A 
ATOM      5  C4  UNL d   1       0.665   0.562  -1.656  0.00  0.00    -0.005 A 
ATOM      6  C5  UNL d   1       0.288   0.607  -0.310  0.00  0.00    -0.074 A 
ATOM      7  C6  UNL d   1       0.082   1.917   0.391  0.00  0.00     0.077 C 
ATOM      8  C7  UNL d   1       0.088  -0.595   0.383  0.00  0.00    -0.001 A 
ENDROOT
TORSDOF 0
ENDMDL
