MODEL 1
REMARK minimizedAffinity 1.31977892
REMARK minimizedRMSD -1
REMARK  0 active torsions:
REMARK  status: ('A' for Active; 'I' for Inactive)
ROOT
ATOM      1  C   UNL d   1       4.979  -3.060   1.835  0.00  0.00     0.077 C 
ATOM      2  C1  UNL d   1       5.340  -3.192   3.285  0.00  0.00    -0.074 A 
ATOM      3  C2  UNL d   1       5.655  -2.066   4.053  0.00  0.00    -0.005 A 
ATOM      4  C3  UNL d   1       5.980  -2.204   5.403  0.00  0.00     0.006 A 
ATOM      5  C4  UNL d   1       5.992  -3.466   5.997  0.00  0.00    -0.005 A 
ATOM      6  C5  UNL d   1       5.678  -4.603   5.246  0.00  0.00    -0.074 A 
ATOM      7  C6  UNL d   1       5.677  -5.966   5.872  0.00  0.00     0.077 C 
ATOM      8  C7  UNL d   1       5.347  -4.456   3.892  0.00  0.00    -0.001 A 
ENDROOT
TORSDOF 0
ENDMDL
