MODEL 1
REMARK minimizedAffinity -0.232555389
REMARK minimizedRMSD -1
REMARK  0 active torsions:
REMARK  status: ('A' for Active; 'I' for Inactive)
ROOT
ATOM      1  C   UNL d   1       0.461   2.467   0.346  0.00  0.00     0.077 C 
ATOM      2  C1  UNL d   1       0.195   1.141  -0.303  0.00  0.00    -0.074 A 
ATOM      3  C2  UNL d   1       0.475   0.934  -1.657  0.00  0.00    -0.005 A 
ATOM      4  C3  UNL d   1       0.230  -0.307  -2.244  0.00  0.00     0.006 A 
ATOM      5  C4  UNL d   1      -0.296  -1.352  -1.484  0.00  0.00    -0.005 A 
ATOM      6  C5  UNL d   1      -0.582  -1.164  -0.128  0.00  0.00    -0.074 A 
ATOM      7  C6  UNL d   1      -1.138  -2.280   0.706  0.00  0.00     0.077 C 
ATOM      8  C7  UNL d   1      -0.327   0.084   0.456  0.00  0.00    -0.001 A 
ENDROOT
TORSDOF 0
ENDMDL
