MODEL 1
REMARK minimizedAffinity -2.42953777
REMARK minimizedRMSD -1
REMARK  0 active torsions:
REMARK  status: ('A' for Active; 'I' for Inactive)
ROOT
ATOM      1  C   UNL d   1      -0.702  -3.655  -1.091  0.00  0.00     0.077 C 
ATOM      2  C1  UNL d   1      -0.624  -2.304  -0.444  0.00  0.00    -0.074 A 
ATOM      3  C2  UNL d   1      -1.080  -2.106   0.864  0.00  0.00    -0.005 A 
ATOM      4  C3  UNL d   1      -0.993  -0.846   1.455  0.00  0.00     0.006 A 
ATOM      5  C4  UNL d   1      -0.449   0.226   0.747  0.00  0.00    -0.005 A 
ATOM      6  C5  UNL d   1       0.012   0.047  -0.560  0.00  0.00    -0.074 A 
ATOM      7  C6  UNL d   1       0.608   1.187  -1.332  0.00  0.00     0.077 C 
ATOM      8  C7  UNL d   1      -0.072  -1.224  -1.146  0.00  0.00    -0.001 A 
ENDROOT
TORSDOF 0
ENDMDL
