MODEL 1
REMARK minimizedAffinity -3.11105323
REMARK minimizedRMSD -1
REMARK  0 active torsions:
REMARK  status: ('A' for Active; 'I' for Inactive)
ROOT
ATOM      1  C   UNL d   1       1.221   2.090   0.401  0.00  0.00     0.077 C 
ATOM      2  C1  UNL d   1       0.689   0.885  -0.316  0.00  0.00    -0.074 A 
ATOM      3  C2  UNL d   1       0.739   0.798  -1.711  0.00  0.00    -0.005 A 
ATOM      4  C3  UNL d   1       0.249  -0.333  -2.364  0.00  0.00     0.006 A 
ATOM      5  C4  UNL d   1      -0.294  -1.388  -1.629  0.00  0.00    -0.005 A 
ATOM      6  C5  UNL d   1      -0.352  -1.319  -0.234  0.00  0.00    -0.074 A 
ATOM      7  C6  UNL d   1      -0.924  -2.448   0.572  0.00  0.00     0.077 C 
ATOM      8  C7  UNL d   1       0.149  -0.182   0.415  0.00  0.00    -0.001 A 
ENDROOT
TORSDOF 0
ENDMDL
