MODEL 1
REMARK minimizedAffinity -2.81764293
REMARK minimizedRMSD -1
REMARK  0 active torsions:
REMARK  status: ('A' for Active; 'I' for Inactive)
ROOT
ATOM      1  C   UNL d   1      -0.684  -1.400   0.680  0.00  0.00     0.077 C 
ATOM      2  C1  UNL d   1      -0.110  -0.061   0.324  0.00  0.00    -0.074 A 
ATOM      3  C2  UNL d   1      -0.434   0.561  -0.886  0.00  0.00    -0.005 A 
ATOM      4  C3  UNL d   1       0.100   1.811  -1.199  0.00  0.00     0.006 A 
ATOM      5  C4  UNL d   1       0.961   2.451  -0.307  0.00  0.00    -0.005 A 
ATOM      6  C5  UNL d   1       1.296   1.845   0.908  0.00  0.00    -0.074 A 
ATOM      7  C6  UNL d   1       2.212   2.523   1.883  0.00  0.00     0.077 C 
ATOM      8  C7  UNL d   1       0.750   0.592   1.219  0.00  0.00    -0.001 A 
ENDROOT
TORSDOF 0
ENDMDL
