MODEL 1
REMARK minimizedAffinity -2.43413162
REMARK minimizedRMSD -1
REMARK  0 active torsions:
REMARK  status: ('A' for Active; 'I' for Inactive)
ROOT
ATOM      1  C   UNL d   1       0.549  -1.749  -2.505  0.00  0.00     0.077 C 
ATOM      2  C1  UNL d   1       0.074  -1.177  -1.203  0.00  0.00    -0.074 A 
ATOM      3  C2  UNL d   1      -0.422  -2.006  -0.192  0.00  0.00    -0.005 A 
ATOM      4  C3  UNL d   1      -0.852  -1.461   1.018  0.00  0.00     0.006 A 
ATOM      5  C4  UNL d   1      -0.790  -0.083   1.229  0.00  0.00    -0.005 A 
ATOM      6  C5  UNL d   1      -0.296   0.762   0.230  0.00  0.00    -0.074 A 
ATOM      7  C6  UNL d   1      -0.213   2.244   0.444  0.00  0.00     0.077 C 
ATOM      8  C7  UNL d   1       0.140   0.206  -0.980  0.00  0.00    -0.001 A 
ENDROOT
TORSDOF 0
ENDMDL
