MODEL 1
REMARK minimizedAffinity -2.42293787
REMARK minimizedRMSD -1
REMARK  0 active torsions:
REMARK  status: ('A' for Active; 'I' for Inactive)
ROOT
ATOM      1  C   UNL d   1      -0.610   4.775   1.522  0.00  0.00     0.077 C 
ATOM      2  C1  UNL d   1       0.372   3.719   1.110  0.00  0.00    -0.074 A 
ATOM      3  C2  UNL d   1       1.744   3.988   1.076  0.00  0.00    -0.005 A 
ATOM      4  C3  UNL d   1       2.647   2.993   0.700  0.00  0.00     0.006 A 
ATOM      5  C4  UNL d   1       2.187   1.722   0.355  0.00  0.00    -0.005 A 
ATOM      6  C5  UNL d   1       0.819   1.434   0.383  0.00  0.00    -0.074 A 
ATOM      7  C6  UNL d   1       0.309   0.070   0.024  0.00  0.00     0.077 C 
ATOM      8  C7  UNL d   1      -0.081   2.437   0.769  0.00  0.00    -0.001 A 
ENDROOT
TORSDOF 0
ENDMDL
