MODEL 1
REMARK minimizedAffinity -0.256478876
REMARK minimizedRMSD -1
REMARK  0 active torsions:
REMARK  status: ('A' for Active; 'I' for Inactive)
ROOT
ATOM      1  C   UNL d   1      -0.756  -3.702  -0.906  0.00  0.00     0.077 C 
ATOM      2  C1  UNL d   1      -0.810  -2.436  -0.102  0.00  0.00    -0.074 A 
ATOM      3  C2  UNL d   1      -1.345  -2.428   1.190  0.00  0.00    -0.005 A 
ATOM      4  C3  UNL d   1      -1.379  -1.245   1.929  0.00  0.00     0.006 A 
ATOM      5  C4  UNL d   1      -0.880  -0.061   1.384  0.00  0.00    -0.005 A 
ATOM      6  C5  UNL d   1      -0.341  -0.051   0.094  0.00  0.00    -0.074 A 
ATOM      7  C6  UNL d   1       0.209   1.210  -0.503  0.00  0.00     0.077 C 
ATOM      8  C7  UNL d   1      -0.303  -1.245  -0.639  0.00  0.00    -0.001 A 
ENDROOT
TORSDOF 0
ENDMDL
