MODEL 1
REMARK minimizedAffinity -3.92335105
REMARK minimizedRMSD -1
REMARK  0 active torsions:
REMARK  status: ('A' for Active; 'I' for Inactive)
ROOT
ATOM      1  C   UNL d   1      -0.480  -2.080   0.744  0.00  0.00     0.077 C 
ATOM      2  C1  UNL d   1      -0.061  -0.983  -0.189  0.00  0.00    -0.074 A 
ATOM      3  C2  UNL d   1      -0.178  -1.134  -1.574  0.00  0.00    -0.005 A 
ATOM      4  C3  UNL d   1       0.207  -0.102  -2.430  0.00  0.00     0.006 A 
ATOM      5  C4  UNL d   1       0.711   1.091  -1.909  0.00  0.00    -0.005 A 
ATOM      6  C5  UNL d   1       0.834   1.260  -0.526  0.00  0.00    -0.074 A 
ATOM      7  C6  UNL d   1       1.365   2.539   0.050  0.00  0.00     0.077 C 
ATOM      8  C7  UNL d   1       0.439   0.221   0.327  0.00  0.00    -0.001 A 
ENDROOT
TORSDOF 0
ENDMDL
