MODEL 1
REMARK minimizedAffinity -4.19766617
REMARK minimizedRMSD -1
REMARK  0 active torsions:
REMARK  status: ('A' for Active; 'I' for Inactive)
ROOT
ATOM      1  C   UNL d   1      -0.449  -1.356   1.136  0.00  0.00     0.077 C 
ATOM      2  C1  UNL d   1      -0.083  -0.837  -0.223  0.00  0.00    -0.074 A 
ATOM      3  C2  UNL d   1      -0.146   0.529  -0.512  0.00  0.00    -0.005 A 
ATOM      4  C3  UNL d   1       0.207   0.998  -1.777  0.00  0.00     0.006 A 
ATOM      5  C4  UNL d   1       0.626   0.106  -2.765  0.00  0.00    -0.005 A 
ATOM      6  C5  UNL d   1       0.697  -1.264  -2.494  0.00  0.00    -0.074 A 
ATOM      7  C6  UNL d   1       1.156  -2.235  -3.541  0.00  0.00     0.077 C 
ATOM      8  C7  UNL d   1       0.347  -1.726  -1.218  0.00  0.00    -0.001 A 
ENDROOT
TORSDOF 0
ENDMDL
