MODEL 1
REMARK minimizedAffinity -4.37730169
REMARK minimizedRMSD -1
REMARK  0 active torsions:
REMARK  status: ('A' for Active; 'I' for Inactive)
ROOT
ATOM      1  C   UNL d   1       0.596   1.133   0.496  0.00  0.00     0.077 C 
ATOM      2  C1  UNL d   1       0.164  -0.279   0.233  0.00  0.00    -0.074 A 
ATOM      3  C2  UNL d   1      -0.265  -1.105   1.277  0.00  0.00    -0.005 A 
ATOM      4  C3  UNL d   1      -0.673  -2.413   1.016  0.00  0.00     0.006 A 
ATOM      5  C4  UNL d   1      -0.656  -2.907  -0.289  0.00  0.00    -0.005 A 
ATOM      6  C5  UNL d   1      -0.231  -2.095  -1.345  0.00  0.00    -0.074 A 
ATOM      7  C6  UNL d   1      -0.217  -2.608  -2.755  0.00  0.00     0.077 C 
ATOM      8  C7  UNL d   1       0.171  -0.780  -1.076  0.00  0.00    -0.001 A 
ENDROOT
TORSDOF 0
ENDMDL
