MODEL 1
REMARK minimizedAffinity -4.02776909
REMARK minimizedRMSD -1
REMARK  0 active torsions:
REMARK  status: ('A' for Active; 'I' for Inactive)
ROOT
ATOM      1  C1  DEN d   1       1.749   2.578   0.524  0.00  0.00     0.130 A 
ATOM      2  C2  DEN d   1       1.286   2.356   1.891  0.00  0.00    -0.031 A 
ATOM      3  C3  DEN d   1       0.809   0.962   1.991  0.00  0.00     0.027 A 
ATOM      4  C4  DEN d   1       0.746  -0.865   0.172  0.00  0.00     0.027 A 
ATOM      5  C5  DEN d   1       1.021  -1.145  -1.149  0.00  0.00    -0.003 A 
ATOM      6  C6  DEN d   1       1.522  -0.201  -2.006  0.00  0.00     0.001 A 
ATOM      7  C7  DEN d   1       1.806   1.056  -1.540  0.00  0.00     0.017 A 
ATOM      8  C8  DEN d   1       1.524   1.347  -0.212  0.00  0.00    -0.094 A 
ATOM      9  C9  DEN d   1       1.029   0.376   0.641  0.00  0.00    -0.072 A 
ENDROOT
TORSDOF 0
ENDMDL
