MODEL 1
REMARK minimizedAffinity -0.331423759
REMARK minimizedRMSD -1
REMARK  0 active torsions:
REMARK  status: ('A' for Active; 'I' for Inactive)
ROOT
ATOM      1  C1  DEN d   1      -0.784  -1.500  -0.207  0.00  0.00     0.130 A 
ATOM      2  C2  DEN d   1      -1.070  -0.898   1.092  0.00  0.00    -0.031 A 
ATOM      3  C3  DEN d   1      -0.301   0.360   1.191  0.00  0.00     0.027 A 
ATOM      4  C4  DEN d   1       1.291   1.429  -0.533  0.00  0.00     0.027 A 
ATOM      5  C5  DEN d   1       1.859   1.281  -1.779  0.00  0.00    -0.003 A 
ATOM      6  C6  DEN d   1       1.615   0.188  -2.568  0.00  0.00     0.001 A 
ATOM      7  C7  DEN d   1       0.745  -0.779  -2.138  0.00  0.00     0.017 A 
ATOM      8  C8  DEN d   1       0.174  -0.640  -0.879  0.00  0.00    -0.094 A 
ATOM      9  C9  DEN d   1       0.424   0.478  -0.102  0.00  0.00    -0.072 A 
ENDROOT
TORSDOF 0
ENDMDL
