MODEL 1
REMARK minimizedAffinity -3.50509381
REMARK minimizedRMSD -1
REMARK  0 active torsions:
REMARK  status: ('A' for Active; 'I' for Inactive)
ROOT
ATOM      1  C1  DEN d   1       1.417   1.842   0.247  0.00  0.00     0.130 A 
ATOM      2  C2  DEN d   1       0.627   1.399   1.392  0.00  0.00    -0.031 A 
ATOM      3  C3  DEN d   1       0.194   0.010   1.139  0.00  0.00     0.027 A 
ATOM      4  C4  DEN d   1       0.672  -1.491  -0.903  0.00  0.00     0.027 A 
ATOM      5  C5  DEN d   1       1.289  -1.550  -2.133  0.00  0.00    -0.003 A 
ATOM      6  C6  DEN d   1       1.957  -0.480  -2.667  0.00  0.00     0.001 A 
ATOM      7  C7  DEN d   1       2.063   0.681  -1.948  0.00  0.00     0.017 A 
ATOM      8  C8  DEN d   1       1.438   0.751  -0.711  0.00  0.00    -0.094 A 
ATOM      9  C9  DEN d   1       0.777  -0.346  -0.183  0.00  0.00    -0.072 A 
ENDROOT
TORSDOF 0
ENDMDL
