MODEL 1
REMARK minimizedAffinity 1.91036332
REMARK minimizedRMSD -1
REMARK  0 active torsions:
REMARK  status: ('A' for Active; 'I' for Inactive)
ROOT
ATOM      1  C1  DEN d   1      -1.598  -0.957   0.651  0.00  0.00     0.130 A 
ATOM      2  C2  DEN d   1      -0.278  -0.718   1.230  0.00  0.00    -0.031 A 
ATOM      3  C3  DEN d   1      -0.405   0.366   2.224  0.00  0.00     0.027 A 
ATOM      4  C4  DEN d   1      -2.506   1.689   2.923  0.00  0.00     0.027 A 
ATOM      5  C5  DEN d   1      -3.855   1.852   2.702  0.00  0.00    -0.003 A 
ATOM      6  C6  DEN d   1      -4.535   1.119   1.765  0.00  0.00     0.001 A 
ATOM      7  C7  DEN d   1      -3.875   0.158   1.045  0.00  0.00     0.017 A 
ATOM      8  C8  DEN d   1      -2.512  -0.007   1.258  0.00  0.00    -0.094 A 
ATOM      9  C9  DEN d   1      -1.846   0.735   2.219  0.00  0.00    -0.072 A 
ENDROOT
TORSDOF 0
ENDMDL
