MODEL 1
REMARK minimizedAffinity -2.14208984
REMARK minimizedRMSD -1
REMARK  0 active torsions:
REMARK  status: ('A' for Active; 'I' for Inactive)
ROOT
ATOM      1  C1  DEN d   1       1.515   1.339   3.271  0.00  0.00     0.130 A 
ATOM      2  C2  DEN d   1       2.337   2.545   3.222  0.00  0.00    -0.031 A 
ATOM      3  C3  DEN d   1       2.398   2.999   1.819  0.00  0.00     0.027 A 
ATOM      4  C4  DEN d   1       1.301   1.961  -0.272  0.00  0.00     0.027 A 
ATOM      5  C5  DEN d   1       0.518   0.925  -0.731  0.00  0.00    -0.003 A 
ATOM      6  C6  DEN d   1       0.044  -0.056   0.099  0.00  0.00     0.001 A 
ATOM      7  C7  DEN d   1       0.312   0.003   1.441  0.00  0.00     0.017 A 
ATOM      8  C8  DEN d   1       1.107   1.040   1.911  0.00  0.00    -0.094 A 
ATOM      9  C9  DEN d   1       1.566   2.029   1.057  0.00  0.00    -0.072 A 
ENDROOT
TORSDOF 0
ENDMDL
