MODEL 1
REMARK minimizedAffinity 3.26276994
REMARK minimizedRMSD -1
REMARK  0 active torsions:
REMARK  status: ('A' for Active; 'I' for Inactive)
ROOT
ATOM      1  C1  DEN d   1      -0.625   0.642   1.005  0.00  0.00     0.130 A 
ATOM      2  C2  DEN d   1      -0.405  -0.441   0.050  0.00  0.00    -0.031 A 
ATOM      3  C3  DEN d   1      -1.710  -1.068  -0.239  0.00  0.00     0.027 A 
ATOM      4  C4  DEN d   1      -4.040  -0.468   0.693  0.00  0.00     0.027 A 
ATOM      5  C5  DEN d   1      -4.727   0.371   1.542  0.00  0.00    -0.003 A 
ATOM      6  C6  DEN d   1      -4.096   1.328   2.292  0.00  0.00     0.001 A 
ATOM      7  C7  DEN d   1      -2.742   1.500   2.172  0.00  0.00     0.017 A 
ATOM      8  C8  DEN d   1      -2.041   0.654   1.323  0.00  0.00    -0.094 A 
ATOM      9  C9  DEN d   1      -2.699  -0.299   0.565  0.00  0.00    -0.072 A 
ENDROOT
TORSDOF 0
ENDMDL
