MODEL 1
REMARK minimizedAffinity -1.82917762
REMARK minimizedRMSD -1
REMARK  0 active torsions:
REMARK  status: ('A' for Active; 'I' for Inactive)
ROOT
ATOM      1  C1  DEN d   1       0.723   1.511   0.243  0.00  0.00     0.130 A 
ATOM      2  C2  DEN d   1      -0.391   0.635  -0.107  0.00  0.00    -0.031 A 
ATOM      3  C3  DEN d   1      -1.105   0.284   1.137  0.00  0.00     0.027 A 
ATOM      4  C4  DEN d   1      -0.599   1.012   3.559  0.00  0.00     0.027 A 
ATOM      5  C5  DEN d   1       0.254   1.743   4.356  0.00  0.00    -0.003 A 
ATOM      6  C6  DEN d   1       1.333   2.415   3.847  0.00  0.00     0.001 A 
ATOM      7  C7  DEN d   1       1.563   2.406   2.496  0.00  0.00     0.017 A 
ATOM      8  C8  DEN d   1       0.712   1.665   1.687  0.00  0.00    -0.094 A 
ATOM      9  C9  DEN d   1      -0.381   1.003   2.219  0.00  0.00    -0.072 A 
ENDROOT
TORSDOF 0
ENDMDL
