MODEL 1
REMARK minimizedAffinity -3.47523403
REMARK minimizedRMSD -1
REMARK  0 active torsions:
REMARK  status: ('A' for Active; 'I' for Inactive)
ROOT
ATOM      1  C1  DEN d   1       1.147   0.954   3.200  0.00  0.00     0.130 A 
ATOM      2  C2  DEN d   1       2.150   2.003   3.360  0.00  0.00    -0.031 A 
ATOM      3  C3  DEN d   1       2.402   2.601   2.033  0.00  0.00     0.027 A 
ATOM      4  C4  DEN d   1       1.337   2.009  -0.241  0.00  0.00     0.027 A 
ATOM      5  C5  DEN d   1       0.443   1.178  -0.880  0.00  0.00    -0.003 A 
ATOM      6  C6  DEN d   1      -0.248   0.200  -0.215  0.00  0.00     0.001 A 
ATOM      7  C7  DEN d   1      -0.090   0.058   1.139  0.00  0.00     0.017 A 
ATOM      8  C8  DEN d   1       0.815   0.887   1.788  0.00  0.00    -0.094 A 
ATOM      9  C9  DEN d   1       1.495   1.877   1.101  0.00  0.00    -0.072 A 
ENDROOT
TORSDOF 0
ENDMDL
