MODEL 1
REMARK minimizedAffinity -2.59178233
REMARK minimizedRMSD -1
REMARK  0 active torsions:
REMARK  status: ('A' for Active; 'I' for Inactive)
ROOT
ATOM      1  C1  DEN d   1       2.441   0.844  -1.884  0.00  0.00     0.130 A 
ATOM      2  C2  DEN d   1       1.952  -0.014  -2.960  0.00  0.00    -0.031 A 
ATOM      3  C3  DEN d   1       0.749  -0.717  -2.472  0.00  0.00     0.027 A 
ATOM      4  C4  DEN d   1      -0.400  -0.559  -0.168  0.00  0.00     0.027 A 
ATOM      5  C5  DEN d   1      -0.344   0.028   1.076  0.00  0.00    -0.003 A 
ATOM      6  C6  DEN d   1       0.656   0.895   1.430  0.00  0.00     0.001 A 
ATOM      7  C7  DEN d   1       1.615   1.235   0.513  0.00  0.00     0.017 A 
ATOM      8  C8  DEN d   1       1.569   0.641  -0.741  0.00  0.00    -0.094 A 
ATOM      9  C9  DEN d   1       0.544  -0.223  -1.084  0.00  0.00    -0.072 A 
ENDROOT
TORSDOF 0
ENDMDL
