MODEL 1
REMARK minimizedAffinity -4.14467716
REMARK minimizedRMSD -1
REMARK  0 active torsions:
REMARK  status: ('A' for Active; 'I' for Inactive)
ROOT
ATOM      1  C1  DEN d   1       0.463   0.517  -3.114  0.00  0.00     0.130 A 
ATOM      2  C2  DEN d   1       1.914   0.366  -3.168  0.00  0.00    -0.031 A 
ATOM      3  C3  DEN d   1       2.399   0.121  -1.794  0.00  0.00     0.027 A 
ATOM      4  C4  DEN d   1       1.049  -0.045   0.397  0.00  0.00     0.027 A 
ATOM      5  C5  DEN d   1      -0.212   0.026   0.947  0.00  0.00    -0.003 A 
ATOM      6  C6  DEN d   1      -1.323   0.297   0.193  0.00  0.00     0.001 A 
ATOM      7  C7  DEN d   1      -1.201   0.463  -1.161  0.00  0.00     0.017 A 
ATOM      8  C8  DEN d   1       0.068   0.400  -1.722  0.00  0.00    -0.094 A 
ATOM      9  C9  DEN d   1       1.177   0.112  -0.945  0.00  0.00    -0.072 A 
ENDROOT
TORSDOF 0
ENDMDL
