MODEL 1
REMARK minimizedAffinity -4.91304302
REMARK minimizedRMSD -1
REMARK  0 active torsions:
REMARK  status: ('A' for Active; 'I' for Inactive)
ROOT
ATOM      1  C1  DEN d   1       2.130   0.406  -1.979  0.00  0.00     0.130 A 
ATOM      2  C2  DEN d   1       1.659  -0.037  -3.289  0.00  0.00    -0.031 A 
ATOM      3  C3  DEN d   1       0.254  -0.469  -3.147  0.00  0.00     0.027 A 
ATOM      4  C4  DEN d   1      -1.232  -0.489  -1.039  0.00  0.00     0.027 A 
ATOM      5  C5  DEN d   1      -1.269  -0.216   0.311  0.00  0.00    -0.003 A 
ATOM      6  C6  DEN d   1      -0.175   0.247   0.993  0.00  0.00     0.001 A 
ATOM      7  C7  DEN d   1       0.991   0.494   0.318  0.00  0.00     0.017 A 
ATOM      8  C8  DEN d   1       1.038   0.215  -1.042  0.00  0.00    -0.094 A 
ATOM      9  C9  DEN d   1      -0.082  -0.241  -1.715  0.00  0.00    -0.072 A 
ENDROOT
TORSDOF 0
ENDMDL
