MODEL 1
REMARK minimizedAffinity 2.0061729
REMARK minimizedRMSD -1
REMARK  0 active torsions:
REMARK  status: ('A' for Active; 'I' for Inactive)
ROOT
ATOM      1  C1  DEN d   1      -0.063  -2.802   0.448  0.00  0.00     0.130 A 
ATOM      2  C2  DEN d   1       0.176  -3.541  -0.789  0.00  0.00    -0.031 A 
ATOM      3  C3  DEN d   1       0.468  -2.563  -1.856  0.00  0.00     0.027 A 
ATOM      4  C4  DEN d   1       0.576   0.010  -1.714  0.00  0.00     0.027 A 
ATOM      5  C5  DEN d   1       0.434   1.095  -0.878  0.00  0.00    -0.003 A 
ATOM      6  C6  DEN d   1       0.085   0.960   0.440  0.00  0.00     0.001 A 
ATOM      7  C7  DEN d   1      -0.088  -0.290   0.972  0.00  0.00     0.017 A 
ATOM      8  C8  DEN d   1       0.046  -1.389   0.133  0.00  0.00    -0.094 A 
ATOM      9  C9  DEN d   1       0.411  -1.233  -1.194  0.00  0.00    -0.072 A 
ENDROOT
TORSDOF 0
ENDMDL
