MODEL 1
REMARK minimizedAffinity -4.38404369
REMARK minimizedRMSD -1
REMARK  0 active torsions:
REMARK  status: ('A' for Active; 'I' for Inactive)
ROOT
ATOM      1  C1  DEN d   1       1.507   1.406   0.558  0.00  0.00     0.130 A 
ATOM      2  C2  DEN d   1       0.238   1.135   1.228  0.00  0.00    -0.031 A 
ATOM      3  C3  DEN d   1      -0.552   0.235   0.365  0.00  0.00     0.027 A 
ATOM      4  C4  DEN d   1       0.066  -0.766  -1.931  0.00  0.00     0.027 A 
ATOM      5  C5  DEN d   1       1.033  -0.814  -2.911  0.00  0.00    -0.003 A 
ATOM      6  C6  DEN d   1       2.202  -0.105  -2.819  0.00  0.00     0.001 A 
ATOM      7  C7  DEN d   1       2.453   0.648  -1.703  0.00  0.00     0.017 A 
ATOM      8  C8  DEN d   1       1.480   0.708  -0.714  0.00  0.00    -0.094 A 
ATOM      9  C9  DEN d   1       0.310  -0.026  -0.820  0.00  0.00    -0.072 A 
ENDROOT
TORSDOF 0
ENDMDL
