MODEL 1
REMARK minimizedAffinity -1.48098266
REMARK minimizedRMSD -1
REMARK  0 active torsions:
REMARK  status: ('A' for Active; 'I' for Inactive)
ROOT
ATOM      1  C1  DEN d   1       2.659   3.489   2.464  0.00  0.00     0.130 A 
ATOM      2  C2  DEN d   1       2.394   2.720   3.676  0.00  0.00    -0.031 A 
ATOM      3  C3  DEN d   1       1.570   1.552   3.305  0.00  0.00     0.027 A 
ATOM      4  C4  DEN d   1       0.688   0.861   0.981  0.00  0.00     0.027 A 
ATOM      5  C5  DEN d   1       0.645   1.208  -0.351  0.00  0.00    -0.003 A 
ATOM      6  C6  DEN d   1       1.235   2.347  -0.829  0.00  0.00     0.001 A 
ATOM      7  C7  DEN d   1       1.935   3.159   0.025  0.00  0.00     0.017 A 
ATOM      8  C8  DEN d   1       1.977   2.820   1.371  0.00  0.00    -0.094 A 
ATOM      9  C9  DEN d   1       1.384   1.657   1.832  0.00  0.00    -0.072 A 
ENDROOT
TORSDOF 0
ENDMDL
