MODEL 1
REMARK minimizedAffinity -3.31716919
REMARK minimizedRMSD -1
REMARK  0 active torsions:
REMARK  status: ('A' for Active; 'I' for Inactive)
ROOT
ATOM      1  C1  DEN d   1      -4.402   4.298  -5.854  0.00  0.00     0.130 A 
ATOM      2  C2  DEN d   1      -2.962   4.420  -5.644  0.00  0.00    -0.031 A 
ATOM      3  C3  DEN d   1      -2.400   3.059  -5.530  0.00  0.00     0.027 A 
ATOM      4  C4  DEN d   1      -3.614   0.786  -5.662  0.00  0.00     0.027 A 
ATOM      5  C5  DEN d   1      -4.838   0.175  -5.818  0.00  0.00    -0.003 A 
ATOM      6  C6  DEN d   1      -5.998   0.889  -5.961  0.00  0.00     0.001 A 
ATOM      7  C7  DEN d   1      -5.952   2.258  -5.997  0.00  0.00     0.017 A 
ATOM      8  C8  DEN d   1      -4.722   2.882  -5.833  0.00  0.00    -0.094 A 
ATOM      9  C9  DEN d   1      -3.559   2.142  -5.702  0.00  0.00    -0.072 A 
ENDROOT
TORSDOF 0
ENDMDL
