MODEL 1
REMARK minimizedAffinity 4.66966438
REMARK minimizedRMSD -1
REMARK  2 active torsions:
REMARK  status: ('A' for Active; 'I' for Inactive)
REMARK    1  A    between atoms: C1_2  and  C2_3 
REMARK    2  A    between atoms: C2_3  and  C3_4 
ROOT
ATOM      1  C3  UNL d   1      -4.779   0.767  -2.268  0.00  0.00    -0.075 A 
ATOM      2  C4  UNL d   1      -3.531   0.526  -2.860  0.00  0.00     0.002 A 
ATOM      3  C5  UNL d   1      -2.413   0.256  -2.070  0.00  0.00     0.002 A 
ATOM      4  C6  UNL d   1      -2.525   0.236  -0.682  0.00  0.00    -0.004 A 
ATOM      5  C7  UNL d   1      -3.756   0.491  -0.082  0.00  0.00     0.002 A 
ATOM      6  C8  UNL d   1      -4.878   0.756  -0.870  0.00  0.00     0.002 A 
ENDROOT
BRANCH   1   7
ATOM      7  C2  UNL d   1      -5.999   1.030  -3.117  0.00  0.00     0.056 C 
BRANCH   7   8
ATOM      8  C1  UNL d   1      -5.730   0.988  -4.625  0.00  0.00     0.007 C 
ATOM      9  C   UNL d   1      -6.000  -0.377  -5.245  0.00  0.00     0.009 C 
ENDBRANCH   7   8
ENDBRANCH   1   7
TORSDOF 2
ENDMDL
