MODEL 1
REMARK minimizedAffinity 8.57988167
REMARK minimizedRMSD -1
REMARK  2 active torsions:
REMARK  status: ('A' for Active; 'I' for Inactive)
REMARK    1  A    between atoms: C1_2  and  C2_3 
REMARK    2  A    between atoms: C2_3  and  C3_4 
ROOT
ATOM      1  C3  UNL d   1       2.948  -0.816  -1.290  0.00  0.00    -0.075 A 
ATOM      2  C4  UNL d   1       2.685  -0.386   0.019  0.00  0.00     0.002 A 
ATOM      3  C5  UNL d   1       2.943   0.932   0.398  0.00  0.00     0.002 A 
ATOM      4  C6  UNL d   1       3.475   1.832  -0.523  0.00  0.00    -0.004 A 
ATOM      5  C7  UNL d   1       3.756   1.412  -1.821  0.00  0.00     0.002 A 
ATOM      6  C8  UNL d   1       3.494   0.095  -2.203  0.00  0.00     0.002 A 
ENDROOT
BRANCH   1   7
ATOM      7  C2  UNL d   1       2.643  -2.233  -1.714  0.00  0.00     0.056 C 
BRANCH   7   8
ATOM      8  C1  UNL d   1       2.370  -2.390  -3.213  0.00  0.00     0.007 C 
ATOM      9  C   UNL d   1       0.890  -2.316  -3.565  0.00  0.00     0.009 C 
ENDBRANCH   7   8
ENDBRANCH   1   7
TORSDOF 2
ENDMDL
