MODEL 1
REMARK minimizedAffinity 8.01611328
REMARK minimizedRMSD -1
REMARK  2 active torsions:
REMARK  status: ('A' for Active; 'I' for Inactive)
REMARK    1  A    between atoms: C1_2  and  C2_3 
REMARK    2  A    between atoms: C2_3  and  C3_4 
ROOT
ATOM      1  C3  UNL d   1       4.370   2.560  -1.298  0.00  0.00    -0.075 A 
ATOM      2  C4  UNL d   1       3.768   2.880  -0.073  0.00  0.00     0.002 A 
ATOM      3  C5  UNL d   1       2.982   1.942   0.596  0.00  0.00     0.002 A 
ATOM      4  C6  UNL d   1       2.781   0.678   0.046  0.00  0.00    -0.004 A 
ATOM      5  C7  UNL d   1       3.361   0.355  -1.179  0.00  0.00     0.002 A 
ATOM      6  C8  UNL d   1       4.151   1.290  -1.849  0.00  0.00     0.002 A 
ENDROOT
BRANCH   1   7
ATOM      7  C2  UNL d   1       5.246   3.562  -2.014  0.00  0.00     0.056 C 
BRANCH   7   8
ATOM      8  C1  UNL d   1       5.524   4.835  -1.208  0.00  0.00     0.007 C 
ATOM      9  C   UNL d   1       5.994   6.000  -2.069  0.00  0.00     0.009 C 
ENDBRANCH   7   8
ENDBRANCH   1   7
TORSDOF 2
ENDMDL
