MODEL 1
REMARK minimizedAffinity 12.9465265
REMARK minimizedRMSD -1
REMARK  2 active torsions:
REMARK  status: ('A' for Active; 'I' for Inactive)
REMARK    1  A    between atoms: C1_2  and  C2_3 
REMARK    2  A    between atoms: C2_3  and  C3_4 
ROOT
ATOM      1  C3  UNL d   1      -4.137   0.085  -1.388  0.00  0.00    -0.075 A 
ATOM      2  C4  UNL d   1      -4.120   1.384  -1.915  0.00  0.00     0.002 A 
ATOM      3  C5  UNL d   1      -5.025   2.344  -1.461  0.00  0.00     0.002 A 
ATOM      4  C6  UNL d   1      -5.963   2.016  -0.485  0.00  0.00    -0.004 A 
ATOM      5  C7  UNL d   1      -5.999   0.723   0.034  0.00  0.00     0.002 A 
ATOM      6  C8  UNL d   1      -5.092  -0.238  -0.415  0.00  0.00     0.002 A 
ENDROOT
BRANCH   1   7
ATOM      7  C2  UNL d   1      -3.141  -0.950  -1.853  0.00  0.00     0.056 C 
BRANCH   7   8
ATOM      8  C1  UNL d   1      -1.888  -0.360  -2.509  0.00  0.00     0.007 C 
ATOM      9  C   UNL d   1      -0.616  -1.129  -2.174  0.00  0.00     0.009 C 
ENDBRANCH   7   8
ENDBRANCH   1   7
TORSDOF 2
ENDMDL
