MODEL 1
REMARK minimizedAffinity 8.69351196
REMARK minimizedRMSD -1
REMARK  2 active torsions:
REMARK  status: ('A' for Active; 'I' for Inactive)
REMARK    1  A    between atoms: C1_2  and  C2_3 
REMARK    2  A    between atoms: C2_3  and  C3_4 
ROOT
ATOM      1  C3  UNL d   1       3.238   1.152  -0.786  0.00  0.00    -0.075 A 
ATOM      2  C4  UNL d   1       3.699   0.791   0.489  0.00  0.00     0.002 A 
ATOM      3  C5  UNL d   1       3.192  -0.338   1.131  0.00  0.00     0.002 A 
ATOM      4  C6  UNL d   1       2.213  -1.114   0.515  0.00  0.00    -0.004 A 
ATOM      5  C7  UNL d   1       1.736  -0.755  -0.744  0.00  0.00     0.002 A 
ATOM      6  C8  UNL d   1       2.244   0.372  -1.392  0.00  0.00     0.002 A 
ENDROOT
BRANCH   1   7
ATOM      7  C2  UNL d   1       3.804   2.357  -1.500  0.00  0.00     0.056 C 
BRANCH   7   8
ATOM      8  C1  UNL d   1       5.139   2.095  -2.203  0.00  0.00     0.007 C 
ATOM      9  C   UNL d   1       6.000   3.343  -2.343  0.00  0.00     0.009 C 
ENDBRANCH   7   8
ENDBRANCH   1   7
TORSDOF 2
ENDMDL
