MODEL 1
REMARK minimizedAffinity 6.39355373
REMARK minimizedRMSD -1
REMARK  2 active torsions:
REMARK  status: ('A' for Active; 'I' for Inactive)
REMARK    1  A    between atoms: C1_2  and  C2_3 
REMARK    2  A    between atoms: C2_3  and  C3_4 
ROOT
ATOM      1  C3  UNL d   1      -5.193   3.794   3.140  0.00  0.00    -0.075 A 
ATOM      2  C4  UNL d   1      -4.384   4.907   2.867  0.00  0.00     0.002 A 
ATOM      3  C5  UNL d   1      -4.367   6.000   3.734  0.00  0.00     0.002 A 
ATOM      4  C6  UNL d   1      -5.164   6.000   4.876  0.00  0.00    -0.004 A 
ATOM      5  C7  UNL d   1      -5.984   4.907   5.149  0.00  0.00     0.002 A 
ATOM      6  C8  UNL d   1      -6.000   3.810   4.286  0.00  0.00     0.002 A 
ENDROOT
BRANCH   1   7
ATOM      7  C2  UNL d   1      -5.195   2.596   2.222  0.00  0.00     0.056 C 
BRANCH   7   8
ATOM      8  C1  UNL d   1      -4.099   2.629   1.151  0.00  0.00     0.007 C 
ATOM      9  C   UNL d   1      -4.022   1.348   0.331  0.00  0.00     0.009 C 
ENDBRANCH   7   8
ENDBRANCH   1   7
TORSDOF 2
ENDMDL
