MODEL 1
REMARK minimizedAffinity 6.85382509
REMARK minimizedRMSD -1
REMARK  2 active torsions:
REMARK  status: ('A' for Active; 'I' for Inactive)
REMARK    1  A    between atoms: C1_2  and  C2_3 
REMARK    2  A    between atoms: C2_3  and  C3_4 
ROOT
ATOM      1  C3  UNL d   1      -4.928   4.454   3.397  0.00  0.00    -0.075 A 
ATOM      2  C4  UNL d   1      -6.000   4.455   4.302  0.00  0.00     0.002 A 
ATOM      3  C5  UNL d   1      -5.943   5.220   5.467  0.00  0.00     0.002 A 
ATOM      4  C6  UNL d   1      -4.812   5.984   5.748  0.00  0.00    -0.004 A 
ATOM      5  C7  UNL d   1      -3.734   5.977   4.865  0.00  0.00     0.002 A 
ATOM      6  C8  UNL d   1      -3.791   5.217   3.696  0.00  0.00     0.002 A 
ENDROOT
BRANCH   1   7
ATOM      7  C2  UNL d   1      -4.996   3.652   2.120  0.00  0.00     0.056 C 
BRANCH   7   8
ATOM      8  C1  UNL d   1      -3.691   2.931   1.766  0.00  0.00     0.007 C 
ATOM      9  C   UNL d   1      -3.912   1.612   1.039  0.00  0.00     0.009 C 
ENDBRANCH   7   8
ENDBRANCH   1   7
TORSDOF 2
ENDMDL
