MODEL 1
REMARK minimizedAffinity 10.0649071
REMARK minimizedRMSD -1
REMARK  2 active torsions:
REMARK  status: ('A' for Active; 'I' for Inactive)
REMARK    1  A    between atoms: C1_2  and  C2_3 
REMARK    2  A    between atoms: C2_3  and  C3_4 
ROOT
ATOM      1  C3  UNL d   1      -4.756   3.814   3.628  0.00  0.00    -0.075 A 
ATOM      2  C4  UNL d   1      -5.867   3.922   4.477  0.00  0.00     0.002 A 
ATOM      3  C5  UNL d   1      -5.994   5.009   5.342  0.00  0.00     0.002 A 
ATOM      4  C6  UNL d   1      -5.010   5.995   5.376  0.00  0.00    -0.004 A 
ATOM      5  C7  UNL d   1      -3.894   5.889   4.548  0.00  0.00     0.002 A 
ATOM      6  C8  UNL d   1      -3.766   4.804   3.679  0.00  0.00     0.002 A 
ENDROOT
BRANCH   1   7
ATOM      7  C2  UNL d   1      -4.627   2.654   2.668  0.00  0.00     0.056 C 
BRANCH   7   8
ATOM      8  C1  UNL d   1      -4.322   3.070   1.225  0.00  0.00     0.007 C 
ATOM      9  C   UNL d   1      -4.534   1.946   0.220  0.00  0.00     0.009 C 
ENDBRANCH   7   8
ENDBRANCH   1   7
TORSDOF 2
ENDMDL
