MODEL 1
REMARK minimizedAffinity 5.06238699
REMARK minimizedRMSD -1
REMARK  1 active torsions:
REMARK  status: ('A' for Active; 'I' for Inactive)
REMARK    1  A    between atoms: N_2  and  C1_3 
ROOT
ATOM      1  C1  UNL d   1       1.157  -1.075   1.001  0.00  0.00     0.143 A 
ATOM      2  C2  UNL d   1       2.019   0.007   1.206  0.00  0.00    -0.057 A 
ATOM      3  C3  UNL d   1       2.136   1.032   0.258  0.00  0.00     0.033 A 
ATOM      4  C4  UNL d   1       1.411   0.976  -0.928  0.00  0.00    -0.042 A 
ATOM      5  C5  UNL d   1       0.567  -0.104  -1.164  0.00  0.00     0.033 A 
ATOM      6  C6  UNL d   1       0.450  -1.120  -0.210  0.00  0.00    -0.057 A 
ENDROOT
BRANCH   1   7
ATOM      7  N   UNL d   1       1.071  -2.174   1.860  0.00  0.00    -0.732 N 
ATOM      8  C   UNL d   1       1.809  -3.387   1.581  0.00  0.00     0.284 C 
ATOM      9  H3  UNL d   1       1.074  -1.902   2.840  0.00  0.00     0.395 HD
ENDBRANCH   1   7
TORSDOF 1
ENDMDL
