MODEL 1
REMARK minimizedAffinity 10.2356272
REMARK minimizedRMSD -1
REMARK  1 active torsions:
REMARK  status: ('A' for Active; 'I' for Inactive)
REMARK    1  A    between atoms: N_2  and  C1_3 
ROOT
ATOM      1  C1  UNL d   1      -4.243  -1.640  -3.757  0.00  0.00     0.143 A 
ATOM      2  C2  UNL d   1      -3.516  -1.676  -2.562  0.00  0.00    -0.057 A 
ATOM      3  C3  UNL d   1      -3.915  -0.930  -1.446  0.00  0.00     0.033 A 
ATOM      4  C4  UNL d   1      -5.035  -0.108  -1.516  0.00  0.00    -0.042 A 
ATOM      5  C5  UNL d   1      -5.758  -0.037  -2.702  0.00  0.00     0.033 A 
ATOM      6  C6  UNL d   1      -5.359  -0.790  -3.810  0.00  0.00    -0.057 A 
ENDROOT
BRANCH   1   7
ATOM      7  N   UNL d   1      -3.842  -2.282  -4.931  0.00  0.00    -0.732 N 
ATOM      8  C   UNL d   1      -3.211  -1.538  -6.000  0.00  0.00     0.284 C 
ATOM      9  H3  UNL d   1      -3.420  -3.191  -4.752  0.00  0.00     0.395 HD
ENDBRANCH   1   7
TORSDOF 1
ENDMDL
