MODEL 1
REMARK minimizedAffinity 5.09033918
REMARK minimizedRMSD -1
REMARK  1 active torsions:
REMARK  status: ('A' for Active; 'I' for Inactive)
REMARK    1  A    between atoms: N_2  and  C1_3 
ROOT
ATOM      1  C1  UNL d   1      -4.333  -1.097  -3.501  0.00  0.00     0.143 A 
ATOM      2  C2  UNL d   1      -3.535  -1.689  -2.516  0.00  0.00    -0.057 A 
ATOM      3  C3  UNL d   1      -3.390  -1.106  -1.251  0.00  0.00     0.033 A 
ATOM      4  C4  UNL d   1      -4.020   0.099  -0.958  0.00  0.00    -0.042 A 
ATOM      5  C5  UNL d   1      -4.798   0.718  -1.930  0.00  0.00     0.033 A 
ATOM      6  C6  UNL d   1      -4.944   0.127  -3.189  0.00  0.00    -0.057 A 
ENDROOT
BRANCH   1   7
ATOM      7  N   UNL d   1      -4.437  -1.577  -4.809  0.00  0.00    -0.732 N 
ATOM      8  C   UNL d   1      -3.693  -0.956  -5.883  0.00  0.00     0.284 C 
ATOM      9  H3  UNL d   1      -4.456  -2.593  -4.850  0.00  0.00     0.395 HD
ENDBRANCH   1   7
TORSDOF 1
ENDMDL
