MODEL 1
REMARK minimizedAffinity 8.81198597
REMARK minimizedRMSD -1
REMARK  1 active torsions:
REMARK  status: ('A' for Active; 'I' for Inactive)
REMARK    1  A    between atoms: N_2  and  C1_3 
ROOT
ATOM      1  C1  UNL d   1       3.212  -4.126   1.454  0.00  0.00     0.143 A 
ATOM      2  C2  UNL d   1       3.439  -4.784   0.241  0.00  0.00    -0.057 A 
ATOM      3  C3  UNL d   1       4.734  -4.943  -0.268  0.00  0.00     0.033 A 
ATOM      4  C4  UNL d   1       5.826  -4.420   0.417  0.00  0.00    -0.042 A 
ATOM      5  C5  UNL d   1       5.621  -3.740   1.612  0.00  0.00     0.033 A 
ATOM      6  C6  UNL d   1       4.327  -3.590   2.118  0.00  0.00    -0.057 A 
ENDROOT
BRANCH   1   7
ATOM      7  N   UNL d   1       1.941  -3.850   1.963  0.00  0.00    -0.732 N 
ATOM      8  C   UNL d   1       1.440  -2.493   1.998  0.00  0.00     0.284 C 
ATOM      9  H3  UNL d   1       1.250  -4.541   1.679  0.00  0.00     0.395 HD
ENDBRANCH   1   7
TORSDOF 1
ENDMDL
