MODEL 1
REMARK minimizedAffinity -0.719329
REMARK minimizedRMSD -1
REMARK  1 active torsions:
REMARK  status: ('A' for Active; 'I' for Inactive)
REMARK    1  A    between atoms: N_2  and  C1_3 
ROOT
ATOM      1  C1  UNL d   1       3.278  -4.833   3.313  0.00  0.00     0.143 A 
ATOM      2  C2  UNL d   1       3.767  -5.995   3.919  0.00  0.00    -0.057 A 
ATOM      3  C3  UNL d   1       4.189  -5.996   5.254  0.00  0.00     0.033 A 
ATOM      4  C4  UNL d   1       4.158  -4.823   6.000  0.00  0.00    -0.042 A 
ATOM      5  C5  UNL d   1       3.699  -3.650   5.411  0.00  0.00     0.033 A 
ATOM      6  C6  UNL d   1       3.272  -3.657   4.080  0.00  0.00    -0.057 A 
ENDROOT
BRANCH   1   7
ATOM      7  N   UNL d   1       2.935  -4.745   1.962  0.00  0.00    -0.732 N 
ATOM      8  C   UNL d   1       2.172  -3.620   1.466  0.00  0.00     0.284 C 
ATOM      9  H3  UNL d   1       3.694  -5.034   1.349  0.00  0.00     0.395 HD
ENDBRANCH   1   7
TORSDOF 1
ENDMDL
