MODEL 1
REMARK minimizedAffinity 6.29851341
REMARK minimizedRMSD -1
REMARK  1 active torsions:
REMARK  status: ('A' for Active; 'I' for Inactive)
REMARK    1  A    between atoms: N_2  and  C1_3 
ROOT
ATOM      1  C1  UNL d   1       5.245  -5.024   0.275  0.00  0.00     0.143 A 
ATOM      2  C2  UNL d   1       3.847  -4.991   0.275  0.00  0.00    -0.057 A 
ATOM      3  C3  UNL d   1       3.143  -4.079   1.072  0.00  0.00     0.033 A 
ATOM      4  C4  UNL d   1       3.828  -3.202   1.906  0.00  0.00    -0.042 A 
ATOM      5  C5  UNL d   1       5.217  -3.235   1.940  0.00  0.00     0.033 A 
ATOM      6  C6  UNL d   1       5.914  -4.143   1.138  0.00  0.00    -0.057 A 
ENDROOT
BRANCH   1   7
ATOM      7  N   UNL d   1       6.000  -5.973  -0.420  0.00  0.00    -0.732 N 
ATOM      8  C   UNL d   1       6.000  -5.999  -1.867  0.00  0.00     0.284 C 
ATOM      9  H3  UNL d   1       6.915  -6.124  -0.001  0.00  0.00     0.395 HD
ENDBRANCH   1   7
TORSDOF 1
ENDMDL
