MODEL 1
REMARK minimizedAffinity 10.1270027
REMARK minimizedRMSD -1
REMARK  1 active torsions:
REMARK  status: ('A' for Active; 'I' for Inactive)
REMARK    1  A    between atoms: N_2  and  C1_3 
ROOT
ATOM      1  C1  UNL d   1      -3.586  -1.140  -2.123  0.00  0.00     0.143 A 
ATOM      2  C2  UNL d   1      -3.793  -2.117  -3.103  0.00  0.00    -0.057 A 
ATOM      3  C3  UNL d   1      -4.795  -1.975  -4.070  0.00  0.00     0.033 A 
ATOM      4  C4  UNL d   1      -5.630  -0.862  -4.057  0.00  0.00    -0.042 A 
ATOM      5  C5  UNL d   1      -5.459   0.109  -3.077  0.00  0.00     0.033 A 
ATOM      6  C6  UNL d   1      -4.452  -0.036  -2.118  0.00  0.00    -0.057 A 
ENDROOT
BRANCH   1   7
ATOM      7  N   UNL d   1      -2.672  -1.271  -1.075  0.00  0.00    -0.732 N 
ATOM      8  C   UNL d   1      -1.271  -0.967  -1.276  0.00  0.00     0.284 C 
ATOM      9  H3  UNL d   1      -3.046  -0.939  -0.189  0.00  0.00     0.395 HD
ENDBRANCH   1   7
TORSDOF 1
ENDMDL
