MODEL 1
REMARK minimizedAffinity 0.777130485
REMARK minimizedRMSD -1
REMARK  1 active torsions:
REMARK  status: ('A' for Active; 'I' for Inactive)
REMARK    1  A    between atoms: N_2  and  C1_3 
ROOT
ATOM      1  C1  UNL d   1       3.186  -4.517   3.771  0.00  0.00     0.143 A 
ATOM      2  C2  UNL d   1       4.036  -5.622   3.656  0.00  0.00    -0.057 A 
ATOM      3  C3  UNL d   1       4.889  -5.993   4.702  0.00  0.00     0.033 A 
ATOM      4  C4  UNL d   1       4.929  -5.245   5.874  0.00  0.00    -0.042 A 
ATOM      5  C5  UNL d   1       4.112  -4.127   6.000  0.00  0.00     0.033 A 
ATOM      6  C6  UNL d   1       3.257  -3.766   4.955  0.00  0.00    -0.057 A 
ENDROOT
BRANCH   1   7
ATOM      7  N   UNL d   1       2.387  -4.039   2.729  0.00  0.00    -0.732 N 
ATOM      8  C   UNL d   1       1.408  -3.000   2.968  0.00  0.00     0.284 C 
ATOM      9  H3  UNL d   1       2.905  -3.931   1.860  0.00  0.00     0.395 HD
ENDBRANCH   1   7
TORSDOF 1
ENDMDL
