MODEL 1
REMARK minimizedAffinity -2.59877753
REMARK minimizedRMSD -1
REMARK  1 active torsions:
REMARK  status: ('A' for Active; 'I' for Inactive)
REMARK    1  A    between atoms: N_2  and  C1_3 
ROOT
ATOM      1  C1  UNL d   1       3.526  -4.506   3.525  0.00  0.00     0.143 A 
ATOM      2  C2  UNL d   1       4.314  -5.654   3.659  0.00  0.00    -0.057 A 
ATOM      3  C3  UNL d   1       4.890  -6.000   4.887  0.00  0.00     0.033 A 
ATOM      4  C4  UNL d   1       4.711  -5.185   6.000  0.00  0.00    -0.042 A 
ATOM      5  C5  UNL d   1       3.953  -4.026   5.884  0.00  0.00     0.033 A 
ATOM      6  C6  UNL d   1       3.374  -3.690   4.656  0.00  0.00    -0.057 A 
ENDROOT
BRANCH   1   7
ATOM      7  N   UNL d   1       3.007  -4.056   2.308  0.00  0.00    -0.732 N 
ATOM      8  C   UNL d   1       1.881  -3.147   2.277  0.00  0.00     0.284 C 
ATOM      9  H3  UNL d   1       3.736  -3.838   1.632  0.00  0.00     0.395 HD
ENDBRANCH   1   7
TORSDOF 1
ENDMDL
