MODEL 1
REMARK minimizedAffinity 9.20467472
REMARK minimizedRMSD -1
REMARK  1 active torsions:
REMARK  status: ('A' for Active; 'I' for Inactive)
REMARK    1  A    between atoms: C1_2  and  C2_3 
ROOT
ATOM      1  C2  UNL d   1      -2.062  -0.042   0.895  0.00  0.00    -0.073 A 
ATOM      2  C3  UNL d   1      -2.530  -0.253  -0.407  0.00  0.00    -0.002 A 
ATOM      3  C4  UNL d   1      -1.631  -0.374  -1.468  0.00  0.00     0.004 A 
ATOM      4  C5  UNL d   1      -0.258  -0.291  -1.238  0.00  0.00    -0.004 A 
ATOM      5  C6  UNL d   1       0.229  -0.092   0.058  0.00  0.00    -0.075 A 
ATOM      6  C7  UNL d   1       1.704   0.002   0.322  0.00  0.00     0.076 C 
ATOM      7  C8  UNL d   1      -0.679   0.031   1.118  0.00  0.00     0.001 A 
ENDROOT
BRANCH   1   8
ATOM      8  C1  UNL d   1      -3.028   0.083   2.044  0.00  0.00     0.053 C 
ATOM      9  C   UNL d   1      -3.220  -1.238   2.773  0.00  0.00     0.018 C 
ENDBRANCH   1   8
TORSDOF 1
ENDMDL
