MODEL 1
REMARK minimizedAffinity 8.10094643
REMARK minimizedRMSD -1
REMARK  1 active torsions:
REMARK  status: ('A' for Active; 'I' for Inactive)
REMARK    1  A    between atoms: C1_2  and  C2_3 
ROOT
ATOM      1  C2  UNL d   1      -1.704  -0.105   1.807  0.00  0.00    -0.073 A 
ATOM      2  C3  UNL d   1      -1.394  -0.578   3.087  0.00  0.00    -0.002 A 
ATOM      3  C4  UNL d   1      -0.081  -0.920   3.414  0.00  0.00     0.004 A 
ATOM      4  C5  UNL d   1       0.935  -0.786   2.468  0.00  0.00    -0.004 A 
ATOM      5  C6  UNL d   1       0.648  -0.305   1.187  0.00  0.00    -0.075 A 
ATOM      6  C7  UNL d   1       1.729  -0.158   0.157  0.00  0.00     0.076 C 
ATOM      7  C8  UNL d   1      -0.674   0.034   0.866  0.00  0.00     0.001 A 
ENDROOT
BRANCH   1   8
ATOM      8  C1  UNL d   1      -3.119   0.271   1.452  0.00  0.00     0.053 C 
ATOM      9  C   UNL d   1      -3.321   0.373  -0.052  0.00  0.00     0.018 C 
ENDBRANCH   1   8
TORSDOF 1
ENDMDL
