MODEL 1
REMARK minimizedAffinity 3.02831125
REMARK minimizedRMSD -1
REMARK  1 active torsions:
REMARK  status: ('A' for Active; 'I' for Inactive)
REMARK    1  A    between atoms: C1_2  and  C2_3 
ROOT
ATOM      1  C2  UNL d   1       1.540  -1.656   4.465  0.00  0.00    -0.073 A 
ATOM      2  C3  UNL d   1       0.234  -1.838   4.934  0.00  0.00    -0.002 A 
ATOM      3  C4  UNL d   1      -0.855  -1.435   4.160  0.00  0.00     0.004 A 
ATOM      4  C5  UNL d   1      -0.650  -0.854   2.909  0.00  0.00    -0.004 A 
ATOM      5  C6  UNL d   1       0.647  -0.674   2.418  0.00  0.00    -0.075 A 
ATOM      6  C7  UNL d   1       0.884  -0.048   1.075  0.00  0.00     0.076 C 
ATOM      7  C8  UNL d   1       1.736  -1.078   3.202  0.00  0.00     0.001 A 
ENDROOT
BRANCH   1   8
ATOM      8  C1  UNL d   1       2.719  -2.095   5.295  0.00  0.00     0.053 C 
ATOM      9  C   UNL d   1       3.458  -0.914   5.905  0.00  0.00     0.018 C 
ENDBRANCH   1   8
TORSDOF 1
ENDMDL
