MODEL 1
REMARK minimizedAffinity 6.0102911
REMARK minimizedRMSD -1
REMARK  1 active torsions:
REMARK  status: ('A' for Active; 'I' for Inactive)
REMARK    1  A    between atoms: C1_2  and  C2_3 
ROOT
ATOM      1  C2  UNL d   1      -0.090  -0.343   0.584  0.00  0.00    -0.073 A 
ATOM      2  C3  UNL d   1      -0.393  -0.260   1.947  0.00  0.00    -0.002 A 
ATOM      3  C4  UNL d   1      -1.716  -0.116   2.368  0.00  0.00     0.004 A 
ATOM      4  C5  UNL d   1      -2.749  -0.061   1.432  0.00  0.00    -0.004 A 
ATOM      5  C6  UNL d   1      -2.467  -0.154   0.065  0.00  0.00    -0.075 A 
ATOM      6  C7  UNL d   1      -3.566  -0.094  -0.955  0.00  0.00     0.076 C 
ATOM      7  C8  UNL d   1      -1.136  -0.296  -0.350  0.00  0.00     0.001 A 
ENDROOT
BRANCH   1   8
ATOM      8  C1  UNL d   1       1.336  -0.504   0.125  0.00  0.00     0.053 C 
ATOM      9  C   UNL d   1       1.995   0.834  -0.171  0.00  0.00     0.018 C 
ENDBRANCH   1   8
TORSDOF 1
ENDMDL
