MODEL 1
REMARK minimizedAffinity 8.38871574
REMARK minimizedRMSD -1
REMARK  1 active torsions:
REMARK  status: ('A' for Active; 'I' for Inactive)
REMARK    1  A    between atoms: C1_2  and  C2_3 
ROOT
ATOM      1  C2  UNL d   1      -1.064   0.030   2.184  0.00  0.00    -0.073 A 
ATOM      2  C3  UNL d   1      -0.273   0.212   1.044  0.00  0.00    -0.002 A 
ATOM      3  C4  UNL d   1       1.086  -0.104   1.072  0.00  0.00     0.004 A 
ATOM      4  C5  UNL d   1       1.666  -0.610   2.236  0.00  0.00    -0.004 A 
ATOM      5  C6  UNL d   1       0.889  -0.809   3.382  0.00  0.00    -0.075 A 
ATOM      6  C7  UNL d   1       1.497  -1.351   4.642  0.00  0.00     0.076 C 
ATOM      7  C8  UNL d   1      -0.475  -0.488   3.346  0.00  0.00     0.001 A 
ENDROOT
BRANCH   1   8
ATOM      8  C1  UNL d   1      -2.534   0.363   2.156  0.00  0.00     0.053 C 
ATOM      9  C   UNL d   1      -3.101   0.321   0.747  0.00  0.00     0.018 C 
ENDBRANCH   1   8
TORSDOF 1
ENDMDL
