MODEL 1
REMARK minimizedAffinity 9.42018127
REMARK minimizedRMSD -1
REMARK  1 active torsions:
REMARK  status: ('A' for Active; 'I' for Inactive)
REMARK    1  A    between atoms: C1_2  and  C2_3 
ROOT
ATOM      1  C2  UNL d   1      -1.745  -0.102   1.848  0.00  0.00    -0.073 A 
ATOM      2  C3  UNL d   1      -2.780  -0.745   2.536  0.00  0.00    -0.002 A 
ATOM      3  C4  UNL d   1      -2.494  -1.600   3.602  0.00  0.00     0.004 A 
ATOM      4  C5  UNL d   1      -1.173  -1.814   3.994  0.00  0.00    -0.004 A 
ATOM      5  C6  UNL d   1      -0.126  -1.172   3.326  0.00  0.00    -0.075 A 
ATOM      6  C7  UNL d   1       1.301  -1.394   3.735  0.00  0.00     0.076 C 
ATOM      7  C8  UNL d   1      -0.421  -0.317   2.256  0.00  0.00     0.001 A 
ENDROOT
BRANCH   1   8
ATOM      8  C1  UNL d   1      -2.050   0.826   0.701  0.00  0.00     0.053 C 
ATOM      9  C   UNL d   1      -2.534   0.074  -0.529  0.00  0.00     0.018 C 
ENDBRANCH   1   8
TORSDOF 1
ENDMDL
