MODEL 1
REMARK minimizedAffinity 0.407575458
REMARK minimizedRMSD -1
REMARK  1 active torsions:
REMARK  status: ('A' for Active; 'I' for Inactive)
REMARK    1  A    between atoms: C1_2  and  C2_3 
ROOT
ATOM      1  C2  UNL d   1       3.810   5.137   2.710  0.00  0.00    -0.073 A 
ATOM      2  C3  UNL d   1       4.914   5.996   2.770  0.00  0.00    -0.002 A 
ATOM      3  C4  UNL d   1       5.990   5.703   3.609  0.00  0.00     0.004 A 
ATOM      4  C5  UNL d   1       5.977   4.548   4.390  0.00  0.00    -0.004 A 
ATOM      5  C6  UNL d   1       4.889   3.671   4.335  0.00  0.00    -0.075 A 
ATOM      6  C7  UNL d   1       4.859   2.425   5.170  0.00  0.00     0.076 C 
ATOM      7  C8  UNL d   1       3.811   3.973   3.492  0.00  0.00     0.001 A 
ENDROOT
BRANCH   1   8
ATOM      8  C1  UNL d   1       2.649   5.446   1.801  0.00  0.00     0.053 C 
ATOM      9  C   UNL d   1       3.106   5.990   0.457  0.00  0.00     0.018 C 
ENDBRANCH   1   8
TORSDOF 1
ENDMDL
