MODEL 1
REMARK minimizedAffinity -0.425524831
REMARK minimizedRMSD -1
REMARK  1 active torsions:
REMARK  status: ('A' for Active; 'I' for Inactive)
REMARK    1  A    between atoms: C1_2  and  C2_3 
ROOT
ATOM      1  C2  UNL d   1      -0.258  -0.631   2.616  0.00  0.00    -0.073 A 
ATOM      2  C3  UNL d   1      -1.483  -0.117   3.054  0.00  0.00    -0.002 A 
ATOM      3  C4  UNL d   1      -2.483   0.202   2.134  0.00  0.00     0.004 A 
ATOM      4  C5  UNL d   1      -2.271   0.003   0.770  0.00  0.00    -0.004 A 
ATOM      5  C6  UNL d   1      -1.057  -0.521   0.313  0.00  0.00    -0.075 A 
ATOM      6  C7  UNL d   1      -0.812  -0.738  -1.151  0.00  0.00     0.076 C 
ATOM      7  C8  UNL d   1      -0.057  -0.836   1.243  0.00  0.00     0.001 A 
ENDROOT
BRANCH   1   8
ATOM      8  C1  UNL d   1       0.823  -0.982   3.606  0.00  0.00     0.053 C 
ATOM      9  C   UNL d   1       0.290  -1.821   4.757  0.00  0.00     0.018 C 
ENDBRANCH   1   8
TORSDOF 1
ENDMDL
