MODEL 1
REMARK minimizedAffinity 2.66789055
REMARK minimizedRMSD -1
REMARK  1 active torsions:
REMARK  status: ('A' for Active; 'I' for Inactive)
REMARK    1  A    between atoms: C1_2  and  C2_3 
ROOT
ATOM      1  C2  UNL d   1       0.767   0.266  -0.341  0.00  0.00    -0.076 A 
ATOM      2  C3  UNL d   1       0.049   1.343   0.208  0.00  0.00     0.004 A 
ATOM      3  C4  UNL d   1       0.361   1.844   1.471  0.00  0.00    -0.003 A 
ATOM      4  C5  UNL d   1       1.397   1.277   2.205  0.00  0.00     0.000 A 
ATOM      5  C6  UNL d   1       2.131   0.220   1.668  0.00  0.00     0.000 A 
ATOM      6  C7  UNL d   1       1.840  -0.287   0.390  0.00  0.00    -0.073 A 
ATOM      7  C8  UNL d   1       2.661  -1.432  -0.137  0.00  0.00     0.078 C 
ENDROOT
BRANCH   1   8
ATOM      8  C1  UNL d   1       0.366  -0.252  -1.704  0.00  0.00     0.053 C 
ATOM      9  C   UNL d   1       0.913   0.603  -2.837  0.00  0.00     0.018 C 
ENDBRANCH   1   8
TORSDOF 1
ENDMDL
