MODEL 1
REMARK minimizedAffinity -0.794112206
REMARK minimizedRMSD -1
REMARK  1 active torsions:
REMARK  status: ('A' for Active; 'I' for Inactive)
REMARK    1  A    between atoms: C1_2  and  C2_3 
ROOT
ATOM      1  C2  UNL d   1       0.714   0.165   0.860  0.00  0.00    -0.076 A 
ATOM      2  C3  UNL d   1       0.849  -0.485  -0.379  0.00  0.00     0.004 A 
ATOM      3  C4  UNL d   1      -0.246  -0.645  -1.227  0.00  0.00    -0.003 A 
ATOM      4  C5  UNL d   1      -1.492  -0.157  -0.850  0.00  0.00     0.000 A 
ATOM      5  C6  UNL d   1      -1.640   0.506   0.367  0.00  0.00     0.000 A 
ATOM      6  C7  UNL d   1      -0.543   0.690   1.227  0.00  0.00    -0.073 A 
ATOM      7  C8  UNL d   1      -0.761   1.407   2.531  0.00  0.00     0.078 C 
ENDROOT
BRANCH   1   8
ATOM      8  C1  UNL d   1       1.931   0.286   1.750  0.00  0.00     0.053 C 
ATOM      9  C   UNL d   1       2.858  -0.914   1.636  0.00  0.00     0.018 C 
ENDBRANCH   1   8
TORSDOF 1
ENDMDL
