MODEL 1
REMARK minimizedAffinity 7.64185143
REMARK minimizedRMSD -1
REMARK  1 active torsions:
REMARK  status: ('A' for Active; 'I' for Inactive)
REMARK    1  A    between atoms: C1_2  and  C2_3 
ROOT
ATOM      1  C2  UNL d   1       0.038   0.805   2.884  0.00  0.00    -0.076 A 
ATOM      2  C3  UNL d   1       1.428   0.860   3.088  0.00  0.00     0.004 A 
ATOM      3  C4  UNL d   1       2.204  -0.297   3.052  0.00  0.00    -0.003 A 
ATOM      4  C5  UNL d   1       1.604  -1.527   2.810  0.00  0.00     0.000 A 
ATOM      5  C6  UNL d   1       0.229  -1.598   2.588  0.00  0.00     0.000 A 
ATOM      6  C7  UNL d   1      -0.566  -0.439   2.605  0.00  0.00    -0.073 A 
ATOM      7  C8  UNL d   1      -2.045  -0.574   2.365  0.00  0.00     0.078 C 
ENDROOT
BRANCH   1   8
ATOM      8  C1  UNL d   1      -0.757   2.089   2.962  0.00  0.00     0.053 C 
ATOM      9  C   UNL d   1      -0.875   2.784   1.614  0.00  0.00     0.018 C 
ENDBRANCH   1   8
TORSDOF 1
ENDMDL
