MODEL 1
REMARK minimizedAffinity 1.07685769
REMARK minimizedRMSD -1
REMARK  1 active torsions:
REMARK  status: ('A' for Active; 'I' for Inactive)
REMARK    1  A    between atoms: C1_2  and  C2_3 
ROOT
ATOM      1  C2  UNL d   1      -0.000  -0.063   3.106  0.00  0.00    -0.076 A 
ATOM      2  C3  UNL d   1      -0.628  -1.183   3.679  0.00  0.00     0.004 A 
ATOM      3  C4  UNL d   1       0.120  -2.241   4.192  0.00  0.00    -0.003 A 
ATOM      4  C5  UNL d   1       1.509  -2.196   4.141  0.00  0.00     0.000 A 
ATOM      5  C6  UNL d   1       2.149  -1.085   3.593  0.00  0.00     0.000 A 
ATOM      6  C7  UNL d   1       1.410  -0.002   3.086  0.00  0.00    -0.073 A 
ATOM      7  C8  UNL d   1       2.152   1.168   2.500  0.00  0.00     0.078 C 
ENDROOT
BRANCH   1   8
ATOM      8  C1  UNL d   1      -0.864   1.042   2.541  0.00  0.00     0.053 C 
ATOM      9  C   UNL d   1      -2.163   0.520   1.947  0.00  0.00     0.018 C 
ENDBRANCH   1   8
TORSDOF 1
ENDMDL
