MODEL 1
REMARK minimizedAffinity 1.65919507
REMARK minimizedRMSD -1
REMARK  1 active torsions:
REMARK  status: ('A' for Active; 'I' for Inactive)
REMARK    1  A    between atoms: C1_2  and  C2_3 
ROOT
ATOM      1  C2  UNL d   1      -0.694  -0.180   1.030  0.00  0.00    -0.076 A 
ATOM      2  C3  UNL d   1      -1.378   0.814   1.752  0.00  0.00     0.004 A 
ATOM      3  C4  UNL d   1      -2.560   1.369   1.266  0.00  0.00    -0.003 A 
ATOM      4  C5  UNL d   1      -3.079   0.938   0.050  0.00  0.00     0.000 A 
ATOM      5  C6  UNL d   1      -2.424  -0.060  -0.671  0.00  0.00     0.000 A 
ATOM      6  C7  UNL d   1      -1.240  -0.641  -0.187  0.00  0.00    -0.073 A 
ATOM      7  C8  UNL d   1      -0.572  -1.709  -1.009  0.00  0.00     0.078 C 
ENDROOT
BRANCH   1   8
ATOM      8  C1  UNL d   1       0.598  -0.726   1.594  0.00  0.00     0.053 C 
ATOM      9  C   UNL d   1       0.502  -1.031   3.081  0.00  0.00     0.018 C 
ENDBRANCH   1   8
TORSDOF 1
ENDMDL
