MODEL 1
REMARK minimizedAffinity 1.43404377
REMARK minimizedRMSD -1
REMARK  1 active torsions:
REMARK  status: ('A' for Active; 'I' for Inactive)
REMARK    1  A    between atoms: C1_2  and  C2_3 
ROOT
ATOM      1  C2  UNL d   1      -0.689  -0.288   2.941  0.00  0.00    -0.076 A 
ATOM      2  C3  UNL d   1      -1.710  -0.177   1.980  0.00  0.00     0.004 A 
ATOM      3  C4  UNL d   1      -1.418   0.152   0.658  0.00  0.00    -0.003 A 
ATOM      4  C5  UNL d   1      -0.100   0.375   0.274  0.00  0.00     0.000 A 
ATOM      5  C6  UNL d   1       0.927   0.251   1.209  0.00  0.00     0.000 A 
ATOM      6  C7  UNL d   1       0.651  -0.096   2.543  0.00  0.00    -0.073 A 
ATOM      7  C8  UNL d   1       1.797  -0.209   3.511  0.00  0.00     0.078 C 
ENDROOT
BRANCH   1   8
ATOM      8  C1  UNL d   1      -1.069  -0.620   4.366  0.00  0.00     0.053 C 
ATOM      9  C   UNL d   1      -1.144   0.613   5.252  0.00  0.00     0.018 C 
ENDBRANCH   1   8
TORSDOF 1
ENDMDL
