MODEL 1
REMARK minimizedAffinity 7.0484395
REMARK minimizedRMSD -1
REMARK  1 active torsions:
REMARK  status: ('A' for Active; 'I' for Inactive)
REMARK    1  A    between atoms: C1_2  and  C2_3 
ROOT
ATOM      1  C2  UNL d   1      -2.858  -3.095  -5.973  0.00  0.00    -0.076 A 
ATOM      2  C3  UNL d   1      -2.884  -4.501  -5.996  0.00  0.00     0.004 A 
ATOM      3  C4  UNL d   1      -1.703  -5.240  -5.999  0.00  0.00    -0.003 A 
ATOM      4  C5  UNL d   1      -0.476  -4.587  -5.979  0.00  0.00     0.000 A 
ATOM      5  C6  UNL d   1      -0.431  -3.193  -5.938  0.00  0.00     0.000 A 
ATOM      6  C7  UNL d   1      -1.613  -2.433  -5.918  0.00  0.00    -0.073 A 
ATOM      7  C8  UNL d   1      -1.506  -0.933  -5.880  0.00  0.00     0.078 C 
ENDROOT
BRANCH   1   8
ATOM      8  C1  UNL d   1      -4.171  -2.346  -5.999  0.00  0.00     0.053 C 
ATOM      9  C   UNL d   1      -5.374  -3.277  -5.980  0.00  0.00     0.018 C 
ENDBRANCH   1   8
TORSDOF 1
ENDMDL
