MODEL 1
REMARK minimizedAffinity 2.810781
REMARK minimizedRMSD -1
REMARK  1 active torsions:
REMARK  status: ('A' for Active; 'I' for Inactive)
REMARK    1  A    between atoms: C1_2  and  C2_3 
ROOT
ATOM      1  C2  UNL d   1       4.257   4.601   2.842  0.00  0.00    -0.076 A 
ATOM      2  C3  UNL d   1       3.652   5.836   2.550  0.00  0.00     0.004 A 
ATOM      3  C4  UNL d   1       2.509   5.904   1.755  0.00  0.00    -0.003 A 
ATOM      4  C5  UNL d   1       1.952   4.738   1.240  0.00  0.00     0.000 A 
ATOM      5  C6  UNL d   1       2.529   3.504   1.535  0.00  0.00     0.000 A 
ATOM      6  C7  UNL d   1       3.672   3.416   2.348  0.00  0.00    -0.073 A 
ATOM      7  C8  UNL d   1       4.256   2.059   2.628  0.00  0.00     0.078 C 
ENDROOT
BRANCH   1   8
ATOM      8  C1  UNL d   1       5.511   4.592   3.687  0.00  0.00     0.053 C 
ATOM      9  C   UNL d   1       5.995   5.993   4.028  0.00  0.00     0.018 C 
ENDBRANCH   1   8
TORSDOF 1
ENDMDL
