MODEL 1
REMARK minimizedAffinity 2.33799529
REMARK minimizedRMSD -1
REMARK  1 active torsions:
REMARK  status: ('A' for Active; 'I' for Inactive)
REMARK    1  A    between atoms: C1_2  and  C2_3 
ROOT
ATOM      1  C2  UNL d   1      -0.882  -0.901   3.307  0.00  0.00    -0.076 A 
ATOM      2  C3  UNL d   1       0.063  -0.277   2.474  0.00  0.00     0.004 A 
ATOM      3  C4  UNL d   1      -0.278   0.140   1.189  0.00  0.00    -0.003 A 
ATOM      4  C5  UNL d   1      -1.570  -0.058   0.716  0.00  0.00     0.000 A 
ATOM      5  C6  UNL d   1      -2.525  -0.659   1.534  0.00  0.00     0.000 A 
ATOM      6  C7  UNL d   1      -2.203  -1.071   2.838  0.00  0.00    -0.073 A 
ATOM      7  C8  UNL d   1      -3.271  -1.720   3.676  0.00  0.00     0.078 C 
ENDROOT
BRANCH   1   8
ATOM      8  C1  UNL d   1      -0.448  -1.358   4.681  0.00  0.00     0.053 C 
ATOM      9  C   UNL d   1       1.065  -1.381   4.836  0.00  0.00     0.018 C 
ENDBRANCH   1   8
TORSDOF 1
ENDMDL
