MODEL 1
REMARK minimizedAffinity -4.33483839
REMARK minimizedRMSD -1
REMARK  0 active torsions:
REMARK  status: ('A' for Active; 'I' for Inactive)
ROOT
ATOM      1  C1  DEN d   1      -0.218   0.917   0.246  0.00  0.00     0.130 A 
ATOM      2  C2  DEN d   1       1.178   1.061  -0.160  0.00  0.00    -0.031 A 
ATOM      3  C3  DEN d   1       1.748  -0.291  -0.324  0.00  0.00     0.027 A 
ATOM      4  C4  DEN d   1       0.609  -2.582   0.005  0.00  0.00     0.027 A 
ATOM      5  C5  DEN d   1      -0.563  -3.213   0.358  0.00  0.00    -0.003 A 
ATOM      6  C6  DEN d   1      -1.684  -2.517   0.728  0.00  0.00     0.001 A 
ATOM      7  C7  DEN d   1      -1.669  -1.147   0.710  0.00  0.00     0.017 A 
ATOM      8  C8  DEN d   1      -0.488  -0.505   0.363  0.00  0.00    -0.094 A 
ATOM      9  C9  DEN d   1       0.630  -1.226  -0.020  0.00  0.00    -0.072 A 
ENDROOT
TORSDOF 0
ENDMDL
