MODEL 1
REMARK minimizedAffinity -4.15066957
REMARK minimizedRMSD -1
REMARK  0 active torsions:
REMARK  status: ('A' for Active; 'I' for Inactive)
ROOT
ATOM      1  C1  DEN d   1       0.017   1.198   1.348  0.00  0.00     0.130 A 
ATOM      2  C2  DEN d   1       1.088   1.547   0.418  0.00  0.00    -0.031 A 
ATOM      3  C3  DEN d   1       1.364   0.366  -0.424  0.00  0.00     0.027 A 
ATOM      4  C4  DEN d   1       0.241  -1.955  -0.383  0.00  0.00     0.027 A 
ATOM      5  C5  DEN d   1      -0.712  -2.730   0.241  0.00  0.00    -0.003 A 
ATOM      6  C6  DEN d   1      -1.459  -2.265   1.291  0.00  0.00     0.001 A 
ATOM      7  C7  DEN d   1      -1.297  -0.974   1.720  0.00  0.00     0.017 A 
ATOM      8  C8  DEN d   1      -0.333  -0.189   1.101  0.00  0.00    -0.094 A 
ATOM      9  C9  DEN d   1       0.403  -0.673   0.033  0.00  0.00    -0.072 A 
ENDROOT
TORSDOF 0
ENDMDL
