MODEL 1
REMARK minimizedAffinity -1.47062802
REMARK minimizedRMSD -1
REMARK  0 active torsions:
REMARK  status: ('A' for Active; 'I' for Inactive)
ROOT
ATOM      1  C1  DEN d   1       1.683  -0.390  -0.233  0.00  0.00     0.130 A 
ATOM      2  C2  DEN d   1       0.990   0.894  -0.303  0.00  0.00    -0.031 A 
ATOM      3  C3  DEN d   1      -0.429   0.667   0.036  0.00  0.00     0.027 A 
ATOM      4  C4  DEN d   1      -1.614  -1.536   0.664  0.00  0.00     0.027 A 
ATOM      5  C5  DEN d   1      -1.443  -2.891   0.845  0.00  0.00    -0.003 A 
ATOM      6  C6  DEN d   1      -0.236  -3.507   0.649  0.00  0.00     0.001 A 
ATOM      7  C7  DEN d   1       0.859  -2.760   0.302  0.00  0.00     0.017 A 
ATOM      8  C8  DEN d   1       0.693  -1.395   0.110  0.00  0.00    -0.094 A 
ATOM      9  C9  DEN d   1      -0.533  -0.789   0.326  0.00  0.00    -0.072 A 
ENDROOT
TORSDOF 0
ENDMDL
