MODEL 1
REMARK minimizedAffinity -1.87797403
REMARK minimizedRMSD -1
REMARK  0 active torsions:
REMARK  status: ('A' for Active; 'I' for Inactive)
ROOT
ATOM      1  C1  DEN d   1       0.079  -2.382   0.441  0.00  0.00     0.130 A 
ATOM      2  C2  DEN d   1       0.691  -3.112  -0.665  0.00  0.00    -0.031 A 
ATOM      3  C3  DEN d   1       0.887  -2.167  -1.783  0.00  0.00     0.027 A 
ATOM      4  C4  DEN d   1       0.309   0.344  -1.905  0.00  0.00     0.027 A 
ATOM      5  C5  DEN d   1      -0.236   1.405  -1.217  0.00  0.00    -0.003 A 
ATOM      6  C6  DEN d   1      -0.742   1.272   0.049  0.00  0.00     0.001 A 
ATOM      7  C7  DEN d   1      -0.671   0.060   0.684  0.00  0.00     0.017 A 
ATOM      8  C8  DEN d   1      -0.129  -1.016  -0.006  0.00  0.00    -0.094 A 
ATOM      9  C9  DEN d   1       0.388  -0.858  -1.281  0.00  0.00    -0.072 A 
ENDROOT
TORSDOF 0
ENDMDL
