MODEL 1
REMARK minimizedAffinity -4.94966745
REMARK minimizedRMSD -1
REMARK  0 active torsions:
REMARK  status: ('A' for Active; 'I' for Inactive)
ROOT
ATOM      1  C1  DEN d   1       1.074  -0.202  -0.997  0.00  0.00     0.130 A 
ATOM      2  C2  DEN d   1       0.705   1.176  -0.686  0.00  0.00    -0.031 A 
ATOM      3  C3  DEN d   1      -0.468   1.144   0.210  0.00  0.00     0.027 A 
ATOM      4  C4  DEN d   1      -1.739  -0.897   1.146  0.00  0.00     0.027 A 
ATOM      5  C5  DEN d   1      -1.803  -2.272   1.153  0.00  0.00    -0.003 A 
ATOM      6  C6  DEN d   1      -0.941  -3.047   0.423  0.00  0.00     0.001 A 
ATOM      7  C7  DEN d   1       0.052  -2.453  -0.310  0.00  0.00     0.017 A 
ATOM      8  C8  DEN d   1       0.118  -1.066  -0.328  0.00  0.00    -0.094 A 
ATOM      9  C9  DEN d   1      -0.755  -0.300   0.427  0.00  0.00    -0.072 A 
ENDROOT
TORSDOF 0
ENDMDL
