MODEL 1
REMARK minimizedAffinity -0.292796433
REMARK minimizedRMSD -1
REMARK  0 active torsions:
REMARK  status: ('A' for Active; 'I' for Inactive)
ROOT
ATOM      1  C1  DEN d   1      -1.524  -2.805   0.213  0.00  0.00     0.130 A 
ATOM      2  C2  DEN d   1      -2.097  -2.443   1.506  0.00  0.00    -0.031 A 
ATOM      3  C3  DEN d   1      -1.726  -1.043   1.794  0.00  0.00     0.027 A 
ATOM      4  C4  DEN d   1      -0.329   0.592   0.369  0.00  0.00     0.027 A 
ATOM      5  C5  DEN d   1       0.382   0.735  -0.802  0.00  0.00    -0.003 A 
ATOM      6  C6  DEN d   1       0.535  -0.294  -1.693  0.00  0.00     0.001 A 
ATOM      7  C7  DEN d   1      -0.069  -1.499  -1.449  0.00  0.00     0.017 A 
ATOM      8  C8  DEN d   1      -0.782  -1.653  -0.267  0.00  0.00    -0.094 A 
ATOM      9  C9  DEN d   1      -0.935  -0.597   0.615  0.00  0.00    -0.072 A 
ENDROOT
TORSDOF 0
ENDMDL
