MODEL 1
REMARK minimizedAffinity -5.1934247
REMARK minimizedRMSD -1
REMARK  0 active torsions:
REMARK  status: ('A' for Active; 'I' for Inactive)
ROOT
ATOM      1  C1  DEN d   1      -1.175  -0.059   1.881  0.00  0.00     0.130 A 
ATOM      2  C2  DEN d   1      -1.966  -0.935   2.742  0.00  0.00    -0.031 A 
ATOM      3  C3  DEN d   1      -1.833  -2.315   2.235  0.00  0.00     0.027 A 
ATOM      4  C4  DEN d   1      -0.482  -3.177   0.214  0.00  0.00     0.027 A 
ATOM      5  C5  DEN d   1       0.339  -2.807  -0.828  0.00  0.00    -0.003 A 
ATOM      6  C6  DEN d   1       0.684  -1.501  -1.058  0.00  0.00     0.001 A 
ATOM      7  C7  DEN d   1       0.240  -0.523  -0.208  0.00  0.00     0.017 A 
ATOM      8  C8  DEN d   1      -0.595  -0.888   0.840  0.00  0.00    -0.094 A 
ATOM      9  C9  DEN d   1      -0.921  -2.215   1.063  0.00  0.00    -0.072 A 
ENDROOT
TORSDOF 0
ENDMDL
