MODEL 1
REMARK minimizedAffinity -3.62253952
REMARK minimizedRMSD -1
REMARK  0 active torsions:
REMARK  status: ('A' for Active; 'I' for Inactive)
ROOT
ATOM      1  C1  DEN d   1       0.952   1.904  -0.097  0.00  0.00     0.130 A 
ATOM      2  C2  DEN d   1       0.775   1.867   1.352  0.00  0.00    -0.031 A 
ATOM      3  C3  DEN d   1       0.468   0.476   1.740  0.00  0.00     0.027 A 
ATOM      4  C4  DEN d   1       0.253  -1.615   0.245  0.00  0.00     0.027 A 
ATOM      5  C5  DEN d   1       0.306  -2.079  -1.051  0.00  0.00    -0.003 A 
ATOM      6  C6  DEN d   1       0.542  -1.249  -2.114  0.00  0.00     0.001 A 
ATOM      7  C7  DEN d   1       0.780   0.083  -1.896  0.00  0.00     0.017 A 
ATOM      8  C8  DEN d   1       0.721   0.559  -0.593  0.00  0.00    -0.094 A 
ATOM      9  C9  DEN d   1       0.492  -0.298   0.470  0.00  0.00    -0.072 A 
ENDROOT
TORSDOF 0
ENDMDL
