MODEL 1
REMARK minimizedAffinity -2.79754257
REMARK minimizedRMSD -1
REMARK  0 active torsions:
REMARK  status: ('A' for Active; 'I' for Inactive)
ROOT
ATOM      1  C1  DEN d   1      -0.777  -2.966  -1.896  0.00  0.00     0.130 A 
ATOM      2  C2  DEN d   1      -0.091  -1.934  -2.669  0.00  0.00    -0.031 A 
ATOM      3  C3  DEN d   1       0.053  -0.741  -1.811  0.00  0.00     0.027 A 
ATOM      4  C4  DEN d   1      -0.712  -0.394   0.627  0.00  0.00     0.027 A 
ATOM      5  C5  DEN d   1      -1.349  -0.980   1.698  0.00  0.00    -0.003 A 
ATOM      6  C6  DEN d   1      -1.866  -2.247   1.635  0.00  0.00     0.001 A 
ATOM      7  C7  DEN d   1      -1.715  -2.986   0.492  0.00  0.00     0.017 A 
ATOM      8  C8  DEN d   1      -1.081  -2.399  -0.594  0.00  0.00    -0.094 A 
ATOM      9  C9  DEN d   1      -0.554  -1.121  -0.507  0.00  0.00    -0.072 A 
ENDROOT
TORSDOF 0
ENDMDL
