MODEL 1
REMARK minimizedAffinity -4.77144814
REMARK minimizedRMSD -1
REMARK  0 active torsions:
REMARK  status: ('A' for Active; 'I' for Inactive)
ROOT
ATOM      1  C1  DEN d   1       1.331  -0.558  -0.948  0.00  0.00     0.130 A 
ATOM      2  C2  DEN d   1       1.030   0.858  -0.759  0.00  0.00    -0.031 A 
ATOM      3  C3  DEN d   1      -0.066   0.965   0.225  0.00  0.00     0.027 A 
ATOM      4  C4  DEN d   1      -1.316  -0.915   1.471  0.00  0.00     0.027 A 
ATOM      5  C5  DEN d   1      -1.421  -2.280   1.631  0.00  0.00    -0.003 A 
ATOM      6  C6  DEN d   1      -0.645  -3.159   0.924  0.00  0.00     0.001 A 
ATOM      7  C7  DEN d   1       0.302  -2.684   0.056  0.00  0.00     0.017 A 
ATOM      8  C8  DEN d   1       0.408  -1.310  -0.116  0.00  0.00    -0.094 A 
ATOM      9  C9  DEN d   1      -0.377  -0.436   0.617  0.00  0.00    -0.072 A 
ENDROOT
TORSDOF 0
ENDMDL
