MODEL 1
REMARK minimizedAffinity -3.53871441
REMARK minimizedRMSD -1
REMARK  0 active torsions:
REMARK  status: ('A' for Active; 'I' for Inactive)
ROOT
ATOM      1  C1  DEN d   1      -1.773  -0.024   1.100  0.00  0.00     0.130 A 
ATOM      2  C2  DEN d   1      -2.589  -0.843   1.993  0.00  0.00    -0.031 A 
ATOM      3  C3  DEN d   1      -2.006  -2.199   2.029  0.00  0.00     0.027 A 
ATOM      4  C4  DEN d   1       0.073  -3.105   0.799  0.00  0.00     0.027 A 
ATOM      5  C5  DEN d   1       1.084  -2.787  -0.080  0.00  0.00    -0.003 A 
ATOM      6  C6  DEN d   1       1.194  -1.546  -0.649  0.00  0.00     0.001 A 
ATOM      7  C7  DEN d   1       0.302  -0.563  -0.310  0.00  0.00     0.017 A 
ATOM      8  C8  DEN d   1      -0.725  -0.878   0.570  0.00  0.00    -0.094 A 
ATOM      9  C9  DEN d   1      -0.812  -2.135   1.144  0.00  0.00    -0.072 A 
ENDROOT
TORSDOF 0
ENDMDL
