MODEL 1
REMARK minimizedAffinity -2.69847131
REMARK minimizedRMSD -1
REMARK  0 active torsions:
REMARK  status: ('A' for Active; 'I' for Inactive)
ROOT
ATOM      1  C1  DEN d   1       0.003   0.967   0.608  0.00  0.00     0.130 A 
ATOM      2  C2  DEN d   1       1.349   1.028   0.046  0.00  0.00    -0.031 A 
ATOM      3  C3  DEN d   1       1.782  -0.351  -0.254  0.00  0.00     0.027 A 
ATOM      4  C4  DEN d   1       0.503  -2.564   0.091  0.00  0.00     0.027 A 
ATOM      5  C5  DEN d   1      -0.669  -3.124   0.549  0.00  0.00    -0.003 A 
ATOM      6  C6  DEN d   1      -1.678  -2.368   1.086  0.00  0.00     0.001 A 
ATOM      7  C7  DEN d   1      -1.551  -1.005   1.137  0.00  0.00     0.017 A 
ATOM      8  C8  DEN d   1      -0.369  -0.434   0.683  0.00  0.00    -0.094 A 
ATOM      9  C9  DEN d   1       0.634  -1.214   0.133  0.00  0.00    -0.072 A 
ENDROOT
TORSDOF 0
ENDMDL
