MODEL 1
REMARK minimizedAffinity -5.20467138
REMARK minimizedRMSD -1
REMARK  0 active torsions:
REMARK  status: ('A' for Active; 'I' for Inactive)
ROOT
ATOM      1  C1  DEN d   1      -0.285   0.879   0.686  0.00  0.00     0.130 A 
ATOM      2  C2  DEN d   1       0.025   1.756  -0.439  0.00  0.00    -0.031 A 
ATOM      3  C3  DEN d   1       0.529   0.918  -1.546  0.00  0.00     0.027 A 
ATOM      4  C4  DEN d   1       0.851  -1.639  -1.628  0.00  0.00     0.027 A 
ATOM      5  C5  DEN d   1       0.735  -2.809  -0.910  0.00  0.00    -0.003 A 
ATOM      6  C6  DEN d   1       0.307  -2.827   0.391  0.00  0.00     0.001 A 
ATOM      7  C7  DEN d   1      -0.065  -1.658   1.000  0.00  0.00     0.017 A 
ATOM      8  C8  DEN d   1       0.056  -0.474   0.285  0.00  0.00    -0.094 A 
ATOM      9  C9  DEN d   1       0.480  -0.477  -1.033  0.00  0.00    -0.072 A 
ENDROOT
TORSDOF 0
ENDMDL
