MODEL 1
REMARK minimizedAffinity -4.15521717
REMARK minimizedRMSD -1
REMARK  0 active torsions:
REMARK  status: ('A' for Active; 'I' for Inactive)
ROOT
ATOM      1  C1  DEN d   1      -0.459  -0.447   2.048  0.00  0.00     0.130 A 
ATOM      2  C2  DEN d   1      -1.106  -1.708   1.696  0.00  0.00    -0.031 A 
ATOM      3  C3  DEN d   1      -1.164  -1.796   0.223  0.00  0.00     0.027 A 
ATOM      4  C4  DEN d   1      -0.315  -0.113  -1.537  0.00  0.00     0.027 A 
ATOM      5  C5  DEN d   1       0.295   1.108  -1.720  0.00  0.00    -0.003 A 
ATOM      6  C6  DEN d   1       0.663   1.905  -0.669  0.00  0.00     0.001 A 
ATOM      7  C7  DEN d   1       0.465   1.470   0.615  0.00  0.00     0.017 A 
ATOM      8  C8  DEN d   1      -0.156   0.243   0.807  0.00  0.00    -0.094 A 
ATOM      9  C9  DEN d   1      -0.510  -0.554  -0.269  0.00  0.00    -0.072 A 
ENDROOT
TORSDOF 0
ENDMDL
