MODEL 1
REMARK minimizedAffinity 4.70700741
REMARK minimizedRMSD -1
REMARK  0 active torsions:
REMARK  status: ('A' for Active; 'I' for Inactive)
ROOT
ATOM      1  C   UNL d   1       1.322  -1.575   1.766  0.00  0.00    -0.002 A 
ATOM      2  C1  UNL d   1       1.335  -1.237   0.420  0.00  0.00     0.010 A 
ATOM      3  C2  UNL d   1       0.205  -0.684  -0.184  0.00  0.00     0.041 A 
ATOM      4  C3  UNL d   1      -0.949  -0.471   0.595  0.00  0.00    -0.075 A 
ATOM      5  S   UNL d   1      -2.450   0.195   0.069  0.00  0.00     0.015 SA
ATOM      6  C4  UNL d   1      -3.144   0.049   1.619  0.00  0.00     0.022 A 
ATOM      7  C5  UNL d   1      -2.266  -0.494   2.528  0.00  0.00     0.026 A 
ATOM      8  C6  UNL d   1      -0.986  -0.802   1.952  0.00  0.00    -0.082 A 
ATOM      9  C7  UNL d   1       0.175  -1.363   2.536  0.00  0.00     0.045 A 
ENDROOT
TORSDOF 0
ENDMDL
