MODEL 1
REMARK minimizedAffinity 2.81281161
REMARK minimizedRMSD -1
REMARK  0 active torsions:
REMARK  status: ('A' for Active; 'I' for Inactive)
ROOT
ATOM      1  C   UNL d   1       3.500   4.743   1.900  0.00  0.00    -0.002 A 
ATOM      2  C1  UNL d   1       4.355   5.563   2.623  0.00  0.00     0.010 A 
ATOM      3  C2  UNL d   1       4.007   5.998   3.903  0.00  0.00     0.041 A 
ATOM      4  C3  UNL d   1       2.774   5.590   4.450  0.00  0.00    -0.075 A 
ATOM      5  S   UNL d   1       2.139   5.999   6.000  0.00  0.00     0.015 SA
ATOM      6  C4  UNL d   1       0.718   5.094   5.739  0.00  0.00     0.022 A 
ATOM      7  C5  UNL d   1       0.712   4.489   4.504  0.00  0.00     0.026 A 
ATOM      8  C6  UNL d   1       1.897   4.764   3.742  0.00  0.00    -0.082 A 
ATOM      9  C7  UNL d   1       2.279   4.340   2.446  0.00  0.00     0.045 A 
ENDROOT
TORSDOF 0
ENDMDL
