MODEL 1
REMARK minimizedAffinity 12.9786072
REMARK minimizedRMSD -1
REMARK  0 active torsions:
REMARK  status: ('A' for Active; 'I' for Inactive)
ROOT
ATOM      1  C   UNL d   1      -2.029  -0.642   1.069  0.00  0.00    -0.002 A 
ATOM      2  C1  UNL d   1      -2.196   0.657   0.610  0.00  0.00     0.010 A 
ATOM      3  C2  UNL d   1      -1.179   1.294  -0.104  0.00  0.00     0.041 A 
ATOM      4  C3  UNL d   1       0.019   0.596  -0.352  0.00  0.00    -0.075 A 
ATOM      5  S   UNL d   1       1.401   1.175  -1.206  0.00  0.00     0.015 SA
ATOM      6  C4  UNL d   1       2.244  -0.289  -0.982  0.00  0.00     0.022 A 
ATOM      7  C5  UNL d   1       1.505  -1.208  -0.275  0.00  0.00     0.026 A 
ATOM      8  C6  UNL d   1       0.210  -0.713   0.099  0.00  0.00    -0.082 A 
ATOM      9  C7  UNL d   1      -0.839  -1.331   0.821  0.00  0.00     0.045 A 
ENDROOT
TORSDOF 0
ENDMDL
