MODEL 1
REMARK minimizedAffinity 6.91515779
REMARK minimizedRMSD -1
REMARK  0 active torsions:
REMARK  status: ('A' for Active; 'I' for Inactive)
ROOT
ATOM      1  C   UNL d   1      -2.232  -0.064   1.884  0.00  0.00    -0.002 A 
ATOM      2  C1  UNL d   1      -2.768  -0.102   0.605  0.00  0.00     0.010 A 
ATOM      3  C2  UNL d   1      -1.951  -0.345  -0.501  0.00  0.00     0.041 A 
ATOM      4  C3  UNL d   1      -0.572  -0.553  -0.297  0.00  0.00    -0.075 A 
ATOM      5  S   UNL d   1       0.621  -0.869  -1.501  0.00  0.00     0.015 SA
ATOM      6  C4  UNL d   1       1.870  -0.962  -0.345  0.00  0.00     0.022 A 
ATOM      7  C5  UNL d   1       1.406  -0.758   0.933  0.00  0.00     0.026 A 
ATOM      8  C6  UNL d   1      -0.009  -0.520   0.982  0.00  0.00    -0.082 A 
ATOM      9  C7  UNL d   1      -0.864  -0.270   2.082  0.00  0.00     0.045 A 
ENDROOT
TORSDOF 0
ENDMDL
