MODEL 1
REMARK minimizedAffinity 4.94703817
REMARK minimizedRMSD -1
REMARK  0 active torsions:
REMARK  status: ('A' for Active; 'I' for Inactive)
ROOT
ATOM      1  C   UNL d   1       0.731   5.982   5.179  0.00  0.00    -0.002 A 
ATOM      2  C1  UNL d   1       1.850   5.993   5.998  0.00  0.00     0.010 A 
ATOM      3  C2  UNL d   1       3.133   5.998   5.448  0.00  0.00     0.041 A 
ATOM      4  C3  UNL d   1       3.274   5.993   4.046  0.00  0.00    -0.075 A 
ATOM      5  S   UNL d   1       4.746   5.999   3.148  0.00  0.00     0.015 SA
ATOM      6  C4  UNL d   1       3.923   5.987   1.656  0.00  0.00     0.022 A 
ATOM      7  C5  UNL d   1       2.558   5.979   1.820  0.00  0.00     0.026 A 
ATOM      8  C6  UNL d   1       2.161   5.983   3.200  0.00  0.00    -0.082 A 
ATOM      9  C7  UNL d   1       0.874   5.977   3.789  0.00  0.00     0.045 A 
ENDROOT
TORSDOF 0
ENDMDL
