MODEL 1
REMARK minimizedAffinity 3.24435687
REMARK minimizedRMSD -1
REMARK  0 active torsions:
REMARK  status: ('A' for Active; 'I' for Inactive)
ROOT
ATOM      1  C   UNL d   1       2.440  -3.134   0.999  0.00  0.00    -0.002 A 
ATOM      2  C1  UNL d   1       1.559  -3.009   2.064  0.00  0.00     0.010 A 
ATOM      3  C2  UNL d   1       0.447  -2.169   1.970  0.00  0.00     0.041 A 
ATOM      4  C3  UNL d   1       0.233  -1.452   0.777  0.00  0.00    -0.075 A 
ATOM      5  S   UNL d   1      -1.061  -0.366   0.435  0.00  0.00     0.015 SA
ATOM      6  C4  UNL d   1      -0.475  -0.042  -1.132  0.00  0.00     0.022 A 
ATOM      7  C5  UNL d   1       0.679  -0.738  -1.405  0.00  0.00     0.026 A 
ATOM      8  C6  UNL d   1       1.106  -1.562  -0.309  0.00  0.00    -0.082 A 
ATOM      9  C7  UNL d   1       2.225  -2.421  -0.183  0.00  0.00     0.045 A 
ENDROOT
TORSDOF 0
ENDMDL
