MODEL 1
REMARK minimizedAffinity 3.77412486
REMARK minimizedRMSD -1
REMARK  0 active torsions:
REMARK  status: ('A' for Active; 'I' for Inactive)
ROOT
ATOM      1  C   UNL d   1      -5.295  -4.011   1.920  0.00  0.00     0.020 A 
ATOM      2  C1  UNL d   1      -5.456  -5.392   2.016  0.00  0.00     0.020 A 
ATOM      3  C2  UNL d   1      -5.672  -5.986   3.261  0.00  0.00     0.034 A 
ATOM      4  C3  UNL d   1      -5.727  -5.197   4.416  0.00  0.00     0.017 A 
ATOM      5  C4  UNL d   1      -5.564  -3.811   4.320  0.00  0.00     0.017 A 
ATOM      6  C5  UNL d   1      -5.349  -3.222   3.070  0.00  0.00     0.034 A 
ATOM      7 Cl   UNL d   1      -5.619  -2.772   5.700  0.00  0.00    -0.070 Cl
ATOM      8 Cl1  UNL d   1      -5.997  -5.998   5.924  0.00  0.00    -0.070 Cl
ENDROOT
TORSDOF 0
ENDMDL
