MODEL 1
REMARK minimizedAffinity 17.6448746
REMARK minimizedRMSD -1
REMARK  0 active torsions:
REMARK  status: ('A' for Active; 'I' for Inactive)
ROOT
ATOM      1  C   UNL d   1      -2.754  -0.115   1.516  0.00  0.00     0.020 A 
ATOM      2  C1  UNL d   1      -1.968  -0.967   0.740  0.00  0.00     0.020 A 
ATOM      3  C2  UNL d   1      -0.783  -1.490   1.260  0.00  0.00     0.034 A 
ATOM      4  C3  UNL d   1      -0.379  -1.162   2.560  0.00  0.00     0.017 A 
ATOM      5  C4  UNL d   1      -1.169  -0.307   3.338  0.00  0.00     0.017 A 
ATOM      6  C5  UNL d   1      -2.355   0.214   2.812  0.00  0.00     0.034 A 
ATOM      7 Cl   UNL d   1      -0.736   0.142   4.949  0.00  0.00    -0.070 Cl
ATOM      8 Cl1  UNL d   1       1.098  -1.846   3.139  0.00  0.00    -0.070 Cl
ENDROOT
TORSDOF 0
ENDMDL
