MODEL 1
REMARK minimizedAffinity 6.40525198
REMARK minimizedRMSD -1
REMARK  0 active torsions:
REMARK  status: ('A' for Active; 'I' for Inactive)
ROOT
ATOM      1  C   UNL d   1      -1.894  -1.017   0.765  0.00  0.00     0.020 A 
ATOM      2  C1  UNL d   1      -2.502   0.003   1.495  0.00  0.00     0.020 A 
ATOM      3  C2  UNL d   1      -2.107   0.249   2.812  0.00  0.00     0.034 A 
ATOM      4  C3  UNL d   1      -1.102  -0.526   3.402  0.00  0.00     0.017 A 
ATOM      5  C4  UNL d   1      -0.493  -1.550   2.668  0.00  0.00     0.017 A 
ATOM      6  C5  UNL d   1      -0.892  -1.792   1.350  0.00  0.00     0.034 A 
ATOM      7 Cl   UNL d   1       0.753  -2.549   3.328  0.00  0.00    -0.070 Cl
ATOM      8 Cl1  UNL d   1      -0.664  -0.167   5.035  0.00  0.00    -0.070 Cl
ENDROOT
TORSDOF 0
ENDMDL
