MODEL 1
REMARK minimizedAffinity 10.6207018
REMARK minimizedRMSD -1
REMARK  0 active torsions:
REMARK  status: ('A' for Active; 'I' for Inactive)
ROOT
ATOM      1  C   UNL d   1       1.423  -1.737   4.028  0.00  0.00     0.020 A 
ATOM      2  C1  UNL d   1       0.232  -1.019   4.139  0.00  0.00     0.020 A 
ATOM      3  C2  UNL d   1      -0.754  -1.148   3.159  0.00  0.00     0.034 A 
ATOM      4  C3  UNL d   1      -0.552  -1.995   2.064  0.00  0.00     0.017 A 
ATOM      5  C4  UNL d   1       0.643  -2.714   1.953  0.00  0.00     0.017 A 
ATOM      6  C5  UNL d   1       1.628  -2.582   2.937  0.00  0.00     0.034 A 
ATOM      7 Cl   UNL d   1       0.965  -3.779   0.630  0.00  0.00    -0.070 Cl
ATOM      8 Cl1  UNL d   1      -1.815  -2.105   0.890  0.00  0.00    -0.070 Cl
ENDROOT
TORSDOF 0
ENDMDL
