MODEL 1
REMARK minimizedAffinity 5.87654877
REMARK minimizedRMSD -1
REMARK  0 active torsions:
REMARK  status: ('A' for Active; 'I' for Inactive)
ROOT
ATOM      1  C   UNL d   1      -4.999   4.124   4.818  0.00  0.00     0.020 A 
ATOM      2  C1  UNL d   1      -6.000   3.619   5.647  0.00  0.00     0.020 A 
ATOM      3  C2  UNL d   1      -5.999   2.268   6.000  0.00  0.00     0.034 A 
ATOM      4  C3  UNL d   1      -4.996   1.417   5.523  0.00  0.00     0.017 A 
ATOM      5  C4  UNL d   1      -3.991   1.924   4.691  0.00  0.00     0.017 A 
ATOM      6  C5  UNL d   1      -3.997   3.278   4.341  0.00  0.00     0.034 A 
ATOM      7 Cl   UNL d   1      -2.720   0.935   4.063  0.00  0.00    -0.070 Cl
ATOM      8 Cl1  UNL d   1      -5.057  -0.243   5.999  0.00  0.00    -0.070 Cl
ENDROOT
TORSDOF 0
ENDMDL
