MODEL 1
REMARK minimizedAffinity 15.5472755
REMARK minimizedRMSD -1
REMARK  0 active torsions:
REMARK  status: ('A' for Active; 'I' for Inactive)
ROOT
ATOM      1  C   UNL d   1      -5.871  -4.886   0.492  0.00  0.00     0.020 A 
ATOM      2  C1  UNL d   1      -5.676  -3.507   0.561  0.00  0.00     0.020 A 
ATOM      3  C2  UNL d   1      -5.575  -2.877   1.803  0.00  0.00     0.034 A 
ATOM      4  C3  UNL d   1      -5.670  -3.625   2.982  0.00  0.00     0.017 A 
ATOM      5  C4  UNL d   1      -5.866  -5.009   2.912  0.00  0.00     0.017 A 
ATOM      6  C5  UNL d   1      -5.966  -5.635   1.666  0.00  0.00     0.034 A 
ATOM      7 Cl   UNL d   1      -5.993  -6.000   4.323  0.00  0.00    -0.070 Cl
ATOM      8 Cl1  UNL d   1      -5.537  -2.780   4.483  0.00  0.00    -0.070 Cl
ENDROOT
TORSDOF 0
ENDMDL
