MODEL 1
REMARK minimizedAffinity 8.350173
REMARK minimizedRMSD -1
REMARK  0 active torsions:
REMARK  status: ('A' for Active; 'I' for Inactive)
ROOT
ATOM      1  C   UNL d   1      -4.835  -3.487   1.609  0.00  0.00     0.020 A 
ATOM      2  C1  UNL d   1      -4.971  -4.874   1.572  0.00  0.00     0.020 A 
ATOM      3  C2  UNL d   1      -5.276  -5.577   2.739  0.00  0.00     0.034 A 
ATOM      4  C3  UNL d   1      -5.445  -4.894   3.949  0.00  0.00     0.017 A 
ATOM      5  C4  UNL d   1      -5.308  -3.501   3.985  0.00  0.00     0.017 A 
ATOM      6  C5  UNL d   1      -5.004  -2.802   2.813  0.00  0.00     0.034 A 
ATOM      7 Cl   UNL d   1      -5.503  -2.589   5.440  0.00  0.00    -0.070 Cl
ATOM      8 Cl1  UNL d   1      -5.821  -5.827   5.354  0.00  0.00    -0.070 Cl
ENDROOT
TORSDOF 0
ENDMDL
