MODEL 1
REMARK minimizedAffinity 11.6724367
REMARK minimizedRMSD -1
REMARK  0 active torsions:
REMARK  status: ('A' for Active; 'I' for Inactive)
ROOT
ATOM      1  C   UNL d   1       3.159   1.764  -0.296  0.00  0.00     0.020 A 
ATOM      2  C1  UNL d   1       2.403   1.292  -1.368  0.00  0.00     0.020 A 
ATOM      3  C2  UNL d   1       2.720   1.681  -2.671  0.00  0.00     0.034 A 
ATOM      4  C3  UNL d   1       3.795   2.545  -2.906  0.00  0.00     0.017 A 
ATOM      5  C4  UNL d   1       4.553   3.019  -1.829  0.00  0.00     0.017 A 
ATOM      6  C5  UNL d   1       4.232   2.626  -0.526  0.00  0.00     0.034 A 
ATOM      7 Cl   UNL d   1       5.895   4.088  -2.040  0.00  0.00    -0.070 Cl
ATOM      8 Cl1  UNL d   1       4.130   2.985  -4.543  0.00  0.00    -0.070 Cl
ENDROOT
TORSDOF 0
ENDMDL
