MODEL 1
REMARK minimizedAffinity 9.75573158
REMARK minimizedRMSD -1
REMARK  0 active torsions:
REMARK  status: ('A' for Active; 'I' for Inactive)
ROOT
ATOM      1  C   UNL d   1      -2.016  -0.503   0.831  0.00  0.00     0.020 A 
ATOM      2  C1  UNL d   1      -2.707   0.357   1.683  0.00  0.00     0.020 A 
ATOM      3  C2  UNL d   1      -2.352   0.438   3.031  0.00  0.00     0.034 A 
ATOM      4  C3  UNL d   1      -1.302  -0.341   3.531  0.00  0.00     0.017 A 
ATOM      5  C4  UNL d   1      -0.609  -1.204   2.674  0.00  0.00     0.017 A 
ATOM      6  C5  UNL d   1      -0.969  -1.282   1.325  0.00  0.00     0.034 A 
ATOM      7 Cl   UNL d   1       0.697  -2.198   3.217  0.00  0.00    -0.070 Cl
ATOM      8 Cl1  UNL d   1      -0.916  -0.190   5.208  0.00  0.00    -0.070 Cl
ENDROOT
TORSDOF 0
ENDMDL
