MODEL 1
REMARK minimizedAffinity 13.3604555
REMARK minimizedRMSD -1
REMARK  0 active torsions:
REMARK  status: ('A' for Active; 'I' for Inactive)
ROOT
ATOM      1  C   UNL d   1       0.908  -2.735   2.751  0.00  0.00     0.020 A 
ATOM      2  C1  UNL d   1       0.738  -2.484   4.112  0.00  0.00     0.020 A 
ATOM      3  C2  UNL d   1      -0.146  -1.488   4.532  0.00  0.00     0.034 A 
ATOM      4  C3  UNL d   1      -0.864  -0.741   3.591  0.00  0.00     0.017 A 
ATOM      5  C4  UNL d   1      -0.692  -0.994   2.226  0.00  0.00     0.017 A 
ATOM      6  C5  UNL d   1       0.195  -1.992   1.810  0.00  0.00     0.034 A 
ATOM      7 Cl   UNL d   1      -1.542  -0.113   1.005  0.00  0.00    -0.070 Cl
ATOM      8 Cl1  UNL d   1      -1.940   0.475   4.182  0.00  0.00    -0.070 Cl
ENDROOT
TORSDOF 0
ENDMDL
