MODEL 1
REMARK minimizedAffinity 13.009223
REMARK minimizedRMSD -1
REMARK  0 active torsions:
REMARK  status: ('A' for Active; 'I' for Inactive)
ROOT
ATOM      1  C   UNL d   1      -3.460   0.344   0.793  0.00  0.00     0.020 A 
ATOM      2  C1  UNL d   1      -2.395   0.854   1.535  0.00  0.00     0.020 A 
ATOM      3  C2  UNL d   1      -1.275   0.059   1.786  0.00  0.00     0.034 A 
ATOM      4  C3  UNL d   1      -1.216  -1.250   1.295  0.00  0.00     0.017 A 
ATOM      5  C4  UNL d   1      -2.285  -1.761   0.550  0.00  0.00     0.017 A 
ATOM      6  C5  UNL d   1      -3.404  -0.961   0.301  0.00  0.00     0.034 A 
ATOM      7 Cl   UNL d   1      -2.285  -3.367  -0.089  0.00  0.00    -0.070 Cl
ATOM      8 Cl1  UNL d   1       0.201  -2.176   1.643  0.00  0.00    -0.070 Cl
ENDROOT
TORSDOF 0
ENDMDL
