MODEL 1
REMARK minimizedAffinity 5.9428792
REMARK minimizedRMSD -1
REMARK  0 active torsions:
REMARK  status: ('A' for Active; 'I' for Inactive)
ROOT
ATOM      1  C   UNL d   1      -3.371   0.652   1.893  0.00  0.00     0.020 A 
ATOM      2  C1  UNL d   1      -2.882   0.028   0.745  0.00  0.00     0.020 A 
ATOM      3  C2  UNL d   1      -1.782  -0.829   0.831  0.00  0.00     0.034 A 
ATOM      4  C3  UNL d   1      -1.168  -1.063   2.067  0.00  0.00     0.017 A 
ATOM      5  C4  UNL d   1      -1.659  -0.437   3.218  0.00  0.00     0.017 A 
ATOM      6  C5  UNL d   1      -2.761   0.420   3.126  0.00  0.00     0.034 A 
ATOM      7 Cl   UNL d   1      -0.954  -0.677   4.777  0.00  0.00    -0.070 Cl
ATOM      8 Cl1  UNL d   1       0.188  -2.134   2.099  0.00  0.00    -0.070 Cl
ENDROOT
TORSDOF 0
ENDMDL
