MODEL 1
REMARK minimizedAffinity 11.846694
REMARK minimizedRMSD -1
REMARK  0 active torsions:
REMARK  status: ('A' for Active; 'I' for Inactive)
ROOT
ATOM      1  C   UNL d   1       0.737  -2.433   3.562  0.00  0.00     0.020 A 
ATOM      2  C1  UNL d   1       0.252  -1.167   3.887  0.00  0.00     0.020 A 
ATOM      3  C2  UNL d   1      -0.684  -0.544   3.060  0.00  0.00     0.034 A 
ATOM      4  C3  UNL d   1      -1.139  -1.186   1.903  0.00  0.00     0.017 A 
ATOM      5  C4  UNL d   1      -0.652  -2.457   1.577  0.00  0.00     0.017 A 
ATOM      6  C5  UNL d   1       0.286  -3.077   2.409  0.00  0.00     0.034 A 
ATOM      7 Cl   UNL d   1      -1.166  -3.313   0.166  0.00  0.00    -0.070 Cl
ATOM      8 Cl1  UNL d   1      -2.298  -0.357   0.926  0.00  0.00    -0.070 Cl
ENDROOT
TORSDOF 0
ENDMDL
