MODEL 1
REMARK minimizedAffinity 12.5733662
REMARK minimizedRMSD -1
REMARK  0 active torsions:
REMARK  status: ('A' for Active; 'I' for Inactive)
ROOT
ATOM      1  C   UNL d   1       2.329   2.426  -3.405  0.00  0.00     0.020 A 
ATOM      2  C1  UNL d   1       3.485   3.180  -3.600  0.00  0.00     0.020 A 
ATOM      3  C2  UNL d   1       4.495   3.173  -2.636  0.00  0.00     0.034 A 
ATOM      4  C3  UNL d   1       4.351   2.409  -1.472  0.00  0.00     0.017 A 
ATOM      5  C4  UNL d   1       3.191   1.652  -1.277  0.00  0.00     0.017 A 
ATOM      6  C5  UNL d   1       2.182   1.663  -2.246  0.00  0.00     0.034 A 
ATOM      7 Cl   UNL d   1       2.941   0.685   0.134  0.00  0.00    -0.070 Cl
ATOM      8 Cl1  UNL d   1       5.640   2.446  -0.322  0.00  0.00    -0.070 Cl
ENDROOT
TORSDOF 0
ENDMDL
