MODEL 1
REMARK minimizedAffinity 3.22397637
REMARK minimizedRMSD -1
REMARK  0 active torsions:
REMARK  status: ('A' for Active; 'I' for Inactive)
ROOT
ATOM      1  C   UNL d   1       5.062   4.127  -2.440  0.00  0.00     0.020 A 
ATOM      2  C1  UNL d   1       4.835   5.433  -2.007  0.00  0.00     0.020 A 
ATOM      3  C2  UNL d   1       3.560   5.991  -2.113  0.00  0.00     0.034 A 
ATOM      4  C3  UNL d   1       2.506   5.244  -2.652  0.00  0.00     0.017 A 
ATOM      5  C4  UNL d   1       2.735   3.933  -3.086  0.00  0.00     0.017 A 
ATOM      6  C5  UNL d   1       4.014   3.379  -2.978  0.00  0.00     0.034 A 
ATOM      7 Cl   UNL d   1       1.485   2.949  -3.762  0.00  0.00    -0.070 Cl
ATOM      8 Cl1  UNL d   1       0.955   5.998  -2.752  0.00  0.00    -0.070 Cl
ENDROOT
TORSDOF 0
ENDMDL
