MODEL 1
REMARK minimizedAffinity 13.4816284
REMARK minimizedRMSD -1
REMARK  0 active torsions:
REMARK  status: ('A' for Active; 'I' for Inactive)
ROOT
ATOM      1  C   UNL d   1       6.000  -1.134   0.001  0.00  0.00     0.020 A 
ATOM      2  C1  UNL d   1       5.742  -2.096   0.977  0.00  0.00     0.020 A 
ATOM      3  C2  UNL d   1       4.615  -1.979   1.793  0.00  0.00     0.034 A 
ATOM      4  C3  UNL d   1       3.742  -0.896   1.636  0.00  0.00     0.017 A 
ATOM      5  C4  UNL d   1       4.001   0.069   0.656  0.00  0.00     0.017 A 
ATOM      6  C5  UNL d   1       5.131  -0.054  -0.159  0.00  0.00     0.034 A 
ATOM      7 Cl   UNL d   1       2.970   1.433   0.403  0.00  0.00    -0.070 Cl
ATOM      8 Cl1  UNL d   1       2.368  -0.814   2.680  0.00  0.00    -0.070 Cl
ENDROOT
TORSDOF 0
ENDMDL
