MODEL 1
REMARK minimizedAffinity 17.0852585
REMARK minimizedRMSD -1
REMARK  0 active torsions:
REMARK  status: ('A' for Active; 'I' for Inactive)
ROOT
ATOM      1  C   UNL d   1      -1.391  -0.411   1.744  0.00  0.00     0.020 A 
ATOM      2  C1  UNL d   1      -0.157  -0.459   2.391  0.00  0.00     0.020 A 
ATOM      3  C2  UNL d   1       0.613  -1.623   2.342  0.00  0.00     0.034 A 
ATOM      4  C3  UNL d   1       0.150  -2.743   1.643  0.00  0.00     0.017 A 
ATOM      5  C4  UNL d   1      -1.088  -2.695   0.993  0.00  0.00     0.017 A 
ATOM      6  C5  UNL d   1      -1.855  -1.527   1.046  0.00  0.00     0.034 A 
ATOM      7 Cl   UNL d   1      -1.726  -4.037   0.110  0.00  0.00    -0.070 Cl
ATOM      8 Cl1  UNL d   1       1.155  -4.149   1.622  0.00  0.00    -0.070 Cl
ENDROOT
TORSDOF 0
ENDMDL
