MODEL 1
REMARK minimizedAffinity 8.92128658
REMARK minimizedRMSD -1
REMARK  0 active torsions:
REMARK  status: ('A' for Active; 'I' for Inactive)
ROOT
ATOM      1  C   UNL d   1       3.069   1.889   0.076  0.00  0.00     0.020 A 
ATOM      2  C1  UNL d   1       3.064   1.933  -1.318  0.00  0.00     0.020 A 
ATOM      3  C2  UNL d   1       2.096   1.227  -2.035  0.00  0.00     0.034 A 
ATOM      4  C3  UNL d   1       1.128   0.475  -1.359  0.00  0.00     0.017 A 
ATOM      5  C4  UNL d   1       1.134   0.431   0.040  0.00  0.00     0.017 A 
ATOM      6  C5  UNL d   1       2.106   1.140   0.753  0.00  0.00     0.034 A 
ATOM      7 Cl   UNL d   1      -0.027  -0.475   0.944  0.00  0.00    -0.070 Cl
ATOM      8 Cl1  UNL d   1      -0.039  -0.373  -2.310  0.00  0.00    -0.070 Cl
ENDROOT
TORSDOF 0
ENDMDL
