MODEL 1
REMARK minimizedAffinity 17.849596
REMARK minimizedRMSD -1
REMARK  0 active torsions:
REMARK  status: ('A' for Active; 'I' for Inactive)
ROOT
ATOM      1  C   UNL d   1      -0.365  -1.249   4.494  0.00  0.00     0.020 A 
ATOM      2  C1  UNL d   1      -0.312  -2.639   4.601  0.00  0.00     0.020 A 
ATOM      3  C2  UNL d   1      -0.440  -3.432   3.460  0.00  0.00     0.034 A 
ATOM      4  C3  UNL d   1      -0.623  -2.838   2.206  0.00  0.00     0.017 A 
ATOM      5  C4  UNL d   1      -0.677  -1.444   2.099  0.00  0.00     0.017 A 
ATOM      6  C5  UNL d   1      -0.547  -0.653   3.246  0.00  0.00     0.034 A 
ATOM      7 Cl   UNL d   1      -0.900  -0.638   0.587  0.00  0.00    -0.070 Cl
ATOM      8 Cl1  UNL d   1      -0.774  -3.881   0.837  0.00  0.00    -0.070 Cl
ENDROOT
TORSDOF 0
ENDMDL
