MODEL 1
REMARK minimizedAffinity -2.28316903
REMARK minimizedRMSD -1
REMARK  1 active torsions:
REMARK  status: ('A' for Active; 'I' for Inactive)
REMARK    1  A    between atoms: N_2  and  C1_3 
ROOT
ATOM      1  C1  UNL d   1      -2.059  -3.696  -5.878  0.00  0.00     0.143 A 
ATOM      2  C2  UNL d   1      -3.375  -3.238  -6.000  0.00  0.00    -0.057 A 
ATOM      3  C3  UNL d   1      -4.457  -4.128  -5.994  0.00  0.00     0.033 A 
ATOM      4  C4  UNL d   1      -4.237  -5.498  -5.896  0.00  0.00    -0.042 A 
ATOM      5  C5  UNL d   1      -2.936  -5.977  -5.799  0.00  0.00     0.033 A 
ATOM      6  C6  UNL d   1      -1.861  -5.083  -5.798  0.00  0.00    -0.057 A 
ENDROOT
BRANCH   1   7
ATOM      7  N   UNL d   1      -0.936  -2.870  -5.975  0.00  0.00    -0.732 N 
ATOM      8  C   UNL d   1       0.397  -3.431  -5.933  0.00  0.00     0.284 C 
ATOM      9  H3  UNL d   1      -1.055  -2.133  -6.667  0.00  0.00     0.395 HD
ENDBRANCH   1   7
TORSDOF 1
ENDMDL
