MODEL 1
REMARK minimizedAffinity 3.46230936
REMARK minimizedRMSD -1
REMARK  1 active torsions:
REMARK  status: ('A' for Active; 'I' for Inactive)
REMARK    1  A    between atoms: N_2  and  C1_3 
ROOT
ATOM      1  C1  UNL d   1      -0.250  -5.058  -3.990  0.00  0.00     0.143 A 
ATOM      2  C2  UNL d   1      -0.140  -4.111  -5.014  0.00  0.00    -0.057 A 
ATOM      3  C3  UNL d   1      -1.130  -3.985  -5.996  0.00  0.00     0.033 A 
ATOM      4  C4  UNL d   1      -2.239  -4.826  -5.987  0.00  0.00    -0.042 A 
ATOM      5  C5  UNL d   1      -2.357  -5.790  -4.993  0.00  0.00     0.033 A 
ATOM      6  C6  UNL d   1      -1.368  -5.907  -4.011  0.00  0.00    -0.057 A 
ENDROOT
BRANCH   1   7
ATOM      7  N   UNL d   1       0.748  -5.299  -3.043  0.00  0.00    -0.732 N 
ATOM      8  C   UNL d   1       0.790  -4.544  -1.809  0.00  0.00     0.284 C 
ATOM      9  H3  UNL d   1       0.946  -6.290  -2.931  0.00  0.00     0.395 HD
ENDBRANCH   1   7
TORSDOF 1
ENDMDL
