MODEL 1
REMARK minimizedAffinity 2.40273261
REMARK minimizedRMSD -1
REMARK  1 active torsions:
REMARK  status: ('A' for Active; 'I' for Inactive)
REMARK    1  A    between atoms: N_2  and  C1_3 
ROOT
ATOM      1  C1  UNL d   1      -0.582  -5.064  -4.031  0.00  0.00     0.143 A 
ATOM      2  C2  UNL d   1      -0.561  -4.088  -5.033  0.00  0.00    -0.057 A 
ATOM      3  C3  UNL d   1      -1.571  -4.018  -6.000  0.00  0.00     0.033 A 
ATOM      4  C4  UNL d   1      -2.607  -4.946  -5.999  0.00  0.00    -0.042 A 
ATOM      5  C5  UNL d   1      -2.635  -5.940  -5.028  0.00  0.00     0.033 A 
ATOM      6  C6  UNL d   1      -1.627  -6.000  -4.061  0.00  0.00    -0.057 A 
ENDROOT
BRANCH   1   7
ATOM      7  N   UNL d   1       0.445  -5.246  -3.100  0.00  0.00    -0.732 N 
ATOM      8  C   UNL d   1       0.455  -4.502  -1.859  0.00  0.00     0.284 C 
ATOM      9  H3  UNL d   1       0.710  -6.223  -3.001  0.00  0.00     0.395 HD
ENDBRANCH   1   7
TORSDOF 1
ENDMDL
