MODEL 1
REMARK minimizedAffinity 4.672719
REMARK minimizedRMSD -1
REMARK  1 active torsions:
REMARK  status: ('A' for Active; 'I' for Inactive)
REMARK    1  A    between atoms: N_2  and  C1_3 
ROOT
ATOM      1  C1  UNL d   1      -3.568  -5.341  -4.858  0.00  0.00     0.143 A 
ATOM      2  C2  UNL d   1      -3.119  -4.268  -4.082  0.00  0.00    -0.057 A 
ATOM      3  C3  UNL d   1      -1.848  -3.714  -4.275  0.00  0.00     0.033 A 
ATOM      4  C4  UNL d   1      -0.989  -4.244  -5.233  0.00  0.00    -0.042 A 
ATOM      5  C5  UNL d   1      -1.405  -5.327  -5.999  0.00  0.00     0.033 A 
ATOM      6  C6  UNL d   1      -2.678  -5.872  -5.806  0.00  0.00    -0.057 A 
ENDROOT
BRANCH   1   7
ATOM      7  N   UNL d   1      -4.782  -5.999  -4.648  0.00  0.00    -0.732 N 
ATOM      8  C   UNL d   1      -5.502  -5.837  -3.403  0.00  0.00     0.284 C 
ATOM      9  H3  UNL d   1      -5.375  -5.994  -5.475  0.00  0.00     0.395 HD
ENDBRANCH   1   7
TORSDOF 1
ENDMDL
