MODEL 1
REMARK minimizedAffinity 5.23425913
REMARK minimizedRMSD -1
REMARK  0 active torsions:
REMARK  status: ('A' for Active; 'I' for Inactive)
ROOT
ATOM      1  C   UNL d   1       2.290  -1.910   0.395  0.00  0.00     0.078 C 
ATOM      2  C1  UNL d   1       2.464  -0.593  -0.301  0.00  0.00    -0.077 A 
ATOM      3  C2  UNL d   1       1.560  -0.172  -1.284  0.00  0.00    -0.001 A 
ATOM      4  C3  UNL d   1       1.740   1.052  -1.930  0.00  0.00     0.003 A 
ATOM      5  C4  UNL d   1       2.823   1.864  -1.602  0.00  0.00    -0.005 A 
ATOM      6  C5  UNL d   1       3.730   1.453  -0.627  0.00  0.00     0.003 A 
ATOM      7  C6  UNL d   1       3.551   0.229   0.020  0.00  0.00    -0.001 A 
ENDROOT
TORSDOF 0
ENDMDL
