MODEL 1
REMARK minimizedAffinity 0.202078357
REMARK minimizedRMSD -1
REMARK  0 active torsions:
REMARK  status: ('A' for Active; 'I' for Inactive)
ROOT
ATOM      1  C   UNL d   1       0.732  -0.180   0.062  0.00  0.00     0.078 C 
ATOM      2  C1  UNL d   1       0.595  -1.327   1.018  0.00  0.00    -0.077 A 
ATOM      3  C2  UNL d   1      -0.352  -1.297   2.049  0.00  0.00    -0.001 A 
ATOM      4  C3  UNL d   1      -0.463  -2.367   2.938  0.00  0.00     0.003 A 
ATOM      5  C4  UNL d   1       0.372  -3.475   2.806  0.00  0.00    -0.005 A 
ATOM      6  C5  UNL d   1       1.320  -3.513   1.785  0.00  0.00     0.003 A 
ATOM      7  C6  UNL d   1       1.431  -2.443   0.895  0.00  0.00    -0.001 A 
ENDROOT
TORSDOF 0
ENDMDL
