MODEL 1
REMARK minimizedAffinity 1.32368994
REMARK minimizedRMSD -1
REMARK  0 active torsions:
REMARK  status: ('A' for Active; 'I' for Inactive)
ROOT
ATOM      1  C   UNL d   1      -0.172   0.013  -0.504  0.00  0.00     0.078 C 
ATOM      2  C1  UNL d   1       0.061  -0.997   0.579  0.00  0.00    -0.077 A 
ATOM      3  C2  UNL d   1       1.013  -2.012   0.426  0.00  0.00    -0.001 A 
ATOM      4  C3  UNL d   1       1.213  -2.952   1.438  0.00  0.00     0.003 A 
ATOM      5  C4  UNL d   1       0.464  -2.886   2.611  0.00  0.00    -0.005 A 
ATOM      6  C5  UNL d   1      -0.487  -1.881   2.773  0.00  0.00     0.003 A 
ATOM      7  C6  UNL d   1      -0.688  -0.940   1.761  0.00  0.00    -0.001 A 
ENDROOT
TORSDOF 0
ENDMDL
