MODEL 1
REMARK minimizedAffinity -3.06272769
REMARK minimizedRMSD -1
REMARK  0 active torsions:
REMARK  status: ('A' for Active; 'I' for Inactive)
ROOT
ATOM      1  C   UNL d   1       1.557  -4.238   1.884  0.00  0.00     0.078 C 
ATOM      2  C1  UNL d   1       0.781  -2.955   1.880  0.00  0.00    -0.077 A 
ATOM      3  C2  UNL d   1      -0.130  -2.659   2.902  0.00  0.00    -0.001 A 
ATOM      4  C3  UNL d   1      -0.853  -1.466   2.881  0.00  0.00     0.003 A 
ATOM      5  C4  UNL d   1      -0.673  -0.558   1.839  0.00  0.00    -0.005 A 
ATOM      6  C5  UNL d   1       0.229  -0.844   0.817  0.00  0.00     0.003 A 
ATOM      7  C6  UNL d   1       0.952  -2.037   0.836  0.00  0.00    -0.001 A 
ENDROOT
TORSDOF 0
ENDMDL
