MODEL 1
REMARK minimizedAffinity 5.04181719
REMARK minimizedRMSD -1
REMARK  0 active torsions:
REMARK  status: ('A' for Active; 'I' for Inactive)
ROOT
ATOM      1  C   UNL d   1       0.589  -0.572   1.093  0.00  0.00     0.078 C 
ATOM      2  C1  UNL d   1      -0.023  -1.613   1.982  0.00  0.00    -0.077 A 
ATOM      3  C2  UNL d   1       0.543  -2.889   2.095  0.00  0.00    -0.001 A 
ATOM      4  C3  UNL d   1      -0.043  -3.851   2.918  0.00  0.00     0.003 A 
ATOM      5  C4  UNL d   1      -1.199  -3.548   3.635  0.00  0.00    -0.005 A 
ATOM      6  C5  UNL d   1      -1.771  -2.282   3.528  0.00  0.00     0.003 A 
ATOM      7  C6  UNL d   1      -1.187  -1.319   2.705  0.00  0.00    -0.001 A 
ENDROOT
TORSDOF 0
ENDMDL
