MODEL 1
REMARK minimizedAffinity -1.6559906
REMARK minimizedRMSD -1
REMARK  0 active torsions:
REMARK  status: ('A' for Active; 'I' for Inactive)
ROOT
ATOM      1  C   UNL d   1       2.214  -3.733   1.154  0.00  0.00     0.078 C 
ATOM      2  C1  UNL d   1       1.470  -2.437   1.020  0.00  0.00    -0.077 A 
ATOM      3  C2  UNL d   1       0.558  -2.025   1.999  0.00  0.00    -0.001 A 
ATOM      4  C3  UNL d   1      -0.134  -0.821   1.857  0.00  0.00     0.003 A 
ATOM      5  C4  UNL d   1       0.078  -0.021   0.736  0.00  0.00    -0.005 A 
ATOM      6  C5  UNL d   1       0.982  -0.424  -0.245  0.00  0.00     0.003 A 
ATOM      7  C6  UNL d   1       1.675  -1.627  -0.104  0.00  0.00    -0.001 A 
ENDROOT
TORSDOF 0
ENDMDL
