MODEL 1
REMARK minimizedAffinity -2.86010742
REMARK minimizedRMSD -1
REMARK  0 active torsions:
REMARK  status: ('A' for Active; 'I' for Inactive)
ROOT
ATOM      1  C   UNL d   1       5.733   4.844   3.005  0.00  0.00     0.078 C 
ATOM      2  C1  UNL d   1       4.366   5.251   3.468  0.00  0.00    -0.077 A 
ATOM      3  C2  UNL d   1       4.139   5.633   4.796  0.00  0.00    -0.001 A 
ATOM      4  C3  UNL d   1       2.859   6.000   5.215  0.00  0.00     0.003 A 
ATOM      5  C4  UNL d   1       1.796   5.986   4.314  0.00  0.00    -0.005 A 
ATOM      6  C5  UNL d   1       2.013   5.604   2.991  0.00  0.00     0.003 A 
ATOM      7  C6  UNL d   1       3.292   5.237   2.570  0.00  0.00    -0.001 A 
ENDROOT
TORSDOF 0
ENDMDL
