MODEL 1
REMARK minimizedAffinity 2.53008699
REMARK minimizedRMSD -1
REMARK  0 active torsions:
REMARK  status: ('A' for Active; 'I' for Inactive)
ROOT
ATOM      1  C   UNL d   1      -1.214  -0.732   2.520  0.00  0.00     0.078 C 
ATOM      2  C1  UNL d   1      -0.776  -0.608   1.091  0.00  0.00    -0.077 A 
ATOM      3  C2  UNL d   1       0.575  -0.713   0.739  0.00  0.00    -0.001 A 
ATOM      4  C3  UNL d   1       0.969  -0.585  -0.594  0.00  0.00     0.003 A 
ATOM      5  C4  UNL d   1       0.018  -0.352  -1.585  0.00  0.00    -0.005 A 
ATOM      6  C5  UNL d   1      -1.329  -0.245  -1.244  0.00  0.00     0.003 A 
ATOM      7  C6  UNL d   1      -1.725  -0.372   0.088  0.00  0.00    -0.001 A 
ENDROOT
TORSDOF 0
ENDMDL
