MODEL 1
REMARK minimizedAffinity 0.807047069
REMARK minimizedRMSD -1
REMARK  0 active torsions:
REMARK  status: ('A' for Active; 'I' for Inactive)
ROOT
ATOM      1  C   UNL d   1       1.071  -1.099   0.165  0.00  0.00     0.078 C 
ATOM      2  C1  UNL d   1      -0.095  -0.847   1.074  0.00  0.00    -0.077 A 
ATOM      3  C2  UNL d   1      -1.266  -0.248   0.595  0.00  0.00    -0.001 A 
ATOM      4  C3  UNL d   1      -2.340  -0.011   1.454  0.00  0.00     0.003 A 
ATOM      5  C4  UNL d   1      -2.252  -0.368   2.798  0.00  0.00    -0.005 A 
ATOM      6  C5  UNL d   1      -1.090  -0.963   3.285  0.00  0.00     0.003 A 
ATOM      7  C6  UNL d   1      -0.015  -1.201   2.427  0.00  0.00    -0.001 A 
ENDROOT
TORSDOF 0
ENDMDL
