MODEL 1
REMARK minimizedAffinity -3.08412504
REMARK minimizedRMSD -1
REMARK  0 active torsions:
REMARK  status: ('A' for Active; 'I' for Inactive)
ROOT
ATOM      1  C   UNL d   1       0.770   2.343  -0.142  0.00  0.00     0.077 C 
ATOM      2  C1  UNL d   1       1.280   0.977   0.209  0.00  0.00    -0.074 A 
ATOM      3  C2  UNL d   1       2.624   0.774   0.539  0.00  0.00    -0.005 A 
ATOM      4  C3  UNL d   1       3.082  -0.501   0.873  0.00  0.00     0.006 A 
ATOM      5  C4  UNL d   1       2.202  -1.584   0.880  0.00  0.00    -0.005 A 
ATOM      6  C5  UNL d   1       0.854  -1.400   0.554  0.00  0.00    -0.074 A 
ATOM      7  C6  UNL d   1      -0.107  -2.552   0.566  0.00  0.00     0.077 C 
ATOM      8  C7  UNL d   1       0.400  -0.115   0.226  0.00  0.00    -0.001 A 
ENDROOT
TORSDOF 0
ENDMDL
