MODEL 1
REMARK minimizedAffinity -0.820228875
REMARK minimizedRMSD -1
REMARK  0 active torsions:
REMARK  status: ('A' for Active; 'I' for Inactive)
ROOT
ATOM      1  C   UNL d   1      -1.433  -0.326  -0.217  0.00  0.00     0.077 C 
ATOM      2  C1  UNL d   1       0.024  -0.155   0.098  0.00  0.00    -0.074 A 
ATOM      3  C2  UNL d   1       0.854  -1.265   0.288  0.00  0.00    -0.005 A 
ATOM      4  C3  UNL d   1       2.208  -1.090   0.570  0.00  0.00     0.006 A 
ATOM      5  C4  UNL d   1       2.746   0.194   0.665  0.00  0.00    -0.005 A 
ATOM      6  C5  UNL d   1       1.932   1.316   0.477  0.00  0.00    -0.074 A 
ATOM      7  C6  UNL d   1       2.496   2.703   0.567  0.00  0.00     0.077 C 
ATOM      8  C7  UNL d   1       0.573   1.132   0.187  0.00  0.00    -0.001 A 
ENDROOT
TORSDOF 0
ENDMDL
