MODEL 1
REMARK minimizedAffinity -4.57578802
REMARK minimizedRMSD -1
REMARK  0 active torsions:
REMARK  status: ('A' for Active; 'I' for Inactive)
ROOT
ATOM      1  C   UNL d   1       2.607   1.182   1.129  0.00  0.00     0.077 C 
ATOM      2  C1  UNL d   1       1.515   0.155   1.068  0.00  0.00    -0.074 A 
ATOM      3  C2  UNL d   1       1.585  -1.014   1.832  0.00  0.00    -0.005 A 
ATOM      4  C3  UNL d   1       0.558  -1.956   1.772  0.00  0.00     0.006 A 
ATOM      5  C4  UNL d   1      -0.548  -1.738   0.950  0.00  0.00    -0.005 A 
ATOM      6  C5  UNL d   1      -0.636  -0.574   0.179  0.00  0.00    -0.074 A 
ATOM      7  C6  UNL d   1      -1.822  -0.319  -0.702  0.00  0.00     0.077 C 
ATOM      8  C7  UNL d   1       0.397   0.371   0.250  0.00  0.00    -0.001 A 
ENDROOT
TORSDOF 0
ENDMDL
