MODEL 1
REMARK minimizedAffinity -3.73223805
REMARK minimizedRMSD -1
REMARK  0 active torsions:
REMARK  status: ('A' for Active; 'I' for Inactive)
ROOT
ATOM      1  C   UNL d   1      -1.217   0.041  -0.607  0.00  0.00     0.077 C 
ATOM      2  C1  UNL d   1       0.208   0.133  -0.150  0.00  0.00    -0.074 A 
ATOM      3  C2  UNL d   1       1.195  -0.689  -0.703  0.00  0.00    -0.005 A 
ATOM      4  C3  UNL d   1       2.519  -0.585  -0.274  0.00  0.00     0.006 A 
ATOM      5  C4  UNL d   1       2.868   0.339   0.711  0.00  0.00    -0.005 A 
ATOM      6  C5  UNL d   1       1.894   1.170   1.275  0.00  0.00    -0.074 A 
ATOM      7  C6  UNL d   1       2.254   2.176   2.327  0.00  0.00     0.077 C 
ATOM      8  C7  UNL d   1       0.568   1.065   0.834  0.00  0.00    -0.001 A 
ENDROOT
TORSDOF 0
ENDMDL
