MODEL 1
REMARK minimizedAffinity -5.06878948
REMARK minimizedRMSD -1
REMARK  0 active torsions:
REMARK  status: ('A' for Active; 'I' for Inactive)
ROOT
ATOM      1  C   UNL d   1       0.972   1.578   0.133  0.00  0.00     0.077 C 
ATOM      2  C1  UNL d   1       1.663   0.424   0.796  0.00  0.00    -0.074 A 
ATOM      3  C2  UNL d   1       3.000   0.520   1.196  0.00  0.00    -0.005 A 
ATOM      4  C3  UNL d   1       3.627  -0.559   1.820  0.00  0.00     0.006 A 
ATOM      5  C4  UNL d   1       2.924  -1.742   2.051  0.00  0.00    -0.005 A 
ATOM      6  C5  UNL d   1       1.586  -1.856   1.659  0.00  0.00    -0.074 A 
ATOM      7  C6  UNL d   1       0.814  -3.117   1.908  0.00  0.00     0.077 C 
ATOM      8  C7  UNL d   1       0.962  -0.765   1.039  0.00  0.00    -0.001 A 
ENDROOT
TORSDOF 0
ENDMDL
