MODEL 1
REMARK minimizedAffinity 0.135265797
REMARK minimizedRMSD -1
REMARK  0 active torsions:
REMARK  status: ('A' for Active; 'I' for Inactive)
ROOT
ATOM      1  C   UNL d   1      -2.074   0.267  -2.284  0.00  0.00     0.077 C 
ATOM      2  C1  UNL d   1      -1.408  -0.088  -0.988  0.00  0.00    -0.074 A 
ATOM      3  C2  UNL d   1      -2.043  -0.914  -0.056  0.00  0.00    -0.005 A 
ATOM      4  C3  UNL d   1      -1.408  -1.243   1.141  0.00  0.00     0.006 A 
ATOM      5  C4  UNL d   1      -0.132  -0.750   1.418  0.00  0.00    -0.005 A 
ATOM      6  C5  UNL d   1       0.519   0.078   0.498  0.00  0.00    -0.074 A 
ATOM      7  C6  UNL d   1       1.894   0.609   0.775  0.00  0.00     0.077 C 
ATOM      8  C7  UNL d   1      -0.123   0.398  -0.706  0.00  0.00    -0.001 A 
ENDROOT
TORSDOF 0
ENDMDL
