MODEL 1
REMARK minimizedAffinity -1.12551379
REMARK minimizedRMSD -1
REMARK  0 active torsions:
REMARK  status: ('A' for Active; 'I' for Inactive)
ROOT
ATOM      1  C   UNL d   1       0.666   1.164   0.674  0.00  0.00     0.077 C 
ATOM      2  C1  UNL d   1      -0.820   1.063   0.498  0.00  0.00    -0.074 A 
ATOM      3  C2  UNL d   1      -1.669   0.950   1.604  0.00  0.00    -0.005 A 
ATOM      4  C3  UNL d   1      -3.049   0.867   1.426  0.00  0.00     0.006 A 
ATOM      5  C4  UNL d   1      -3.595   0.895   0.141  0.00  0.00    -0.005 A 
ATOM      6  C5  UNL d   1      -2.762   1.008  -0.976  0.00  0.00    -0.074 A 
ATOM      7  C6  UNL d   1      -3.332   1.050  -2.363  0.00  0.00     0.077 C 
ATOM      8  C7  UNL d   1      -1.376   1.099  -0.788  0.00  0.00    -0.001 A 
ENDROOT
TORSDOF 0
ENDMDL
