MODEL 1
REMARK minimizedAffinity -3.63722157
REMARK minimizedRMSD -1
REMARK  0 active torsions:
REMARK  status: ('A' for Active; 'I' for Inactive)
ROOT
ATOM      1  C   UNL d   1       0.033  -1.465  -1.027  0.00  0.00     0.023 A 
ATOM      2  C1  UNL d   1      -1.239  -1.563  -0.462  0.00  0.00     0.003 A 
ATOM      3  C2  UNL d   1      -1.750  -0.510   0.298  0.00  0.00     0.048 A 
ATOM      4  C3  UNL d   1      -0.984   0.640   0.489  0.00  0.00     0.023 A 
ATOM      5  C4  UNL d   1       0.288   0.744  -0.076  0.00  0.00     0.048 A 
ATOM      6  C5  UNL d   1       0.795  -0.313  -0.834  0.00  0.00     0.003 A 
ATOM      7  I   UNL d   1      -1.743   2.210   1.620  0.00  0.00    -0.146 I 
ENDROOT
TORSDOF 0
ENDMDL
