MODEL 1
REMARK minimizedAffinity -2.32348585
REMARK minimizedRMSD -1
REMARK  0 active torsions:
REMARK  status: ('A' for Active; 'I' for Inactive)
ROOT
ATOM      1  C   UNL d   1      -0.936   1.460   1.902  0.00  0.00     0.023 A 
ATOM      2  C1  UNL d   1      -0.267   1.901   0.760  0.00  0.00     0.003 A 
ATOM      3  C2  UNL d   1       0.242   0.976  -0.154  0.00  0.00     0.048 A 
ATOM      4  C3  UNL d   1       0.078  -0.389   0.080  0.00  0.00     0.023 A 
ATOM      5  C4  UNL d   1      -0.591  -0.835   1.221  0.00  0.00     0.048 A 
ATOM      6  C5  UNL d   1      -1.098   0.093   2.132  0.00  0.00     0.003 A 
ATOM      7  I   UNL d   1       0.835  -1.768  -1.279  0.00  0.00    -0.146 I 
ENDROOT
TORSDOF 0
ENDMDL
