MODEL 1
REMARK minimizedAffinity -4.12928724
REMARK minimizedRMSD -1
REMARK  0 active torsions:
REMARK  status: ('A' for Active; 'I' for Inactive)
ROOT
ATOM      1  C   UNL d   1      -1.931   3.201   1.034  0.00  0.00     0.023 A 
ATOM      2  C1  UNL d   1      -2.185   1.923   1.532  0.00  0.00     0.003 A 
ATOM      3  C2  UNL d   1      -1.379   0.849   1.148  0.00  0.00     0.048 A 
ATOM      4  C3  UNL d   1      -0.319   1.061   0.266  0.00  0.00     0.023 A 
ATOM      5  C4  UNL d   1      -0.061   2.338  -0.234  0.00  0.00     0.048 A 
ATOM      6  C5  UNL d   1      -0.870   3.408   0.152  0.00  0.00     0.003 A 
ATOM      7  I   UNL d   1       0.882  -0.535  -0.307  0.00  0.00    -0.146 I 
ENDROOT
TORSDOF 0
ENDMDL
