MODEL 1
REMARK minimizedAffinity -3.92324734
REMARK minimizedRMSD -1
REMARK  0 active torsions:
REMARK  status: ('A' for Active; 'I' for Inactive)
ROOT
ATOM      1  C   UNL d   1      -1.304   3.350   0.768  0.00  0.00     0.023 A 
ATOM      2  C1  UNL d   1      -0.239   3.265  -0.129  0.00  0.00     0.003 A 
ATOM      3  C2  UNL d   1       0.273   2.018  -0.491  0.00  0.00     0.048 A 
ATOM      4  C3  UNL d   1      -0.284   0.859   0.047  0.00  0.00     0.023 A 
ATOM      5  C4  UNL d   1      -1.351   0.938   0.945  0.00  0.00     0.048 A 
ATOM      6  C5  UNL d   1      -1.859   2.187   1.305  0.00  0.00     0.003 A 
ATOM      7  I   UNL d   1       0.477  -0.999  -0.490  0.00  0.00    -0.146 I 
ENDROOT
TORSDOF 0
ENDMDL
