MODEL 1
REMARK minimizedAffinity -3.19762683
REMARK minimizedRMSD -1
REMARK  0 active torsions:
REMARK  status: ('A' for Active; 'I' for Inactive)
ROOT
ATOM      1  C   UNL d   1      -1.356   1.935   1.848  0.00  0.00     0.023 A 
ATOM      2  C1  UNL d   1      -0.772   0.800   2.411  0.00  0.00     0.003 A 
ATOM      3  C2  UNL d   1      -0.257  -0.204   1.588  0.00  0.00     0.048 A 
ATOM      4  C3  UNL d   1      -0.327  -0.065   0.202  0.00  0.00     0.023 A 
ATOM      5  C4  UNL d   1      -0.909   1.070  -0.366  0.00  0.00     0.048 A 
ATOM      6  C5  UNL d   1      -1.424   2.070   0.461  0.00  0.00     0.003 A 
ATOM      7  I   UNL d   1       0.440  -1.556  -1.025  0.00  0.00    -0.146 I 
ENDROOT
TORSDOF 0
ENDMDL
