MODEL 1
REMARK minimizedAffinity 1.3974787
REMARK minimizedRMSD -1
REMARK  0 active torsions:
REMARK  status: ('A' for Active; 'I' for Inactive)
ROOT
ATOM      1  C   UNL d   1       1.151  -0.776  -0.636  0.00  0.00     0.023 A 
ATOM      2  C1  UNL d   1       1.257   0.588  -0.908  0.00  0.00     0.003 A 
ATOM      3  C2  UNL d   1       0.586   1.516  -0.107  0.00  0.00     0.048 A 
ATOM      4  C3  UNL d   1      -0.188   1.072   0.964  0.00  0.00     0.023 A 
ATOM      5  C4  UNL d   1      -0.296  -0.292   1.241  0.00  0.00     0.048 A 
ATOM      6  C5  UNL d   1       0.375  -1.215   0.437  0.00  0.00     0.003 A 
ATOM      7  I   UNL d   1      -1.187   2.450   2.157  0.00  0.00    -0.146 I 
ENDROOT
TORSDOF 0
ENDMDL
