MODEL 1
REMARK minimizedAffinity -3.58112478
REMARK minimizedRMSD -1
REMARK  0 active torsions:
REMARK  status: ('A' for Active; 'I' for Inactive)
ROOT
ATOM      1  C   UNL d   1      -1.669   3.472   0.779  0.00  0.00     0.023 A 
ATOM      2  C1  UNL d   1      -1.884   2.322   1.539  0.00  0.00     0.003 A 
ATOM      3  C2  UNL d   1      -1.260   1.124   1.186  0.00  0.00     0.048 A 
ATOM      4  C3  UNL d   1      -0.422   1.083   0.072  0.00  0.00     0.023 A 
ATOM      5  C4  UNL d   1      -0.204   2.231  -0.691  0.00  0.00     0.048 A 
ATOM      6  C5  UNL d   1      -0.830   3.426  -0.335  0.00  0.00     0.003 A 
ATOM      7  I   UNL d   1       0.508  -0.700  -0.455  0.00  0.00    -0.146 I 
ENDROOT
TORSDOF 0
ENDMDL
