MODEL 1
REMARK minimizedAffinity -2.39277697
REMARK minimizedRMSD -1
REMARK  0 active torsions:
REMARK  status: ('A' for Active; 'I' for Inactive)
ROOT
ATOM      1  C   UNL d   1      -0.836   1.735   1.917  0.00  0.00     0.023 A 
ATOM      2  C1  UNL d   1       0.085   0.757   2.294  0.00  0.00     0.003 A 
ATOM      3  C2  UNL d   1       0.492  -0.212   1.375  0.00  0.00     0.048 A 
ATOM      4  C3  UNL d   1      -0.025  -0.197   0.080  0.00  0.00     0.023 A 
ATOM      5  C4  UNL d   1      -0.946   0.779  -0.302  0.00  0.00     0.048 A 
ATOM      6  C5  UNL d   1      -1.350   1.746   0.620  0.00  0.00     0.003 A 
ATOM      7  I   UNL d   1       0.579  -1.639  -1.290  0.00  0.00    -0.146 I 
ENDROOT
TORSDOF 0
ENDMDL
