MODEL 1
REMARK minimizedAffinity -2.55554128
REMARK minimizedRMSD -1
REMARK  0 active torsions:
REMARK  status: ('A' for Active; 'I' for Inactive)
ROOT
ATOM      1  C   UNL d   1       0.659   0.473  -1.383  0.00  0.00     0.020 A 
ATOM      2  C1  UNL d   1       0.798   1.320  -2.482  0.00  0.00     0.020 A 
ATOM      3  C2  UNL d   1       1.076   2.675  -2.288  0.00  0.00     0.034 A 
ATOM      4  C3  UNL d   1       1.217   3.187  -0.993  0.00  0.00     0.017 A 
ATOM      5  C4  UNL d   1       1.077   2.336   0.109  0.00  0.00     0.017 A 
ATOM      6  C5  UNL d   1       0.798   0.980  -0.090  0.00  0.00     0.034 A 
ATOM      7 Cl   UNL d   1       1.236   2.894   1.737  0.00  0.00    -0.070 Cl
ATOM      8 Cl1  UNL d   1       1.562   4.872  -0.828  0.00  0.00    -0.070 Cl
ENDROOT
TORSDOF 0
ENDMDL
