MODEL 1
REMARK minimizedAffinity 0.162753433
REMARK minimizedRMSD -1
REMARK  0 active torsions:
REMARK  status: ('A' for Active; 'I' for Inactive)
ROOT
ATOM      1  C   UNL d   1       1.259   0.034  -0.445  0.00  0.00     0.020 A 
ATOM      2  C1  UNL d   1       1.423   0.637  -1.692  0.00  0.00     0.020 A 
ATOM      3  C2  UNL d   1       1.511   2.027  -1.789  0.00  0.00     0.034 A 
ATOM      4  C3  UNL d   1       1.436   2.819  -0.638  0.00  0.00     0.017 A 
ATOM      5  C4  UNL d   1       1.271   2.214   0.613  0.00  0.00     0.017 A 
ATOM      6  C5  UNL d   1       1.183   0.821   0.704  0.00  0.00     0.034 A 
ATOM      7 Cl   UNL d   1       1.169   3.125   2.078  0.00  0.00    -0.070 Cl
ATOM      8 Cl1  UNL d   1       1.553   4.532  -0.833  0.00  0.00    -0.070 Cl
ENDROOT
TORSDOF 0
ENDMDL
