MODEL 1
REMARK minimizedAffinity 6.16045713
REMARK minimizedRMSD -1
REMARK  0 active torsions:
REMARK  status: ('A' for Active; 'I' for Inactive)
ROOT
ATOM      1  C   UNL d   1       2.388   0.555  -0.867  0.00  0.00     0.020 A 
ATOM      2  C1  UNL d   1       1.557   0.051  -1.867  0.00  0.00     0.020 A 
ATOM      3  C2  UNL d   1       0.710   0.910  -2.569  0.00  0.00     0.034 A 
ATOM      4  C3  UNL d   1       0.692   2.278  -2.273  0.00  0.00     0.017 A 
ATOM      5  C4  UNL d   1       1.526   2.783  -1.270  0.00  0.00     0.017 A 
ATOM      6  C5  UNL d   1       2.373   1.918  -0.569  0.00  0.00     0.034 A 
ATOM      7 Cl   UNL d   1       1.559   4.459  -0.848  0.00  0.00    -0.070 Cl
ATOM      8 Cl1  UNL d   1      -0.381   3.282  -3.182  0.00  0.00    -0.070 Cl
ENDROOT
TORSDOF 0
ENDMDL
