MODEL 1
REMARK minimizedAffinity -2.62549138
REMARK minimizedRMSD -1
REMARK  0 active torsions:
REMARK  status: ('A' for Active; 'I' for Inactive)
ROOT
ATOM      1  C   UNL d   1       1.077   1.099  -1.555  0.00  0.00     0.020 A 
ATOM      2  C1  UNL d   1       0.809   0.650  -0.263  0.00  0.00     0.020 A 
ATOM      3  C2  UNL d   1       0.731   1.562   0.791  0.00  0.00     0.034 A 
ATOM      4  C3  UNL d   1       0.921   2.929   0.555  0.00  0.00     0.017 A 
ATOM      5  C4  UNL d   1       1.190   3.379  -0.742  0.00  0.00     0.017 A 
ATOM      6  C5  UNL d   1       1.267   2.461  -1.794  0.00  0.00     0.034 A 
ATOM      7 Cl   UNL d   1       1.436   5.049  -1.112  0.00  0.00    -0.070 Cl
ATOM      8 Cl1  UNL d   1       0.810   4.001   1.906  0.00  0.00    -0.070 Cl
ENDROOT
TORSDOF 0
ENDMDL
