MODEL 1
REMARK minimizedAffinity -0.604768157
REMARK minimizedRMSD -1
REMARK  0 active torsions:
REMARK  status: ('A' for Active; 'I' for Inactive)
ROOT
ATOM      1  C   UNL d   1       1.349   0.716  -0.460  0.00  0.00     0.020 A 
ATOM      2  C1  UNL d   1       1.273   1.295  -1.726  0.00  0.00     0.020 A 
ATOM      3  C2  UNL d   1       1.313   2.684  -1.862  0.00  0.00     0.034 A 
ATOM      4  C3  UNL d   1       1.429   3.499  -0.731  0.00  0.00     0.017 A 
ATOM      5  C4  UNL d   1       1.505   2.918   0.540  0.00  0.00     0.017 A 
ATOM      6  C5  UNL d   1       1.465   1.526   0.671  0.00  0.00     0.034 A 
ATOM      7 Cl   UNL d   1       1.650   3.858   1.983  0.00  0.00    -0.070 Cl
ATOM      8 Cl1  UNL d   1       1.473   5.210  -0.973  0.00  0.00    -0.070 Cl
ENDROOT
TORSDOF 0
ENDMDL
