MODEL 1
REMARK minimizedAffinity -2.03855824
REMARK minimizedRMSD -1
REMARK  0 active torsions:
REMARK  status: ('A' for Active; 'I' for Inactive)
ROOT
ATOM      1  C   UNL d   1       1.465   1.120  -1.099  0.00  0.00     0.020 A 
ATOM      2  C1  UNL d   1       1.414   1.973  -2.201  0.00  0.00     0.020 A 
ATOM      3  C2  UNL d   1       1.542   3.352  -2.023  0.00  0.00     0.034 A 
ATOM      4  C3  UNL d   1       1.721   3.883  -0.740  0.00  0.00     0.017 A 
ATOM      5  C4  UNL d   1       1.772   3.026   0.366  0.00  0.00     0.017 A 
ATOM      6  C5  UNL d   1       1.643   1.645   0.182  0.00  0.00     0.034 A 
ATOM      7 Cl   UNL d   1       1.990   3.606   1.979  0.00  0.00    -0.070 Cl
ATOM      8 Cl1  UNL d   1       1.872   5.598  -0.594  0.00  0.00    -0.070 Cl
ENDROOT
TORSDOF 0
ENDMDL
