MODEL 1
REMARK minimizedAffinity 2.19222569
REMARK minimizedRMSD -1
REMARK  0 active torsions:
REMARK  status: ('A' for Active; 'I' for Inactive)
ROOT
ATOM      1  C   UNL d   1       0.929   1.457  -0.660  0.00  0.00     0.020 A 
ATOM      2  C1  UNL d   1       1.080   2.037  -1.919  0.00  0.00     0.020 A 
ATOM      3  C2  UNL d   1       1.339   3.405  -2.031  0.00  0.00     0.034 A 
ATOM      4  C3  UNL d   1       1.449   4.197  -0.882  0.00  0.00     0.017 A 
ATOM      5  C4  UNL d   1       1.297   3.614   0.381  0.00  0.00     0.017 A 
ATOM      6  C5  UNL d   1       1.038   2.244   0.488  0.00  0.00     0.034 A 
ATOM      7 Cl   UNL d   1       1.419   4.526   1.844  0.00  0.00    -0.070 Cl
ATOM      8 Cl1  UNL d   1       1.771   5.881  -1.095  0.00  0.00    -0.070 Cl
ENDROOT
TORSDOF 0
ENDMDL
