MODEL 1
REMARK minimizedAffinity -2.65944481
REMARK minimizedRMSD -1
REMARK  0 active torsions:
REMARK  status: ('A' for Active; 'I' for Inactive)
ROOT
ATOM      1  C   UNL d   1       0.948  -0.085   0.214  0.00  0.00     0.020 A 
ATOM      2  C1  UNL d   1       1.161   0.850   1.227  0.00  0.00     0.020 A 
ATOM      3  C2  UNL d   1       1.404   2.187   0.903  0.00  0.00     0.034 A 
ATOM      4  C3  UNL d   1       1.434   2.592  -0.437  0.00  0.00     0.017 A 
ATOM      5  C4  UNL d   1       1.220   1.653  -1.452  0.00  0.00     0.017 A 
ATOM      6  C5  UNL d   1       0.977   0.316  -1.122  0.00  0.00     0.034 A 
ATOM      7 Cl   UNL d   1       1.242   2.078  -3.127  0.00  0.00    -0.070 Cl
ATOM      8 Cl1  UNL d   1       1.740   4.261  -0.764  0.00  0.00    -0.070 Cl
ENDROOT
TORSDOF 0
ENDMDL
