MODEL 1
REMARK minimizedAffinity 4.70497036
REMARK minimizedRMSD -1
REMARK  0 active torsions:
REMARK  status: ('A' for Active; 'I' for Inactive)
ROOT
ATOM      1  C   UNL d   1       1.380   2.391  -2.201  0.00  0.00     0.020 A 
ATOM      2  C1  UNL d   1       1.113   1.696  -1.023  0.00  0.00     0.020 A 
ATOM      3  C2  UNL d   1       1.273   2.328   0.212  0.00  0.00     0.034 A 
ATOM      4  C3  UNL d   1       1.702   3.659   0.271  0.00  0.00     0.017 A 
ATOM      5  C4  UNL d   1       1.970   4.355  -0.913  0.00  0.00     0.017 A 
ATOM      6  C5  UNL d   1       1.808   3.718  -2.146  0.00  0.00     0.034 A 
ATOM      7 Cl   UNL d   1       2.503   6.000  -0.920  0.00  0.00    -0.070 Cl
ATOM      8 Cl1  UNL d   1       1.879   4.378   1.832  0.00  0.00    -0.070 Cl
ENDROOT
TORSDOF 0
ENDMDL
