MODEL 1
REMARK minimizedAffinity -1.90699458
REMARK minimizedRMSD -1
REMARK  0 active torsions:
REMARK  status: ('A' for Active; 'I' for Inactive)
ROOT
ATOM      1  C   UNL d   1       0.607   3.046   0.936  0.00  0.00     0.020 A 
ATOM      2  C1  UNL d   1       0.833   3.507  -0.361  0.00  0.00     0.020 A 
ATOM      3  C2  UNL d   1       1.084   2.598  -1.391  0.00  0.00     0.034 A 
ATOM      4  C3  UNL d   1       1.111   1.224  -1.126  0.00  0.00     0.017 A 
ATOM      5  C4  UNL d   1       0.884   0.763   0.176  0.00  0.00     0.017 A 
ATOM      6  C5  UNL d   1       0.633   1.677   1.203  0.00  0.00     0.034 A 
ATOM      7 Cl   UNL d   1       0.901  -0.918   0.579  0.00  0.00    -0.070 Cl
ATOM      8 Cl1  UNL d   1       1.427   0.157  -2.448  0.00  0.00    -0.070 Cl
ENDROOT
TORSDOF 0
ENDMDL
