MODEL 1
REMARK minimizedAffinity -0.970129311
REMARK minimizedRMSD -1
REMARK  0 active torsions:
REMARK  status: ('A' for Active; 'I' for Inactive)
ROOT
ATOM      1  C   UNL d   1       0.862  -1.962  -0.938  0.00  0.00     0.020 A 
ATOM      2  C1  UNL d   1       1.039  -1.541  -2.256  0.00  0.00     0.020 A 
ATOM      3  C2  UNL d   1       1.360  -0.209  -2.526  0.00  0.00     0.034 A 
ATOM      4  C3  UNL d   1       1.504   0.707  -1.478  0.00  0.00     0.017 A 
ATOM      5  C4  UNL d   1       1.326   0.284  -0.156  0.00  0.00     0.017 A 
ATOM      6  C5  UNL d   1       1.005  -1.051   0.109  0.00  0.00     0.034 A 
ATOM      7 Cl   UNL d   1       1.487   1.356   1.191  0.00  0.00    -0.070 Cl
ATOM      8 Cl1  UNL d   1       1.902   2.338  -1.885  0.00  0.00    -0.070 Cl
ENDROOT
TORSDOF 0
ENDMDL
