MODEL 1
REMARK minimizedAffinity 1.18607855
REMARK minimizedRMSD -1
REMARK  0 active torsions:
REMARK  status: ('A' for Active; 'I' for Inactive)
ROOT
ATOM      1  C   UNL d   1       1.147   2.142  -1.804  0.00  0.00     0.020 A 
ATOM      2  C1  UNL d   1       0.748   0.946  -2.398  0.00  0.00     0.020 A 
ATOM      3  C2  UNL d   1       1.109  -0.274  -1.823  0.00  0.00     0.034 A 
ATOM      4  C3  UNL d   1       1.871  -0.301  -0.650  0.00  0.00     0.017 A 
ATOM      5  C4  UNL d   1       2.272   0.900  -0.054  0.00  0.00     0.017 A 
ATOM      6  C5  UNL d   1       1.907   2.119  -0.634  0.00  0.00     0.034 A 
ATOM      7 Cl   UNL d   1       3.214   0.948   1.394  0.00  0.00    -0.070 Cl
ATOM      8 Cl1  UNL d   1       2.282  -1.846   0.007  0.00  0.00    -0.070 Cl
ENDROOT
TORSDOF 0
ENDMDL
