MODEL 1
REMARK minimizedAffinity 4.98092127
REMARK minimizedRMSD -1
REMARK  0 active torsions:
REMARK  status: ('A' for Active; 'I' for Inactive)
ROOT
ATOM      1  C   UNL d   1       1.391   0.961  -0.835  0.00  0.00     0.020 A 
ATOM      2  C1  UNL d   1       1.425   1.698  -2.017  0.00  0.00     0.020 A 
ATOM      3  C2  UNL d   1       1.467   3.093  -1.970  0.00  0.00     0.034 A 
ATOM      4  C3  UNL d   1       1.475   3.755  -0.736  0.00  0.00     0.017 A 
ATOM      5  C4  UNL d   1       1.441   3.014   0.450  0.00  0.00     0.017 A 
ATOM      6  C5  UNL d   1       1.399   1.618   0.397  0.00  0.00     0.034 A 
ATOM      7 Cl   UNL d   1       1.448   3.760   2.009  0.00  0.00    -0.070 Cl
ATOM      8 Cl1  UNL d   1       1.528   5.482  -0.752  0.00  0.00    -0.070 Cl
ENDROOT
TORSDOF 0
ENDMDL
