MODEL 1
REMARK minimizedAffinity 1.94647598
REMARK minimizedRMSD -1
REMARK  0 active torsions:
REMARK  status: ('A' for Active; 'I' for Inactive)
ROOT
ATOM      1  C   UNL d   1       1.586   3.587  -2.194  0.00  0.00     0.020 A 
ATOM      2  C1  UNL d   1       1.201   4.340  -1.085  0.00  0.00     0.020 A 
ATOM      3  C2  UNL d   1       1.344   3.813   0.200  0.00  0.00     0.034 A 
ATOM      4  C3  UNL d   1       1.874   2.530   0.380  0.00  0.00     0.017 A 
ATOM      5  C4  UNL d   1       2.261   1.775  -0.733  0.00  0.00     0.017 A 
ATOM      6  C5  UNL d   1       2.115   2.308  -2.018  0.00  0.00     0.034 A 
ATOM      7 Cl   UNL d   1       2.923   0.185  -0.591  0.00  0.00    -0.070 Cl
ATOM      8 Cl1  UNL d   1       2.024   1.942   1.998  0.00  0.00    -0.070 Cl
ENDROOT
TORSDOF 0
ENDMDL
