MODEL 1
REMARK minimizedAffinity -3.30885005
REMARK minimizedRMSD -1
REMARK  0 active torsions:
REMARK  status: ('A' for Active; 'I' for Inactive)
ROOT
ATOM      1  C   UNL d   1       0.891   3.062   1.462  0.00  0.00     0.020 A 
ATOM      2  C1  UNL d   1       0.956   4.094   0.526  0.00  0.00     0.020 A 
ATOM      3  C2  UNL d   1       1.251   3.808  -0.808  0.00  0.00     0.034 A 
ATOM      4  C3  UNL d   1       1.483   2.488  -1.211  0.00  0.00     0.017 A 
ATOM      5  C4  UNL d   1       1.417   1.453  -0.271  0.00  0.00     0.017 A 
ATOM      6  C5  UNL d   1       1.121   1.744   1.064  0.00  0.00     0.034 A 
ATOM      7 Cl   UNL d   1       1.691  -0.201  -0.692  0.00  0.00    -0.070 Cl
ATOM      8 Cl1  UNL d   1       1.842   2.207  -2.878  0.00  0.00    -0.070 Cl
ENDROOT
TORSDOF 0
ENDMDL
