MODEL 1
REMARK minimizedAffinity 9.72117996
REMARK minimizedRMSD -1
REMARK  0 active torsions:
REMARK  status: ('A' for Active; 'I' for Inactive)
ROOT
ATOM      1  C   UNL d   1       1.491   4.078   1.745  0.00  0.00     0.020 A 
ATOM      2  C1  UNL d   1       1.839   5.426   1.679  0.00  0.00     0.020 A 
ATOM      3  C2  UNL d   1       2.181   6.000   0.453  0.00  0.00     0.034 A 
ATOM      4  C3  UNL d   1       2.177   5.225  -0.713  0.00  0.00     0.017 A 
ATOM      5  C4  UNL d   1       1.828   3.871  -0.646  0.00  0.00     0.017 A 
ATOM      6  C5  UNL d   1       1.486   3.302   0.585  0.00  0.00     0.034 A 
ATOM      7 Cl   UNL d   1       1.799   2.851  -2.041  0.00  0.00    -0.070 Cl
ATOM      8 Cl1  UNL d   1       2.610   6.000  -2.195  0.00  0.00    -0.070 Cl
ENDROOT
TORSDOF 0
ENDMDL
