MODEL 1
REMARK minimizedAffinity 4.3610177
REMARK minimizedRMSD -1
REMARK  0 active torsions:
REMARK  status: ('A' for Active; 'I' for Inactive)
ROOT
ATOM      1  C   UNL d   1       1.124   0.418  -1.856  0.00  0.00     0.020 A 
ATOM      2  C1  UNL d   1       1.037   1.349  -2.891  0.00  0.00     0.020 A 
ATOM      3  C2  UNL d   1       1.304   2.696  -2.643  0.00  0.00     0.034 A 
ATOM      4  C3  UNL d   1       1.660   3.118  -1.356  0.00  0.00     0.017 A 
ATOM      5  C4  UNL d   1       1.748   2.183  -0.318  0.00  0.00     0.017 A 
ATOM      6  C5  UNL d   1       1.479   0.835  -0.573  0.00  0.00     0.034 A 
ATOM      7 Cl   UNL d   1       2.181   2.627   1.295  0.00  0.00    -0.070 Cl
ATOM      8 Cl1  UNL d   1       1.978   4.800  -1.121  0.00  0.00    -0.070 Cl
ENDROOT
TORSDOF 0
ENDMDL
