MODEL 1
REMARK minimizedAffinity 6.76325035
REMARK minimizedRMSD -1
REMARK  2 active torsions:
REMARK  status: ('A' for Active; 'I' for Inactive)
REMARK    1  A    between atoms: C2'_3  and  C1'_4 
REMARK    2  A    between atoms: C1'_4  and  C1_5 
ROOT
ATOM      1  C1  I4B d   1       0.109   1.022   0.302  0.00  0.00    -0.075 A 
ATOM      2  C2  I4B d   1       0.910   0.250  -0.502  0.00  0.00     0.003 A 
ATOM      3  C3  I4B d   1       1.410  -0.988  -0.031  0.00  0.00     0.002 A 
ATOM      4  C4  I4B d   1       1.129  -1.389   1.259  0.00  0.00    -0.004 A 
ATOM      5  C5  I4B d   1       0.298  -0.615   2.065  0.00  0.00     0.002 A 
ATOM      6  C6  I4B d   1      -0.226   0.592   1.579  0.00  0.00     0.003 A 
ENDROOT
BRANCH   1   7
ATOM      7  C1' I4B d   1      -0.376   2.339  -0.215  0.00  0.00     0.060 C 
BRANCH   7   8
ATOM      8  C2' I4B d   1       0.441   3.430   0.447  0.00  0.00    -0.013 C 
ATOM      9  C4' I4B d   1       0.255   4.751  -0.252  0.00  0.00     0.013 C 
ATOM     10  C3' I4B d   1       0.023   3.514   1.884  0.00  0.00     0.013 C 
ENDBRANCH   7   8
ENDBRANCH   1   7
TORSDOF 2
ENDMDL
