MODEL 1
REMARK minimizedAffinity 11.4329443
REMARK minimizedRMSD -1
REMARK  2 active torsions:
REMARK  status: ('A' for Active; 'I' for Inactive)
REMARK    1  A    between atoms: C2'_3  and  C1'_4 
REMARK    2  A    between atoms: C1'_4  and  C1_5 
ROOT
ATOM      1  C1  I4B d   1       1.193   0.139   1.837  0.00  0.00    -0.075 A 
ATOM      2  C2  I4B d   1       2.107   1.150   1.996  0.00  0.00     0.003 A 
ATOM      3  C3  I4B d   1       1.690   2.422   2.456  0.00  0.00     0.002 A 
ATOM      4  C4  I4B d   1       0.351   2.653   2.696  0.00  0.00    -0.004 A 
ATOM      5  C5  I4B d   1      -0.572   1.620   2.556  0.00  0.00     0.002 A 
ATOM      6  C6  I4B d   1      -0.147   0.351   2.136  0.00  0.00     0.003 A 
ENDROOT
BRANCH   1   7
ATOM      7  C1' I4B d   1       1.663  -1.183   1.318  0.00  0.00     0.060 C 
BRANCH   7   8
ATOM      8  C2' I4B d   1       0.762  -1.579   0.166  0.00  0.00    -0.013 C 
ATOM      9  C4' I4B d   1       1.160  -0.876  -1.105  0.00  0.00     0.013 C 
ATOM     10  C3' I4B d   1       0.841  -3.068   0.008  0.00  0.00     0.013 C 
ENDBRANCH   7   8
ENDBRANCH   1   7
TORSDOF 2
ENDMDL
