MODEL 1
REMARK minimizedAffinity 1.39941406
REMARK minimizedRMSD -1
REMARK  2 active torsions:
REMARK  status: ('A' for Active; 'I' for Inactive)
REMARK    1  A    between atoms: C2'_3  and  C1'_4 
REMARK    2  A    between atoms: C1'_4  and  C1_5 
ROOT
ATOM      1  C1  I4B d   1       1.291  -0.321   1.548  0.00  0.00    -0.075 A 
ATOM      2  C2  I4B d   1       1.822  -0.206   0.287  0.00  0.00     0.003 A 
ATOM      3  C3  I4B d   1       1.004  -0.404  -0.852  0.00  0.00     0.002 A 
ATOM      4  C4  I4B d   1      -0.318  -0.763  -0.685  0.00  0.00    -0.004 A 
ATOM      5  C5  I4B d   1      -0.861  -0.856   0.593  0.00  0.00     0.002 A 
ATOM      6  C6  I4B d   1      -0.055  -0.622   1.717  0.00  0.00     0.003 A 
ENDROOT
BRANCH   1   7
ATOM      7  C1' I4B d   1       2.190  -0.138   2.729  0.00  0.00     0.060 C 
BRANCH   7   8
ATOM      8  C2' I4B d   1       2.380  -1.491   3.385  0.00  0.00    -0.013 C 
ATOM      9  C4' I4B d   1       3.826  -1.733   3.726  0.00  0.00     0.013 C 
ATOM     10  C3' I4B d   1       1.519  -1.534   4.613  0.00  0.00     0.013 C 
ENDBRANCH   7   8
ENDBRANCH   1   7
TORSDOF 2
ENDMDL
