MODEL 1
REMARK minimizedAffinity 10.4488773
REMARK minimizedRMSD -1
REMARK  2 active torsions:
REMARK  status: ('A' for Active; 'I' for Inactive)
REMARK    1  A    between atoms: C2'_3  and  C1'_4 
REMARK    2  A    between atoms: C1'_4  and  C1_5 
ROOT
ATOM      1  C1  I4B d   1       0.872  -1.579  -0.075  0.00  0.00    -0.075 A 
ATOM      2  C2  I4B d   1       0.373  -2.774   0.378  0.00  0.00     0.003 A 
ATOM      3  C3  I4B d   1       0.849  -3.995  -0.158  0.00  0.00     0.002 A 
ATOM      4  C4  I4B d   1       1.782  -3.973  -1.174  0.00  0.00    -0.004 A 
ATOM      5  C5  I4B d   1       2.304  -2.761  -1.617  0.00  0.00     0.002 A 
ATOM      6  C6  I4B d   1       1.856  -1.556  -1.055  0.00  0.00     0.003 A 
ENDROOT
BRANCH   1   7
ATOM      7  C1' I4B d   1       0.323  -0.307   0.490  0.00  0.00     0.060 C 
BRANCH   7   8
ATOM      8  C2' I4B d   1       0.578  -0.312   1.983  0.00  0.00    -0.013 C 
ATOM      9  C4' I4B d   1       2.048  -0.445   2.285  0.00  0.00     0.013 C 
ATOM     10  C3' I4B d   1       0.022   0.960   2.552  0.00  0.00     0.013 C 
ENDBRANCH   7   8
ENDBRANCH   1   7
TORSDOF 2
ENDMDL
