MODEL 1
REMARK minimizedAffinity 0.467893183
REMARK minimizedRMSD -1
REMARK  2 active torsions:
REMARK  status: ('A' for Active; 'I' for Inactive)
REMARK    1  A    between atoms: C2'_3  and  C1'_4 
REMARK    2  A    between atoms: C1'_4  and  C1_5 
ROOT
ATOM      1  C1  I4B d   1       0.356   2.748   0.276  0.00  0.00    -0.075 A 
ATOM      2  C2  I4B d   1       0.304   2.336  -1.032  0.00  0.00     0.003 A 
ATOM      3  C3  I4B d   1       0.253   0.955  -1.343  0.00  0.00     0.002 A 
ATOM      4  C4  I4B d   1       0.306   0.027  -0.324  0.00  0.00    -0.004 A 
ATOM      5  C5  I4B d   1       0.336   0.446   1.003  0.00  0.00     0.002 A 
ATOM      6  C6  I4B d   1       0.348   1.816   1.306  0.00  0.00     0.003 A 
ENDROOT
BRANCH   1   7
ATOM      7  C1' I4B d   1       0.442   4.212   0.568  0.00  0.00     0.060 C 
BRANCH   7   8
ATOM      8  C2' I4B d   1       1.902   4.615   0.508  0.00  0.00    -0.013 C 
ATOM      9  C4' I4B d   1       2.063   5.998  -0.065  0.00  0.00     0.013 C 
ATOM     10  C3' I4B d   1       2.461   4.536   1.898  0.00  0.00     0.013 C 
ENDBRANCH   7   8
ENDBRANCH   1   7
TORSDOF 2
ENDMDL
