MODEL 1
REMARK minimizedAffinity -3.02450132
REMARK minimizedRMSD -1
REMARK  2 active torsions:
REMARK  status: ('A' for Active; 'I' for Inactive)
REMARK    1  A    between atoms: C2'_3  and  C1'_4 
REMARK    2  A    between atoms: C1'_4  and  C1_5 
ROOT
ATOM      1  C1  I4B d   1       0.329   1.265   0.147  0.00  0.00    -0.075 A 
ATOM      2  C2  I4B d   1      -0.179   2.065  -0.847  0.00  0.00     0.003 A 
ATOM      3  C3  I4B d   1      -0.523   3.411  -0.572  0.00  0.00     0.002 A 
ATOM      4  C4  I4B d   1      -0.391   3.898   0.712  0.00  0.00    -0.004 A 
ATOM      5  C5  I4B d   1       0.145   3.092   1.713  0.00  0.00     0.002 A 
ATOM      6  C6  I4B d   1       0.519   1.771   1.426  0.00  0.00     0.003 A 
ENDROOT
BRANCH   1   7
ATOM      7  C1' I4B d   1       0.650  -0.161  -0.170  0.00  0.00     0.060 C 
BRANCH   7   8
ATOM      8  C2' I4B d   1      -0.657  -0.914  -0.312  0.00  0.00    -0.013 C 
ATOM      9  C4' I4B d   1      -0.424  -2.326  -0.779  0.00  0.00     0.013 C 
ATOM     10  C3' I4B d   1      -1.352  -0.890   1.016  0.00  0.00     0.013 C 
ENDBRANCH   7   8
ENDBRANCH   1   7
TORSDOF 2
ENDMDL
