MODEL 1
REMARK minimizedAffinity -1.58533394
REMARK minimizedRMSD -1
REMARK  1 active torsions:
REMARK  status: ('A' for Active; 'I' for Inactive)
REMARK    1  A    between atoms: N_2  and  C1_3 
ROOT
ATOM      1  C1  UNL d   1      -5.561   3.514   4.802  0.00  0.00     0.143 A 
ATOM      2  C2  UNL d   1      -5.621   4.721   5.506  0.00  0.00    -0.057 A 
ATOM      3  C3  UNL d   1      -5.841   5.936   4.846  0.00  0.00     0.033 A 
ATOM      4  C4  UNL d   1      -5.977   5.969   3.462  0.00  0.00    -0.042 A 
ATOM      5  C5  UNL d   1      -5.896   4.784   2.739  0.00  0.00     0.033 A 
ATOM      6  C6  UNL d   1      -5.682   3.573   3.404  0.00  0.00    -0.057 A 
ENDROOT
BRANCH   1   7
ATOM      7  N   UNL d   1      -5.246   2.286   5.389  0.00  0.00    -0.732 N 
ATOM      8  C   UNL d   1      -3.936   2.055   5.958  0.00  0.00     0.284 C 
ATOM      9  H3  UNL d   1      -6.013   1.914   5.945  0.00  0.00     0.395 HD
ENDBRANCH   1   7
TORSDOF 1
ENDMDL
