MODEL 1
REMARK minimizedAffinity 3.23089695
REMARK minimizedRMSD -1
REMARK  1 active torsions:
REMARK  status: ('A' for Active; 'I' for Inactive)
REMARK    1  A    between atoms: N_2  and  C1_3 
ROOT
ATOM      1  C1  UNL d   1      -5.199   5.125   3.185  0.00  0.00     0.143 A 
ATOM      2  C2  UNL d   1      -4.204   5.918   2.602  0.00  0.00    -0.057 A 
ATOM      3  C3  UNL d   1      -4.044   5.978   1.213  0.00  0.00     0.033 A 
ATOM      4  C4  UNL d   1      -4.860   5.221   0.379  0.00  0.00    -0.042 A 
ATOM      5  C5  UNL d   1      -5.839   4.406   0.937  0.00  0.00     0.033 A 
ATOM      6  C6  UNL d   1      -5.998   4.355   2.325  0.00  0.00    -0.057 A 
ENDROOT
BRANCH   1   7
ATOM      7  N   UNL d   1      -5.344   4.946   4.562  0.00  0.00    -0.732 N 
ATOM      8  C   UNL d   1      -5.999   5.952   5.371  0.00  0.00     0.284 C 
ATOM      9  H3  UNL d   1      -5.593   3.990   4.806  0.00  0.00     0.395 HD
ENDBRANCH   1   7
TORSDOF 1
ENDMDL
