MODEL 1
REMARK minimizedAffinity 9.41646099
REMARK minimizedRMSD -1
REMARK  1 active torsions:
REMARK  status: ('A' for Active; 'I' for Inactive)
REMARK    1  A    between atoms: N_2  and  C1_3 
ROOT
ATOM      1  C1  UNL d   1      -0.279  -0.839   0.937  0.00  0.00     0.143 A 
ATOM      2  C2  UNL d   1      -0.646  -1.318  -0.325  0.00  0.00    -0.057 A 
ATOM      3  C3  UNL d   1      -1.980  -1.294  -0.751  0.00  0.00     0.033 A 
ATOM      4  C4  UNL d   1      -2.977  -0.816   0.093  0.00  0.00    -0.042 A 
ATOM      5  C5  UNL d   1      -2.639  -0.358   1.361  0.00  0.00     0.033 A 
ATOM      6  C6  UNL d   1      -1.305  -0.378   1.778  0.00  0.00    -0.057 A 
ENDROOT
BRANCH   1   7
ATOM      7  N   UNL d   1       1.015  -0.927   1.457  0.00  0.00    -0.732 N 
ATOM      8  C   UNL d   1       1.275  -0.609   2.844  0.00  0.00     0.284 C 
ATOM      9  H3  UNL d   1       1.515  -1.745   1.116  0.00  0.00     0.395 HD
ENDBRANCH   1   7
TORSDOF 1
ENDMDL
