MODEL 1
REMARK minimizedAffinity -2.67181468
REMARK minimizedRMSD -1
REMARK  1 active torsions:
REMARK  status: ('A' for Active; 'I' for Inactive)
REMARK    1  A    between atoms: N_2  and  C1_3 
ROOT
ATOM      1  C1  UNL d   1      -4.597   3.374   3.692  0.00  0.00     0.143 A 
ATOM      2  C2  UNL d   1      -5.259   2.939   4.846  0.00  0.00    -0.057 A 
ATOM      3  C3  UNL d   1      -4.549   2.569   5.994  0.00  0.00     0.033 A 
ATOM      4  C4  UNL d   1      -3.158   2.598   5.999  0.00  0.00    -0.042 A 
ATOM      5  C5  UNL d   1      -2.479   3.003   4.856  0.00  0.00     0.033 A 
ATOM      6  C6  UNL d   1      -3.194   3.379   3.714  0.00  0.00    -0.057 A 
ENDROOT
BRANCH   1   7
ATOM      7  N   UNL d   1      -5.242   3.662   2.487  0.00  0.00    -0.732 N 
ATOM      8  C   UNL d   1      -5.114   4.967   1.876  0.00  0.00     0.284 C 
ATOM      9  H3  UNL d   1      -5.198   2.888   1.828  0.00  0.00     0.395 HD
ENDBRANCH   1   7
TORSDOF 1
ENDMDL
