MODEL 1
REMARK minimizedAffinity -2.58179975
REMARK minimizedRMSD -1
REMARK  1 active torsions:
REMARK  status: ('A' for Active; 'I' for Inactive)
REMARK    1  A    between atoms: N_2  and  C1_3 
ROOT
ATOM      1  C1  UNL d   1      -5.999   5.214   3.474  0.00  0.00     0.143 A 
ATOM      2  C2  UNL d   1      -5.988   3.817   3.539  0.00  0.00    -0.057 A 
ATOM      3  C3  UNL d   1      -5.994   3.147   4.769  0.00  0.00     0.033 A 
ATOM      4  C4  UNL d   1      -5.980   3.866   5.960  0.00  0.00    -0.042 A 
ATOM      5  C5  UNL d   1      -5.965   5.256   5.919  0.00  0.00     0.033 A 
ATOM      6  C6  UNL d   1      -5.967   5.919   4.688  0.00  0.00    -0.057 A 
ENDROOT
BRANCH   1   7
ATOM      7  N   UNL d   1      -5.895   5.938   2.284  0.00  0.00    -0.732 N 
ATOM      8  C   UNL d   1      -4.871   5.617   1.313  0.00  0.00     0.284 C 
ATOM      9  H3  UNL d   1      -6.803   6.148   1.877  0.00  0.00     0.395 HD
ENDBRANCH   1   7
TORSDOF 1
ENDMDL
