MODEL 1
REMARK minimizedAffinity -3.43633366
REMARK minimizedRMSD -1
REMARK  1 active torsions:
REMARK  status: ('A' for Active; 'I' for Inactive)
REMARK    1  A    between atoms: N_2  and  C1_3 
ROOT
ATOM      1  C1  UNL d   1      -5.562   3.899   4.723  0.00  0.00     0.143 A 
ATOM      2  C2  UNL d   1      -5.160   5.238   4.665  0.00  0.00    -0.057 A 
ATOM      3  C3  UNL d   1      -5.016   5.900   3.440  0.00  0.00     0.033 A 
ATOM      4  C4  UNL d   1      -5.244   5.224   2.246  0.00  0.00    -0.042 A 
ATOM      5  C5  UNL d   1      -5.620   3.886   2.279  0.00  0.00     0.033 A 
ATOM      6  C6  UNL d   1      -5.769   3.232   3.506  0.00  0.00    -0.057 A 
ENDROOT
BRANCH   1   7
ATOM      7  N   UNL d   1      -5.628   3.157   5.905  0.00  0.00    -0.732 N 
ATOM      8  C   UNL d   1      -4.988   1.863   6.000  0.00  0.00     0.284 C 
ATOM      9  H3  UNL d   1      -5.517   3.737   6.734  0.00  0.00     0.395 HD
ENDBRANCH   1   7
TORSDOF 1
ENDMDL
