MODEL 1
REMARK minimizedAffinity -2.39101887
REMARK minimizedRMSD -1
REMARK  1 active torsions:
REMARK  status: ('A' for Active; 'I' for Inactive)
REMARK    1  A    between atoms: N_2  and  C1_3 
ROOT
ATOM      1  C1  UNL d   1      -5.555   4.609   4.061  0.00  0.00     0.143 A 
ATOM      2  C2  UNL d   1      -5.900   5.814   3.441  0.00  0.00    -0.057 A 
ATOM      3  C3  UNL d   1      -5.723   6.000   2.065  0.00  0.00     0.033 A 
ATOM      4  C4  UNL d   1      -5.169   4.989   1.287  0.00  0.00    -0.042 A 
ATOM      5  C5  UNL d   1      -4.795   3.791   1.886  0.00  0.00     0.033 A 
ATOM      6  C6  UNL d   1      -4.980   3.610   3.259  0.00  0.00    -0.057 A 
ENDROOT
BRANCH   1   7
ATOM      7  N   UNL d   1      -5.615   4.398   5.441  0.00  0.00    -0.732 N 
ATOM      8  C   UNL d   1      -5.989   3.106   5.974  0.00  0.00     0.284 C 
ATOM      9  H3  UNL d   1      -4.847   4.845   5.936  0.00  0.00     0.395 HD
ENDBRANCH   1   7
TORSDOF 1
ENDMDL
