MODEL 1
REMARK minimizedAffinity -2.87527728
REMARK minimizedRMSD -1
REMARK  1 active torsions:
REMARK  status: ('A' for Active; 'I' for Inactive)
REMARK    1  A    between atoms: N_2  and  C1_3 
ROOT
ATOM      1  C1  UNL d   1      -5.073   4.081   4.611  0.00  0.00     0.143 A 
ATOM      2  C2  UNL d   1      -4.535   5.356   4.406  0.00  0.00    -0.057 A 
ATOM      3  C3  UNL d   1      -4.636   5.996   3.165  0.00  0.00     0.033 A 
ATOM      4  C4  UNL d   1      -5.254   5.357   2.095  0.00  0.00    -0.042 A 
ATOM      5  C5  UNL d   1      -5.774   4.080   2.268  0.00  0.00     0.033 A 
ATOM      6  C6  UNL d   1      -5.676   3.448   3.512  0.00  0.00    -0.057 A 
ENDROOT
BRANCH   1   7
ATOM      7  N   UNL d   1      -4.919   3.352   5.793  0.00  0.00    -0.732 N 
ATOM      8  C   UNL d   1      -3.752   2.520   5.999  0.00  0.00     0.284 C 
ATOM      9  H3  UNL d   1      -5.203   3.880   6.615  0.00  0.00     0.395 HD
ENDBRANCH   1   7
TORSDOF 1
ENDMDL
