MODEL 1
REMARK minimizedAffinity 0.391015559
REMARK minimizedRMSD -1
REMARK  1 active torsions:
REMARK  status: ('A' for Active; 'I' for Inactive)
REMARK    1  A    between atoms: N_2  and  C1_3 
ROOT
ATOM      1  C1  UNL d   1      -5.676   5.131   1.882  0.00  0.00     0.143 A 
ATOM      2  C2  UNL d   1      -4.962   3.971   2.199  0.00  0.00    -0.057 A 
ATOM      3  C3  UNL d   1      -4.624   3.664   3.522  0.00  0.00     0.033 A 
ATOM      4  C4  UNL d   1      -4.971   4.530   4.554  0.00  0.00    -0.042 A 
ATOM      5  C5  UNL d   1      -5.660   5.702   4.260  0.00  0.00     0.033 A 
ATOM      6  C6  UNL d   1      -6.000   6.000   2.937  0.00  0.00    -0.057 A 
ENDROOT
BRANCH   1   7
ATOM      7  N   UNL d   1      -5.956   5.541   0.576  0.00  0.00    -0.732 N 
ATOM      8  C   UNL d   1      -4.895   6.000  -0.295  0.00  0.00     0.284 C 
ATOM      9  H3  UNL d   1      -6.639   4.942   0.119  0.00  0.00     0.395 HD
ENDBRANCH   1   7
TORSDOF 1
ENDMDL
