MODEL 1
REMARK minimizedAffinity 6.32161856
REMARK minimizedRMSD -1
REMARK  1 active torsions:
REMARK  status: ('A' for Active; 'I' for Inactive)
REMARK    1  A    between atoms: N_2  and  C1_3 
ROOT
ATOM      1  C1  UNL d   1      -5.438   4.939   2.699  0.00  0.00     0.143 A 
ATOM      2  C2  UNL d   1      -5.935   6.000   3.464  0.00  0.00    -0.057 A 
ATOM      3  C3  UNL d   1      -5.834   5.997   4.861  0.00  0.00     0.033 A 
ATOM      4  C4  UNL d   1      -5.258   4.916   5.520  0.00  0.00    -0.042 A 
ATOM      5  C5  UNL d   1      -4.779   3.840   4.781  0.00  0.00     0.033 A 
ATOM      6  C6  UNL d   1      -4.877   3.852   3.387  0.00  0.00    -0.057 A 
ENDROOT
BRANCH   1   7
ATOM      7  N   UNL d   1      -5.597   4.838   1.315  0.00  0.00    -0.732 N 
ATOM      8  C   UNL d   1      -5.948   6.000   0.526  0.00  0.00     0.284 C 
ATOM      9  H3  UNL d   1      -4.893   4.242   0.886  0.00  0.00     0.395 HD
ENDBRANCH   1   7
TORSDOF 1
ENDMDL
