MODEL 1
REMARK minimizedAffinity -2.63700747
REMARK minimizedRMSD -1
REMARK  1 active torsions:
REMARK  status: ('A' for Active; 'I' for Inactive)
REMARK    1  A    between atoms: N_2  and  C1_3 
ROOT
ATOM      1  C1  UNL d   1      -5.168   4.804   3.384  0.00  0.00     0.143 A 
ATOM      2  C2  UNL d   1      -4.897   3.605   4.052  0.00  0.00    -0.057 A 
ATOM      3  C3  UNL d   1      -4.374   3.598   5.351  0.00  0.00     0.033 A 
ATOM      4  C4  UNL d   1      -4.085   4.796   5.996  0.00  0.00    -0.042 A 
ATOM      5  C5  UNL d   1      -4.323   6.000   5.343  0.00  0.00     0.033 A 
ATOM      6  C6  UNL d   1      -4.851   6.000   4.048  0.00  0.00    -0.057 A 
ENDROOT
BRANCH   1   7
ATOM      7  N   UNL d   1      -5.595   4.876   2.056  0.00  0.00    -0.732 N 
ATOM      8  C   UNL d   1      -5.106   5.919   1.180  0.00  0.00     0.284 C 
ATOM      9  H3  UNL d   1      -5.657   3.960   1.618  0.00  0.00     0.395 HD
ENDBRANCH   1   7
TORSDOF 1
ENDMDL
