MODEL 1
REMARK minimizedAffinity -2.51623225
REMARK minimizedRMSD -1
REMARK  1 active torsions:
REMARK  status: ('A' for Active; 'I' for Inactive)
REMARK    1  A    between atoms: N_2  and  C1_3 
ROOT
ATOM      1  C1  UNL d   1      -5.579   5.015   3.212  0.00  0.00     0.143 A 
ATOM      2  C2  UNL d   1      -5.992   5.984   4.133  0.00  0.00    -0.057 A 
ATOM      3  C3  UNL d   1      -6.000   5.722   5.508  0.00  0.00     0.033 A 
ATOM      4  C4  UNL d   1      -5.619   4.472   5.987  0.00  0.00    -0.042 A 
ATOM      5  C5  UNL d   1      -5.228   3.486   5.088  0.00  0.00     0.033 A 
ATOM      6  C6  UNL d   1      -5.216   3.756   3.716  0.00  0.00    -0.057 A 
ENDROOT
BRANCH   1   7
ATOM      7  N   UNL d   1      -5.643   5.182   1.827  0.00  0.00    -0.732 N 
ATOM      8  C   UNL d   1      -5.246   4.112   0.937  0.00  0.00     0.284 C 
ATOM      9  H3  UNL d   1      -6.481   5.677   1.533  0.00  0.00     0.395 HD
ENDBRANCH   1   7
TORSDOF 1
ENDMDL
