MODEL 1
REMARK minimizedAffinity -2.75124979
REMARK minimizedRMSD -1
REMARK  1 active torsions:
REMARK  status: ('A' for Active; 'I' for Inactive)
REMARK    1  A    between atoms: N_2  and  C1_3 
ROOT
ATOM      1  C1  UNL d   1      -5.271   5.454   3.541  0.00  0.00     0.143 A 
ATOM      2  C2  UNL d   1      -5.858   5.919   4.723  0.00  0.00    -0.057 A 
ATOM      3  C3  UNL d   1      -5.647   5.267   5.944  0.00  0.00     0.033 A 
ATOM      4  C4  UNL d   1      -4.865   4.118   6.000  0.00  0.00    -0.042 A 
ATOM      5  C5  UNL d   1      -4.292   3.624   4.834  0.00  0.00     0.033 A 
ATOM      6  C6  UNL d   1      -4.501   4.283   3.619  0.00  0.00    -0.057 A 
ENDROOT
BRANCH   1   7
ATOM      7  N   UNL d   1      -5.523   6.000   2.280  0.00  0.00    -0.732 N 
ATOM      8  C   UNL d   1      -4.500   5.993   1.256  0.00  0.00     0.284 C 
ATOM      9  H3  UNL d   1      -6.455   5.776   1.939  0.00  0.00     0.395 HD
ENDBRANCH   1   7
TORSDOF 1
ENDMDL
