MODEL 1
REMARK minimizedAffinity -2.78237915
REMARK minimizedRMSD -1
REMARK  1 active torsions:
REMARK  status: ('A' for Active; 'I' for Inactive)
REMARK    1  A    between atoms: N_2  and  C1_3 
ROOT
ATOM      1  C1  UNL d   1      -5.400   4.457   3.580  0.00  0.00     0.143 A 
ATOM      2  C2  UNL d   1      -5.999   4.944   4.747  0.00  0.00    -0.057 A 
ATOM      3  C3  UNL d   1      -5.931   4.231   5.950  0.00  0.00     0.033 A 
ATOM      4  C4  UNL d   1      -5.286   2.999   6.000  0.00  0.00    -0.042 A 
ATOM      5  C5  UNL d   1      -4.705   2.485   4.846  0.00  0.00     0.033 A 
ATOM      6  C6  UNL d   1      -4.770   3.205   3.650  0.00  0.00    -0.057 A 
ENDROOT
BRANCH   1   7
ATOM      7  N   UNL d   1      -5.518   5.072   2.331  0.00  0.00    -0.732 N 
ATOM      8  C   UNL d   1      -4.508   6.000   1.869  0.00  0.00     0.284 C 
ATOM      9  H3  UNL d   1      -5.856   4.434   1.615  0.00  0.00     0.395 HD
ENDBRANCH   1   7
TORSDOF 1
ENDMDL
