MODEL 1
REMARK minimizedAffinity -0.442709506
REMARK minimizedRMSD -1
REMARK  0 active torsions:
REMARK  status: ('A' for Active; 'I' for Inactive)
ROOT
ATOM      1  C   UNL d   1      -0.397   4.017   0.515  0.00  0.00    -0.002 A 
ATOM      2  C1  UNL d   1       0.298   3.559  -0.595  0.00  0.00     0.010 A 
ATOM      3  C2  UNL d   1       0.501   2.191  -0.792  0.00  0.00     0.041 A 
ATOM      4  C3  UNL d   1      -0.014   1.283   0.155  0.00  0.00    -0.075 A 
ATOM      5  S   UNL d   1       0.112  -0.436   0.121  0.00  0.00     0.015 SA
ATOM      6  C4  UNL d   1      -0.756  -0.602   1.579  0.00  0.00     0.022 A 
ATOM      7  C5  UNL d   1      -1.139   0.614   2.092  0.00  0.00     0.026 A 
ATOM      8  C6  UNL d   1      -0.718   1.721   1.280  0.00  0.00    -0.082 A 
ATOM      9  C7  UNL d   1      -0.906   3.113   1.451  0.00  0.00     0.045 A 
ENDROOT
TORSDOF 0
ENDMDL
