MODEL 1
REMARK minimizedAffinity -0.0352235101
REMARK minimizedRMSD -1
REMARK  0 active torsions:
REMARK  status: ('A' for Active; 'I' for Inactive)
ROOT
ATOM      1  C   UNL d   1      -0.039  -4.031  -2.952  0.00  0.00    -0.002 A 
ATOM      2  C1  UNL d   1       0.289  -4.504  -1.689  0.00  0.00     0.010 A 
ATOM      3  C2  UNL d   1       0.639  -3.619  -0.668  0.00  0.00     0.041 A 
ATOM      4  C3  UNL d   1       0.653  -2.236  -0.939  0.00  0.00    -0.075 A 
ATOM      5  S   UNL d   1       1.049  -0.966   0.157  0.00  0.00     0.015 SA
ATOM      6  C4  UNL d   1       0.792   0.235  -1.025  0.00  0.00     0.022 A 
ATOM      7  C5  UNL d   1       0.413  -0.303  -2.232  0.00  0.00     0.026 A 
ATOM      8  C6  UNL d   1       0.326  -1.736  -2.203  0.00  0.00    -0.082 A 
ATOM      9  C7  UNL d   1      -0.024  -2.659  -3.217  0.00  0.00     0.045 A 
ENDROOT
TORSDOF 0
ENDMDL
