MODEL 1
REMARK minimizedAffinity -0.635374606
REMARK minimizedRMSD -1
REMARK  0 active torsions:
REMARK  status: ('A' for Active; 'I' for Inactive)
ROOT
ATOM      1  C   UNL d   1      -0.601  -0.448   1.345  0.00  0.00    -0.002 A 
ATOM      2  C1  UNL d   1       0.039  -0.482   0.114  0.00  0.00     0.010 A 
ATOM      3  C2  UNL d   1       0.242   0.692  -0.614  0.00  0.00     0.041 A 
ATOM      4  C3  UNL d   1      -0.212   1.913  -0.078  0.00  0.00    -0.075 A 
ATOM      5  S   UNL d   1      -0.072   3.477  -0.790  0.00  0.00     0.015 SA
ATOM      6  C4  UNL d   1      -0.858   4.227   0.523  0.00  0.00     0.022 A 
ATOM      7  C5  UNL d   1      -1.225   3.321   1.490  0.00  0.00     0.026 A 
ATOM      8  C6  UNL d   1      -0.858   1.973   1.160  0.00  0.00    -0.082 A 
ATOM      9  C7  UNL d   1      -1.050   0.765   1.873  0.00  0.00     0.045 A 
ENDROOT
TORSDOF 0
ENDMDL
