MODEL 1
REMARK minimizedAffinity -0.0481073819
REMARK minimizedRMSD -1
REMARK  0 active torsions:
REMARK  status: ('A' for Active; 'I' for Inactive)
ROOT
ATOM      1  C   UNL d   1      -0.434   3.285   1.304  0.00  0.00    -0.002 A 
ATOM      2  C1  UNL d   1       0.119   3.417   0.038  0.00  0.00     0.010 A 
ATOM      3  C2  UNL d   1       0.417   2.288  -0.728  0.00  0.00     0.041 A 
ATOM      4  C3  UNL d   1       0.147   1.012  -0.195  0.00  0.00    -0.075 A 
ATOM      5  S   UNL d   1       0.429  -0.511  -0.952  0.00  0.00     0.015 SA
ATOM      6  C4  UNL d   1      -0.178  -1.373   0.388  0.00  0.00     0.022 A 
ATOM      7  C5  UNL d   1      -0.590  -0.535   1.397  0.00  0.00     0.026 A 
ATOM      8  C6  UNL d   1      -0.410   0.854   1.077  0.00  0.00    -0.082 A 
ATOM      9  C7  UNL d   1      -0.700   2.018   1.829  0.00  0.00     0.045 A 
ENDROOT
TORSDOF 0
ENDMDL
