MODEL 1
REMARK minimizedAffinity -0.597228229
REMARK minimizedRMSD -1
REMARK  0 active torsions:
REMARK  status: ('A' for Active; 'I' for Inactive)
ROOT
ATOM      1  C   UNL d   1      -1.339   0.038   2.074  0.00  0.00    -0.002 A 
ATOM      2  C1  UNL d   1      -1.029   1.240   1.453  0.00  0.00     0.010 A 
ATOM      3  C2  UNL d   1      -0.120   1.278   0.394  0.00  0.00     0.041 A 
ATOM      4  C3  UNL d   1       0.476   0.077  -0.037  0.00  0.00    -0.075 A 
ATOM      5  S   UNL d   1       1.616  -0.118  -1.316  0.00  0.00     0.015 SA
ATOM      6  C4  UNL d   1       1.717  -1.802  -1.069  0.00  0.00     0.022 A 
ATOM      7  C5  UNL d   1       0.907  -2.222  -0.040  0.00  0.00     0.026 A 
ATOM      8  C6  UNL d   1       0.178  -1.146   0.571  0.00  0.00    -0.082 A 
ATOM      9  C7  UNL d   1      -0.746  -1.152   1.643  0.00  0.00     0.045 A 
ENDROOT
TORSDOF 0
ENDMDL
