MODEL 1
REMARK minimizedAffinity 0.12939544
REMARK minimizedRMSD -1
REMARK  0 active torsions:
REMARK  status: ('A' for Active; 'I' for Inactive)
ROOT
ATOM      1  C   UNL d   1       0.331  -3.726  -3.196  0.00  0.00    -0.002 A 
ATOM      2  C1  UNL d   1       0.991  -4.228  -2.083  0.00  0.00     0.010 A 
ATOM      3  C2  UNL d   1       1.307  -3.395  -1.009  0.00  0.00     0.041 A 
ATOM      4  C3  UNL d   1       0.944  -2.035  -1.071  0.00  0.00    -0.075 A 
ATOM      5  S   UNL d   1       1.228  -0.827   0.127  0.00  0.00     0.015 SA
ATOM      6  C4  UNL d   1       0.479   0.384  -0.810  0.00  0.00     0.022 A 
ATOM      7  C5  UNL d   1       0.019  -0.104  -2.011  0.00  0.00     0.026 A 
ATOM      8  C6  UNL d   1       0.279  -1.506  -2.180  0.00  0.00    -0.082 A 
ATOM      9  C7  UNL d   1      -0.027  -2.376  -3.254  0.00  0.00     0.045 A 
ENDROOT
TORSDOF 0
ENDMDL
