MODEL 1
REMARK minimizedAffinity -1.30268872
REMARK minimizedRMSD -1
REMARK  0 active torsions:
REMARK  status: ('A' for Active; 'I' for Inactive)
ROOT
ATOM      1  C   UNL d   1      -1.499   0.739   2.106  0.00  0.00    -0.002 A 
ATOM      2  C1  UNL d   1      -1.019   1.904   1.524  0.00  0.00     0.010 A 
ATOM      3  C2  UNL d   1      -0.153   1.847   0.430  0.00  0.00     0.041 A 
ATOM      4  C3  UNL d   1       0.225   0.587  -0.075  0.00  0.00    -0.075 A 
ATOM      5  S   UNL d   1       1.274   0.273  -1.406  0.00  0.00     0.015 SA
ATOM      6  C4  UNL d   1       1.110  -1.414  -1.235  0.00  0.00     0.022 A 
ATOM      7  C5  UNL d   1       0.278  -1.748  -0.192  0.00  0.00     0.026 A 
ATOM      8  C6  UNL d   1      -0.246  -0.600   0.494  0.00  0.00    -0.082 A 
ATOM      9  C7  UNL d   1      -1.122  -0.509   1.602  0.00  0.00     0.045 A 
ENDROOT
TORSDOF 0
ENDMDL
