MODEL 1
REMARK minimizedAffinity 0.227333695
REMARK minimizedRMSD -1
REMARK  0 active torsions:
REMARK  status: ('A' for Active; 'I' for Inactive)
ROOT
ATOM      1  C   UNL d   1      -0.432   0.508  -0.218  0.00  0.00    -0.002 A 
ATOM      2  C1  UNL d   1       0.192  -0.276   0.742  0.00  0.00     0.010 A 
ATOM      3  C2  UNL d   1       0.755  -1.507   0.399  0.00  0.00     0.041 A 
ATOM      4  C3  UNL d   1       0.680  -1.940  -0.940  0.00  0.00    -0.075 A 
ATOM      5  S   UNL d   1       1.300  -3.411  -1.592  0.00  0.00     0.015 SA
ATOM      6  C4  UNL d   1       0.750  -3.033  -3.161  0.00  0.00     0.022 A 
ATOM      7  C5  UNL d   1       0.108  -1.819  -3.204  0.00  0.00     0.026 A 
ATOM      8  C6  UNL d   1       0.057  -1.168  -1.925  0.00  0.00    -0.082 A 
ATOM      9  C7  UNL d   1      -0.505   0.074  -1.544  0.00  0.00     0.045 A 
ENDROOT
TORSDOF 0
ENDMDL
