MODEL 1
REMARK minimizedAffinity 0.395864189
REMARK minimizedRMSD -1
REMARK  0 active torsions:
REMARK  status: ('A' for Active; 'I' for Inactive)
ROOT
ATOM      1  C   UNL d   1      -0.136  -4.138  -2.655  0.00  0.00    -0.002 A 
ATOM      2  C1  UNL d   1      -0.483  -3.067  -3.466  0.00  0.00     0.010 A 
ATOM      3  C2  UNL d   1      -0.153  -1.761  -3.098  0.00  0.00     0.041 A 
ATOM      4  C3  UNL d   1       0.541  -1.548  -1.891  0.00  0.00    -0.075 A 
ATOM      5  S   UNL d   1       1.052  -0.036  -1.238  0.00  0.00     0.015 SA
ATOM      6  C4  UNL d   1       1.743  -0.777   0.133  0.00  0.00     0.022 A 
ATOM      7  C5  UNL d   1       1.597  -2.144   0.109  0.00  0.00     0.026 A 
ATOM      8  C6  UNL d   1       0.903  -2.611  -1.058  0.00  0.00    -0.082 A 
ATOM      9  C7  UNL d   1       0.553  -3.923  -1.458  0.00  0.00     0.045 A 
ENDROOT
TORSDOF 0
ENDMDL
