MODEL 1
REMARK minimizedAffinity -1.03588247
REMARK minimizedRMSD -1
REMARK  0 active torsions:
REMARK  status: ('A' for Active; 'I' for Inactive)
ROOT
ATOM      1  C   UNL d   1      -0.544   4.085   0.402  0.00  0.00    -0.002 A 
ATOM      2  C1  UNL d   1       0.066   3.807  -0.813  0.00  0.00     0.010 A 
ATOM      3  C2  UNL d   1       0.400   2.496  -1.157  0.00  0.00     0.041 A 
ATOM      4  C3  UNL d   1       0.107   1.458  -0.251  0.00  0.00    -0.075 A 
ATOM      5  S   UNL d   1       0.424  -0.224  -0.459  0.00  0.00     0.015 SA
ATOM      6  C4  UNL d   1      -0.244  -0.614   1.060  0.00  0.00     0.022 A 
ATOM      7  C5  UNL d   1      -0.702   0.500   1.724  0.00  0.00     0.026 A 
ATOM      8  C6  UNL d   1      -0.508   1.712   0.979  0.00  0.00    -0.082 A 
ATOM      9  C7  UNL d   1      -0.833   3.052   1.298  0.00  0.00     0.045 A 
ENDROOT
TORSDOF 0
ENDMDL
