MODEL 1
REMARK minimizedAffinity -0.175366387
REMARK minimizedRMSD -1
REMARK  0 active torsions:
REMARK  status: ('A' for Active; 'I' for Inactive)
ROOT
ATOM      1  C   UNL d   1       0.319  -4.023  -2.709  0.00  0.00    -0.002 A 
ATOM      2  C1  UNL d   1       0.735  -3.176  -3.726  0.00  0.00     0.010 A 
ATOM      3  C2  UNL d   1       1.077  -1.851  -3.451  0.00  0.00     0.041 A 
ATOM      4  C3  UNL d   1       0.993  -1.387  -2.124  0.00  0.00    -0.075 A 
ATOM      5  S   UNL d   1       1.362   0.197  -1.551  0.00  0.00     0.015 SA
ATOM      6  C4  UNL d   1       0.976  -0.213   0.057  0.00  0.00     0.022 A 
ATOM      7  C5  UNL d   1       0.573  -1.523   0.173  0.00  0.00     0.026 A 
ATOM      8  C6  UNL d   1       0.577  -2.221  -1.082  0.00  0.00    -0.082 A 
ATOM      9  C7  UNL d   1       0.237  -3.559  -1.393  0.00  0.00     0.045 A 
ENDROOT
TORSDOF 0
ENDMDL
