MODEL 1
REMARK minimizedAffinity -0.591254771
REMARK minimizedRMSD -1
REMARK  0 active torsions:
REMARK  status: ('A' for Active; 'I' for Inactive)
ROOT
ATOM      1  C   UNL d   1      -0.926   2.988   1.826  0.00  0.00    -0.002 A 
ATOM      2  C1  UNL d   1      -0.418   3.413   0.607  0.00  0.00     0.010 A 
ATOM      3  C2  UNL d   1       0.135   2.497  -0.290  0.00  0.00     0.041 A 
ATOM      4  C3  UNL d   1       0.168   1.133   0.062  0.00  0.00    -0.075 A 
ATOM      5  S   UNL d   1       0.797  -0.168  -0.878  0.00  0.00     0.015 SA
ATOM      6  C4  UNL d   1       0.405  -1.319   0.317  0.00  0.00     0.022 A 
ATOM      7  C5  UNL d   1      -0.191  -0.742   1.413  0.00  0.00     0.026 A 
ATOM      8  C6  UNL d   1      -0.338   0.681   1.284  0.00  0.00    -0.082 A 
ATOM      9  C7  UNL d   1      -0.892   1.634   2.172  0.00  0.00     0.045 A 
ENDROOT
TORSDOF 0
ENDMDL
