MODEL 1
REMARK minimizedAffinity -1.95808327
REMARK minimizedRMSD -1
REMARK  0 active torsions:
REMARK  status: ('A' for Active; 'I' for Inactive)
ROOT
ATOM      1  C   UNL d   1      -0.909  -0.096   1.919  0.00  0.00    -0.002 A 
ATOM      2  C1  UNL d   1      -0.402  -0.745   0.802  0.00  0.00     0.010 A 
ATOM      3  C2  UNL d   1       0.106  -0.015  -0.274  0.00  0.00     0.041 A 
ATOM      4  C3  UNL d   1       0.098   1.393  -0.208  0.00  0.00    -0.075 A 
ATOM      5  S   UNL d   1       0.668   2.493  -1.406  0.00  0.00     0.015 SA
ATOM      6  C4  UNL d   1       0.254   3.851  -0.462  0.00  0.00     0.022 A 
ATOM      7  C5  UNL d   1      -0.308   3.492   0.740  0.00  0.00     0.026 A 
ATOM      8  C6  UNL d   1      -0.406   2.069   0.907  0.00  0.00    -0.082 A 
ATOM      9  C7  UNL d   1      -0.915   1.301   1.982  0.00  0.00     0.045 A 
ENDROOT
TORSDOF 0
ENDMDL
