MODEL 1
REMARK minimizedAffinity 3.16297793
REMARK minimizedRMSD -1
REMARK  0 active torsions:
REMARK  status: ('A' for Active; 'I' for Inactive)
ROOT
ATOM      1  C   UNL d   1      -0.616  -0.836   1.691  0.00  0.00    -0.002 A 
ATOM      2  C1  UNL d   1      -1.094   0.299   2.331  0.00  0.00     0.010 A 
ATOM      3  C2  UNL d   1      -0.898   1.564   1.775  0.00  0.00     0.041 A 
ATOM      4  C3  UNL d   1      -0.207   1.672   0.552  0.00  0.00    -0.075 A 
ATOM      5  S   UNL d   1       0.150   3.117  -0.317  0.00  0.00     0.015 SA
ATOM      6  C4  UNL d   1       0.946   2.263  -1.559  0.00  0.00     0.022 A 
ATOM      7  C5  UNL d   1       0.948   0.907  -1.333  0.00  0.00     0.026 A 
ATOM      8  C6  UNL d   1       0.283   0.544  -0.113  0.00  0.00    -0.082 A 
ATOM      9  C7  UNL d   1       0.069  -0.725   0.477  0.00  0.00     0.045 A 
ENDROOT
TORSDOF 0
ENDMDL
