MODEL 1
REMARK minimizedAffinity -3.34933662
REMARK minimizedRMSD -1
REMARK  0 active torsions:
REMARK  status: ('A' for Active; 'I' for Inactive)
ROOT
ATOM      1  C   UNL d   1      -1.935   2.312   1.784  0.00  0.00    -0.002 A 
ATOM      2  C1  UNL d   1      -1.356   3.015   0.737  0.00  0.00     0.010 A 
ATOM      3  C2  UNL d   1      -0.479   2.382  -0.145  0.00  0.00     0.041 A 
ATOM      4  C3  UNL d   1      -0.192   1.015   0.043  0.00  0.00    -0.075 A 
ATOM      5  S   UNL d   1       0.851   0.031  -0.914  0.00  0.00     0.015 SA
ATOM      6  C4  UNL d   1       0.552  -1.347   0.044  0.00  0.00     0.022 A 
ATOM      7  C5  UNL d   1      -0.320  -1.080   1.073  0.00  0.00     0.026 A 
ATOM      8  C6  UNL d   1      -0.764   0.285   1.089  0.00  0.00    -0.082 A 
ATOM      9  C7  UNL d   1      -1.648   0.956   1.967  0.00  0.00     0.045 A 
ENDROOT
TORSDOF 0
ENDMDL
