MODEL 1
REMARK minimizedAffinity -2.20976949
REMARK minimizedRMSD -1
REMARK  3 active torsions:
REMARK  status: ('A' for Active; 'I' for Inactive)
REMARK    1  A    between atoms: C3'_2  and  C2'_3 
REMARK    2  A    between atoms: C2'_3  and  C1'_4 
REMARK    3  A    between atoms: C1'_4  and  C1_5 
ROOT
ATOM      1  C1  N4B d   1       4.963  -3.533  -5.365  0.00  0.00    -0.075 A 
ATOM      2  C2  N4B d   1       5.831  -3.682  -4.261  0.00  0.00     0.002 A 
ATOM      3  C3  N4B d   1       5.981  -4.912  -3.668  0.00  0.00     0.002 A 
ATOM      4  C4  N4B d   1       5.264  -5.997  -4.148  0.00  0.00    -0.004 A 
ATOM      5  C5  N4B d   1       4.448  -5.850  -5.231  0.00  0.00     0.002 A 
ATOM      6  C6  N4B d   1       4.290  -4.621  -5.840  0.00  0.00     0.002 A 
ENDROOT
BRANCH   1   7
ATOM      7  C1' N4B d   1       4.700  -2.191  -5.993  0.00  0.00     0.057 C 
BRANCH   7   8
ATOM      8  C2' N4B d   1       5.992  -1.379  -5.998  0.00  0.00     0.009 C 
BRANCH   8   9
ATOM      9  C3' N4B d   1       5.745   0.085  -5.677  0.00  0.00     0.004 C 
ATOM     10  C4' N4B d   1       4.309   0.482  -5.847  0.00  0.00     0.003 C 
ENDBRANCH   8   9
ENDBRANCH   7   8
ENDBRANCH   1   7
TORSDOF 3
ENDMDL
