MODEL 1
REMARK minimizedAffinity -1.79471636
REMARK minimizedRMSD -1
REMARK  3 active torsions:
REMARK  status: ('A' for Active; 'I' for Inactive)
REMARK    1  A    between atoms: C3'_2  and  C2'_3 
REMARK    2  A    between atoms: C2'_3  and  C1'_4 
REMARK    3  A    between atoms: C1'_4  and  C1_5 
ROOT
ATOM      1  C1  N4B d   1       4.730  -3.244  -4.735  0.00  0.00    -0.075 A 
ATOM      2  C2  N4B d   1       5.423  -4.044  -5.670  0.00  0.00     0.002 A 
ATOM      3  C3  N4B d   1       5.488  -5.405  -5.494  0.00  0.00     0.002 A 
ATOM      4  C4  N4B d   1       4.887  -5.983  -4.386  0.00  0.00    -0.004 A 
ATOM      5  C5  N4B d   1       4.198  -5.206  -3.502  0.00  0.00     0.002 A 
ATOM      6  C6  N4B d   1       4.121  -3.838  -3.668  0.00  0.00     0.002 A 
ENDROOT
BRANCH   1   7
ATOM      7  C1' N4B d   1       4.704  -1.744  -4.838  0.00  0.00     0.057 C 
BRANCH   7   8
ATOM      8  C2' N4B d   1       5.908  -1.277  -5.651  0.00  0.00     0.009 C 
BRANCH   8   9
ATOM      9  C3' N4B d   1       5.839   0.207  -5.969  0.00  0.00     0.004 C 
ATOM     10  C4' N4B d   1       4.453   0.764  -5.839  0.00  0.00     0.003 C 
ENDBRANCH   8   9
ENDBRANCH   7   8
ENDBRANCH   1   7
TORSDOF 3
ENDMDL
