MODEL 1
REMARK minimizedAffinity -3.07570434
REMARK minimizedRMSD -1
REMARK  3 active torsions:
REMARK  status: ('A' for Active; 'I' for Inactive)
REMARK    1  A    between atoms: C3'_2  and  C2'_3 
REMARK    2  A    between atoms: C2'_3  and  C1'_4 
REMARK    3  A    between atoms: C1'_4  and  C1_5 
ROOT
ATOM      1  C1  N4B d   1       5.304  -3.642  -5.457  0.00  0.00    -0.075 A 
ATOM      2  C2  N4B d   1       4.087  -4.110  -6.000  0.00  0.00     0.002 A 
ATOM      3  C3  N4B d   1       3.525  -5.270  -5.527  0.00  0.00     0.002 A 
ATOM      4  C4  N4B d   1       4.169  -5.988  -4.530  0.00  0.00    -0.004 A 
ATOM      5  C5  N4B d   1       5.331  -5.516  -3.993  0.00  0.00     0.002 A 
ATOM      6  C6  N4B d   1       5.905  -4.349  -4.456  0.00  0.00     0.002 A 
ENDROOT
BRANCH   1   7
ATOM      7  C1' N4B d   1       6.000  -2.424  -6.000  0.00  0.00     0.057 C 
BRANCH   7   8
ATOM      8  C2' N4B d   1       5.890  -1.290  -4.985  0.00  0.00     0.009 C 
BRANCH   8   9
ATOM      9  C3' N4B d   1       5.927   0.074  -5.652  0.00  0.00     0.004 C 
ATOM     10  C4' N4B d   1       4.562   0.589  -5.999  0.00  0.00     0.003 C 
ENDBRANCH   8   9
ENDBRANCH   7   8
ENDBRANCH   1   7
TORSDOF 3
ENDMDL
