MODEL 1
REMARK minimizedAffinity -3.0794909
REMARK minimizedRMSD -1
REMARK  3 active torsions:
REMARK  status: ('A' for Active; 'I' for Inactive)
REMARK    1  A    between atoms: C3'_2  and  C2'_3 
REMARK    2  A    between atoms: C2'_3  and  C1'_4 
REMARK    3  A    between atoms: C1'_4  and  C1_5 
ROOT
ATOM      1  C1  N4B d   1       4.221  -3.693  -5.244  0.00  0.00    -0.075 A 
ATOM      2  C2  N4B d   1       3.357  -4.500  -4.471  0.00  0.00     0.002 A 
ATOM      3  C3  N4B d   1       3.836  -5.639  -3.871  0.00  0.00     0.002 A 
ATOM      4  C4  N4B d   1       5.163  -6.000  -4.045  0.00  0.00    -0.004 A 
ATOM      5  C5  N4B d   1       5.997  -5.202  -4.773  0.00  0.00     0.002 A 
ATOM      6  C6  N4B d   1       5.531  -4.052  -5.378  0.00  0.00     0.002 A 
ENDROOT
BRANCH   1   7
ATOM      7  C1' N4B d   1       3.723  -2.485  -5.989  0.00  0.00     0.057 C 
BRANCH   7   8
ATOM      8  C2' N4B d   1       4.650  -1.306  -5.708  0.00  0.00     0.009 C 
BRANCH   8   9
ATOM      9  C3' N4B d   1       4.583  -0.864  -4.257  0.00  0.00     0.004 C 
ATOM     10  C4' N4B d   1       5.928  -0.843  -3.593  0.00  0.00     0.003 C 
ENDBRANCH   8   9
ENDBRANCH   7   8
ENDBRANCH   1   7
TORSDOF 3
ENDMDL
