MODEL 1
REMARK minimizedAffinity -3.13767171
REMARK minimizedRMSD -1
REMARK  3 active torsions:
REMARK  status: ('A' for Active; 'I' for Inactive)
REMARK    1  A    between atoms: C3'_2  and  C2'_3 
REMARK    2  A    between atoms: C2'_3  and  C1'_4 
REMARK    3  A    between atoms: C1'_4  and  C1_5 
ROOT
ATOM      1  C1  N4B d   1       5.172  -2.852  -5.901  0.00  0.00    -0.075 A 
ATOM      2  C2  N4B d   1       3.787  -2.651  -5.716  0.00  0.00     0.002 A 
ATOM      3  C3  N4B d   1       3.284  -1.376  -5.624  0.00  0.00     0.002 A 
ATOM      4  C4  N4B d   1       4.147  -0.292  -5.695  0.00  0.00    -0.004 A 
ATOM      5  C5  N4B d   1       5.480  -0.494  -5.899  0.00  0.00     0.002 A 
ATOM      6  C6  N4B d   1       5.999  -1.770  -5.998  0.00  0.00     0.002 A 
ENDROOT
BRANCH   1   7
ATOM      7  C1' N4B d   1       5.780  -4.228  -5.922  0.00  0.00     0.057 C 
BRANCH   7   8
ATOM      8  C2' N4B d   1       4.663  -5.268  -5.916  0.00  0.00     0.009 C 
BRANCH   8   9
ATOM      9  C3' N4B d   1       4.575  -5.999  -4.587  0.00  0.00     0.004 C 
ATOM     10  C4' N4B d   1       5.863  -5.969  -3.821  0.00  0.00     0.003 C 
ENDBRANCH   8   9
ENDBRANCH   7   8
ENDBRANCH   1   7
TORSDOF 3
ENDMDL
