MODEL 1
REMARK minimizedAffinity 1.56874049
REMARK minimizedRMSD -1
REMARK  3 active torsions:
REMARK  status: ('A' for Active; 'I' for Inactive)
REMARK    1  A    between atoms: C3'_2  and  C2'_3 
REMARK    2  A    between atoms: C2'_3  and  C1'_4 
REMARK    3  A    between atoms: C1'_4  and  C1_5 
ROOT
ATOM      1  C1  N4B d   1       5.172  -4.103  -4.502  0.00  0.00    -0.075 A 
ATOM      2  C2  N4B d   1       5.761  -5.053  -5.365  0.00  0.00     0.002 A 
ATOM      3  C3  N4B d   1       4.975  -5.986  -5.997  0.00  0.00     0.002 A 
ATOM      4  C4  N4B d   1       3.607  -5.999  -5.768  0.00  0.00    -0.004 A 
ATOM      5  C5  N4B d   1       3.044  -5.061  -4.953  0.00  0.00     0.002 A 
ATOM      6  C6  N4B d   1       3.820  -4.116  -4.314  0.00  0.00     0.002 A 
ENDROOT
BRANCH   1   7
ATOM      7  C1' N4B d   1       6.000  -3.118  -3.722  0.00  0.00     0.057 C 
BRANCH   7   8
ATOM      8  C2' N4B d   1       5.349  -1.740  -3.805  0.00  0.00     0.009 C 
BRANCH   8   9
ATOM      9  C3' N4B d   1       4.046  -1.773  -4.584  0.00  0.00     0.004 C 
ATOM     10  C4' N4B d   1       3.686  -0.441  -5.171  0.00  0.00     0.003 C 
ENDBRANCH   8   9
ENDBRANCH   7   8
ENDBRANCH   1   7
TORSDOF 3
ENDMDL
