MODEL 1
REMARK minimizedAffinity -3.6289897
REMARK minimizedRMSD -1
REMARK  1 active torsions:
REMARK  status: ('A' for Active; 'I' for Inactive)
REMARK    1  A    between atoms: N_2  and  C1_3 
ROOT
ATOM      1  C1  UNL d   1       0.096   0.539  -0.131  0.00  0.00     0.143 A 
ATOM      2  C2  UNL d   1       1.472   0.301  -0.213  0.00  0.00    -0.057 A 
ATOM      3  C3  UNL d   1       2.055  -0.811   0.407  0.00  0.00     0.033 A 
ATOM      4  C4  UNL d   1       1.273  -1.691   1.148  0.00  0.00    -0.042 A 
ATOM      5  C5  UNL d   1      -0.093  -1.460   1.264  0.00  0.00     0.033 A 
ATOM      6  C6  UNL d   1      -0.670  -0.352   0.636  0.00  0.00    -0.057 A 
ENDROOT
BRANCH   1   7
ATOM      7  N   UNL d   1      -0.528   1.680  -0.643  0.00  0.00    -0.732 N 
ATOM      8  C   UNL d   1      -1.553   1.566  -1.658  0.00  0.00     0.284 C 
ATOM      9  H3  UNL d   1      -0.730   2.368   0.078  0.00  0.00     0.395 HD
ENDBRANCH   1   7
TORSDOF 1
ENDMDL
