MODEL 1
REMARK minimizedAffinity -3.65660119
REMARK minimizedRMSD -1
REMARK  1 active torsions:
REMARK  status: ('A' for Active; 'I' for Inactive)
REMARK    1  A    between atoms: N_2  and  C1_3 
ROOT
ATOM      1  C1  UNL d   1      -0.095  -0.265   0.065  0.00  0.00     0.143 A 
ATOM      2  C2  UNL d   1       1.302  -0.239   0.133  0.00  0.00    -0.057 A 
ATOM      3  C3  UNL d   1       2.037  -1.397   0.412  0.00  0.00     0.033 A 
ATOM      4  C4  UNL d   1       1.384  -2.600   0.659  0.00  0.00    -0.042 A 
ATOM      5  C5  UNL d   1      -0.005  -2.644   0.621  0.00  0.00     0.033 A 
ATOM      6  C6  UNL d   1      -0.734  -1.486   0.335  0.00  0.00    -0.057 A 
ENDROOT
BRANCH   1   7
ATOM      7  N   UNL d   1      -0.887   0.873  -0.111  0.00  0.00    -0.732 N 
ATOM      8  C   UNL d   1      -1.360   1.245  -1.427  0.00  0.00     0.284 C 
ATOM      9  H3  UNL d   1      -1.580   0.981   0.626  0.00  0.00     0.395 HD
ENDBRANCH   1   7
TORSDOF 1
ENDMDL
