MODEL 1
REMARK minimizedAffinity -1.64770353
REMARK minimizedRMSD -1
REMARK  1 active torsions:
REMARK  status: ('A' for Active; 'I' for Inactive)
REMARK    1  A    between atoms: N_2  and  C1_3 
ROOT
ATOM      1  C1  UNL d   1       0.805  -0.679   0.430  0.00  0.00     0.143 A 
ATOM      2  C2  UNL d   1       0.696   0.406  -0.446  0.00  0.00    -0.057 A 
ATOM      3  C3  UNL d   1      -0.415   1.258  -0.413  0.00  0.00     0.033 A 
ATOM      4  C4  UNL d   1      -1.454   1.021   0.481  0.00  0.00    -0.042 A 
ATOM      5  C5  UNL d   1      -1.379  -0.066   1.345  0.00  0.00     0.033 A 
ATOM      6  C6  UNL d   1      -0.264  -0.909   1.311  0.00  0.00    -0.057 A 
ENDROOT
BRANCH   1   7
ATOM      7  N   UNL d   1       1.837  -1.619   0.380  0.00  0.00    -0.732 N 
ATOM      8  C   UNL d   1       1.582  -3.010   0.687  0.00  0.00     0.284 C 
ATOM      9  H3  UNL d   1       2.454  -1.476  -0.416  0.00  0.00     0.395 HD
ENDBRANCH   1   7
TORSDOF 1
ENDMDL
