MODEL 1
REMARK minimizedAffinity -5.40475988
REMARK minimizedRMSD -1
REMARK  1 active torsions:
REMARK  status: ('A' for Active; 'I' for Inactive)
REMARK    1  A    between atoms: N_2  and  C1_3 
ROOT
ATOM      1  C1  UNL d   1       0.055   0.180  -0.338  0.00  0.00     0.143 A 
ATOM      2  C2  UNL d   1       1.437   0.113  -0.543  0.00  0.00    -0.057 A 
ATOM      3  C3  UNL d   1       2.193  -0.958  -0.051  0.00  0.00     0.033 A 
ATOM      4  C4  UNL d   1       1.583  -1.969   0.683  0.00  0.00    -0.042 A 
ATOM      5  C5  UNL d   1       0.214  -1.911   0.921  0.00  0.00     0.033 A 
ATOM      6  C6  UNL d   1      -0.537  -0.843   0.421  0.00  0.00    -0.057 A 
ENDROOT
BRANCH   1   7
ATOM      7  N   UNL d   1      -0.737   1.267  -0.716  0.00  0.00    -0.732 N 
ATOM      8  C   UNL d   1      -1.801   1.103  -1.682  0.00  0.00     0.284 C 
ATOM      9  H3  UNL d   1      -0.978   1.864   0.071  0.00  0.00     0.395 HD
ENDBRANCH   1   7
TORSDOF 1
ENDMDL
