MODEL 1
REMARK minimizedAffinity -4.98637915
REMARK minimizedRMSD -1
REMARK  1 active torsions:
REMARK  status: ('A' for Active; 'I' for Inactive)
REMARK    1  A    between atoms: N_2  and  C1_3 
ROOT
ATOM      1  C1  UNL d   1       0.275   0.306  -0.058  0.00  0.00     0.143 A 
ATOM      2  C2  UNL d   1       0.159  -0.884   0.668  0.00  0.00    -0.057 A 
ATOM      3  C3  UNL d   1       1.179  -1.843   0.659  0.00  0.00     0.033 A 
ATOM      4  C4  UNL d   1       2.325  -1.641  -0.102  0.00  0.00    -0.042 A 
ATOM      5  C5  UNL d   1       2.452  -0.477  -0.852  0.00  0.00     0.033 A 
ATOM      6  C6  UNL d   1       1.432   0.480  -0.834  0.00  0.00    -0.057 A 
ENDROOT
BRANCH   1   7
ATOM      7  N   UNL d   1      -0.746   1.253  -0.169  0.00  0.00    -0.732 N 
ATOM      8  C   UNL d   1      -1.334   1.556  -1.455  0.00  0.00     0.284 C 
ATOM      9  H3  UNL d   1      -1.419   1.189   0.592  0.00  0.00     0.395 HD
ENDBRANCH   1   7
TORSDOF 1
ENDMDL
