MODEL 1
REMARK minimizedAffinity 1.4709326
REMARK minimizedRMSD -1
REMARK  1 active torsions:
REMARK  status: ('A' for Active; 'I' for Inactive)
REMARK    1  A    between atoms: N_2  and  C1_3 
ROOT
ATOM      1  C1  UNL d   1      -0.606  -0.356  -0.319  0.00  0.00     0.143 A 
ATOM      2  C2  UNL d   1      -0.910  -0.379   1.046  0.00  0.00    -0.057 A 
ATOM      3  C3  UNL d   1      -1.218  -1.578   1.701  0.00  0.00     0.033 A 
ATOM      4  C4  UNL d   1      -1.255  -2.775   0.993  0.00  0.00    -0.042 A 
ATOM      5  C5  UNL d   1      -0.980  -2.772  -0.370  0.00  0.00     0.033 A 
ATOM      6  C6  UNL d   1      -0.667  -1.573  -1.017  0.00  0.00    -0.057 A 
ENDROOT
BRANCH   1   7
ATOM      7  N   UNL d   1      -0.389   0.816  -1.048  0.00  0.00    -0.732 N 
ATOM      8  C   UNL d   1      -0.174   0.766  -2.478  0.00  0.00     0.284 C 
ATOM      9  H3  UNL d   1      -0.990   1.579  -0.744  0.00  0.00     0.395 HD
ENDBRANCH   1   7
TORSDOF 1
ENDMDL
