MODEL 1
REMARK minimizedAffinity -5.04578304
REMARK minimizedRMSD -1
REMARK  1 active torsions:
REMARK  status: ('A' for Active; 'I' for Inactive)
REMARK    1  A    between atoms: N_2  and  C1_3 
ROOT
ATOM      1  C1  UNL d   1      -0.656   0.322  -0.090  0.00  0.00     0.143 A 
ATOM      2  C2  UNL d   1      -0.829  -0.910   0.550  0.00  0.00    -0.057 A 
ATOM      3  C3  UNL d   1       0.208  -1.847   0.615  0.00  0.00     0.033 A 
ATOM      4  C4  UNL d   1       1.433  -1.580   0.013  0.00  0.00    -0.042 A 
ATOM      5  C5  UNL d   1       1.621  -0.373  -0.651  0.00  0.00     0.033 A 
ATOM      6  C6  UNL d   1       0.583   0.562  -0.706  0.00  0.00    -0.057 A 
ENDROOT
BRANCH   1   7
ATOM      7  N   UNL d   1      -1.679   1.255  -0.273  0.00  0.00    -0.732 N 
ATOM      8  C   UNL d   1      -1.995   1.753  -1.595  0.00  0.00     0.284 C 
ATOM      9  H3  UNL d   1      -2.495   1.055   0.302  0.00  0.00     0.395 HD
ENDBRANCH   1   7
TORSDOF 1
ENDMDL
