MODEL 1
REMARK minimizedAffinity -3.69080997
REMARK minimizedRMSD -1
REMARK  1 active torsions:
REMARK  status: ('A' for Active; 'I' for Inactive)
REMARK    1  A    between atoms: N_2  and  C1_3 
ROOT
ATOM      1  C1  UNL d   1       0.136   0.272  -0.125  0.00  0.00     0.143 A 
ATOM      2  C2  UNL d   1      -0.493  -0.786   0.541  0.00  0.00    -0.057 A 
ATOM      3  C3  UNL d   1       0.215  -1.937   0.906  0.00  0.00     0.033 A 
ATOM      4  C4  UNL d   1       1.563  -2.064   0.585  0.00  0.00    -0.042 A 
ATOM      5  C5  UNL d   1       2.202  -1.036  -0.099  0.00  0.00     0.033 A 
ATOM      6  C6  UNL d   1       1.491   0.114  -0.455  0.00  0.00    -0.057 A 
ENDROOT
BRANCH   1   7
ATOM      7  N   UNL d   1      -0.536   1.400  -0.602  0.00  0.00    -0.732 N 
ATOM      8  C   UNL d   1      -1.463   1.293  -1.708  0.00  0.00     0.284 C 
ATOM      9  H3  UNL d   1      -0.854   2.009   0.149  0.00  0.00     0.395 HD
ENDBRANCH   1   7
TORSDOF 1
ENDMDL
