MODEL 1
REMARK minimizedAffinity -5.80990553
REMARK minimizedRMSD -1
REMARK  1 active torsions:
REMARK  status: ('A' for Active; 'I' for Inactive)
REMARK    1  A    between atoms: N_2  and  C1_3 
ROOT
ATOM      1  C1  UNL d   1       0.031  -1.261   1.254  0.00  0.00     0.143 A 
ATOM      2  C2  UNL d   1      -0.908  -1.429   2.278  0.00  0.00    -0.057 A 
ATOM      3  C3  UNL d   1      -0.850  -2.528   3.143  0.00  0.00     0.033 A 
ATOM      4  C4  UNL d   1       0.134  -3.498   2.980  0.00  0.00    -0.042 A 
ATOM      5  C5  UNL d   1       1.062  -3.365   1.954  0.00  0.00     0.033 A 
ATOM      6  C6  UNL d   1       1.003  -2.262   1.097  0.00  0.00    -0.057 A 
ENDROOT
BRANCH   1   7
ATOM      7  N   UNL d   1      -0.032  -0.243   0.300  0.00  0.00    -0.732 N 
ATOM      8  C   UNL d   1       0.778  -0.303  -0.898  0.00  0.00     0.284 C 
ATOM      9  H3  UNL d   1      -0.983   0.084   0.142  0.00  0.00     0.395 HD
ENDBRANCH   1   7
TORSDOF 1
ENDMDL
