MODEL 1
REMARK minimizedAffinity -4.57359266
REMARK minimizedRMSD -1
REMARK  1 active torsions:
REMARK  status: ('A' for Active; 'I' for Inactive)
REMARK    1  A    between atoms: N_2  and  C1_3 
ROOT
ATOM      1  C1  UNL d   1       0.002   0.081  -0.095  0.00  0.00     0.143 A 
ATOM      2  C2  UNL d   1       1.394   0.055  -0.230  0.00  0.00    -0.057 A 
ATOM      3  C3  UNL d   1       2.139  -1.068   0.148  0.00  0.00     0.033 A 
ATOM      4  C4  UNL d   1       1.505  -2.178   0.696  0.00  0.00    -0.042 A 
ATOM      5  C5  UNL d   1       0.125  -2.165   0.862  0.00  0.00     0.033 A 
ATOM      6  C6  UNL d   1      -0.614  -1.043   0.477  0.00  0.00    -0.057 A 
ENDROOT
BRANCH   1   7
ATOM      7  N   UNL d   1      -0.784   1.205  -0.361  0.00  0.00    -0.732 N 
ATOM      8  C   UNL d   1      -1.736   1.198  -1.452  0.00  0.00     0.284 C 
ATOM      9  H3  UNL d   1      -1.128   1.648   0.488  0.00  0.00     0.395 HD
ENDBRANCH   1   7
TORSDOF 1
ENDMDL
