MODEL 1
REMARK minimizedAffinity -1.35956597
REMARK minimizedRMSD -1
REMARK  0 active torsions:
REMARK  status: ('A' for Active; 'I' for Inactive)
ROOT
ATOM      1  C   UNL d   1       0.314   1.135  -2.069  0.00  0.00     0.077 C 
ATOM      2  C1  UNL d   1      -0.006   1.265  -0.609  0.00  0.00    -0.074 A 
ATOM      3  C2  UNL d   1      -0.263   2.515  -0.038  0.00  0.00    -0.005 A 
ATOM      4  C3  UNL d   1      -0.569   2.620   1.318  0.00  0.00     0.006 A 
ATOM      5  C4  UNL d   1      -0.622   1.476   2.117  0.00  0.00    -0.005 A 
ATOM      6  C5  UNL d   1      -0.369   0.217   1.563  0.00  0.00    -0.074 A 
ATOM      7  C6  UNL d   1      -0.430  -1.023   2.405  0.00  0.00     0.077 C 
ATOM      8  C7  UNL d   1      -0.069   0.120   0.197  0.00  0.00    -0.001 A 
ENDROOT
TORSDOF 0
ENDMDL
