MODEL 1
REMARK minimizedAffinity -0.737646222
REMARK minimizedRMSD -1
REMARK  0 active torsions:
REMARK  status: ('A' for Active; 'I' for Inactive)
ROOT
ATOM      1  C   UNL d   1      -1.854   2.651  -0.515  0.00  0.00     0.077 C 
ATOM      2  C1  UNL d   1      -0.841   1.565  -0.722  0.00  0.00    -0.074 A 
ATOM      3  C2  UNL d   1      -0.450   1.183  -2.010  0.00  0.00    -0.005 A 
ATOM      4  C3  UNL d   1       0.500   0.178  -2.187  0.00  0.00     0.006 A 
ATOM      5  C4  UNL d   1       1.069  -0.455  -1.081  0.00  0.00    -0.005 A 
ATOM      6  C5  UNL d   1       0.691  -0.086   0.214  0.00  0.00    -0.074 A 
ATOM      7  C6  UNL d   1       1.300  -0.749   1.414  0.00  0.00     0.077 C 
ATOM      8  C7  UNL d   1      -0.259   0.930   0.384  0.00  0.00    -0.001 A 
ENDROOT
TORSDOF 0
ENDMDL
