MODEL 1
REMARK minimizedAffinity -2.39005041
REMARK minimizedRMSD -1
REMARK  0 active torsions:
REMARK  status: ('A' for Active; 'I' for Inactive)
ROOT
ATOM      1  C   UNL d   1       1.348   2.785   2.848  0.00  0.00     0.077 C 
ATOM      2  C1  UNL d   1       0.337   2.242   1.883  0.00  0.00    -0.074 A 
ATOM      3  C2  UNL d   1      -0.948   2.789   1.804  0.00  0.00    -0.005 A 
ATOM      4  C3  UNL d   1      -1.875   2.280   0.895  0.00  0.00     0.006 A 
ATOM      5  C4  UNL d   1      -1.527   1.221   0.056  0.00  0.00    -0.005 A 
ATOM      6  C5  UNL d   1      -0.246   0.661   0.119  0.00  0.00    -0.074 A 
ATOM      7  C6  UNL d   1       0.147  -0.471  -0.782  0.00  0.00     0.077 C 
ATOM      8  C7  UNL d   1       0.681   1.183   1.031  0.00  0.00    -0.001 A 
ENDROOT
TORSDOF 0
ENDMDL
