MODEL 1
REMARK minimizedAffinity -4.27311611
REMARK minimizedRMSD -1
REMARK  0 active torsions:
REMARK  status: ('A' for Active; 'I' for Inactive)
ROOT
ATOM      1  C   UNL d   1      -1.644   4.254   0.424  0.00  0.00     0.077 C 
ATOM      2  C1  UNL d   1      -1.001   2.917   0.202  0.00  0.00    -0.074 A 
ATOM      3  C2  UNL d   1      -0.723   2.459  -1.090  0.00  0.00    -0.005 A 
ATOM      4  C3  UNL d   1      -0.116   1.217  -1.281  0.00  0.00     0.006 A 
ATOM      5  C4  UNL d   1       0.217   0.422  -0.183  0.00  0.00    -0.005 A 
ATOM      6  C5  UNL d   1      -0.054   0.864   1.116  0.00  0.00    -0.074 A 
ATOM      7  C6  UNL d   1       0.307   0.026   2.307  0.00  0.00     0.077 C 
ATOM      8  C7  UNL d   1      -0.657   2.116   1.299  0.00  0.00    -0.001 A 
ENDROOT
TORSDOF 0
ENDMDL
