MODEL 1
REMARK minimizedAffinity -2.15865517
REMARK minimizedRMSD -1
REMARK  0 active torsions:
REMARK  status: ('A' for Active; 'I' for Inactive)
ROOT
ATOM      1  C   UNL d   1       1.419  -5.860  -0.043  0.00  0.00     0.077 C 
ATOM      2  C1  UNL d   1       0.611  -4.743  -0.634  0.00  0.00    -0.074 A 
ATOM      3  C2  UNL d   1      -0.599  -4.999  -1.286  0.00  0.00    -0.005 A 
ATOM      4  C3  UNL d   1      -1.344  -3.948  -1.822  0.00  0.00     0.006 A 
ATOM      5  C4  UNL d   1      -0.887  -2.635  -1.711  0.00  0.00    -0.005 A 
ATOM      6  C5  UNL d   1       0.320  -2.360  -1.061  0.00  0.00    -0.074 A 
ATOM      7  C6  UNL d   1       0.820  -0.953  -0.925  0.00  0.00     0.077 C 
ATOM      8  C7  UNL d   1       1.060  -3.420  -0.519  0.00  0.00    -0.001 A 
ENDROOT
TORSDOF 0
ENDMDL
