MODEL 1
REMARK minimizedAffinity -2.79616809
REMARK minimizedRMSD -1
REMARK  0 active torsions:
REMARK  status: ('A' for Active; 'I' for Inactive)
ROOT
ATOM      1  C   UNL d   1      -1.963   1.986   0.960  0.00  0.00     0.077 C 
ATOM      2  C1  UNL d   1      -0.830   1.041   0.693  0.00  0.00    -0.074 A 
ATOM      3  C2  UNL d   1       0.257   0.957   1.569  0.00  0.00    -0.005 A 
ATOM      4  C3  UNL d   1       1.299   0.066   1.313  0.00  0.00     0.006 A 
ATOM      5  C4  UNL d   1       1.266  -0.748   0.180  0.00  0.00    -0.005 A 
ATOM      6  C5  UNL d   1       0.187  -0.678  -0.707  0.00  0.00    -0.074 A 
ATOM      7  C6  UNL d   1       0.130  -1.553  -1.924  0.00  0.00     0.077 C 
ATOM      8  C7  UNL d   1      -0.860   0.215  -0.439  0.00  0.00    -0.001 A 
ENDROOT
TORSDOF 0
ENDMDL
