MODEL 1
REMARK minimizedAffinity 3.80719543
REMARK minimizedRMSD -1
REMARK  0 active torsions:
REMARK  status: ('A' for Active; 'I' for Inactive)
ROOT
ATOM      1  C   UNL d   1      -0.729  -3.106  -0.249  0.00  0.00     0.077 C 
ATOM      2  C1  UNL d   1      -0.502  -1.624  -0.190  0.00  0.00    -0.074 A 
ATOM      3  C2  UNL d   1      -0.664  -0.920   1.007  0.00  0.00    -0.005 A 
ATOM      4  C3  UNL d   1      -0.440   0.456   1.049  0.00  0.00     0.006 A 
ATOM      5  C4  UNL d   1      -0.051   1.140  -0.103  0.00  0.00    -0.005 A 
ATOM      6  C5  UNL d   1       0.118   0.452  -1.309  0.00  0.00    -0.074 A 
ATOM      7  C6  UNL d   1       0.545   1.170  -2.554  0.00  0.00     0.077 C 
ATOM      8  C7  UNL d   1      -0.103  -0.931  -1.342  0.00  0.00    -0.001 A 
ENDROOT
TORSDOF 0
ENDMDL
