MODEL 1
REMARK minimizedAffinity 0.25542146
REMARK minimizedRMSD -1
REMARK  0 active torsions:
REMARK  status: ('A' for Active; 'I' for Inactive)
ROOT
ATOM      1  C   UNL d   1       1.252  -0.868   1.685  0.00  0.00     0.077 C 
ATOM      2  C1  UNL d   1       0.453   0.051   0.810  0.00  0.00    -0.074 A 
ATOM      3  C2  UNL d   1       0.348  -0.178  -0.566  0.00  0.00    -0.005 A 
ATOM      4  C3  UNL d   1      -0.408   0.680  -1.365  0.00  0.00     0.006 A 
ATOM      5  C4  UNL d   1      -1.064   1.773  -0.798  0.00  0.00    -0.005 A 
ATOM      6  C5  UNL d   1      -0.971   2.017   0.576  0.00  0.00    -0.074 A 
ATOM      7  C6  UNL d   1      -1.679   3.181   1.202  0.00  0.00     0.077 C 
ATOM      8  C7  UNL d   1      -0.216   1.146   1.374  0.00  0.00    -0.001 A 
ENDROOT
TORSDOF 0
ENDMDL
