MODEL 1
REMARK minimizedAffinity -4.68495941
REMARK minimizedRMSD -1
REMARK  0 active torsions:
REMARK  status: ('A' for Active; 'I' for Inactive)
ROOT
ATOM      1  C   UNL d   1      -0.311  -0.098  -0.468  0.00  0.00     0.077 C 
ATOM      2  C1  UNL d   1       0.709  -1.181  -0.658  0.00  0.00    -0.074 A 
ATOM      3  C2  UNL d   1       0.337  -2.444  -1.129  0.00  0.00    -0.005 A 
ATOM      4  C3  UNL d   1       1.298  -3.439  -1.309  0.00  0.00     0.006 A 
ATOM      5  C4  UNL d   1       2.639  -3.181  -1.021  0.00  0.00    -0.005 A 
ATOM      6  C5  UNL d   1       3.030  -1.924  -0.550  0.00  0.00    -0.074 A 
ATOM      7  C6  UNL d   1       4.468  -1.627  -0.245  0.00  0.00     0.077 C 
ATOM      8  C7  UNL d   1       2.059  -0.927  -0.378  0.00  0.00    -0.001 A 
ENDROOT
TORSDOF 0
ENDMDL
