MODEL 1
REMARK minimizedAffinity -0.548107207
REMARK minimizedRMSD -1
REMARK  0 active torsions:
REMARK  status: ('A' for Active; 'I' for Inactive)
ROOT
ATOM      1  C   UNL d   1      -1.115   3.129   1.853  0.00  0.00     0.077 C 
ATOM      2  C1  UNL d   1      -0.701   1.791   1.315  0.00  0.00    -0.074 A 
ATOM      3  C2  UNL d   1      -0.354   0.746   2.177  0.00  0.00    -0.005 A 
ATOM      4  C3  UNL d   1       0.019  -0.496   1.663  0.00  0.00     0.006 A 
ATOM      5  C4  UNL d   1       0.049  -0.704   0.283  0.00  0.00    -0.005 A 
ATOM      6  C5  UNL d   1      -0.295   0.329  -0.594  0.00  0.00    -0.074 A 
ATOM      7  C6  UNL d   1      -0.278   0.119  -2.079  0.00  0.00     0.077 C 
ATOM      8  C7  UNL d   1      -0.676   1.572  -0.069  0.00  0.00    -0.001 A 
ENDROOT
TORSDOF 0
ENDMDL
