MODEL 1
REMARK minimizedAffinity -1.20924926
REMARK minimizedRMSD -1
REMARK  2 active torsions:
REMARK  status: ('A' for Active; 'I' for Inactive)
REMARK    1  A    between atoms: C2'_3  and  C1'_4 
REMARK    2  A    between atoms: C1'_4  and  C1_5 
ROOT
ATOM      1  C1  I4B d   1      -0.614   0.508   2.453  0.00  0.00    -0.075 A 
ATOM      2  C2  I4B d   1      -0.146   1.776   2.692  0.00  0.00     0.003 A 
ATOM      3  C3  I4B d   1       1.072   2.207   2.111  0.00  0.00     0.002 A 
ATOM      4  C4  I4B d   1       1.809   1.327   1.345  0.00  0.00    -0.004 A 
ATOM      5  C5  I4B d   1       1.321   0.050   1.085  0.00  0.00     0.002 A 
ATOM      6  C6  I4B d   1       0.096  -0.359   1.632  0.00  0.00     0.003 A 
ENDROOT
BRANCH   1   7
ATOM      7  C1' I4B d   1      -1.887   0.074   3.108  0.00  0.00     0.060 C 
BRANCH   7   8
ATOM      8  C2' I4B d   1      -1.650  -1.284   3.736  0.00  0.00    -0.013 C 
ATOM      9  C4' I4B d   1      -0.728  -1.184   4.922  0.00  0.00     0.013 C 
ATOM     10  C3' I4B d   1      -2.981  -1.851   4.131  0.00  0.00     0.013 C 
ENDBRANCH   7   8
ENDBRANCH   1   7
TORSDOF 2
ENDMDL
