MODEL 1
REMARK minimizedAffinity 3.88650322
REMARK minimizedRMSD -1
REMARK  2 active torsions:
REMARK  status: ('A' for Active; 'I' for Inactive)
REMARK    1  A    between atoms: C2'_3  and  C1'_4 
REMARK    2  A    between atoms: C1'_4  and  C1_5 
ROOT
ATOM      1  C1  I4B d   1       0.020  -0.573  -3.291  0.00  0.00    -0.075 A 
ATOM      2  C2  I4B d   1       0.717   0.436  -3.907  0.00  0.00     0.003 A 
ATOM      3  C3  I4B d   1       0.482   0.736  -5.271  0.00  0.00     0.002 A 
ATOM      4  C4  I4B d   1      -0.417  -0.026  -5.989  0.00  0.00    -0.004 A 
ATOM      5  C5  I4B d   1      -1.140  -1.034  -5.357  0.00  0.00     0.002 A 
ATOM      6  C6  I4B d   1      -0.929  -1.302  -3.997  0.00  0.00     0.003 A 
ENDROOT
BRANCH   1   7
ATOM      7  C1' I4B d   1       0.318  -0.885  -1.859  0.00  0.00     0.060 C 
BRANCH   7   8
ATOM      8  C2' I4B d   1      -0.571  -0.012  -0.997  0.00  0.00    -0.013 C 
ATOM      9  C4' I4B d   1      -1.378  -0.840  -0.032  0.00  0.00     0.013 C 
ATOM     10  C3' I4B d   1       0.304   0.965  -0.271  0.00  0.00     0.013 C 
ENDBRANCH   7   8
ENDBRANCH   1   7
TORSDOF 2
ENDMDL
