MODEL 1
REMARK minimizedAffinity -3.47271895
REMARK minimizedRMSD -1
REMARK  2 active torsions:
REMARK  status: ('A' for Active; 'I' for Inactive)
REMARK    1  A    between atoms: C2'_3  and  C1'_4 
REMARK    2  A    between atoms: C1'_4  and  C1_5 
ROOT
ATOM      1  C1  I4B d   1       0.349   0.874   0.897  0.00  0.00    -0.075 A 
ATOM      2  C2  I4B d   1      -0.518   0.033   0.245  0.00  0.00     0.003 A 
ATOM      3  C3  I4B d   1      -1.696  -0.416   0.889  0.00  0.00     0.002 A 
ATOM      4  C4  I4B d   1      -1.942  -0.041   2.194  0.00  0.00    -0.004 A 
ATOM      5  C5  I4B d   1      -1.074   0.830   2.846  0.00  0.00     0.002 A 
ATOM      6  C6  I4B d   1       0.072   1.301   2.189  0.00  0.00     0.003 A 
ENDROOT
BRANCH   1   7
ATOM      7  C1' I4B d   1       1.600   1.302   0.199  0.00  0.00     0.060 C 
BRANCH   7   8
ATOM      8  C2' I4B d   1       2.728   0.407   0.672  0.00  0.00    -0.013 C 
ATOM      9  C4' I4B d   1       3.572   1.097   1.711  0.00  0.00     0.013 C 
ATOM     10  C3' I4B d   1       2.122  -0.852   1.216  0.00  0.00     0.013 C 
ENDBRANCH   7   8
ENDBRANCH   1   7
TORSDOF 2
ENDMDL
