MODEL 1
REMARK minimizedAffinity 1.74851918
REMARK minimizedRMSD -1
REMARK  2 active torsions:
REMARK  status: ('A' for Active; 'I' for Inactive)
REMARK    1  A    between atoms: C2'_3  and  C1'_4 
REMARK    2  A    between atoms: C1'_4  and  C1_5 
ROOT
ATOM      1  C1  I4B d   1      -0.212   0.863   1.543  0.00  0.00    -0.075 A 
ATOM      2  C2  I4B d   1      -1.090   0.538   2.546  0.00  0.00     0.003 A 
ATOM      3  C3  I4B d   1      -2.265  -0.198   2.254  0.00  0.00     0.002 A 
ATOM      4  C4  I4B d   1      -2.544  -0.541   0.947  0.00  0.00    -0.004 A 
ATOM      5  C5  I4B d   1      -1.641  -0.231  -0.065  0.00  0.00     0.002 A 
ATOM      6  C6  I4B d   1      -0.461   0.465   0.236  0.00  0.00     0.003 A 
ENDROOT
BRANCH   1   7
ATOM      7  C1' I4B d   1       1.002   1.669   1.881  0.00  0.00     0.060 C 
BRANCH   7   8
ATOM      8  C2' I4B d   1       2.221   0.803   1.634  0.00  0.00    -0.013 C 
ATOM      9  C4' I4B d   1       1.856  -0.657   1.606  0.00  0.00     0.013 C 
ATOM     10  C3' I4B d   1       2.837   1.232   0.336  0.00  0.00     0.013 C 
ENDBRANCH   7   8
ENDBRANCH   1   7
TORSDOF 2
ENDMDL
