MODEL 1
REMARK minimizedAffinity 3.20089817
REMARK minimizedRMSD -1
REMARK  0 active torsions:
REMARK  status: ('A' for Active; 'I' for Inactive)
ROOT
ATOM      1  C   UNL d   1      -3.892  -1.661   1.729  0.00  0.00     0.020 A 
ATOM      2  C1  UNL d   1      -4.661  -1.060   2.725  0.00  0.00     0.020 A 
ATOM      3  C2  UNL d   1      -4.084  -0.119   3.580  0.00  0.00     0.034 A 
ATOM      4  C3  UNL d   1      -2.734   0.224   3.440  0.00  0.00     0.017 A 
ATOM      5  C4  UNL d   1      -1.963  -0.379   2.440  0.00  0.00     0.017 A 
ATOM      6  C5  UNL d   1      -2.546  -1.321   1.587  0.00  0.00     0.034 A 
ATOM      7 Cl   UNL d   1      -0.292  -0.007   2.207  0.00  0.00    -0.070 Cl
ATOM      8 Cl1  UNL d   1      -2.086   1.396   4.532  0.00  0.00    -0.070 Cl
ENDROOT
TORSDOF 0
ENDMDL
