MODEL 1
REMARK minimizedAffinity 12.2228956
REMARK minimizedRMSD -1
REMARK  0 active torsions:
REMARK  status: ('A' for Active; 'I' for Inactive)
ROOT
ATOM      1  C   UNL d   1      -1.815  -5.597  -3.703  0.00  0.00     0.020 A 
ATOM      2  C1  UNL d   1      -2.293  -4.497  -4.415  0.00  0.00     0.020 A 
ATOM      3  C2  UNL d   1      -2.191  -3.215  -3.870  0.00  0.00     0.034 A 
ATOM      4  C3  UNL d   1      -1.610  -3.030  -2.610  0.00  0.00     0.017 A 
ATOM      5  C4  UNL d   1      -1.131  -4.135  -1.896  0.00  0.00     0.017 A 
ATOM      6  C5  UNL d   1      -1.236  -5.416  -2.447  0.00  0.00     0.034 A 
ATOM      7 Cl   UNL d   1      -0.403  -3.985  -0.336  0.00  0.00    -0.070 Cl
ATOM      8 Cl1  UNL d   1      -1.517  -1.417  -1.998  0.00  0.00    -0.070 Cl
ENDROOT
TORSDOF 0
ENDMDL
