MODEL 1
REMARK minimizedAffinity 13.4005089
REMARK minimizedRMSD -1
REMARK  0 active torsions:
REMARK  status: ('A' for Active; 'I' for Inactive)
ROOT
ATOM      1  C   UNL d   1      -4.975  -5.705   5.641  0.00  0.00     0.020 A 
ATOM      2  C1  UNL d   1      -4.463  -4.457   5.993  0.00  0.00     0.020 A 
ATOM      3  C2  UNL d   1      -4.246  -3.488   5.010  0.00  0.00     0.034 A 
ATOM      4  C3  UNL d   1      -4.543  -3.766   3.671  0.00  0.00     0.017 A 
ATOM      5  C4  UNL d   1      -5.057  -5.019   3.318  0.00  0.00     0.017 A 
ATOM      6  C5  UNL d   1      -5.272  -5.985   4.306  0.00  0.00     0.034 A 
ATOM      7 Cl   UNL d   1      -5.447  -5.436   1.687  0.00  0.00    -0.070 Cl
ATOM      8 Cl1  UNL d   1      -4.251  -2.522   2.508  0.00  0.00    -0.070 Cl
ENDROOT
TORSDOF 0
ENDMDL
