MODEL 1
REMARK minimizedAffinity 8.88044262
REMARK minimizedRMSD -1
REMARK  0 active torsions:
REMARK  status: ('A' for Active; 'I' for Inactive)
ROOT
ATOM      1  C   UNL d   1      -2.029  -1.680   0.808  0.00  0.00     0.020 A 
ATOM      2  C1  UNL d   1      -1.148  -1.252   1.800  0.00  0.00     0.020 A 
ATOM      3  C2  UNL d   1      -1.553  -0.287   2.724  0.00  0.00     0.034 A 
ATOM      4  C3  UNL d   1      -2.843   0.253   2.659  0.00  0.00     0.017 A 
ATOM      5  C4  UNL d   1      -3.727  -0.178   1.662  0.00  0.00     0.017 A 
ATOM      6  C5  UNL d   1      -3.315  -1.144   0.739  0.00  0.00     0.034 A 
ATOM      7 Cl   UNL d   1      -5.333   0.442   1.517  0.00  0.00    -0.070 Cl
ATOM      8 Cl1  UNL d   1      -3.277   1.442   3.834  0.00  0.00    -0.070 Cl
ENDROOT
TORSDOF 0
ENDMDL
