MODEL 1
REMARK minimizedAffinity 13.7241659
REMARK minimizedRMSD -1
REMARK  0 active torsions:
REMARK  status: ('A' for Active; 'I' for Inactive)
ROOT
ATOM      1  C   UNL d   1       5.999   4.688  -3.334  0.00  0.00     0.020 A 
ATOM      2  C1  UNL d   1       5.355   4.473  -2.117  0.00  0.00     0.020 A 
ATOM      3  C2  UNL d   1       4.168   3.738  -2.075  0.00  0.00     0.034 A 
ATOM      4  C3  UNL d   1       3.622   3.216  -3.253  0.00  0.00     0.017 A 
ATOM      5  C4  UNL d   1       4.269   3.433  -4.475  0.00  0.00     0.017 A 
ATOM      6  C5  UNL d   1       5.457   4.169  -4.511  0.00  0.00     0.034 A 
ATOM      7 Cl   UNL d   1       3.655   2.820  -5.970  0.00  0.00    -0.070 Cl
ATOM      8 Cl1  UNL d   1       2.151   2.317  -3.127  0.00  0.00    -0.070 Cl
ENDROOT
TORSDOF 0
ENDMDL
