MODEL 1
REMARK minimizedAffinity 20.4957314
REMARK minimizedRMSD -1
REMARK  0 active torsions:
REMARK  status: ('A' for Active; 'I' for Inactive)
ROOT
ATOM      1  C   UNL d   1      -2.070   0.645   2.474  0.00  0.00     0.020 A 
ATOM      2  C1  UNL d   1      -3.042   0.141   1.610  0.00  0.00     0.020 A 
ATOM      3  C2  UNL d   1      -2.830  -1.071   0.952  0.00  0.00     0.034 A 
ATOM      4  C3  UNL d   1      -1.644  -1.785   1.155  0.00  0.00     0.017 A 
ATOM      5  C4  UNL d   1      -0.669  -1.279   2.023  0.00  0.00     0.017 A 
ATOM      6  C5  UNL d   1      -0.886  -0.064   2.680  0.00  0.00     0.034 A 
ATOM      7 Cl   UNL d   1       0.821  -2.103   2.325  0.00  0.00    -0.070 Cl
ATOM      8 Cl1  UNL d   1      -1.449  -3.278   0.308  0.00  0.00    -0.070 Cl
ENDROOT
TORSDOF 0
ENDMDL
