MODEL 1
REMARK minimizedAffinity 11.3688774
REMARK minimizedRMSD -1
REMARK  0 active torsions:
REMARK  status: ('A' for Active; 'I' for Inactive)
ROOT
ATOM      1  C   UNL d   1      -1.749  -1.904   1.139  0.00  0.00     0.020 A 
ATOM      2  C1  UNL d   1      -1.341  -0.819   1.913  0.00  0.00     0.020 A 
ATOM      3  C2  UNL d   1      -0.085  -0.828   2.522  0.00  0.00     0.034 A 
ATOM      4  C3  UNL d   1       0.769  -1.925   2.358  0.00  0.00     0.017 A 
ATOM      5  C4  UNL d   1       0.358  -3.015   1.581  0.00  0.00     0.017 A 
ATOM      6  C5  UNL d   1      -0.901  -3.000   0.974  0.00  0.00     0.034 A 
ATOM      7 Cl   UNL d   1       1.356  -4.404   1.333  0.00  0.00    -0.070 Cl
ATOM      8 Cl1  UNL d   1       2.309  -1.869   3.139  0.00  0.00    -0.070 Cl
ENDROOT
TORSDOF 0
ENDMDL
