MODEL 1
REMARK minimizedAffinity 15.5701447
REMARK minimizedRMSD -1
REMARK  0 active torsions:
REMARK  status: ('A' for Active; 'I' for Inactive)
ROOT
ATOM      1  C   UNL d   1      -4.977  -5.792   5.490  0.00  0.00     0.020 A 
ATOM      2  C1  UNL d   1      -4.948  -4.495   6.000  0.00  0.00     0.020 A 
ATOM      3  C2  UNL d   1      -4.901  -3.404   5.130  0.00  0.00     0.034 A 
ATOM      4  C3  UNL d   1      -4.882  -3.607   3.745  0.00  0.00     0.017 A 
ATOM      5  C4  UNL d   1      -4.911  -4.910   3.234  0.00  0.00     0.017 A 
ATOM      6  C5  UNL d   1      -4.959  -5.999   4.110  0.00  0.00     0.034 A 
ATOM      7 Cl   UNL d   1      -4.891  -5.241   1.538  0.00  0.00    -0.070 Cl
ATOM      8 Cl1  UNL d   1      -4.824  -2.212   2.729  0.00  0.00    -0.070 Cl
ENDROOT
TORSDOF 0
ENDMDL
