MODEL 1
REMARK minimizedAffinity 5.5978446
REMARK minimizedRMSD -1
REMARK  0 active torsions:
REMARK  status: ('A' for Active; 'I' for Inactive)
ROOT
ATOM      1  C   UNL d   1      -4.885   0.992   5.811  0.00  0.00     0.020 A 
ATOM      2  C1  UNL d   1      -4.710  -0.378   5.999  0.00  0.00     0.020 A 
ATOM      3  C2  UNL d   1      -4.734  -1.242   4.902  0.00  0.00     0.034 A 
ATOM      4  C3  UNL d   1      -4.934  -0.737   3.612  0.00  0.00     0.017 A 
ATOM      5  C4  UNL d   1      -5.110   0.639   3.425  0.00  0.00     0.017 A 
ATOM      6  C5  UNL d   1      -5.085   1.499   4.526  0.00  0.00     0.034 A 
ATOM      7 Cl   UNL d   1      -5.362   1.337   1.864  0.00  0.00    -0.070 Cl
ATOM      8 Cl1  UNL d   1      -4.952  -1.863   2.302  0.00  0.00    -0.070 Cl
ENDROOT
TORSDOF 0
ENDMDL
