MODEL 1
REMARK minimizedAffinity 6.87001276
REMARK minimizedRMSD -1
REMARK  0 active torsions:
REMARK  status: ('A' for Active; 'I' for Inactive)
ROOT
ATOM      1  C   UNL d   1      -1.422  -6.000  -6.000  0.00  0.00     0.020 A 
ATOM      2  C1  UNL d   1      -2.592  -5.506  -5.425  0.00  0.00     0.020 A 
ATOM      3  C2  UNL d   1      -2.542  -4.847  -4.195  0.00  0.00     0.034 A 
ATOM      4  C3  UNL d   1      -1.318  -4.679  -3.536  0.00  0.00     0.017 A 
ATOM      5  C4  UNL d   1      -0.144  -5.175  -4.114  0.00  0.00     0.017 A 
ATOM      6  C5  UNL d   1      -0.200  -5.835  -5.346  0.00  0.00     0.034 A 
ATOM      7 Cl   UNL d   1       1.403  -5.007  -3.361  0.00  0.00    -0.070 Cl
ATOM      8 Cl1  UNL d   1      -1.330  -3.854  -2.018  0.00  0.00    -0.070 Cl
ENDROOT
TORSDOF 0
ENDMDL
