MODEL 1
REMARK minimizedAffinity 12.259675
REMARK minimizedRMSD -1
REMARK  0 active torsions:
REMARK  status: ('A' for Active; 'I' for Inactive)
ROOT
ATOM      1  C   UNL d   1      -1.432  -1.523   1.561  0.00  0.00     0.020 A 
ATOM      2  C1  UNL d   1      -0.531  -0.908   2.430  0.00  0.00     0.020 A 
ATOM      3  C2  UNL d   1      -0.972   0.096   3.296  0.00  0.00     0.034 A 
ATOM      4  C3  UNL d   1      -2.316   0.487   3.295  0.00  0.00     0.017 A 
ATOM      5  C4  UNL d   1      -3.218  -0.131   2.422  0.00  0.00     0.017 A 
ATOM      6  C5  UNL d   1      -2.772  -1.136   1.557  0.00  0.00     0.034 A 
ATOM      7 Cl   UNL d   1      -4.892   0.297   2.363  0.00  0.00    -0.070 Cl
ATOM      8 Cl1  UNL d   1      -2.791   1.734   4.392  0.00  0.00    -0.070 Cl
ENDROOT
TORSDOF 0
ENDMDL
