MODEL 1
REMARK minimizedAffinity 9.46491337
REMARK minimizedRMSD -1
REMARK  0 active torsions:
REMARK  status: ('A' for Active; 'I' for Inactive)
ROOT
ATOM      1  C   UNL d   1      -1.302  -0.983   1.744  0.00  0.00     0.020 A 
ATOM      2  C1  UNL d   1      -0.778  -0.455   2.923  0.00  0.00     0.020 A 
ATOM      3  C2  UNL d   1      -1.568   0.363   3.733  0.00  0.00     0.034 A 
ATOM      4  C3  UNL d   1      -2.886   0.656   3.365  0.00  0.00     0.017 A 
ATOM      5  C4  UNL d   1      -3.411   0.126   2.181  0.00  0.00     0.017 A 
ATOM      6  C5  UNL d   1      -2.616  -0.693   1.374  0.00  0.00     0.034 A 
ATOM      7 Cl   UNL d   1      -5.028   0.443   1.660  0.00  0.00    -0.070 Cl
ATOM      8 Cl1  UNL d   1      -3.806   1.675   4.415  0.00  0.00    -0.070 Cl
ENDROOT
TORSDOF 0
ENDMDL
