MODEL 1
REMARK minimizedAffinity 13.1656942
REMARK minimizedRMSD -1
REMARK  0 active torsions:
REMARK  status: ('A' for Active; 'I' for Inactive)
ROOT
ATOM      1  C   UNL d   1      -0.573  -1.015   1.822  0.00  0.00     0.020 A 
ATOM      2  C1  UNL d   1      -1.462  -1.515   0.871  0.00  0.00     0.020 A 
ATOM      3  C2  UNL d   1      -2.795  -1.098   0.874  0.00  0.00     0.034 A 
ATOM      4  C3  UNL d   1      -3.242  -0.177   1.828  0.00  0.00     0.017 A 
ATOM      5  C4  UNL d   1      -2.349   0.324   2.782  0.00  0.00     0.017 A 
ATOM      6  C5  UNL d   1      -1.016  -0.098   2.776  0.00  0.00     0.034 A 
ATOM      7 Cl   UNL d   1      -2.828   1.462   3.992  0.00  0.00    -0.070 Cl
ATOM      8 Cl1  UNL d   1      -4.903   0.295   1.772  0.00  0.00    -0.070 Cl
ENDROOT
TORSDOF 0
ENDMDL
