MODEL 1
REMARK minimizedAffinity 4.91816902
REMARK minimizedRMSD -1
REMARK  0 active torsions:
REMARK  status: ('A' for Active; 'I' for Inactive)
ROOT
ATOM      1  C   UNL d   1      -2.065   1.337   4.878  0.00  0.00     0.020 A 
ATOM      2  C1  UNL d   1      -1.607   0.347   5.747  0.00  0.00     0.020 A 
ATOM      3  C2  UNL d   1      -0.505  -0.435   5.396  0.00  0.00     0.034 A 
ATOM      4  C3  UNL d   1       0.143  -0.229   4.172  0.00  0.00     0.017 A 
ATOM      5  C4  UNL d   1      -0.317   0.765   3.301  0.00  0.00     0.017 A 
ATOM      6  C5  UNL d   1      -1.421   1.545   3.658  0.00  0.00     0.034 A 
ATOM      7 Cl   UNL d   1       0.432   1.078   1.775  0.00  0.00    -0.070 Cl
ATOM      8 Cl1  UNL d   1       1.500  -1.233   3.803  0.00  0.00    -0.070 Cl
ENDROOT
TORSDOF 0
ENDMDL
