MODEL 1
REMARK minimizedAffinity 6.826931
REMARK minimizedRMSD -1
REMARK  0 active torsions:
REMARK  status: ('A' for Active; 'I' for Inactive)
ROOT
ATOM      1  C   UNL d   1       5.301   3.515   1.610  0.00  0.00     0.020 A 
ATOM      2  C1  UNL d   1       5.743   3.720   0.303  0.00  0.00     0.020 A 
ATOM      3  C2  UNL d   1       5.079   3.108  -0.762  0.00  0.00     0.034 A 
ATOM      4  C3  UNL d   1       3.970   2.289  -0.523  0.00  0.00     0.017 A 
ATOM      5  C4  UNL d   1       3.527   2.084   0.788  0.00  0.00     0.017 A 
ATOM      6  C5  UNL d   1       4.195   2.699   1.851  0.00  0.00     0.034 A 
ATOM      7 Cl   UNL d   1       2.165   1.087   1.162  0.00  0.00    -0.070 Cl
ATOM      8 Cl1  UNL d   1       3.197   1.565  -1.889  0.00  0.00    -0.070 Cl
ENDROOT
TORSDOF 0
ENDMDL
