MODEL 1
REMARK minimizedAffinity 21.4196777
REMARK minimizedRMSD -1
REMARK  0 active torsions:
REMARK  status: ('A' for Active; 'I' for Inactive)
ROOT
ATOM      1  C   UNL d   1       2.258   2.269  -1.891  0.00  0.00     0.020 A 
ATOM      2  C1  UNL d   1       1.502   1.627  -2.871  0.00  0.00     0.020 A 
ATOM      3  C2  UNL d   1       0.524   2.334  -3.573  0.00  0.00     0.034 A 
ATOM      4  C3  UNL d   1       0.298   3.687  -3.296  0.00  0.00     0.017 A 
ATOM      5  C4  UNL d   1       1.057   4.331  -2.312  0.00  0.00     0.017 A 
ATOM      6  C5  UNL d   1       2.036   3.618  -1.612  0.00  0.00     0.034 A 
ATOM      7 Cl   UNL d   1       0.837   5.998  -1.914  0.00  0.00    -0.070 Cl
ATOM      8 Cl1  UNL d   1      -0.928   4.500  -4.203  0.00  0.00    -0.070 Cl
ENDROOT
TORSDOF 0
ENDMDL
