MODEL 1
REMARK minimizedAffinity 9.35087109
REMARK minimizedRMSD -1
REMARK  0 active torsions:
REMARK  status: ('A' for Active; 'I' for Inactive)
ROOT
ATOM      1  C   UNL d   1      -4.723   1.811   4.404  0.00  0.00    -0.002 A 
ATOM      2  C1  UNL d   1      -4.957   0.444   4.340  0.00  0.00     0.010 A 
ATOM      3  C2  UNL d   1      -4.042  -0.405   3.715  0.00  0.00     0.041 A 
ATOM      4  C3  UNL d   1      -2.875   0.148   3.152  0.00  0.00    -0.075 A 
ATOM      5  S   UNL d   1      -1.612  -0.698   2.337  0.00  0.00     0.015 SA
ATOM      6  C4  UNL d   1      -0.733   0.734   2.056  0.00  0.00     0.022 A 
ATOM      7  C5  UNL d   1      -1.372   1.840   2.564  0.00  0.00     0.026 A 
ATOM      8  C6  UNL d   1      -2.617   1.521   3.204  0.00  0.00    -0.082 A 
ATOM      9  C7  UNL d   1      -3.565   2.355   3.844  0.00  0.00     0.045 A 
ENDROOT
TORSDOF 0
ENDMDL
