MODEL 1
REMARK minimizedAffinity 13.2896423
REMARK minimizedRMSD -1
REMARK  0 active torsions:
REMARK  status: ('A' for Active; 'I' for Inactive)
ROOT
ATOM      1  C   UNL d   1      -3.505  -2.966  -3.769  0.00  0.00    -0.002 A 
ATOM      2  C1  UNL d   1      -3.220  -2.069  -2.750  0.00  0.00     0.010 A 
ATOM      3  C2  UNL d   1      -1.957  -1.483  -2.652  0.00  0.00     0.041 A 
ATOM      4  C3  UNL d   1      -0.975  -1.815  -3.606  0.00  0.00    -0.075 A 
ATOM      5  S   UNL d   1       0.641  -1.221  -3.685  0.00  0.00     0.015 SA
ATOM      6  C4  UNL d   1       0.992  -2.144  -5.074  0.00  0.00     0.022 A 
ATOM      7  C5  UNL d   1      -0.086  -2.893  -5.481  0.00  0.00     0.026 A 
ATOM      8  C6  UNL d   1      -1.238  -2.716  -4.642  0.00  0.00    -0.082 A 
ATOM      9  C7  UNL d   1      -2.528  -3.294  -4.714  0.00  0.00     0.045 A 
ENDROOT
TORSDOF 0
ENDMDL
