MODEL 1
REMARK minimizedAffinity 8.31097126
REMARK minimizedRMSD -1
REMARK  0 active torsions:
REMARK  status: ('A' for Active; 'I' for Inactive)
ROOT
ATOM      1  C   UNL d   1      -1.560   0.444   3.349  0.00  0.00    -0.002 A 
ATOM      2  C1  UNL d   1      -1.512  -0.899   3.004  0.00  0.00     0.010 A 
ATOM      3  C2  UNL d   1      -0.719  -1.331   1.939  0.00  0.00     0.041 A 
ATOM      4  C3  UNL d   1       0.033  -0.381   1.220  0.00  0.00    -0.075 A 
ATOM      5  S   UNL d   1       1.076  -0.679  -0.120  0.00  0.00     0.015 SA
ATOM      6  C4  UNL d   1       1.481   0.970  -0.267  0.00  0.00     0.022 A 
ATOM      7  C5  UNL d   1       0.846   1.743   0.676  0.00  0.00     0.026 A 
ATOM      8  C6  UNL d   1       0.001   0.977   1.549  0.00  0.00    -0.082 A 
ATOM      9  C7  UNL d   1      -0.813   1.383   2.633  0.00  0.00     0.045 A 
ENDROOT
TORSDOF 0
ENDMDL
