MODEL 1
REMARK minimizedAffinity 10.5873327
REMARK minimizedRMSD -1
REMARK  0 active torsions:
REMARK  status: ('A' for Active; 'I' for Inactive)
ROOT
ATOM      1  C   UNL d   1      -2.333  -5.999   3.102  0.00  0.00    -0.002 A 
ATOM      2  C1  UNL d   1      -1.418  -6.000   2.059  0.00  0.00     0.010 A 
ATOM      3  C2  UNL d   1      -0.046  -5.999   2.318  0.00  0.00     0.041 A 
ATOM      4  C3  UNL d   1       0.395  -5.999   3.656  0.00  0.00    -0.075 A 
ATOM      5  S   UNL d   1       2.027  -6.000   4.212  0.00  0.00     0.015 SA
ATOM      6  C4  UNL d   1       1.547  -6.000   5.848  0.00  0.00     0.022 A 
ATOM      7  C5  UNL d   1       0.180  -5.999   5.984  0.00  0.00     0.026 A 
ATOM      8  C6  UNL d   1      -0.507  -6.000   4.723  0.00  0.00    -0.082 A 
ATOM      9  C7  UNL d   1      -1.892  -5.999   4.428  0.00  0.00     0.045 A 
ENDROOT
TORSDOF 0
ENDMDL
