MODEL 1
REMARK minimizedAffinity 13.7444296
REMARK minimizedRMSD -1
REMARK  0 active torsions:
REMARK  status: ('A' for Active; 'I' for Inactive)
ROOT
ATOM      1  C   UNL d   1       3.429  -0.392  -4.264  0.00  0.00    -0.002 A 
ATOM      2  C1  UNL d   1       2.323  -0.949  -4.892  0.00  0.00     0.010 A 
ATOM      3  C2  UNL d   1       1.179  -1.272  -4.160  0.00  0.00     0.041 A 
ATOM      4  C3  UNL d   1       1.163  -1.022  -2.774  0.00  0.00    -0.075 A 
ATOM      5  S   UNL d   1      -0.129  -1.336  -1.676  0.00  0.00     0.015 SA
ATOM      6  C4  UNL d   1       0.756  -0.738  -0.347  0.00  0.00     0.022 A 
ATOM      7  C5  UNL d   1       2.008  -0.306  -0.714  0.00  0.00     0.026 A 
ATOM      8  C6  UNL d   1       2.264  -0.462  -2.119  0.00  0.00    -0.082 A 
ATOM      9  C7  UNL d   1       3.409  -0.146  -2.888  0.00  0.00     0.045 A 
ENDROOT
TORSDOF 0
ENDMDL
