MODEL 1
REMARK minimizedAffinity 6.58605289
REMARK minimizedRMSD -1
REMARK  0 active torsions:
REMARK  status: ('A' for Active; 'I' for Inactive)
ROOT
ATOM      1  C   UNL d   1      -0.664  -5.998   1.071  0.00  0.00    -0.002 A 
ATOM      2  C1  UNL d   1      -1.442  -5.999   2.220  0.00  0.00     0.010 A 
ATOM      3  C2  UNL d   1      -0.844  -5.999   3.482  0.00  0.00     0.041 A 
ATOM      4  C3  UNL d   1       0.562  -5.997   3.570  0.00  0.00    -0.075 A 
ATOM      5  S   UNL d   1       1.513  -5.996   5.008  0.00  0.00     0.015 SA
ATOM      6  C4  UNL d   1       2.974  -5.993   4.130  0.00  0.00     0.022 A 
ATOM      7  C5  UNL d   1       2.760  -5.994   2.772  0.00  0.00     0.026 A 
ATOM      8  C6  UNL d   1       1.366  -5.995   2.427  0.00  0.00    -0.082 A 
ATOM      9  C7  UNL d   1       0.730  -5.996   1.162  0.00  0.00     0.045 A 
ENDROOT
TORSDOF 0
ENDMDL
