MODEL 1
REMARK minimizedAffinity 12.9977274
REMARK minimizedRMSD -1
REMARK  0 active torsions:
REMARK  status: ('A' for Active; 'I' for Inactive)
ROOT
ATOM      1  C   UNL d   1      -1.132  -3.787  -4.954  0.00  0.00    -0.002 A 
ATOM      2  C1  UNL d   1      -0.263  -2.710  -5.056  0.00  0.00     0.010 A 
ATOM      3  C2  UNL d   1      -0.562  -1.495  -4.436  0.00  0.00     0.041 A 
ATOM      4  C3  UNL d   1      -1.759  -1.380  -3.703  0.00  0.00    -0.075 A 
ATOM      5  S   UNL d   1      -2.332   0.010  -2.860  0.00  0.00     0.015 SA
ATOM      6  C4  UNL d   1      -3.744  -0.793  -2.343  0.00  0.00     0.022 A 
ATOM      7  C5  UNL d   1      -3.793  -2.091  -2.794  0.00  0.00     0.026 A 
ATOM      8  C6  UNL d   1      -2.650  -2.451  -3.585  0.00  0.00    -0.082 A 
ATOM      9  C7  UNL d   1      -2.319  -3.669  -4.226  0.00  0.00     0.045 A 
ENDROOT
TORSDOF 0
ENDMDL
