MODEL 1
REMARK minimizedAffinity 10.7465
REMARK minimizedRMSD -1
REMARK  0 active torsions:
REMARK  status: ('A' for Active; 'I' for Inactive)
ROOT
ATOM      1  C   UNL d   1      -2.904  -2.647  -2.926  0.00  0.00    -0.002 A 
ATOM      2  C1  UNL d   1      -2.661  -1.528  -2.141  0.00  0.00     0.010 A 
ATOM      3  C2  UNL d   1      -1.387  -0.958  -2.093  0.00  0.00     0.041 A 
ATOM      4  C3  UNL d   1      -0.352  -1.536  -2.855  0.00  0.00    -0.075 A 
ATOM      5  S   UNL d   1       1.286  -1.009  -2.952  0.00  0.00     0.015 SA
ATOM      6  C4  UNL d   1       1.701  -2.255  -4.037  0.00  0.00     0.022 A 
ATOM      7  C5  UNL d   1       0.628  -3.063  -4.329  0.00  0.00     0.026 A 
ATOM      8  C6  UNL d   1      -0.573  -2.662  -3.653  0.00  0.00    -0.082 A 
ATOM      9  C7  UNL d   1      -1.875  -3.217  -3.680  0.00  0.00     0.045 A 
ENDROOT
TORSDOF 0
ENDMDL
