MODEL 1
REMARK minimizedAffinity 6.36935186
REMARK minimizedRMSD -1
REMARK  0 active torsions:
REMARK  status: ('A' for Active; 'I' for Inactive)
ROOT
ATOM      1  C   UNL d   1      -2.643  -3.014  -4.158  0.00  0.00    -0.002 A 
ATOM      2  C1  UNL d   1      -3.081  -1.891  -3.470  0.00  0.00     0.010 A 
ATOM      3  C2  UNL d   1      -2.175  -0.909  -3.064  0.00  0.00     0.041 A 
ATOM      4  C3  UNL d   1      -0.809  -1.075  -3.367  0.00  0.00    -0.075 A 
ATOM      5  S   UNL d   1       0.482  -0.003  -2.971  0.00  0.00     0.015 SA
ATOM      6  C4  UNL d   1       1.643  -1.009  -3.707  0.00  0.00     0.022 A 
ATOM      7  C5  UNL d   1       1.078  -2.140  -4.247  0.00  0.00     0.026 A 
ATOM      8  C6  UNL d   1      -0.344  -2.197  -4.060  0.00  0.00    -0.082 A 
ATOM      9  C7  UNL d   1      -1.288  -3.175  -4.457  0.00  0.00     0.045 A 
ENDROOT
TORSDOF 0
ENDMDL
