MODEL 1
REMARK minimizedAffinity 12.8546028
REMARK minimizedRMSD -1
REMARK  0 active torsions:
REMARK  status: ('A' for Active; 'I' for Inactive)
ROOT
ATOM      1  C   UNL d   1      -0.136  -5.991   1.203  0.00  0.00    -0.002 A 
ATOM      2  C1  UNL d   1       1.251  -5.993   1.155  0.00  0.00     0.010 A 
ATOM      3  C2  UNL d   1       2.002  -5.995   2.332  0.00  0.00     0.041 A 
ATOM      4  C3  UNL d   1       1.330  -5.997   3.570  0.00  0.00    -0.075 A 
ATOM      5  S   UNL d   1       2.042  -6.000   5.140  0.00  0.00     0.015 SA
ATOM      6  C4  UNL d   1       0.522  -5.999   5.911  0.00  0.00     0.022 A 
ATOM      7  C5  UNL d   1      -0.514  -5.996   5.008  0.00  0.00     0.026 A 
ATOM      8  C6  UNL d   1      -0.066  -5.995   3.644  0.00  0.00    -0.082 A 
ATOM      9  C7  UNL d   1      -0.799  -5.992   2.433  0.00  0.00     0.045 A 
ENDROOT
TORSDOF 0
ENDMDL
