MODEL 1
REMARK minimizedAffinity 6.89304781
REMARK minimizedRMSD -1
REMARK  0 active torsions:
REMARK  status: ('A' for Active; 'I' for Inactive)
ROOT
ATOM      1  C   UNL d   1      -2.652  -5.995   2.617  0.00  0.00    -0.002 A 
ATOM      2  C1  UNL d   1      -2.109  -5.995   1.340  0.00  0.00     0.010 A 
ATOM      3  C2  UNL d   1      -0.725  -5.994   1.156  0.00  0.00     0.041 A 
ATOM      4  C3  UNL d   1       0.113  -5.994   2.289  0.00  0.00    -0.075 A 
ATOM      5  S   UNL d   1       1.837  -5.994   2.307  0.00  0.00     0.015 SA
ATOM      6  C4  UNL d   1       1.893  -5.995   4.010  0.00  0.00     0.022 A 
ATOM      7  C5  UNL d   1       0.637  -5.995   4.568  0.00  0.00     0.026 A 
ATOM      8  C6  UNL d   1      -0.410  -5.995   3.585  0.00  0.00    -0.082 A 
ATOM      9  C7  UNL d   1      -1.818  -5.996   3.738  0.00  0.00     0.045 A 
ENDROOT
TORSDOF 0
ENDMDL
