MODEL 1
REMARK minimizedAffinity 0.489659667
REMARK minimizedRMSD -1
REMARK  0 active torsions:
REMARK  status: ('A' for Active; 'I' for Inactive)
ROOT
ATOM      1  C   UNL d   1       4.240  -5.995   4.660  0.00  0.00    -0.002 A 
ATOM      2  C1  UNL d   1       4.250  -5.997   3.273  0.00  0.00     0.010 A 
ATOM      3  C2  UNL d   1       3.053  -5.999   2.553  0.00  0.00     0.041 A 
ATOM      4  C3  UNL d   1       1.834  -5.998   3.259  0.00  0.00    -0.075 A 
ATOM      5  S   UNL d   1       0.245  -5.999   2.590  0.00  0.00     0.015 SA
ATOM      6  C4  UNL d   1      -0.485  -5.996   4.130  0.00  0.00     0.022 A 
ATOM      7  C5  UNL d   1       0.446  -5.995   5.141  0.00  0.00     0.026 A 
ATOM      8  C6  UNL d   1       1.798  -5.995   4.656  0.00  0.00    -0.082 A 
ATOM      9  C7  UNL d   1       3.028  -5.993   5.357  0.00  0.00     0.045 A 
ENDROOT
TORSDOF 0
ENDMDL
