MODEL 1
REMARK minimizedAffinity 16.2341042
REMARK minimizedRMSD -1
REMARK  0 active torsions:
REMARK  status: ('A' for Active; 'I' for Inactive)
ROOT
ATOM      1  C   UNL d   1       3.402  -0.897  -3.345  0.00  0.00    -0.002 A 
ATOM      2  C1  UNL d   1       3.918   0.369  -3.587  0.00  0.00     0.010 A 
ATOM      3  C2  UNL d   1       3.398   1.485  -2.928  0.00  0.00     0.041 A 
ATOM      4  C3  UNL d   1       2.343   1.305  -2.011  0.00  0.00    -0.075 A 
ATOM      5  S   UNL d   1       1.550   2.526  -1.087  0.00  0.00     0.015 SA
ATOM      6  C4  UNL d   1       0.510   1.396  -0.349  0.00  0.00     0.022 A 
ATOM      7  C5  UNL d   1       0.747   0.114  -0.786  0.00  0.00     0.026 A 
ATOM      8  C6  UNL d   1       1.809   0.041  -1.750  0.00  0.00    -0.082 A 
ATOM      9  C7  UNL d   1       2.356  -1.071  -2.435  0.00  0.00     0.045 A 
ENDROOT
TORSDOF 0
ENDMDL
