MODEL 1
REMARK minimizedAffinity 4.60906553
REMARK minimizedRMSD -1
REMARK  2 active torsions:
REMARK  status: ('A' for Active; 'I' for Inactive)
REMARK    1  A    between atoms: C2'_3  and  C1'_4 
REMARK    2  A    between atoms: C1'_4  and  C1_5 
ROOT
ATOM      1  C1  I4B d   1      -1.079   3.337  -4.101  0.00  0.00    -0.075 A 
ATOM      2  C2  I4B d   1      -1.564   3.030  -2.854  0.00  0.00     0.003 A 
ATOM      3  C3  I4B d   1      -2.561   2.036  -2.703  0.00  0.00     0.002 A 
ATOM      4  C4  I4B d   1      -3.076   1.414  -3.822  0.00  0.00    -0.004 A 
ATOM      5  C5  I4B d   1      -2.567   1.711  -5.083  0.00  0.00     0.002 A 
ATOM      6  C6  I4B d   1      -1.553   2.670  -5.223  0.00  0.00     0.003 A 
ENDROOT
BRANCH   1   7
ATOM      7  C1' I4B d   1      -0.050   4.416  -4.228  0.00  0.00     0.060 C 
BRANCH   7   8
ATOM      8  C2' I4B d   1       0.027   4.818  -5.686  0.00  0.00    -0.013 C 
ATOM      9  C4' I4B d   1      -0.917   5.952  -5.990  0.00  0.00     0.013 C 
ATOM     10  C3' I4B d   1       1.446   5.200  -5.987  0.00  0.00     0.013 C 
ENDBRANCH   7   8
ENDBRANCH   1   7
TORSDOF 2
ENDMDL
