MODEL 1
REMARK minimizedAffinity 12.9940462
REMARK minimizedRMSD -1
REMARK  2 active torsions:
REMARK  status: ('A' for Active; 'I' for Inactive)
REMARK    1  A    between atoms: C2'_3  and  C1'_4 
REMARK    2  A    between atoms: C1'_4  and  C1_5 
ROOT
ATOM      1  C1  I4B d   1      -1.717   1.696  -2.439  0.00  0.00    -0.075 A 
ATOM      2  C2  I4B d   1      -3.042   1.758  -2.086  0.00  0.00     0.003 A 
ATOM      3  C3  I4B d   1      -3.645   0.682  -1.391  0.00  0.00     0.002 A 
ATOM      4  C4  I4B d   1      -2.905  -0.450  -1.115  0.00  0.00    -0.004 A 
ATOM      5  C5  I4B d   1      -1.556  -0.501  -1.453  0.00  0.00     0.002 A 
ATOM      6  C6  I4B d   1      -0.954   0.583  -2.108  0.00  0.00     0.003 A 
ENDROOT
BRANCH   1   7
ATOM      7  C1' I4B d   1      -1.120   2.836  -3.201  0.00  0.00     0.060 C 
BRANCH   7   8
ATOM      8  C2' I4B d   1      -0.070   2.273  -4.137  0.00  0.00    -0.013 C 
ATOM      9  C4' I4B d   1      -0.704   1.586  -5.318  0.00  0.00     0.013 C 
ATOM     10  C3' I4B d   1       0.812   3.403  -4.577  0.00  0.00     0.013 C 
ENDBRANCH   7   8
ENDBRANCH   1   7
TORSDOF 2
ENDMDL
