MODEL 1
REMARK minimizedAffinity 11.4529829
REMARK minimizedRMSD -1
REMARK  2 active torsions:
REMARK  status: ('A' for Active; 'I' for Inactive)
REMARK    1  A    between atoms: C2'_3  and  C1'_4 
REMARK    2  A    between atoms: C1'_4  and  C1_5 
ROOT
ATOM      1  C1  I4B d   1       0.403   3.190  -4.324  0.00  0.00    -0.075 A 
ATOM      2  C2  I4B d   1      -0.286   3.396  -3.155  0.00  0.00     0.003 A 
ATOM      3  C3  I4B d   1      -1.495   2.700  -2.908  0.00  0.00     0.002 A 
ATOM      4  C4  I4B d   1      -1.999   1.852  -3.872  0.00  0.00    -0.004 A 
ATOM      5  C5  I4B d   1      -1.287   1.627  -5.047  0.00  0.00     0.002 A 
ATOM      6  C6  I4B d   1      -0.072   2.290  -5.269  0.00  0.00     0.003 A 
ENDROOT
BRANCH   1   7
ATOM      7  C1' I4B d   1       1.659   3.966  -4.566  0.00  0.00     0.060 C 
BRANCH   7   8
ATOM      8  C2' I4B d   1       1.512   4.689  -5.890  0.00  0.00    -0.013 C 
ATOM      9  C4' I4B d   1       0.168   5.359  -5.999  0.00  0.00     0.013 C 
ATOM     10  C3' I4B d   1       2.626   5.688  -5.997  0.00  0.00     0.013 C 
ENDBRANCH   7   8
ENDBRANCH   1   7
TORSDOF 2
ENDMDL
