MODEL 1
REMARK minimizedAffinity 5.10050678
REMARK minimizedRMSD -1
REMARK  2 active torsions:
REMARK  status: ('A' for Active; 'I' for Inactive)
REMARK    1  A    between atoms: C2'_3  and  C1'_4 
REMARK    2  A    between atoms: C1'_4  and  C1_5 
ROOT
ATOM      1  C1  I4B d   1       0.041   3.249  -5.013  0.00  0.00    -0.075 A 
ATOM      2  C2  I4B d   1      -0.543   2.177  -5.639  0.00  0.00     0.003 A 
ATOM      3  C3  I4B d   1      -1.670   1.541  -5.062  0.00  0.00     0.002 A 
ATOM      4  C4  I4B d   1      -2.145   1.977  -3.842  0.00  0.00    -0.004 A 
ATOM      5  C5  I4B d   1      -1.566   3.079  -3.220  0.00  0.00     0.002 A 
ATOM      6  C6  I4B d   1      -0.474   3.727  -3.814  0.00  0.00     0.003 A 
ENDROOT
BRANCH   1   7
ATOM      7  C1' I4B d   1       1.249   3.876  -5.633  0.00  0.00     0.060 C 
BRANCH   7   8
ATOM      8  C2' I4B d   1       1.247   5.348  -5.276  0.00  0.00    -0.013 C 
ATOM      9  C4' I4B d   1       2.557   5.998  -5.634  0.00  0.00     0.013 C 
ATOM     10  C3' I4B d   1       0.105   5.998  -6.000  0.00  0.00     0.013 C 
ENDBRANCH   7   8
ENDBRANCH   1   7
TORSDOF 2
ENDMDL
