MODEL 1
REMARK minimizedAffinity 16.3962784
REMARK minimizedRMSD -1
REMARK  3 active torsions:
REMARK  status: ('A' for Active; 'I' for Inactive)
REMARK    1  A    between atoms: C3'_2  and  C2'_3 
REMARK    2  A    between atoms: C2'_3  and  C1'_4 
REMARK    3  A    between atoms: C1'_4  and  C1_5 
ROOT
ATOM      1  C1  N4B d   1       5.521   4.278  -2.637  0.00  0.00    -0.075 A 
ATOM      2  C2  N4B d   1       5.059   5.568  -2.293  0.00  0.00     0.002 A 
ATOM      3  C3  N4B d   1       5.074   5.975  -0.981  0.00  0.00     0.002 A 
ATOM      4  C4  N4B d   1       5.525   5.107   0.002  0.00  0.00    -0.004 A 
ATOM      5  C5  N4B d   1       5.992   3.872  -0.342  0.00  0.00     0.002 A 
ATOM      6  C6  N4B d   1       5.987   3.451  -1.656  0.00  0.00     0.002 A 
ENDROOT
BRANCH   1   7
ATOM      7  C1' N4B d   1       5.444   3.757  -4.046  0.00  0.00     0.057 C 
BRANCH   7   8
ATOM      8  C2' N4B d   1       4.231   2.841  -4.176  0.00  0.00     0.009 C 
BRANCH   8   9
ATOM      9  C3' N4B d   1       3.069   3.312  -3.318  0.00  0.00     0.004 C 
ATOM     10  C4' N4B d   1       2.177   2.189  -2.881  0.00  0.00     0.003 C 
ENDBRANCH   8   9
ENDBRANCH   7   8
ENDBRANCH   1   7
TORSDOF 3
ENDMDL
