MODEL 1
REMARK minimizedAffinity 12.7669525
REMARK minimizedRMSD -1
REMARK  3 active torsions:
REMARK  status: ('A' for Active; 'I' for Inactive)
REMARK    1  A    between atoms: C3'_2  and  C2'_3 
REMARK    2  A    between atoms: C2'_3  and  C1'_4 
REMARK    3  A    between atoms: C1'_4  and  C1_5 
ROOT
ATOM      1  C1  N4B d   1       3.130   4.257  -2.861  0.00  0.00    -0.075 A 
ATOM      2  C2  N4B d   1       2.462   3.014  -2.814  0.00  0.00     0.002 A 
ATOM      3  C3  N4B d   1       1.103   2.957  -3.003  0.00  0.00     0.002 A 
ATOM      4  C4  N4B d   1       0.392   4.127  -3.222  0.00  0.00    -0.004 A 
ATOM      5  C5  N4B d   1       1.048   5.321  -3.291  0.00  0.00     0.002 A 
ATOM      6  C6  N4B d   1       2.414   5.393  -3.106  0.00  0.00     0.002 A 
ENDROOT
BRANCH   1   7
ATOM      7  C1' N4B d   1       4.602   4.379  -2.574  0.00  0.00     0.057 C 
BRANCH   7   8
ATOM      8  C2' N4B d   1       4.874   5.730  -1.919  0.00  0.00     0.009 C 
BRANCH   8   9
ATOM      9  C3' N4B d   1       5.998   5.651  -0.900  0.00  0.00     0.004 C 
ATOM     10  C4' N4B d   1       6.000   4.362  -0.136  0.00  0.00     0.003 C 
ENDBRANCH   8   9
ENDBRANCH   7   8
ENDBRANCH   1   7
TORSDOF 3
ENDMDL
