MODEL 1
REMARK minimizedAffinity 9.33039856
REMARK minimizedRMSD -1
REMARK  3 active torsions:
REMARK  status: ('A' for Active; 'I' for Inactive)
REMARK    1  A    between atoms: C3'_2  and  C2'_3 
REMARK    2  A    between atoms: C2'_3  and  C1'_4 
REMARK    3  A    between atoms: C1'_4  and  C1_5 
ROOT
ATOM      1  C1  N4B d   1      -2.156  -2.316   1.750  0.00  0.00    -0.075 A 
ATOM      2  C2  N4B d   1      -0.771  -2.317   2.024  0.00  0.00     0.002 A 
ATOM      3  C3  N4B d   1      -0.113  -1.130   2.241  0.00  0.00     0.002 A 
ATOM      4  C4  N4B d   1      -0.813   0.065   2.172  0.00  0.00    -0.004 A 
ATOM      5  C5  N4B d   1      -2.156   0.055   1.932  0.00  0.00     0.002 A 
ATOM      6  C6  N4B d   1      -2.831  -1.130   1.715  0.00  0.00     0.002 A 
ENDROOT
BRANCH   1   7
ATOM      7  C1' N4B d   1      -2.901  -3.581   1.421  0.00  0.00     0.057 C 
BRANCH   7   8
ATOM      8  C2' N4B d   1      -4.205  -3.614   2.212  0.00  0.00     0.009 C 
BRANCH   8   9
ATOM      9  C3' N4B d   1      -4.409  -4.944   2.917  0.00  0.00     0.004 C 
ATOM     10  C4' N4B d   1      -5.188  -4.813   4.191  0.00  0.00     0.003 C 
ENDBRANCH   8   9
ENDBRANCH   7   8
ENDBRANCH   1   7
TORSDOF 3
ENDMDL
