MODEL 1
REMARK minimizedAffinity 14.213315
REMARK minimizedRMSD -1
REMARK  3 active torsions:
REMARK  status: ('A' for Active; 'I' for Inactive)
REMARK    1  A    between atoms: C3'_2  and  C2'_3 
REMARK    2  A    between atoms: C2'_3  and  C1'_4 
REMARK    3  A    between atoms: C1'_4  and  C1_5 
ROOT
ATOM      1  C1  N4B d   1       3.771   3.866  -2.248  0.00  0.00    -0.075 A 
ATOM      2  C2  N4B d   1       3.335   2.534  -2.421  0.00  0.00     0.002 A 
ATOM      3  C3  N4B d   1       2.005   2.223  -2.277  0.00  0.00     0.002 A 
ATOM      4  C4  N4B d   1       1.100   3.219  -1.944  0.00  0.00    -0.004 A 
ATOM      5  C5  N4B d   1       1.525   4.508  -1.804  0.00  0.00     0.002 A 
ATOM      6  C6  N4B d   1       2.858   4.836  -1.950  0.00  0.00     0.002 A 
ENDROOT
BRANCH   1   7
ATOM      7  C1' N4B d   1       5.227   4.239  -2.311  0.00  0.00     0.057 C 
BRANCH   7   8
ATOM      8  C2' N4B d   1       5.954   3.619  -1.122  0.00  0.00     0.009 C 
BRANCH   8   9
ATOM      9  C3' N4B d   1       6.000   4.560   0.070  0.00  0.00     0.004 C 
ATOM     10  C4' N4B d   1       5.850   6.000  -0.320  0.00  0.00     0.003 C 
ENDBRANCH   8   9
ENDBRANCH   7   8
ENDBRANCH   1   7
TORSDOF 3
ENDMDL
