MODEL 1
REMARK minimizedAffinity 12.3478479
REMARK minimizedRMSD -1
REMARK  3 active torsions:
REMARK  status: ('A' for Active; 'I' for Inactive)
REMARK    1  A    between atoms: C3'_2  and  C2'_3 
REMARK    2  A    between atoms: C2'_3  and  C1'_4 
REMARK    3  A    between atoms: C1'_4  and  C1_5 
ROOT
ATOM      1  C1  N4B d   1       1.159   3.296  -2.695  0.00  0.00    -0.075 A 
ATOM      2  C2  N4B d   1       1.422   2.537  -1.533  0.00  0.00     0.002 A 
ATOM      3  C3  N4B d   1       2.669   1.998  -1.333  0.00  0.00     0.002 A 
ATOM      4  C4  N4B d   1       3.660   2.188  -2.285  0.00  0.00    -0.004 A 
ATOM      5  C5  N4B d   1       3.405   2.944  -3.392  0.00  0.00     0.002 A 
ATOM      6  C6  N4B d   1       2.157   3.495  -3.605  0.00  0.00     0.002 A 
ENDROOT
BRANCH   1   7
ATOM      7  C1' N4B d   1      -0.213   3.832  -2.999  0.00  0.00     0.057 C 
BRANCH   7   8
ATOM      8  C2' N4B d   1      -0.386   3.936  -4.512  0.00  0.00     0.009 C 
BRANCH   8   9
ATOM      9  C3' N4B d   1      -1.473   4.927  -4.893  0.00  0.00     0.004 C 
ATOM     10  C4' N4B d   1      -1.053   5.854  -5.994  0.00  0.00     0.003 C 
ENDBRANCH   8   9
ENDBRANCH   7   8
ENDBRANCH   1   7
TORSDOF 3
ENDMDL
