MODEL 1
REMARK minimizedAffinity 8.01502132
REMARK minimizedRMSD -1
REMARK  3 active torsions:
REMARK  status: ('A' for Active; 'I' for Inactive)
REMARK    1  A    between atoms: C3'_2  and  C2'_3 
REMARK    2  A    between atoms: C2'_3  and  C1'_4 
REMARK    3  A    between atoms: C1'_4  and  C1_5 
ROOT
ATOM      1  C1  N4B d   1      -0.780   4.370  -4.239  0.00  0.00    -0.075 A 
ATOM      2  C2  N4B d   1      -0.231   5.218  -5.226  0.00  0.00     0.002 A 
ATOM      3  C3  N4B d   1      -1.058   5.998  -5.997  0.00  0.00     0.002 A 
ATOM      4  C4  N4B d   1      -2.431   5.934  -5.812  0.00  0.00    -0.004 A 
ATOM      5  C5  N4B d   1      -2.951   5.131  -4.840  0.00  0.00     0.002 A 
ATOM      6  C6  N4B d   1      -2.132   4.344  -4.055  0.00  0.00     0.002 A 
ENDROOT
BRANCH   1   7
ATOM      7  C1' N4B d   1       0.077   3.434  -3.431  0.00  0.00     0.057 C 
BRANCH   7   8
ATOM      8  C2' N4B d   1       1.165   4.237  -2.724  0.00  0.00     0.009 C 
BRANCH   8   9
ATOM      9  C3' N4B d   1       2.486   3.488  -2.681  0.00  0.00     0.004 C 
ATOM     10  C4' N4B d   1       2.431   2.261  -1.820  0.00  0.00     0.003 C 
ENDBRANCH   8   9
ENDBRANCH   7   8
ENDBRANCH   1   7
TORSDOF 3
ENDMDL
