MODEL 1
REMARK minimizedAffinity 6.58884525
REMARK minimizedRMSD -1
REMARK  3 active torsions:
REMARK  status: ('A' for Active; 'I' for Inactive)
REMARK    1  A    between atoms: C3'_2  and  C2'_3 
REMARK    2  A    between atoms: C2'_3  and  C1'_4 
REMARK    3  A    between atoms: C1'_4  and  C1_5 
ROOT
ATOM      1  C1  N4B d   1       4.687   1.528  -3.670  0.00  0.00    -0.075 A 
ATOM      2  C2  N4B d   1       4.588   0.145  -3.400  0.00  0.00     0.002 A 
ATOM      3  C3  N4B d   1       3.412  -0.378  -2.922  0.00  0.00     0.002 A 
ATOM      4  C4  N4B d   1       2.332   0.461  -2.690  0.00  0.00    -0.004 A 
ATOM      5  C5  N4B d   1       2.428   1.791  -2.977  0.00  0.00     0.002 A 
ATOM      6  C6  N4B d   1       3.603   2.330  -3.462  0.00  0.00     0.002 A 
ENDROOT
BRANCH   1   7
ATOM      7  C1' N4B d   1       5.979   2.160  -4.112  0.00  0.00     0.057 C 
BRANCH   7   8
ATOM      8  C2' N4B d   1       6.000   3.619  -3.667  0.00  0.00     0.009 C 
BRANCH   8   9
ATOM      9  C3' N4B d   1       5.999   3.753  -2.154  0.00  0.00     0.004 C 
ATOM     10  C4' N4B d   1       5.597   5.122  -1.692  0.00  0.00     0.003 C 
ENDBRANCH   8   9
ENDBRANCH   7   8
ENDBRANCH   1   7
TORSDOF 3
ENDMDL
