MODEL 1
REMARK minimizedAffinity 8.98032665
REMARK minimizedRMSD -1
REMARK  0 active torsions:
REMARK  status: ('A' for Active; 'I' for Inactive)
ROOT
ATOM      1  C4' PXY d   1       0.494  -2.224   4.797  0.00  0.00     0.077 C 
ATOM      2  C1' PXY d   1       2.702   0.497   0.200  0.00  0.00     0.077 C 
ATOM      3  C1  PXY d   1       2.115  -0.223   1.397  0.00  0.00    -0.082 A 
ATOM      4  C2  PXY d   1       2.215   0.319   2.600  0.00  0.00     0.003 A 
ATOM      5  C3  PXY d   1       1.718  -0.333   3.699  0.00  0.00     0.003 A 
ATOM      6  C4  PXY d   1       1.064  -1.528   3.558  0.00  0.00    -0.082 A 
ATOM      7  C5  PXY d   1       0.948  -2.082   2.332  0.00  0.00     0.003 A 
ATOM      8  C6  PXY d   1       1.496  -1.424   1.235  0.00  0.00     0.003 A 
ENDROOT
TORSDOF 0
ENDMDL
