MODEL 1
REMARK minimizedAffinity 8.40455532
REMARK minimizedRMSD -1
REMARK  0 active torsions:
REMARK  status: ('A' for Active; 'I' for Inactive)
ROOT
ATOM      1  C4' PXY d   1       1.292  -3.404   6.000  0.00  0.00     0.077 C 
ATOM      2  C1' PXY d   1       1.514  -0.870   0.809  0.00  0.00     0.077 C 
ATOM      3  C1  PXY d   1       1.464  -1.544   2.166  0.00  0.00    -0.082 A 
ATOM      4  C2  PXY d   1       0.439  -1.317   2.972  0.00  0.00     0.003 A 
ATOM      5  C3  PXY d   1       0.393  -1.893   4.215  0.00  0.00     0.003 A 
ATOM      6  C4  PXY d   1       1.380  -2.753   4.617  0.00  0.00    -0.082 A 
ATOM      7  C5  PXY d   1       2.424  -2.998   3.796  0.00  0.00     0.003 A 
ATOM      8  C6  PXY d   1       2.472  -2.371   2.555  0.00  0.00     0.003 A 
ENDROOT
TORSDOF 0
ENDMDL
