MODEL 1
REMARK minimizedAffinity 5.76441813
REMARK minimizedRMSD -1
REMARK  0 active torsions:
REMARK  status: ('A' for Active; 'I' for Inactive)
ROOT
ATOM      1  C4' PXY d   1       2.919   1.572   0.687  0.00  0.00     0.077 C 
ATOM      2  C1' PXY d   1       0.021  -2.311   3.839  0.00  0.00     0.077 C 
ATOM      3  C1  PXY d   1       0.773  -1.284   3.017  0.00  0.00    -0.082 A 
ATOM      4  C2  PXY d   1       1.446  -1.669   1.945  0.00  0.00     0.003 A 
ATOM      5  C3  PXY d   1       2.158  -0.758   1.208  0.00  0.00     0.003 A 
ATOM      6  C4  PXY d   1       2.137   0.570   1.542  0.00  0.00    -0.082 A 
ATOM      7  C5  PXY d   1       1.444   0.973   2.628  0.00  0.00     0.003 A 
ATOM      8  C6  PXY d   1       0.762   0.026   3.386  0.00  0.00     0.003 A 
ENDROOT
TORSDOF 0
ENDMDL
