MODEL 1
REMARK minimizedAffinity 9.06624031
REMARK minimizedRMSD -1
REMARK  0 active torsions:
REMARK  status: ('A' for Active; 'I' for Inactive)
ROOT
ATOM      1  C4' PXY d   1       5.986   5.998  -5.887  0.00  0.00     0.077 C 
ATOM      2  C1' PXY d   1       3.312   4.709  -0.927  0.00  0.00     0.077 C 
ATOM      3  C1  PXY d   1       4.020   5.057  -2.222  0.00  0.00    -0.082 A 
ATOM      4  C2  PXY d   1       3.455   4.751  -3.379  0.00  0.00     0.003 A 
ATOM      5  C3  PXY d   1       4.096   5.029  -4.558  0.00  0.00     0.003 A 
ATOM      6  C4  PXY d   1       5.303   5.675  -4.555  0.00  0.00    -0.082 A 
ATOM      7  C5  PXY d   1       5.881   6.000  -3.379  0.00  0.00     0.003 A 
ATOM      8  C6  PXY d   1       5.233   5.671  -2.192  0.00  0.00     0.003 A 
ENDROOT
TORSDOF 0
ENDMDL
