MODEL 1
REMARK minimizedAffinity 9.27827835
REMARK minimizedRMSD -1
REMARK  0 active torsions:
REMARK  status: ('A' for Active; 'I' for Inactive)
ROOT
ATOM      1  C4' PXY d   1       2.807   4.091  -1.514  0.00  0.00     0.077 C 
ATOM      2  C1' PXY d   1       6.000   6.000  -5.938  0.00  0.00     0.077 C 
ATOM      3  C1  PXY d   1       5.173   5.499  -4.771  0.00  0.00    -0.082 A 
ATOM      4  C2  PXY d   1       4.041   4.854  -5.000  0.00  0.00     0.003 A 
ATOM      5  C3  PXY d   1       3.265   4.422  -3.955  0.00  0.00     0.003 A 
ATOM      6  C4  PXY d   1       3.678   4.606  -2.663  0.00  0.00    -0.082 A 
ATOM      7  C5  PXY d   1       4.837   5.255  -2.421  0.00  0.00     0.003 A 
ATOM      8  C6  PXY d   1       5.590   5.721  -3.495  0.00  0.00     0.003 A 
ENDROOT
TORSDOF 0
ENDMDL
