MODEL 1
REMARK minimizedAffinity 9.60446835
REMARK minimizedRMSD -1
REMARK  0 active torsions:
REMARK  status: ('A' for Active; 'I' for Inactive)
ROOT
ATOM      1  C4' PXY d   1      -5.906  -5.988  -5.999  0.00  0.00     0.077 C 
ATOM      2  C1' PXY d   1      -3.625  -1.104  -3.912  0.00  0.00     0.077 C 
ATOM      3  C1  PXY d   1      -4.235  -2.379  -4.459  0.00  0.00    -0.082 A 
ATOM      4  C2  PXY d   1      -3.593  -3.527  -4.313  0.00  0.00     0.003 A 
ATOM      5  C3  PXY d   1      -4.115  -4.685  -4.829  0.00  0.00     0.003 A 
ATOM      6  C4  PXY d   1      -5.332  -4.677  -5.455  0.00  0.00    -0.082 A 
ATOM      7  C5  PXY d   1      -5.999  -3.512  -5.599  0.00  0.00     0.003 A 
ATOM      8  C6  PXY d   1      -5.432  -2.341  -5.104  0.00  0.00     0.003 A 
ENDROOT
TORSDOF 0
ENDMDL
