MODEL 1
REMARK minimizedAffinity 14.784833
REMARK minimizedRMSD -1
REMARK  0 active torsions:
REMARK  status: ('A' for Active; 'I' for Inactive)
ROOT
ATOM      1  C4' PXY d   1       3.169   3.298   0.401  0.00  0.00     0.077 C 
ATOM      2  C1' PXY d   1       1.017  -1.582   2.631  0.00  0.00     0.077 C 
ATOM      3  C1  PXY d   1       1.571  -0.296   2.051  0.00  0.00    -0.082 A 
ATOM      4  C2  PXY d   1       2.386  -0.345   1.010  0.00  0.00     0.003 A 
ATOM      5  C3  PXY d   1       2.922   0.806   0.493  0.00  0.00     0.003 A 
ATOM      6  C4  PXY d   1       2.578   2.025   1.014  0.00  0.00    -0.082 A 
ATOM      7  C5  PXY d   1       1.738   2.085   2.069  0.00  0.00     0.003 A 
ATOM      8  C6  PXY d   1       1.238   0.902   2.605  0.00  0.00     0.003 A 
ENDROOT
TORSDOF 0
ENDMDL
