MODEL 1
REMARK minimizedAffinity 7.08669901
REMARK minimizedRMSD -1
REMARK  0 active torsions:
REMARK  status: ('A' for Active; 'I' for Inactive)
ROOT
ATOM      1  C4' PXY d   1      -6.000  -3.101  -3.799  0.00  0.00     0.077 C 
ATOM      2  C1' PXY d   1      -3.137   1.667  -2.224  0.00  0.00     0.077 C 
ATOM      3  C1  PXY d   1      -3.899   0.422  -2.633  0.00  0.00    -0.082 A 
ATOM      4  C2  PXY d   1      -3.265  -0.736  -2.711  0.00  0.00     0.003 A 
ATOM      5  C3  PXY d   1      -3.931  -1.866  -3.111  0.00  0.00     0.003 A 
ATOM      6  C4  PXY d   1      -5.273  -1.820  -3.381  0.00  0.00    -0.082 A 
ATOM      7  C5  PXY d   1      -5.929  -0.644  -3.293  0.00  0.00     0.003 A 
ATOM      8  C6  PXY d   1      -5.225   0.500  -2.926  0.00  0.00     0.003 A 
ENDROOT
TORSDOF 0
ENDMDL
