MODEL 1
REMARK minimizedAffinity 6.37776995
REMARK minimizedRMSD -1
REMARK  0 active torsions:
REMARK  status: ('A' for Active; 'I' for Inactive)
ROOT
ATOM      1  C4' PXY d   1      -4.162  -1.340  -2.729  0.00  0.00     0.077 C 
ATOM      2  C1' PXY d   1      -5.161  -6.000  -6.000  0.00  0.00     0.077 C 
ATOM      3  C1  PXY d   1      -4.897  -4.771  -5.153  0.00  0.00    -0.082 A 
ATOM      4  C2  PXY d   1      -4.489  -4.914  -3.902  0.00  0.00     0.003 A 
ATOM      5  C3  PXY d   1      -4.276  -3.813  -3.112  0.00  0.00     0.003 A 
ATOM      6  C4  PXY d   1      -4.431  -2.553  -3.624  0.00  0.00    -0.082 A 
ATOM      7  C5  PXY d   1      -4.837  -2.399  -4.902  0.00  0.00     0.003 A 
ATOM      8  C6  PXY d   1      -5.087  -3.529  -5.675  0.00  0.00     0.003 A 
ENDROOT
TORSDOF 0
ENDMDL
