MODEL 1
REMARK minimizedAffinity 7.29385376
REMARK minimizedRMSD -1
REMARK  0 active torsions:
REMARK  status: ('A' for Active; 'I' for Inactive)
ROOT
ATOM      1  C4' PXY d   1       1.833  -4.266   2.216  0.00  0.00     0.077 C 
ATOM      2  C1' PXY d   1      -0.935   0.754   1.473  0.00  0.00     0.077 C 
ATOM      3  C1  PXY d   1      -0.201  -0.559   1.658  0.00  0.00    -0.082 A 
ATOM      4  C2  PXY d   1      -0.828  -1.588   2.206  0.00  0.00     0.003 A 
ATOM      5  C3  PXY d   1      -0.169  -2.773   2.410  0.00  0.00     0.003 A 
ATOM      6  C4  PXY d   1       1.128  -2.924   2.001  0.00  0.00    -0.082 A 
ATOM      7  C5  PXY d   1       1.772  -1.883   1.431  0.00  0.00     0.003 A 
ATOM      8  C6  PXY d   1       1.098  -0.675   1.271  0.00  0.00     0.003 A 
ENDROOT
TORSDOF 0
ENDMDL
