MODEL 1
REMARK minimizedAffinity 5.61518669
REMARK minimizedRMSD -1
REMARK  0 active torsions:
REMARK  status: ('A' for Active; 'I' for Inactive)
ROOT
ATOM      1  C4' PXY d   1      -5.262  -1.213  -0.719  0.00  0.00     0.077 C 
ATOM      2  C1' PXY d   1      -4.998   3.199  -4.445  0.00  0.00     0.077 C 
ATOM      3  C1  PXY d   1      -5.062   2.034  -3.477  0.00  0.00    -0.082 A 
ATOM      4  C2  PXY d   1      -5.949   2.047  -2.495  0.00  0.00     0.003 A 
ATOM      5  C3  PXY d   1      -5.999   1.017  -1.592  0.00  0.00     0.003 A 
ATOM      6  C4  PXY d   1      -5.168  -0.063  -1.726  0.00  0.00    -0.082 A 
ATOM      7  C5  PXY d   1      -4.267  -0.089  -2.731  0.00  0.00     0.003 A 
ATOM      8  C6  PXY d   1      -4.205   0.986  -3.613  0.00  0.00     0.003 A 
ENDROOT
TORSDOF 0
ENDMDL
