MODEL 1
REMARK minimizedAffinity 2.49050999
REMARK minimizedRMSD -1
REMARK  0 active torsions:
REMARK  status: ('A' for Active; 'I' for Inactive)
ROOT
ATOM      1  C4' PXY d   1       6.000  -2.948   6.000  0.00  0.00     0.077 C 
ATOM      2  C1' PXY d   1       1.391  -2.173   2.597  0.00  0.00     0.077 C 
ATOM      3  C1  PXY d   1       2.607  -2.381   3.479  0.00  0.00    -0.082 A 
ATOM      4  C2  PXY d   1       2.452  -2.500   4.788  0.00  0.00     0.003 A 
ATOM      5  C3  PXY d   1       3.543  -2.657   5.604  0.00  0.00     0.003 A 
ATOM      6  C4  PXY d   1       4.801  -2.746   5.069  0.00  0.00    -0.082 A 
ATOM      7  C5  PXY d   1       4.965  -2.636   3.734  0.00  0.00     0.003 A 
ATOM      8  C6  PXY d   1       3.849  -2.436   2.927  0.00  0.00     0.003 A 
ENDROOT
TORSDOF 0
ENDMDL
