MODEL 1
REMARK minimizedAffinity -4.29019547
REMARK minimizedRMSD -1
REMARK  0 active torsions:
REMARK  status: ('A' for Active; 'I' for Inactive)
ROOT
ATOM      1  C1  DEN d   1      -1.375  -0.149  -0.915  0.00  0.00     0.130 A 
ATOM      2  C2  DEN d   1      -0.203  -0.512  -1.708  0.00  0.00    -0.031 A 
ATOM      3  C3  DEN d   1       1.001  -0.193  -0.915  0.00  0.00     0.027 A 
ATOM      4  C4  DEN d   1       1.165   0.816   1.453  0.00  0.00     0.027 A 
ATOM      5  C5  DEN d   1       0.441   1.300   2.519  0.00  0.00    -0.003 A 
ATOM      6  C6  DEN d   1      -0.927   1.366   2.503  0.00  0.00     0.001 A 
ATOM      7  C7  DEN d   1      -1.616   0.899   1.415  0.00  0.00     0.017 A 
ATOM      8  C8  DEN d   1      -0.892   0.416   0.333  0.00  0.00    -0.094 A 
ATOM      9  C9  DEN d   1       0.490   0.347   0.373  0.00  0.00    -0.072 A 
ENDROOT
TORSDOF 0
ENDMDL
