MODEL 1
REMARK minimizedAffinity -3.48582029
REMARK minimizedRMSD -1
REMARK  0 active torsions:
REMARK  status: ('A' for Active; 'I' for Inactive)
ROOT
ATOM      1  C1  DEN d   1      -1.303   0.997   1.955  0.00  0.00     0.130 A 
ATOM      2  C2  DEN d   1      -0.317   1.387   2.959  0.00  0.00    -0.031 A 
ATOM      3  C3  DEN d   1       1.015   0.967   2.478  0.00  0.00     0.027 A 
ATOM      4  C4  DEN d   1       1.642  -0.238   0.286  0.00  0.00     0.027 A 
ATOM      5  C5  DEN d   1       1.145  -0.786  -0.876  0.00  0.00    -0.003 A 
ATOM      6  C6  DEN d   1      -0.195  -0.807  -1.158  0.00  0.00     0.001 A 
ATOM      7  C7  DEN d   1      -1.081  -0.231  -0.287  0.00  0.00     0.017 A 
ATOM      8  C8  DEN d   1      -0.588   0.316   0.891  0.00  0.00    -0.094 A 
ATOM      9  C9  DEN d   1       0.771   0.339   1.152  0.00  0.00    -0.072 A 
ENDROOT
TORSDOF 0
ENDMDL
