MODEL 1
REMARK minimizedAffinity -1.77551484
REMARK minimizedRMSD -1
REMARK  0 active torsions:
REMARK  status: ('A' for Active; 'I' for Inactive)
ROOT
ATOM      1  C1  DEN d   1       0.360   1.445   2.345  0.00  0.00     0.130 A 
ATOM      2  C2  DEN d   1      -0.784   1.089   3.181  0.00  0.00    -0.031 A 
ATOM      3  C3  DEN d   1      -1.653   0.184   2.402  0.00  0.00     0.027 A 
ATOM      4  C4  DEN d   1      -1.339  -0.700  -0.000  0.00  0.00     0.027 A 
ATOM      5  C5  DEN d   1      -0.526  -0.665  -1.112  0.00  0.00    -0.003 A 
ATOM      6  C6  DEN d   1       0.612   0.096  -1.161  0.00  0.00     0.001 A 
ATOM      7  C7  DEN d   1       0.993   0.819  -0.061  0.00  0.00     0.017 A 
ATOM      8  C8  DEN d   1       0.174   0.795   1.061  0.00  0.00    -0.094 A 
ATOM      9  C9  DEN d   1      -0.966   0.009   1.095  0.00  0.00    -0.072 A 
ENDROOT
TORSDOF 0
ENDMDL
