MODEL 1
REMARK minimizedAffinity -1.80939162
REMARK minimizedRMSD -1
REMARK  0 active torsions:
REMARK  status: ('A' for Active; 'I' for Inactive)
ROOT
ATOM      1  C1  DEN d   1       0.951   1.022   1.961  0.00  0.00     0.130 A 
ATOM      2  C2  DEN d   1      -0.226   1.454   2.710  0.00  0.00    -0.031 A 
ATOM      3  C3  DEN d   1      -1.422   1.143   1.901  0.00  0.00     0.027 A 
ATOM      4  C4  DEN d   1      -1.564   0.036  -0.424  0.00  0.00     0.027 A 
ATOM      5  C5  DEN d   1      -0.830  -0.494  -1.462  0.00  0.00    -0.003 A 
ATOM      6  C6  DEN d   1       0.540  -0.525  -1.447  0.00  0.00     0.001 A 
ATOM      7  C7  DEN d   1       1.217  -0.057  -0.352  0.00  0.00     0.017 A 
ATOM      8  C8  DEN d   1       0.483   0.486   0.695  0.00  0.00    -0.094 A 
ATOM      9  C9  DEN d   1      -0.901   0.496   0.666  0.00  0.00    -0.072 A 
ENDROOT
TORSDOF 0
ENDMDL
