MODEL 1
REMARK minimizedAffinity -2.96100807
REMARK minimizedRMSD -1
REMARK  0 active torsions:
REMARK  status: ('A' for Active; 'I' for Inactive)
ROOT
ATOM      1  C1  DEN d   1      -0.434  -0.502  -1.127  0.00  0.00     0.130 A 
ATOM      2  C2  DEN d   1       0.776  -1.171  -1.598  0.00  0.00    -0.031 A 
ATOM      3  C3  DEN d   1       1.847  -0.922  -0.613  0.00  0.00     0.027 A 
ATOM      4  C4  DEN d   1       1.749   0.423   1.586  0.00  0.00     0.027 A 
ATOM      5  C5  DEN d   1       0.941   1.183   2.402  0.00  0.00    -0.003 A 
ATOM      6  C6  DEN d   1      -0.362   1.461   2.084  0.00  0.00     0.001 A 
ATOM      7  C7  DEN d   1      -0.909   0.937   0.943  0.00  0.00     0.017 A 
ATOM      8  C8  DEN d   1      -0.098   0.176   0.111  0.00  0.00    -0.094 A 
ATOM      9  C9  DEN d   1       1.213  -0.104   0.456  0.00  0.00    -0.072 A 
ENDROOT
TORSDOF 0
ENDMDL
