MODEL 1
REMARK minimizedAffinity -3.32094526
REMARK minimizedRMSD -1
REMARK  0 active torsions:
REMARK  status: ('A' for Active; 'I' for Inactive)
ROOT
ATOM      1  C1  DEN d   1       1.430  -0.029  -0.335  0.00  0.00     0.130 A 
ATOM      2  C2  DEN d   1       0.981  -0.508  -1.639  0.00  0.00    -0.031 A 
ATOM      3  C3  DEN d   1      -0.494  -0.564  -1.622  0.00  0.00     0.027 A 
ATOM      4  C4  DEN d   1      -2.119   0.046   0.287  0.00  0.00     0.027 A 
ATOM      5  C5  DEN d   1      -2.206   0.490   1.588  0.00  0.00    -0.003 A 
ATOM      6  C6  DEN d   1      -1.096   0.757   2.344  0.00  0.00     0.001 A 
ATOM      7  C7  DEN d   1       0.150   0.626   1.790  0.00  0.00     0.017 A 
ATOM      8  C8  DEN d   1       0.247   0.172   0.481  0.00  0.00    -0.094 A 
ATOM      9  C9  DEN d   1      -0.888  -0.081  -0.271  0.00  0.00    -0.072 A 
ENDROOT
TORSDOF 0
ENDMDL
