MODEL 1
REMARK minimizedAffinity -3.99980021
REMARK minimizedRMSD -1
REMARK  0 active torsions:
REMARK  status: ('A' for Active; 'I' for Inactive)
ROOT
ATOM      1  C1  DEN d   1      -2.057   0.126   0.238  0.00  0.00     0.130 A 
ATOM      2  C2  DEN d   1      -2.427   0.617   1.563  0.00  0.00    -0.031 A 
ATOM      3  C3  DEN d   1      -1.231   0.549   2.426  0.00  0.00     0.027 A 
ATOM      4  C4  DEN d   1       1.148  -0.259   1.841  0.00  0.00     0.027 A 
ATOM      5  C5  DEN d   1       1.943  -0.779   0.844  0.00  0.00    -0.003 A 
ATOM      6  C6  DEN d   1       1.457  -1.064  -0.404  0.00  0.00     0.001 A 
ATOM      7  C7  DEN d   1       0.149  -0.787  -0.702  0.00  0.00     0.017 A 
ATOM      8  C8  DEN d   1      -0.661  -0.269   0.300  0.00  0.00    -0.094 A 
ATOM      9  C9  DEN d   1      -0.148   0.023   1.552  0.00  0.00    -0.072 A 
ENDROOT
TORSDOF 0
ENDMDL
