MODEL 1
REMARK minimizedAffinity 0.212193355
REMARK minimizedRMSD -1
REMARK  0 active torsions:
REMARK  status: ('A' for Active; 'I' for Inactive)
ROOT
ATOM      1  O1  BZF d   1      -0.467   0.821   1.224  0.00  0.00    -0.204 OA
ATOM      2  C2  BZF d   1      -0.797  -0.341   0.553  0.00  0.00     0.174 A 
ATOM      3  C3  BZF d   1       0.197  -0.711  -0.280  0.00  0.00    -0.012 A 
ATOM      4  C3A BZF d   1       1.250   0.231  -0.052  0.00  0.00    -0.107 A 
ATOM      5  C4  BZF d   1       2.504   0.380  -0.569  0.00  0.00     0.055 A 
ATOM      6  C5  BZF d   1       3.254   1.447  -0.187  0.00  0.00    -0.016 A 
ATOM      7  C6  BZF d   1       2.778   2.386   0.705  0.00  0.00     0.022 A 
ATOM      8  C7  BZF d   1       1.542   2.278   1.249  0.00  0.00     0.029 A 
ATOM      9  C7A BZF d   1       0.795   1.183   0.890  0.00  0.00     0.058 A 
ENDROOT
TORSDOF 0
ENDMDL
