MODEL 1
REMARK minimizedAffinity -4.06045103
REMARK minimizedRMSD -1
REMARK  0 active torsions:
REMARK  status: ('A' for Active; 'I' for Inactive)
ROOT
ATOM      1  O1  BZF d   1       2.087  -0.818   1.504  0.00  0.00    -0.204 OA
ATOM      2  C2  BZF d   1       1.914  -0.668   0.142  0.00  0.00     0.174 A 
ATOM      3  C3  BZF d   1       0.675  -0.213  -0.135  0.00  0.00    -0.012 A 
ATOM      4  C3A BZF d   1       0.065   0.019   1.138  0.00  0.00    -0.107 A 
ATOM      5  C4  BZF d   1      -1.159   0.488   1.521  0.00  0.00     0.055 A 
ATOM      6  C5  BZF d   1      -1.467   0.524   2.844  0.00  0.00    -0.016 A 
ATOM      7  C6  BZF d   1      -0.580   0.095   3.809  0.00  0.00     0.022 A 
ATOM      8  C7  BZF d   1       0.648  -0.374   3.478  0.00  0.00     0.029 A 
ATOM      9  C7A BZF d   1       0.975  -0.381   2.144  0.00  0.00     0.058 A 
ENDROOT
TORSDOF 0
ENDMDL
