MODEL 1
REMARK minimizedAffinity 6.31132174
REMARK minimizedRMSD -1
REMARK  0 active torsions:
REMARK  status: ('A' for Active; 'I' for Inactive)
ROOT
ATOM      1  O1  BZF d   1      -1.245   0.170  -0.123  0.00  0.00    -0.204 OA
ATOM      2  C2  BZF d   1      -2.619   0.311  -0.128  0.00  0.00     0.174 A 
ATOM      3  C3  BZF d   1      -3.135   0.010   1.082  0.00  0.00    -0.012 A 
ATOM      4  C3A BZF d   1      -2.004  -0.251   1.919  0.00  0.00    -0.107 A 
ATOM      5  C4  BZF d   1      -1.868  -0.588   3.235  0.00  0.00     0.055 A 
ATOM      6  C5  BZF d   1      -0.627  -0.845   3.726  0.00  0.00    -0.016 A 
ATOM      7  C6  BZF d   1       0.497  -0.780   2.929  0.00  0.00     0.022 A 
ATOM      8  C7  BZF d   1       0.413  -0.444   1.619  0.00  0.00     0.029 A 
ATOM      9  C7A BZF d   1      -0.836  -0.152   1.127  0.00  0.00     0.058 A 
ENDROOT
TORSDOF 0
ENDMDL
