MODEL 1
REMARK minimizedAffinity -3.06007385
REMARK minimizedRMSD -1
REMARK  0 active torsions:
REMARK  status: ('A' for Active; 'I' for Inactive)
ROOT
ATOM      1  O1  BZF d   1      -0.283   0.420  -0.109  0.00  0.00    -0.204 OA
ATOM      2  C2  BZF d   1      -0.992  -0.763  -0.021  0.00  0.00     0.174 A 
ATOM      3  C3  BZF d   1      -1.193  -1.105   1.268  0.00  0.00    -0.012 A 
ATOM      4  C3A BZF d   1      -0.652  -0.024   2.033  0.00  0.00    -0.107 A 
ATOM      5  C4  BZF d   1      -0.566   0.227   3.373  0.00  0.00     0.055 A 
ATOM      6  C5  BZF d   1       0.088   1.341   3.795  0.00  0.00    -0.016 A 
ATOM      7  C6  BZF d   1       0.672   2.221   2.907  0.00  0.00     0.022 A 
ATOM      8  C7  BZF d   1       0.608   2.017   1.569  0.00  0.00     0.029 A 
ATOM      9  C7A BZF d   1      -0.081   0.909   1.138  0.00  0.00     0.058 A 
ENDROOT
TORSDOF 0
ENDMDL
