MODEL 1
REMARK minimizedAffinity 6.343822
REMARK minimizedRMSD -1
REMARK  0 active torsions:
REMARK  status: ('A' for Active; 'I' for Inactive)
ROOT
ATOM      1  O1  BZF d   1      -0.766   0.134   4.390  0.00  0.00    -0.204 OA
ATOM      2  C2  BZF d   1       0.381  -0.575   4.688  0.00  0.00     0.174 A 
ATOM      3  C3  BZF d   1       0.878  -1.167   3.582  0.00  0.00    -0.012 A 
ATOM      4  C3A BZF d   1       0.038  -0.728   2.510  0.00  0.00    -0.107 A 
ATOM      5  C4  BZF d   1       0.034  -0.963   1.165  0.00  0.00     0.055 A 
ATOM      6  C5  BZF d   1      -0.967  -0.442   0.408  0.00  0.00    -0.016 A 
ATOM      7  C6  BZF d   1      -1.981   0.311   0.962  0.00  0.00     0.022 A 
ATOM      8  C7  BZF d   1      -2.016   0.575   2.291  0.00  0.00     0.029 A 
ATOM      9  C7A BZF d   1      -0.988   0.078   3.054  0.00  0.00     0.058 A 
ENDROOT
TORSDOF 0
ENDMDL
