MODEL 1
REMARK minimizedAffinity -0.2867845
REMARK minimizedRMSD -1
REMARK  0 active torsions:
REMARK  status: ('A' for Active; 'I' for Inactive)
ROOT
ATOM      1  O1  BZF d   1      -2.522   0.032   0.179  0.00  0.00    -0.204 OA
ATOM      2  C2  BZF d   1      -2.451   0.625   1.425  0.00  0.00     0.174 A 
ATOM      3  C3  BZF d   1      -1.227   0.456   1.966  0.00  0.00    -0.012 A 
ATOM      4  C3A BZF d   1      -0.459  -0.209   0.959  0.00  0.00    -0.107 A 
ATOM      5  C4  BZF d   1       0.837  -0.635   0.895  0.00  0.00     0.055 A 
ATOM      6  C5  BZF d   1       1.255  -1.316  -0.205  0.00  0.00    -0.016 A 
ATOM      7  C6  BZF d   1       0.404  -1.592  -1.255  0.00  0.00     0.022 A 
ATOM      8  C7  BZF d   1      -0.889  -1.185  -1.239  0.00  0.00     0.029 A 
ATOM      9  C7A BZF d   1      -1.306  -0.468  -0.144  0.00  0.00     0.058 A 
ENDROOT
TORSDOF 0
ENDMDL
