MODEL 1
REMARK minimizedAffinity 1.32184851
REMARK minimizedRMSD -1
REMARK  0 active torsions:
REMARK  status: ('A' for Active; 'I' for Inactive)
ROOT
ATOM      1  O1  BZF d   1      -0.008  -0.554   0.195  0.00  0.00    -0.204 OA
ATOM      2  C2  BZF d   1      -0.902   0.016  -0.691  0.00  0.00     0.174 A 
ATOM      3  C3  BZF d   1      -2.013   0.430  -0.049  0.00  0.00    -0.012 A 
ATOM      4  C3A BZF d   1      -1.762   0.183   1.337  0.00  0.00    -0.107 A 
ATOM      5  C4  BZF d   1      -2.486   0.396   2.475  0.00  0.00     0.055 A 
ATOM      6  C5  BZF d   1      -1.985  -0.026   3.666  0.00  0.00    -0.016 A 
ATOM      7  C6  BZF d   1      -0.767  -0.669   3.754  0.00  0.00     0.022 A 
ATOM      8  C7  BZF d   1      -0.011  -0.899   2.653  0.00  0.00     0.029 A 
ATOM      9  C7A BZF d   1      -0.499  -0.444   1.453  0.00  0.00     0.058 A 
ENDROOT
TORSDOF 0
ENDMDL
