MODEL 1
REMARK minimizedAffinity 2.35682225
REMARK minimizedRMSD -1
REMARK  0 active torsions:
REMARK  status: ('A' for Active; 'I' for Inactive)
ROOT
ATOM      1  O1  BZF d   1      -3.243  -0.158   1.514  0.00  0.00    -0.204 OA
ATOM      2  C2  BZF d   1      -2.574   0.205   2.667  0.00  0.00     0.174 A 
ATOM      3  C3  BZF d   1      -1.239   0.171   2.477  0.00  0.00    -0.012 A 
ATOM      4  C3A BZF d   1      -1.064  -0.150   1.094  0.00  0.00    -0.107 A 
ATOM      5  C4  BZF d   1       0.034  -0.312   0.299  0.00  0.00     0.055 A 
ATOM      6  C5  BZF d   1      -0.136  -0.696  -0.993  0.00  0.00    -0.016 A 
ATOM      7  C6  BZF d   1      -1.389  -0.932  -1.522  0.00  0.00     0.022 A 
ATOM      8  C7  BZF d   1      -2.508  -0.780  -0.774  0.00  0.00     0.029 A 
ATOM      9  C7A BZF d   1      -2.341  -0.360   0.523  0.00  0.00     0.058 A 
ENDROOT
TORSDOF 0
ENDMDL
