MODEL 1
REMARK minimizedAffinity 1.70336664
REMARK minimizedRMSD -1
REMARK  0 active torsions:
REMARK  status: ('A' for Active; 'I' for Inactive)
ROOT
ATOM      1  O1  BZF d   1       0.529  -0.722   0.826  0.00  0.00    -0.204 OA
ATOM      2  C2  BZF d   1      -0.282  -0.346  -0.227  0.00  0.00     0.174 A 
ATOM      3  C3  BZF d   1      -1.558  -0.195   0.182  0.00  0.00    -0.012 A 
ATOM      4  C3A BZF d   1      -1.527  -0.407   1.597  0.00  0.00    -0.107 A 
ATOM      5  C4  BZF d   1      -2.483  -0.377   2.572  0.00  0.00     0.055 A 
ATOM      6  C5  BZF d   1      -2.138  -0.701   3.845  0.00  0.00    -0.016 A 
ATOM      7  C6  BZF d   1      -0.850  -1.065   4.178  0.00  0.00     0.022 A 
ATOM      8  C7  BZF d   1       0.134  -1.104   3.247  0.00  0.00     0.029 A 
ATOM      9  C7A BZF d   1      -0.205  -0.745   1.965  0.00  0.00     0.058 A 
ENDROOT
TORSDOF 0
ENDMDL
