MODEL 1
REMARK minimizedAffinity -0.693002224
REMARK minimizedRMSD -1
REMARK  0 active torsions:
REMARK  status: ('A' for Active; 'I' for Inactive)
ROOT
ATOM      1  O1  BZF d   1       3.309   3.298   0.147  0.00  0.00    -0.204 OA
ATOM      2  C2  BZF d   1       2.839   2.649   1.272  0.00  0.00     0.174 A 
ATOM      3  C3  BZF d   1       2.859   1.312   1.097  0.00  0.00    -0.012 A 
ATOM      4  C3A BZF d   1       3.460   1.110  -0.186  0.00  0.00    -0.107 A 
ATOM      5  C4  BZF d   1       3.769  -0.004  -0.913  0.00  0.00     0.055 A 
ATOM      6  C5  BZF d   1       4.283   0.144  -2.162  0.00  0.00    -0.016 A 
ATOM      7  C6  BZF d   1       4.496   1.389  -2.716  0.00  0.00     0.022 A 
ATOM      8  C7  BZF d   1       4.209   2.523  -2.032  0.00  0.00     0.029 A 
ATOM      9  C7A BZF d   1       3.721   2.377  -0.757  0.00  0.00     0.058 A 
ENDROOT
TORSDOF 0
ENDMDL
