MODEL 1
REMARK minimizedAffinity 5.13554955
REMARK minimizedRMSD -1
REMARK  0 active torsions:
REMARK  status: ('A' for Active; 'I' for Inactive)
ROOT
ATOM      1  O1  BZF d   1      -2.715   1.234   1.811  0.00  0.00    -0.204 OA
ATOM      2  C2  BZF d   1      -1.585   1.666   2.477  0.00  0.00     0.174 A 
ATOM      3  C3  BZF d   1      -0.472   1.150   1.917  0.00  0.00    -0.012 A 
ATOM      4  C3A BZF d   1      -0.929   0.418   0.776  0.00  0.00    -0.107 A 
ATOM      5  C4  BZF d   1      -0.293  -0.305  -0.192  0.00  0.00     0.055 A 
ATOM      6  C5  BZF d   1      -1.037  -0.957  -1.124  0.00  0.00    -0.016 A 
ATOM      7  C6  BZF d   1      -2.415  -0.912  -1.115  0.00  0.00     0.022 A 
ATOM      8  C7  BZF d   1      -3.091  -0.203  -0.178  0.00  0.00     0.029 A 
ATOM      9  C7A BZF d   1      -2.341   0.483   0.746  0.00  0.00     0.058 A 
ENDROOT
TORSDOF 0
ENDMDL
