MODEL 1
REMARK minimizedAffinity -1.39315736
REMARK minimizedRMSD -1
REMARK  0 active torsions:
REMARK  status: ('A' for Active; 'I' for Inactive)
ROOT
ATOM      1  O1  BZF d   1      -2.019   0.011   2.323  0.00  0.00    -0.204 OA
ATOM      2  C2  BZF d   1      -1.140   0.011   3.389  0.00  0.00     0.174 A 
ATOM      3  C3  BZF d   1       0.073  -0.442   3.008  0.00  0.00    -0.012 A 
ATOM      4  C3A BZF d   1      -0.031  -0.656   1.597  0.00  0.00    -0.107 A 
ATOM      5  C4  BZF d   1       0.848  -1.086   0.646  0.00  0.00     0.055 A 
ATOM      6  C5  BZF d   1       0.411  -1.255  -0.630  0.00  0.00    -0.016 A 
ATOM      7  C6  BZF d   1      -0.898  -1.008  -0.987  0.00  0.00     0.022 A 
ATOM      8  C7  BZF d   1      -1.806  -0.575  -0.079  0.00  0.00     0.029 A 
ATOM      9  C7A BZF d   1      -1.359  -0.371   1.203  0.00  0.00     0.058 A 
ENDROOT
TORSDOF 0
ENDMDL
