MODEL 1
REMARK minimizedAffinity -3.98268557
REMARK minimizedRMSD -1
REMARK  0 active torsions:
REMARK  status: ('A' for Active; 'I' for Inactive)
ROOT
ATOM      1  C   UNL d   1       0.613  -0.413  -0.735  0.00  0.00     0.172 C 
ATOM      2  N   UNL d   1      -0.296   0.353   0.084  0.00  0.00    -0.070 N 
ATOM      3  C1  UNL d   1      -0.494   0.185   1.429  0.00  0.00    -0.004 A 
ATOM      4  C2  UNL d   1      -1.436   1.107   1.835  0.00  0.00    -0.047 A 
ATOM      5  C3  UNL d   1      -1.817   1.853   0.695  0.00  0.00    -0.047 A 
ATOM      6  C4  UNL d   1      -1.096   1.366  -0.375  0.00  0.00    -0.004 A 
ENDROOT
TORSDOF 0
ENDMDL
