MODEL 1
REMARK minimizedAffinity -3.86384201
REMARK minimizedRMSD -1
REMARK  0 active torsions:
REMARK  status: ('A' for Active; 'I' for Inactive)
ROOT
ATOM      1  C   UNL d   1       1.084   0.024  -0.567  0.00  0.00     0.172 C 
ATOM      2  N   UNL d   1       0.043   0.465   0.331  0.00  0.00    -0.070 N 
ATOM      3  C1  UNL d   1      -0.950   1.357   0.025  0.00  0.00    -0.004 A 
ATOM      4  C2  UNL d   1      -1.738   1.512   1.145  0.00  0.00    -0.047 A 
ATOM      5  C3  UNL d   1      -1.199   0.686   2.160  0.00  0.00    -0.047 A 
ATOM      6  C4  UNL d   1      -0.097   0.049   1.629  0.00  0.00    -0.004 A 
ENDROOT
TORSDOF 0
ENDMDL
