MODEL 1
REMARK minimizedAffinity -4.07498312
REMARK minimizedRMSD -1
REMARK  0 active torsions:
REMARK  status: ('A' for Active; 'I' for Inactive)
ROOT
ATOM      1  C   UNL d   1      -0.591   0.427  -0.012  0.00  0.00     0.172 C 
ATOM      2  N   UNL d   1      -0.621   1.861   0.150  0.00  0.00    -0.070 N 
ATOM      3  C1  UNL d   1      -1.290   2.540   1.134  0.00  0.00    -0.004 A 
ATOM      4  C2  UNL d   1      -1.069   3.886   0.942  0.00  0.00    -0.047 A 
ATOM      5  C3  UNL d   1      -0.240   4.022  -0.196  0.00  0.00    -0.047 A 
ATOM      6  C4  UNL d   1       0.023   2.753  -0.666  0.00  0.00    -0.004 A 
ENDROOT
TORSDOF 0
ENDMDL
