MODEL 1
REMARK minimizedAffinity -3.69409823
REMARK minimizedRMSD -1
REMARK  0 active torsions:
REMARK  status: ('A' for Active; 'I' for Inactive)
ROOT
ATOM      1  C   UNL d   1      -2.000   2.269   1.461  0.00  0.00     0.172 C 
ATOM      2  N   UNL d   1      -1.023   1.391   0.863  0.00  0.00    -0.070 N 
ATOM      3  C1  UNL d   1      -0.593   0.200   1.385  0.00  0.00    -0.004 A 
ATOM      4  C2  UNL d   1       0.336  -0.331   0.518  0.00  0.00    -0.047 A 
ATOM      5  C3  UNL d   1       0.471   0.572  -0.563  0.00  0.00    -0.047 A 
ATOM      6  C4  UNL d   1      -0.381   1.629  -0.324  0.00  0.00    -0.004 A 
ENDROOT
TORSDOF 0
ENDMDL
