MODEL 1
REMARK minimizedAffinity -1.96889663
REMARK minimizedRMSD -1
REMARK  0 active torsions:
REMARK  status: ('A' for Active; 'I' for Inactive)
ROOT
ATOM      1  C   UNL d   1      -1.128   1.692   2.296  0.00  0.00     0.172 C 
ATOM      2  N   UNL d   1      -0.469   0.860   1.317  0.00  0.00    -0.070 N 
ATOM      3  C1  UNL d   1       0.111   1.299   0.157  0.00  0.00    -0.004 A 
ATOM      4  C2  UNL d   1       0.628   0.202  -0.497  0.00  0.00    -0.047 A 
ATOM      5  C3  UNL d   1       0.348  -0.936   0.297  0.00  0.00    -0.047 A 
ATOM      6  C4  UNL d   1      -0.332  -0.500   1.414  0.00  0.00    -0.004 A 
ENDROOT
TORSDOF 0
ENDMDL
