MODEL 1
REMARK minimizedAffinity -3.90145135
REMARK minimizedRMSD -1
REMARK  0 active torsions:
REMARK  status: ('A' for Active; 'I' for Inactive)
ROOT
ATOM      1  C   UNL d   1       0.662   0.119   0.035  0.00  0.00     0.172 C 
ATOM      2  N   UNL d   1      -0.300   1.148   0.354  0.00  0.00    -0.070 N 
ATOM      3  C1  UNL d   1      -0.242   2.452  -0.062  0.00  0.00    -0.004 A 
ATOM      4  C2  UNL d   1      -1.339   3.108   0.452  0.00  0.00    -0.047 A 
ATOM      5  C3  UNL d   1      -2.082   2.167   1.203  0.00  0.00    -0.047 A 
ATOM      6  C4  UNL d   1      -1.416   0.962   1.125  0.00  0.00    -0.004 A 
ENDROOT
TORSDOF 0
ENDMDL
