MODEL 1
REMARK minimizedAffinity -3.53972387
REMARK minimizedRMSD -1
REMARK  0 active torsions:
REMARK  status: ('A' for Active; 'I' for Inactive)
ROOT
ATOM      1  C   UNL d   1       0.720  -0.455  -0.341  0.00  0.00     0.172 C 
ATOM      2  N   UNL d   1      -0.136   0.440   0.401  0.00  0.00    -0.070 N 
ATOM      3  C1  UNL d   1      -0.829   1.499  -0.123  0.00  0.00    -0.004 A 
ATOM      4  C2  UNL d   1      -1.523   2.099   0.905  0.00  0.00    -0.047 A 
ATOM      5  C3  UNL d   1      -1.237   1.376   2.088  0.00  0.00    -0.047 A 
ATOM      6  C4  UNL d   1      -0.376   0.355   1.747  0.00  0.00    -0.004 A 
ENDROOT
TORSDOF 0
ENDMDL
