MODEL 1
REMARK minimizedAffinity -1.32730687
REMARK minimizedRMSD -1
REMARK  0 active torsions:
REMARK  status: ('A' for Active; 'I' for Inactive)
ROOT
ATOM      1  C   UNL d   1      -1.038   1.979   2.067  0.00  0.00     0.172 C 
ATOM      2  N   UNL d   1      -0.304   1.135   1.155  0.00  0.00    -0.070 N 
ATOM      3  C1  UNL d   1      -0.198  -0.228   1.238  0.00  0.00    -0.004 A 
ATOM      4  C2  UNL d   1       0.583  -0.655   0.186  0.00  0.00    -0.047 A 
ATOM      5  C3  UNL d   1       0.961   0.490  -0.554  0.00  0.00    -0.047 A 
ATOM      6  C4  UNL d   1       0.399   1.585   0.068  0.00  0.00    -0.004 A 
ENDROOT
TORSDOF 0
ENDMDL
