MODEL 1
REMARK minimizedAffinity -1.71592557
REMARK minimizedRMSD -1
REMARK  0 active torsions:
REMARK  status: ('A' for Active; 'I' for Inactive)
ROOT
ATOM      1  C   UNL d   1       0.731  -0.990  -0.552  0.00  0.00     0.172 C 
ATOM      2  N   UNL d   1      -0.001  -0.103   0.321  0.00  0.00    -0.070 N 
ATOM      3  C1  UNL d   1      -0.844  -0.490   1.329  0.00  0.00    -0.004 A 
ATOM      4  C2  UNL d   1      -1.342   0.649   1.923  0.00  0.00    -0.047 A 
ATOM      5  C3  UNL d   1      -0.781   1.759   1.248  0.00  0.00    -0.047 A 
ATOM      6  C4  UNL d   1       0.046   1.265   0.261  0.00  0.00    -0.004 A 
ENDROOT
TORSDOF 0
ENDMDL
