MODEL 1
REMARK minimizedAffinity -4.19675016
REMARK minimizedRMSD -1
REMARK  0 active torsions:
REMARK  status: ('A' for Active; 'I' for Inactive)
ROOT
ATOM      1  C   UNL d   1       0.007  -0.269   1.240  0.00  0.00     0.172 C 
ATOM      2  N   UNL d   1      -0.626   0.974   0.867  0.00  0.00    -0.070 N 
ATOM      3  C1  UNL d   1      -0.479   1.616  -0.333  0.00  0.00    -0.004 A 
ATOM      4  C2  UNL d   1      -1.243   2.763  -0.295  0.00  0.00    -0.047 A 
ATOM      5  C3  UNL d   1      -1.871   2.811   0.973  0.00  0.00    -0.047 A 
ATOM      6  C4  UNL d   1      -1.471   1.692   1.672  0.00  0.00    -0.004 A 
ENDROOT
TORSDOF 0
ENDMDL
