MODEL 1
REMARK minimizedAffinity -3.82652211
REMARK minimizedRMSD -1
REMARK  0 active torsions:
REMARK  status: ('A' for Active; 'I' for Inactive)
ROOT
ATOM      1  C   UNL d   1       1.099   0.142  -0.331  0.00  0.00     0.172 C 
ATOM      2  N   UNL d   1       0.139   0.981   0.348  0.00  0.00    -0.070 N 
ATOM      3  C1  UNL d   1      -0.334   2.182  -0.108  0.00  0.00    -0.004 A 
ATOM      4  C2  UNL d   1      -1.228   2.664   0.823  0.00  0.00    -0.047 A 
ATOM      5  C3  UNL d   1      -1.294   1.721   1.876  0.00  0.00    -0.047 A 
ATOM      6  C4  UNL d   1      -0.437   0.688   1.556  0.00  0.00    -0.004 A 
ENDROOT
TORSDOF 0
ENDMDL
