MODEL 1
REMARK minimizedAffinity -3.14980054
REMARK minimizedRMSD -1
REMARK  0 active torsions:
REMARK  status: ('A' for Active; 'I' for Inactive)
ROOT
ATOM      1  C   UNL d   1      -0.239  -0.877   0.435  0.00  0.00     0.172 C 
ATOM      2  N   UNL d   1      -0.003  -1.824  -0.630  0.00  0.00    -0.070 N 
ATOM      3  C1  UNL d   1      -0.964  -2.383  -1.429  0.00  0.00    -0.004 A 
ATOM      4  C2  UNL d   1      -0.335  -3.229  -2.316  0.00  0.00    -0.047 A 
ATOM      5  C3  UNL d   1       1.052  -3.178  -2.040  0.00  0.00    -0.047 A 
ATOM      6  C4  UNL d   1       1.230  -2.300  -0.991  0.00  0.00    -0.004 A 
ENDROOT
TORSDOF 0
ENDMDL
