MODEL 1
REMARK minimizedAffinity -3.9836688
REMARK minimizedRMSD -1
REMARK  0 active torsions:
REMARK  status: ('A' for Active; 'I' for Inactive)
ROOT
ATOM      1  C   UNL d   1      -0.096  -0.170   1.447  0.00  0.00     0.172 C 
ATOM      2  N   UNL d   1      -0.579   1.079   0.908  0.00  0.00    -0.070 N 
ATOM      3  C1  UNL d   1      -1.556   1.863   1.461  0.00  0.00    -0.004 A 
ATOM      4  C2  UNL d   1      -1.726   2.963   0.649  0.00  0.00    -0.047 A 
ATOM      5  C3  UNL d   1      -0.820   2.836  -0.430  0.00  0.00    -0.047 A 
ATOM      6  C4  UNL d   1      -0.122   1.661  -0.245  0.00  0.00    -0.004 A 
ENDROOT
TORSDOF 0
ENDMDL
