MODEL 1
REMARK minimizedAffinity -1.97366405
REMARK minimizedRMSD -1
REMARK  0 active torsions:
REMARK  status: ('A' for Active; 'I' for Inactive)
ROOT
ATOM      1  C   UNL d   1       0.461  -2.522  -2.416  0.00  0.00     0.172 C 
ATOM      2  N   UNL d   1       0.303  -1.512  -1.397  0.00  0.00    -0.070 N 
ATOM      3  C1  UNL d   1      -0.861  -0.853  -1.100  0.00  0.00    -0.004 A 
ATOM      4  C2  UNL d   1      -0.597   0.026  -0.072  0.00  0.00    -0.047 A 
ATOM      5  C3  UNL d   1       0.772  -0.107   0.259  0.00  0.00    -0.047 A 
ATOM      6  C4  UNL d   1       1.305  -1.066  -0.576  0.00  0.00    -0.004 A 
ENDROOT
TORSDOF 0
ENDMDL
