MODEL 1
REMARK minimizedAffinity -3.27475786
REMARK minimizedRMSD -1
REMARK  0 active torsions:
REMARK  status: ('A' for Active; 'I' for Inactive)
ROOT
ATOM      1  C   UNL d   1      -0.079  -0.075  -0.077  0.00  0.00     0.172 C 
ATOM      2  N   UNL d   1      -0.682   1.193   0.262  0.00  0.00    -0.070 N 
ATOM      3  C1  UNL d   1      -0.584   2.345  -0.473  0.00  0.00    -0.004 A 
ATOM      4  C2  UNL d   1      -1.295   3.326   0.184  0.00  0.00    -0.047 A 
ATOM      5  C3  UNL d   1      -1.838   2.744   1.354  0.00  0.00    -0.047 A 
ATOM      6  C4  UNL d   1      -1.442   1.423   1.377  0.00  0.00    -0.004 A 
ENDROOT
TORSDOF 0
ENDMDL
