MODEL 1
REMARK minimizedAffinity -3.18231845
REMARK minimizedRMSD -1
REMARK  0 active torsions:
REMARK  status: ('A' for Active; 'I' for Inactive)
ROOT
ATOM      1  C   UNL d   1       0.330  -0.496  -0.522  0.00  0.00     0.172 C 
ATOM      2  N   UNL d   1      -0.255   0.515   0.326  0.00  0.00    -0.070 N 
ATOM      3  C1  UNL d   1      -0.336   1.851   0.035  0.00  0.00    -0.004 A 
ATOM      4  C2  UNL d   1      -0.961   2.476   1.093  0.00  0.00    -0.047 A 
ATOM      5  C3  UNL d   1      -1.265   1.481   2.053  0.00  0.00    -0.047 A 
ATOM      6  C4  UNL d   1      -0.817   0.277   1.552  0.00  0.00    -0.004 A 
ENDROOT
TORSDOF 0
ENDMDL
