MODEL 1
REMARK minimizedAffinity -3.30091357
REMARK minimizedRMSD -1
REMARK  0 active torsions:
REMARK  status: ('A' for Active; 'I' for Inactive)
ROOT
ATOM      1  C   UNL d   1       0.347   3.202  -0.783  0.00  0.00     0.172 C 
ATOM      2  N   UNL d   1      -0.274   2.252   0.110  0.00  0.00    -0.070 N 
ATOM      3  C1  UNL d   1      -0.162   0.889   0.029  0.00  0.00    -0.004 A 
ATOM      4  C2  UNL d   1      -0.898   0.344   1.059  0.00  0.00    -0.047 A 
ATOM      5  C3  UNL d   1      -1.472   1.415   1.783  0.00  0.00    -0.047 A 
ATOM      6  C4  UNL d   1      -1.070   2.585   1.174  0.00  0.00    -0.004 A 
ENDROOT
TORSDOF 0
ENDMDL
