MODEL 1
REMARK minimizedAffinity -2.87628388
REMARK minimizedRMSD -1
REMARK  0 active torsions:
REMARK  status: ('A' for Active; 'I' for Inactive)
ROOT
ATOM      1  C   UNL d   1       0.989  -0.571  -0.938  0.00  0.00     0.172 C 
ATOM      2  N   UNL d   1       0.807  -1.873  -1.537  0.00  0.00    -0.070 N 
ATOM      3  C1  UNL d   1      -0.141  -2.195  -2.472  0.00  0.00    -0.004 A 
ATOM      4  C2  UNL d   1       0.014  -3.528  -2.788  0.00  0.00    -0.047 A 
ATOM      5  C3  UNL d   1       1.092  -4.023  -2.015  0.00  0.00    -0.047 A 
ATOM      6  C4  UNL d   1       1.563  -2.978  -1.250  0.00  0.00    -0.004 A 
ENDROOT
TORSDOF 0
ENDMDL
