MODEL 1
REMARK minimizedAffinity 6.21635437
REMARK minimizedRMSD -1
REMARK  0 active torsions:
REMARK  status: ('A' for Active; 'I' for Inactive)
ROOT
ATOM      1  C1  BNZ d   1       3.578   2.352  -5.999  0.00  0.00     0.000 A 
ATOM      2  C2  BNZ d   1       4.837   2.890  -5.994  0.00  0.00     0.000 A 
ATOM      3  C3  BNZ d   1       5.942   2.085  -6.000  0.00  0.00     0.000 A 
ATOM      4  C4  BNZ d   1       5.787   0.746  -5.971  0.00  0.00     0.000 A 
ATOM      5  C5  BNZ d   1       4.523   0.188  -5.966  0.00  0.00     0.000 A 
ATOM      6  C6  BNZ d   1       3.414   1.001  -5.999  0.00  0.00     0.000 A 
ENDROOT
TORSDOF 0
ENDMDL
