MODEL 1
REMARK minimizedAffinity -1.40747321
REMARK minimizedRMSD -1
REMARK  0 active torsions:
REMARK  status: ('A' for Active; 'I' for Inactive)
ROOT
ATOM      1  C1  BNZ d   1       1.532   5.122  -4.099  0.00  0.00     0.000 A 
ATOM      2  C2  BNZ d   1       2.584   5.997  -4.105  0.00  0.00     0.000 A 
ATOM      3  C3  BNZ d   1       3.552   5.922  -5.067  0.00  0.00     0.000 A 
ATOM      4  C4  BNZ d   1       3.488   4.948  -5.997  0.00  0.00     0.000 A 
ATOM      5  C5  BNZ d   1       2.438   4.052  -6.000  0.00  0.00     0.000 A 
ATOM      6  C6  BNZ d   1       1.445   4.155  -5.053  0.00  0.00     0.000 A 
ENDROOT
TORSDOF 0
ENDMDL
