MODEL 1
REMARK minimizedAffinity -1.57505918
REMARK minimizedRMSD -1
REMARK  0 active torsions:
REMARK  status: ('A' for Active; 'I' for Inactive)
ROOT
ATOM      1  C1  BNZ d   1       2.693   3.111   0.532  0.00  0.00     0.000 A 
ATOM      2  C2  BNZ d   1       3.589   3.232  -0.497  0.00  0.00     0.000 A 
ATOM      3  C3  BNZ d   1       4.594   2.320  -0.659  0.00  0.00     0.000 A 
ATOM      4  C4  BNZ d   1       4.726   1.313   0.228  0.00  0.00     0.000 A 
ATOM      5  C5  BNZ d   1       3.836   1.184   1.276  0.00  0.00     0.000 A 
ATOM      6  C6  BNZ d   1       2.802   2.081   1.414  0.00  0.00     0.000 A 
ENDROOT
TORSDOF 0
ENDMDL
