MODEL 1
REMARK minimizedAffinity 3.5643909
REMARK minimizedRMSD -1
REMARK  0 active torsions:
REMARK  status: ('A' for Active; 'I' for Inactive)
ROOT
ATOM      1  C1  BNZ d   1       6.000   3.664   5.111  0.00  0.00     0.000 A 
ATOM      2  C2  BNZ d   1       5.986   4.746   5.950  0.00  0.00     0.000 A 
ATOM      3  C3  BNZ d   1       5.366   5.908   5.584  0.00  0.00     0.000 A 
ATOM      4  C4  BNZ d   1       4.796   6.000   4.366  0.00  0.00     0.000 A 
ATOM      5  C5  BNZ d   1       4.809   4.920   3.505  0.00  0.00     0.000 A 
ATOM      6  C6  BNZ d   1       5.400   3.740   3.892  0.00  0.00     0.000 A 
ENDROOT
TORSDOF 0
ENDMDL
