MODEL 1
REMARK minimizedAffinity 4.40784407
REMARK minimizedRMSD -1
REMARK  0 active torsions:
REMARK  status: ('A' for Active; 'I' for Inactive)
ROOT
ATOM      1  C1  BNZ d   1       0.715   0.016   3.392  0.00  0.00     0.000 A 
ATOM      2  C2  BNZ d   1       1.484   0.305   2.297  0.00  0.00     0.000 A 
ATOM      3  C3  BNZ d   1       2.805  -0.044   2.258  0.00  0.00     0.000 A 
ATOM      4  C4  BNZ d   1       3.365  -0.645   3.328  0.00  0.00     0.000 A 
ATOM      5  C5  BNZ d   1       2.604  -0.934   4.444  0.00  0.00     0.000 A 
ATOM      6  C6  BNZ d   1       1.266  -0.617   4.464  0.00  0.00     0.000 A 
ENDROOT
TORSDOF 0
ENDMDL
