MODEL 1
REMARK minimizedAffinity 1.35405099
REMARK minimizedRMSD -1
REMARK  0 active torsions:
REMARK  status: ('A' for Active; 'I' for Inactive)
ROOT
ATOM      1  C1  BNZ d   1      -2.763  -3.403  -5.999  0.00  0.00     0.000 A 
ATOM      2  C2  BNZ d   1      -2.028  -3.785  -4.909  0.00  0.00     0.000 A 
ATOM      3  C3  BNZ d   1      -2.629  -4.005  -3.701  0.00  0.00     0.000 A 
ATOM      4  C4  BNZ d   1      -3.957  -3.803  -3.576  0.00  0.00     0.000 A 
ATOM      5  C5  BNZ d   1      -4.710  -3.408  -4.663  0.00  0.00     0.000 A 
ATOM      6  C6  BNZ d   1      -4.107  -3.226  -5.887  0.00  0.00     0.000 A 
ENDROOT
TORSDOF 0
ENDMDL
