MODEL 1
REMARK minimizedAffinity -3.40632749
REMARK minimizedRMSD -1
REMARK  0 active torsions:
REMARK  status: ('A' for Active; 'I' for Inactive)
ROOT
ATOM      1  C1  BNZ d   1      -2.958  -3.914  -3.078  0.00  0.00     0.000 A 
ATOM      2  C2  BNZ d   1      -3.720  -4.222  -1.983  0.00  0.00     0.000 A 
ATOM      3  C3  BNZ d   1      -3.752  -3.394  -0.897  0.00  0.00     0.000 A 
ATOM      4  C4  BNZ d   1      -2.992  -2.280  -0.890  0.00  0.00     0.000 A 
ATOM      5  C5  BNZ d   1      -2.211  -1.960  -1.982  0.00  0.00     0.000 A 
ATOM      6  C6  BNZ d   1      -2.211  -2.776  -3.090  0.00  0.00     0.000 A 
ENDROOT
TORSDOF 0
ENDMDL
