MODEL 1
REMARK minimizedAffinity 1.26807904
REMARK minimizedRMSD -1
REMARK  0 active torsions:
REMARK  status: ('A' for Active; 'I' for Inactive)
ROOT
ATOM      1  C1  BNZ d   1      -0.641  -1.974   0.313  0.00  0.00     0.000 A 
ATOM      2  C2  BNZ d   1      -1.962  -2.071  -0.037  0.00  0.00     0.000 A 
ATOM      3  C3  BNZ d   1      -2.392  -1.658  -1.267  0.00  0.00     0.000 A 
ATOM      4  C4  BNZ d   1      -1.510  -1.113  -2.129  0.00  0.00     0.000 A 
ATOM      5  C5  BNZ d   1      -0.177  -1.000  -1.788  0.00  0.00     0.000 A 
ATOM      6  C6  BNZ d   1       0.259  -1.452  -0.564  0.00  0.00     0.000 A 
ENDROOT
TORSDOF 0
ENDMDL
