MODEL 1
REMARK minimizedAffinity 7.08889866
REMARK minimizedRMSD -1
REMARK  0 active torsions:
REMARK  status: ('A' for Active; 'I' for Inactive)
ROOT
ATOM      1  C1  BNZ d   1       3.263   3.662  -5.996  0.00  0.00     0.000 A 
ATOM      2  C2  BNZ d   1       1.906   3.476  -5.994  0.00  0.00     0.000 A 
ATOM      3  C3  BNZ d   1       1.053   4.544  -6.000  0.00  0.00     0.000 A 
ATOM      4  C4  BNZ d   1       1.557   5.795  -5.967  0.00  0.00     0.000 A 
ATOM      5  C5  BNZ d   1       2.922   5.999  -5.960  0.00  0.00     0.000 A 
ATOM      6  C6  BNZ d   1       3.778   4.921  -5.993  0.00  0.00     0.000 A 
ENDROOT
TORSDOF 0
ENDMDL
