MODEL 1
REMARK minimizedAffinity 12.580143
REMARK minimizedRMSD -1
REMARK  0 active torsions:
REMARK  status: ('A' for Active; 'I' for Inactive)
ROOT
ATOM      1  C1  BNZ d   1       2.983   4.967  -6.000  0.00  0.00     0.000 A 
ATOM      2  C2  BNZ d   1       2.883   5.984  -5.088  0.00  0.00     0.000 A 
ATOM      3  C3  BNZ d   1       1.877   5.999  -4.164  0.00  0.00     0.000 A 
ATOM      4  C4  BNZ d   1       0.949   5.020  -4.177  0.00  0.00     0.000 A 
ATOM      5  C5  BNZ d   1       1.030   3.993  -5.096  0.00  0.00     0.000 A 
ATOM      6  C6  BNZ d   1       2.067   3.960  -6.000  0.00  0.00     0.000 A 
ENDROOT
TORSDOF 0
ENDMDL
