MODEL 1
REMARK minimizedAffinity -1.01984704
REMARK minimizedRMSD -1
REMARK  0 active torsions:
REMARK  status: ('A' for Active; 'I' for Inactive)
ROOT
ATOM      1  C1  BNZ d   1      -2.906  -4.287  -2.123  0.00  0.00     0.000 A 
ATOM      2  C2  BNZ d   1      -4.175  -4.752  -1.903  0.00  0.00     0.000 A 
ATOM      3  C3  BNZ d   1      -4.954  -4.220  -0.913  0.00  0.00     0.000 A 
ATOM      4  C4  BNZ d   1      -4.448  -3.254  -0.119  0.00  0.00     0.000 A 
ATOM      5  C5  BNZ d   1      -3.167  -2.782  -0.322  0.00  0.00     0.000 A 
ATOM      6  C6  BNZ d   1      -2.400  -3.292  -1.344  0.00  0.00     0.000 A 
ENDROOT
TORSDOF 0
ENDMDL
