MODEL 1
REMARK minimizedAffinity -0.141640157
REMARK minimizedRMSD -1
REMARK  0 active torsions:
REMARK  status: ('A' for Active; 'I' for Inactive)
ROOT
ATOM      1  C1  BNZ d   1       3.398   5.599  -5.247  0.00  0.00     0.000 A 
ATOM      2  C2  BNZ d   1       3.607   4.283  -4.932  0.00  0.00     0.000 A 
ATOM      3  C3  BNZ d   1       2.642   3.345  -5.171  0.00  0.00     0.000 A 
ATOM      4  C4  BNZ d   1       1.456   3.729  -5.686  0.00  0.00     0.000 A 
ATOM      5  C5  BNZ d   1       1.227   5.054  -6.000  0.00  0.00     0.000 A 
ATOM      6  C6  BNZ d   1       2.215   5.989  -5.795  0.00  0.00     0.000 A 
ENDROOT
TORSDOF 0
ENDMDL
