MODEL 1
REMARK minimizedAffinity 6.48846197
REMARK minimizedRMSD -1
REMARK  0 active torsions:
REMARK  status: ('A' for Active; 'I' for Inactive)
ROOT
ATOM      1  C1  BNZ d   1       0.089  -2.800   0.035  0.00  0.00     0.000 A 
ATOM      2  C2  BNZ d   1      -0.549  -3.441  -0.994  0.00  0.00     0.000 A 
ATOM      3  C3  BNZ d   1      -1.812  -3.076  -1.369  0.00  0.00     0.000 A 
ATOM      4  C4  BNZ d   1      -2.450  -2.101  -0.690  0.00  0.00     0.000 A 
ATOM      5  C5  BNZ d   1      -1.823  -1.452   0.355  0.00  0.00     0.000 A 
ATOM      6  C6  BNZ d   1      -0.537  -1.795   0.705  0.00  0.00     0.000 A 
ENDROOT
TORSDOF 0
ENDMDL
