MODEL 1
REMARK minimizedAffinity 2.01427507
REMARK minimizedRMSD -1
REMARK  0 active torsions:
REMARK  status: ('A' for Active; 'I' for Inactive)
ROOT
ATOM      1  C1  BNZ d   1      -2.797  -2.372  -0.890  0.00  0.00     0.000 A 
ATOM      2  C2  BNZ d   1      -1.744  -2.856  -1.618  0.00  0.00     0.000 A 
ATOM      3  C3  BNZ d   1      -0.495  -2.946  -1.068  0.00  0.00     0.000 A 
ATOM      4  C4  BNZ d   1      -0.294  -2.515   0.194  0.00  0.00     0.000 A 
ATOM      5  C5  BNZ d   1      -1.345  -2.016   0.938  0.00  0.00     0.000 A 
ATOM      6  C6  BNZ d   1      -2.608  -1.964   0.394  0.00  0.00     0.000 A 
ENDROOT
TORSDOF 0
ENDMDL
