MODEL 1
REMARK minimizedAffinity -2.01408315
REMARK minimizedRMSD -1
REMARK  0 active torsions:
REMARK  status: ('A' for Active; 'I' for Inactive)
ROOT
ATOM      1  C1  BNZ d   1       4.339   3.817  -5.351  0.00  0.00     0.000 A 
ATOM      2  C2  BNZ d   1       3.131   3.838  -5.995  0.00  0.00     0.000 A 
ATOM      3  C3  BNZ d   1       2.321   4.937  -5.929  0.00  0.00     0.000 A 
ATOM      4  C4  BNZ d   1       2.702   5.997  -5.187  0.00  0.00     0.000 A 
ATOM      5  C5  BNZ d   1       3.913   5.988  -4.525  0.00  0.00     0.000 A 
ATOM      6  C6  BNZ d   1       4.743   4.895  -4.625  0.00  0.00     0.000 A 
ENDROOT
TORSDOF 0
ENDMDL
