MODEL 1
REMARK minimizedAffinity 7.54742432
REMARK minimizedRMSD -1
REMARK  0 active torsions:
REMARK  status: ('A' for Active; 'I' for Inactive)
ROOT
ATOM      1  C1  BNZ d   1       5.990   3.798   4.379  0.00  0.00     0.000 A 
ATOM      2  C2  BNZ d   1       5.207   3.908   3.261  0.00  0.00     0.000 A 
ATOM      3  C3  BNZ d   1       4.434   5.016   3.054  0.00  0.00     0.000 A 
ATOM      4  C4  BNZ d   1       4.414   5.993   3.984  0.00  0.00     0.000 A 
ATOM      5  C5  BNZ d   1       5.191   5.892   5.121  0.00  0.00     0.000 A 
ATOM      6  C6  BNZ d   1       5.998   4.793   5.307  0.00  0.00     0.000 A 
ENDROOT
TORSDOF 0
ENDMDL
