MODEL 1
REMARK minimizedAffinity 0.950160384
REMARK minimizedRMSD -1
REMARK  0 active torsions:
REMARK  status: ('A' for Active; 'I' for Inactive)
ROOT
ATOM      1  C1  BNZ d   1      -2.822  -3.096  -3.760  0.00  0.00     0.000 A 
ATOM      2  C2  BNZ d   1      -1.936  -2.389  -2.992  0.00  0.00     0.000 A 
ATOM      3  C3  BNZ d   1      -2.314  -1.868  -1.786  0.00  0.00     0.000 A 
ATOM      4  C4  BNZ d   1      -3.588  -2.021  -1.369  0.00  0.00     0.000 A 
ATOM      5  C5  BNZ d   1      -4.496  -2.723  -2.136  0.00  0.00     0.000 A 
ATOM      6  C6  BNZ d   1      -4.101  -3.279  -3.331  0.00  0.00     0.000 A 
ENDROOT
TORSDOF 0
ENDMDL
