MODEL 1
REMARK minimizedAffinity 24.5607185
REMARK minimizedRMSD -1
REMARK  0 active torsions:
REMARK  status: ('A' for Active; 'I' for Inactive)
ROOT
ATOM      1  C   UNL d   1       1.372   1.848  -1.585  0.00  0.00     0.124 A 
ATOM      2  C1  UNL d   1       1.678   1.275  -0.358  0.00  0.00     0.062 A 
ATOM      3  C2  UNL d   1       2.876   1.583   0.279  0.00  0.00     0.162 A 
ATOM      4  C3  UNL d   1       3.778   2.470  -0.309  0.00  0.00    -0.034 A 
ATOM      5  C4  UNL d   1       3.465   3.042  -1.543  0.00  0.00     0.162 A 
ATOM      6  C5  UNL d   1       2.266   2.730  -2.176  0.00  0.00     0.062 A 
ATOM      7  F   UNL d   1       1.972   3.285  -3.361  0.00  0.00    -0.097 F 
ATOM      8  F1  UNL d   1       4.309   3.898  -2.137  0.00  0.00    -0.096 F 
ATOM      9  I   UNL d   1       5.572   2.933   0.641  0.00  0.00    -0.060 I 
ATOM     10  F2  UNL d   1       3.146   1.015   1.464  0.00  0.00    -0.096 F 
ATOM     11  F3  UNL d   1       0.817   0.422   0.215  0.00  0.00    -0.097 F 
ATOM     12  F4  UNL d   1       0.219   1.549  -2.196  0.00  0.00    -0.092 F 
ENDROOT
TORSDOF 0
ENDMDL
