MODEL 1
REMARK minimizedAffinity 27.664999
REMARK minimizedRMSD -1
REMARK  0 active torsions:
REMARK  status: ('A' for Active; 'I' for Inactive)
ROOT
ATOM      1  C   UNL d   1       4.942   3.902   0.255  0.00  0.00     0.124 A 
ATOM      2  C1  UNL d   1       5.380   4.949  -0.544  0.00  0.00     0.062 A 
ATOM      3  C2  UNL d   1       5.179   4.911  -1.921  0.00  0.00     0.162 A 
ATOM      4  C3  UNL d   1       4.535   3.822  -2.508  0.00  0.00    -0.034 A 
ATOM      5  C4  UNL d   1       4.097   2.772  -1.698  0.00  0.00     0.162 A 
ATOM      6  C5  UNL d   1       4.301   2.815  -0.323  0.00  0.00     0.062 A 
ATOM      7  F   UNL d   1       3.877   1.802   0.447  0.00  0.00    -0.097 F 
ATOM      8  F1  UNL d   1       3.475   1.710  -2.230  0.00  0.00    -0.096 F 
ATOM      9  I   UNL d   1       4.232   3.761  -4.566  0.00  0.00    -0.060 I 
ATOM     10  F2  UNL d   1       5.612   5.937  -2.668  0.00  0.00    -0.096 F 
ATOM     11  F3  UNL d   1       6.000   6.000   0.012  0.00  0.00    -0.097 F 
ATOM     12  F4  UNL d   1       5.138   3.940   1.579  0.00  0.00    -0.092 F 
ENDROOT
TORSDOF 0
ENDMDL
