MODEL 1
REMARK minimizedAffinity 17.0841351
REMARK minimizedRMSD -1
REMARK  0 active torsions:
REMARK  status: ('A' for Active; 'I' for Inactive)
ROOT
ATOM      1  C   UNL d   1      -0.279   5.789  -1.810  0.00  0.00     0.124 A 
ATOM      2  C1  UNL d   1      -1.664   5.696  -1.818  0.00  0.00     0.062 A 
ATOM      3  C2  UNL d   1      -2.344   5.479  -3.013  0.00  0.00     0.162 A 
ATOM      4  C3  UNL d   1      -1.640   5.353  -4.210  0.00  0.00    -0.034 A 
ATOM      5  C4  UNL d   1      -0.247   5.448  -4.195  0.00  0.00     0.162 A 
ATOM      6  C5  UNL d   1       0.428   5.665  -2.998  0.00  0.00     0.062 A 
ATOM      7  F   UNL d   1       1.766   5.754  -2.992  0.00  0.00    -0.097 F 
ATOM      8  F1  UNL d   1       0.461   5.331  -5.328  0.00  0.00    -0.096 F 
ATOM      9  I   UNL d   1      -2.653   5.028  -5.999  0.00  0.00    -0.060 I 
ATOM     10  F2  UNL d   1      -3.682   5.394  -2.991  0.00  0.00    -0.096 F 
ATOM     11  F3  UNL d   1      -2.349   5.817  -0.672  0.00  0.00    -0.097 F 
ATOM     12  F4  UNL d   1       0.373   5.999  -0.659  0.00  0.00    -0.092 F 
ENDROOT
TORSDOF 0
ENDMDL
