MODEL 1
REMARK minimizedAffinity 22.3631058
REMARK minimizedRMSD -1
REMARK  0 active torsions:
REMARK  status: ('A' for Active; 'I' for Inactive)
ROOT
ATOM      1  C   UNL d   1      -2.446   5.712  -3.208  0.00  0.00     0.124 A 
ATOM      2  C1  UNL d   1      -1.664   5.673  -4.354  0.00  0.00     0.062 A 
ATOM      3  C2  UNL d   1      -0.296   5.436  -4.259  0.00  0.00     0.162 A 
ATOM      4  C3  UNL d   1       0.300   5.235  -3.014  0.00  0.00    -0.034 A 
ATOM      5  C4  UNL d   1      -0.494   5.277  -1.866  0.00  0.00     0.162 A 
ATOM      6  C5  UNL d   1      -1.861   5.514  -1.966  0.00  0.00     0.062 A 
ATOM      7  F   UNL d   1      -2.615   5.551  -0.857  0.00  0.00    -0.097 F 
ATOM      8  F1  UNL d   1       0.046   5.088  -0.653  0.00  0.00    -0.096 F 
ATOM      9  I   UNL d   1       2.345   4.880  -2.869  0.00  0.00    -0.060 I 
ATOM     10  F2  UNL d   1       0.436   5.403  -5.383  0.00  0.00    -0.096 F 
ATOM     11  F3  UNL d   1      -2.227   5.865  -5.555  0.00  0.00    -0.097 F 
ATOM     12  F4  UNL d   1      -3.762   5.941  -3.302  0.00  0.00    -0.092 F 
ENDROOT
TORSDOF 0
ENDMDL
