MODEL 1
REMARK minimizedAffinity 31.1296997
REMARK minimizedRMSD -1
REMARK  0 active torsions:
REMARK  status: ('A' for Active; 'I' for Inactive)
ROOT
ATOM      1  C   UNL d   1      -3.278   5.600  -3.107  0.00  0.00     0.124 A 
ATOM      2  C1  UNL d   1      -2.714   5.466  -1.846  0.00  0.00     0.062 A 
ATOM      3  C2  UNL d   1      -1.337   5.316  -1.708  0.00  0.00     0.162 A 
ATOM      4  C3  UNL d   1      -0.514   5.300  -2.835  0.00  0.00    -0.034 A 
ATOM      5  C4  UNL d   1      -1.090   5.434  -4.100  0.00  0.00     0.162 A 
ATOM      6  C5  UNL d   1      -2.466   5.584  -4.232  0.00  0.00     0.062 A 
ATOM      7  F   UNL d   1      -3.010   5.713  -5.451  0.00  0.00    -0.097 F 
ATOM      8  F1  UNL d   1      -0.328   5.423  -5.204  0.00  0.00    -0.096 F 
ATOM      9  I   UNL d   1       1.545   5.075  -2.633  0.00  0.00    -0.060 I 
ATOM     10  F2  UNL d   1      -0.818   5.188  -0.478  0.00  0.00    -0.096 F 
ATOM     11  F3  UNL d   1      -3.496   5.480  -0.757  0.00  0.00    -0.097 F 
ATOM     12  F4  UNL d   1      -4.604   5.743  -3.236  0.00  0.00    -0.092 F 
ENDROOT
TORSDOF 0
ENDMDL
