MODEL 1
REMARK minimizedAffinity 24.6030388
REMARK minimizedRMSD -1
REMARK  0 active torsions:
REMARK  status: ('A' for Active; 'I' for Inactive)
ROOT
ATOM      1  C   UNL d   1      -0.569  -0.666   3.835  0.00  0.00     0.124 A 
ATOM      2  C1  UNL d   1       0.297  -1.700   3.507  0.00  0.00     0.062 A 
ATOM      3  C2  UNL d   1      -0.013  -2.568   2.464  0.00  0.00     0.162 A 
ATOM      4  C3  UNL d   1      -1.194  -2.405   1.739  0.00  0.00    -0.034 A 
ATOM      5  C4  UNL d   1      -2.059  -1.362   2.075  0.00  0.00     0.162 A 
ATOM      6  C5  UNL d   1      -1.745  -0.498   3.119  0.00  0.00     0.062 A 
ATOM      7  F   UNL d   1      -2.583   0.501   3.434  0.00  0.00    -0.097 F 
ATOM      8  F1  UNL d   1      -3.203  -1.176   1.399  0.00  0.00    -0.096 F 
ATOM      9  I   UNL d   1      -1.660  -3.700   0.178  0.00  0.00    -0.060 I 
ATOM     10  F2  UNL d   1       0.842  -3.559   2.169  0.00  0.00    -0.096 F 
ATOM     11  F3  UNL d   1       1.434  -1.866   4.198  0.00  0.00    -0.097 F 
ATOM     12  F4  UNL d   1      -0.269   0.167   4.840  0.00  0.00    -0.092 F 
ENDROOT
TORSDOF 0
ENDMDL
