MODEL 1
REMARK minimizedAffinity 14.2536669
REMARK minimizedRMSD -1
REMARK  0 active torsions:
REMARK  status: ('A' for Active; 'I' for Inactive)
ROOT
ATOM      1  C   UNL d   1       2.176   2.283  -2.283  0.00  0.00     0.124 A 
ATOM      2  C1  UNL d   1       2.371   1.807  -0.994  0.00  0.00     0.062 A 
ATOM      3  C2  UNL d   1       3.462   2.239  -0.246  0.00  0.00     0.162 A 
ATOM      4  C3  UNL d   1       4.367   3.154  -0.784  0.00  0.00    -0.034 A 
ATOM      5  C4  UNL d   1       4.165   3.628  -2.081  0.00  0.00     0.162 A 
ATOM      6  C5  UNL d   1       3.073   3.193  -2.825  0.00  0.00     0.062 A 
ATOM      7  F   UNL d   1       2.886   3.655  -4.070  0.00  0.00    -0.097 F 
ATOM      8  F1  UNL d   1       5.015   4.508  -2.630  0.00  0.00    -0.096 F 
ATOM      9  I   UNL d   1       6.000   3.802   0.332  0.00  0.00    -0.060 I 
ATOM     10  F2  UNL d   1       3.626   1.761   0.997  0.00  0.00    -0.096 F 
ATOM     11  F3  UNL d   1       1.507   0.927  -0.468  0.00  0.00    -0.097 F 
ATOM     12  F4  UNL d   1       1.126   1.865  -3.001  0.00  0.00    -0.092 F 
ENDROOT
TORSDOF 0
ENDMDL
