MODEL 1
REMARK minimizedAffinity 18.5703526
REMARK minimizedRMSD -1
REMARK  0 active torsions:
REMARK  status: ('A' for Active; 'I' for Inactive)
ROOT
ATOM      1  C   UNL d   1      -2.753  -0.686   1.238  0.00  0.00     0.124 A 
ATOM      2  C1  UNL d   1      -2.093  -0.334   2.407  0.00  0.00     0.062 A 
ATOM      3  C2  UNL d   1      -2.676   0.563   3.298  0.00  0.00     0.162 A 
ATOM      4  C3  UNL d   1      -3.928   1.114   3.023  0.00  0.00    -0.034 A 
ATOM      5  C4  UNL d   1      -4.585   0.756   1.845  0.00  0.00     0.162 A 
ATOM      6  C5  UNL d   1      -3.998  -0.141   0.958  0.00  0.00     0.062 A 
ATOM      7  F   UNL d   1      -4.638  -0.480  -0.171  0.00  0.00    -0.097 F 
ATOM      8  F1  UNL d   1      -5.790   1.266   1.550  0.00  0.00    -0.096 F 
ATOM      9  I   UNL d   1      -4.803   2.456   4.352  0.00  0.00    -0.060 I 
ATOM     10  F2  UNL d   1      -2.015   0.885   4.419  0.00  0.00    -0.096 F 
ATOM     11  F3  UNL d   1      -0.889  -0.859   2.680  0.00  0.00    -0.097 F 
ATOM     12  F4  UNL d   1      -2.190  -1.549   0.383  0.00  0.00    -0.092 F 
ENDROOT
TORSDOF 0
ENDMDL
