MODEL 1
REMARK minimizedAffinity 25.8148251
REMARK minimizedRMSD -1
REMARK  0 active torsions:
REMARK  status: ('A' for Active; 'I' for Inactive)
ROOT
ATOM      1  C   UNL d   1      -2.249   0.615   3.352  0.00  0.00     0.124 A 
ATOM      2  C1  UNL d   1      -3.435   1.337   3.330  0.00  0.00     0.062 A 
ATOM      3  C2  UNL d   1      -4.387   1.088   2.346  0.00  0.00     0.162 A 
ATOM      4  C3  UNL d   1      -4.159   0.111   1.377  0.00  0.00    -0.034 A 
ATOM      5  C4  UNL d   1      -2.964  -0.610   1.405  0.00  0.00     0.162 A 
ATOM      6  C5  UNL d   1      -2.015  -0.357   2.390  0.00  0.00     0.062 A 
ATOM      7  F   UNL d   1      -0.870  -1.055   2.410  0.00  0.00    -0.097 F 
ATOM      8  F1  UNL d   1      -2.712  -1.555   0.488  0.00  0.00    -0.096 F 
ATOM      9  I   UNL d   1      -5.581  -0.264  -0.096  0.00  0.00    -0.060 I 
ATOM     10  F2  UNL d   1      -5.524   1.800   2.349  0.00  0.00    -0.096 F 
ATOM     11  F3  UNL d   1      -3.663   2.277   4.258  0.00  0.00    -0.097 F 
ATOM     12  F4  UNL d   1      -1.334   0.858   4.299  0.00  0.00    -0.092 F 
ENDROOT
TORSDOF 0
ENDMDL
