MODEL 1
REMARK minimizedAffinity 4.64574385
REMARK minimizedRMSD -1
REMARK  0 active torsions:
REMARK  status: ('A' for Active; 'I' for Inactive)
ROOT
ATOM      1  C   UNL d   1      -2.805  -0.683   1.438  0.00  0.00     0.124 A 
ATOM      2  C1  UNL d   1      -2.010  -0.390   2.537  0.00  0.00     0.062 A 
ATOM      3  C2  UNL d   1      -2.545   0.291   3.627  0.00  0.00     0.162 A 
ATOM      4  C3  UNL d   1      -3.883   0.683   3.624  0.00  0.00    -0.034 A 
ATOM      5  C4  UNL d   1      -4.677   0.386   2.514  0.00  0.00     0.162 A 
ATOM      6  C5  UNL d   1      -4.137  -0.294   1.427  0.00  0.00     0.062 A 
ATOM      7  F   UNL d   1      -4.907  -0.576   0.366  0.00  0.00    -0.097 F 
ATOM      8  F1  UNL d   1      -5.968   0.749   2.478  0.00  0.00    -0.096 F 
ATOM      9  I   UNL d   1      -4.687   1.701   5.251  0.00  0.00    -0.060 I 
ATOM     10  F2  UNL d   1      -1.753   0.560   4.676  0.00  0.00    -0.096 F 
ATOM     11  F3  UNL d   1      -0.722  -0.764   2.549  0.00  0.00    -0.097 F 
ATOM     12  F4  UNL d   1      -2.288  -1.337   0.390  0.00  0.00    -0.092 F 
ENDROOT
TORSDOF 0
ENDMDL
