MODEL 1
REMARK minimizedAffinity 20.0940685
REMARK minimizedRMSD -1
REMARK  0 active torsions:
REMARK  status: ('A' for Active; 'I' for Inactive)
ROOT
ATOM      1  C   UNL d   1      -1.881  -0.367   2.901  0.00  0.00     0.124 A 
ATOM      2  C1  UNL d   1      -2.810  -0.144   1.894  0.00  0.00     0.062 A 
ATOM      3  C2  UNL d   1      -3.987   0.547   2.168  0.00  0.00     0.162 A 
ATOM      4  C3  UNL d   1      -4.241   1.021   3.455  0.00  0.00    -0.034 A 
ATOM      5  C4  UNL d   1      -3.303   0.792   4.462  0.00  0.00     0.162 A 
ATOM      6  C5  UNL d   1      -2.128   0.101   4.184  0.00  0.00     0.062 A 
ATOM      7  F   UNL d   1      -1.232  -0.114   5.158  0.00  0.00    -0.097 F 
ATOM      8  F1  UNL d   1      -3.515   1.234   5.711  0.00  0.00    -0.096 F 
ATOM      9  I   UNL d   1      -6.000   2.055   3.868  0.00  0.00    -0.060 I 
ATOM     10  F2  UNL d   1      -4.867   0.748   1.176  0.00  0.00    -0.096 F 
ATOM     11  F3  UNL d   1      -2.574  -0.596   0.654  0.00  0.00    -0.097 F 
ATOM     12  F4  UNL d   1      -0.750  -1.033   2.635  0.00  0.00    -0.092 F 
ENDROOT
TORSDOF 0
ENDMDL
