MODEL 1
REMARK minimizedAffinity 18.7708015
REMARK minimizedRMSD -1
REMARK  0 active torsions:
REMARK  status: ('A' for Active; 'I' for Inactive)
ROOT
ATOM      1  C   UNL d   1       0.135  -1.576   3.678  0.00  0.00     0.124 A 
ATOM      2  C1  UNL d   1      -0.375  -2.173   2.534  0.00  0.00     0.062 A 
ATOM      3  C2  UNL d   1      -1.645  -1.836   2.075  0.00  0.00     0.162 A 
ATOM      4  C3  UNL d   1      -2.414  -0.894   2.760  0.00  0.00    -0.034 A 
ATOM      5  C4  UNL d   1      -1.894  -0.298   3.910  0.00  0.00     0.162 A 
ATOM      6  C5  UNL d   1      -0.625  -0.639   4.365  0.00  0.00     0.062 A 
ATOM      7  F   UNL d   1      -0.133  -0.060   5.471  0.00  0.00    -0.097 F 
ATOM      8  F1  UNL d   1      -2.606   0.611   4.593  0.00  0.00    -0.096 F 
ATOM      9  I   UNL d   1      -4.313  -0.387   2.076  0.00  0.00    -0.060 I 
ATOM     10  F2  UNL d   1      -2.113  -2.429   0.967  0.00  0.00    -0.096 F 
ATOM     11  F3  UNL d   1       0.356  -3.079   1.870  0.00  0.00    -0.097 F 
ATOM     12  F4  UNL d   1       1.357  -1.903   4.119  0.00  0.00    -0.092 F 
ENDROOT
TORSDOF 0
ENDMDL
