MODEL 1
REMARK minimizedAffinity 14.0029678
REMARK minimizedRMSD -1
REMARK  0 active torsions:
REMARK  status: ('A' for Active; 'I' for Inactive)
ROOT
ATOM      1  C   UNL d   1       3.140   1.560   0.654  0.00  0.00     0.124 A 
ATOM      2  C1  UNL d   1       4.065   2.158   1.497  0.00  0.00     0.062 A 
ATOM      3  C2  UNL d   1       4.883   3.181   1.026  0.00  0.00     0.162 A 
ATOM      4  C3  UNL d   1       4.779   3.613  -0.296  0.00  0.00    -0.034 A 
ATOM      5  C4  UNL d   1       3.846   3.006  -1.139  0.00  0.00     0.162 A 
ATOM      6  C5  UNL d   1       3.031   1.984  -0.663  0.00  0.00     0.062 A 
ATOM      7  F   UNL d   1       2.137   1.408  -1.479  0.00  0.00    -0.097 F 
ATOM      8  F1  UNL d   1       3.719   3.398  -2.415  0.00  0.00    -0.096 F 
ATOM      9  I   UNL d   1       6.000   5.143  -1.004  0.00  0.00    -0.060 I 
ATOM     10  F2  UNL d   1       5.769   3.741   1.864  0.00  0.00    -0.096 F 
ATOM     11  F3  UNL d   1       4.173   1.749   2.770  0.00  0.00    -0.097 F 
ATOM     12  F4  UNL d   1       2.355   0.575   1.109  0.00  0.00    -0.092 F 
ENDROOT
TORSDOF 0
ENDMDL
