MODEL 1
REMARK minimizedAffinity 9.97316647
REMARK minimizedRMSD -1
REMARK  0 active torsions:
REMARK  status: ('A' for Active; 'I' for Inactive)
ROOT
ATOM      1  C   UNL d   1      -3.352   0.524   2.210  0.00  0.00     0.124 A 
ATOM      2  C1  UNL d   1      -2.503   0.858   3.257  0.00  0.00     0.062 A 
ATOM      3  C2  UNL d   1      -1.385   0.073   3.528  0.00  0.00     0.162 A 
ATOM      4  C3  UNL d   1      -1.110  -1.052   2.751  0.00  0.00    -0.034 A 
ATOM      5  C4  UNL d   1      -1.969  -1.381   1.701  0.00  0.00     0.162 A 
ATOM      6  C5  UNL d   1      -3.084  -0.594   1.434  0.00  0.00     0.062 A 
ATOM      7  F   UNL d   1      -3.904  -0.918   0.423  0.00  0.00    -0.097 F 
ATOM      8  F1  UNL d   1      -1.733  -2.456   0.934  0.00  0.00    -0.096 F 
ATOM      9  I   UNL d   1       0.560  -2.227   3.154  0.00  0.00    -0.060 I 
ATOM     10  F2  UNL d   1      -0.582   0.419   4.545  0.00  0.00    -0.096 F 
ATOM     11  F3  UNL d   1      -2.760   1.937   4.009  0.00  0.00    -0.097 F 
ATOM     12  F4  UNL d   1      -4.427   1.280   1.952  0.00  0.00    -0.092 F 
ENDROOT
TORSDOF 0
ENDMDL
