MODEL 1
REMARK minimizedAffinity 25.0874748
REMARK minimizedRMSD -1
REMARK  0 active torsions:
REMARK  status: ('A' for Active; 'I' for Inactive)
ROOT
ATOM      1  C   UNL d   1       2.225   1.478   0.172  0.00  0.00     0.124 A 
ATOM      2  C1  UNL d   1       3.524   1.059  -0.080  0.00  0.00     0.062 A 
ATOM      3  C2  UNL d   1       4.603   1.813   0.371  0.00  0.00     0.162 A 
ATOM      4  C3  UNL d   1       4.389   2.995   1.079  0.00  0.00    -0.034 A 
ATOM      5  C4  UNL d   1       3.080   3.412   1.328  0.00  0.00     0.162 A 
ATOM      6  C5  UNL d   1       2.004   2.654   0.876  0.00  0.00     0.062 A 
ATOM      7  F   UNL d   1       0.750   3.061   1.120  0.00  0.00    -0.097 F 
ATOM      8  F1  UNL d   1       2.837   4.543   2.006  0.00  0.00    -0.096 F 
ATOM      9  I   UNL d   1       6.000   4.127   1.754  0.00  0.00    -0.060 I 
ATOM     10  F2  UNL d   1       5.848   1.384   0.113  0.00  0.00    -0.096 F 
ATOM     11  F3  UNL d   1       3.740  -0.077  -0.760  0.00  0.00    -0.097 F 
ATOM     12  F4  UNL d   1       1.189   0.751  -0.263  0.00  0.00    -0.092 F 
ENDROOT
TORSDOF 0
ENDMDL
