MODEL 1
REMARK minimizedAffinity 25.0260715
REMARK minimizedRMSD -1
REMARK  0 active torsions:
REMARK  status: ('A' for Active; 'I' for Inactive)
ROOT
ATOM      1  C   UNL d   1       0.731   3.077  -1.300  0.00  0.00     0.124 A 
ATOM      2  C1  UNL d   1       0.634   3.995  -2.337  0.00  0.00     0.062 A 
ATOM      3  C2  UNL d   1       1.505   3.922  -3.420  0.00  0.00     0.162 A 
ATOM      4  C3  UNL d   1       2.481   2.926  -3.473  0.00  0.00    -0.034 A 
ATOM      5  C4  UNL d   1       2.573   2.008  -2.425  0.00  0.00     0.162 A 
ATOM      6  C5  UNL d   1       1.700   2.085  -1.345  0.00  0.00     0.062 A 
ATOM      7  F   UNL d   1       1.795   1.198  -0.344  0.00  0.00    -0.097 F 
ATOM      8  F1  UNL d   1       3.499   1.038  -2.444  0.00  0.00    -0.096 F 
ATOM      9  I   UNL d   1       3.785   2.814  -5.090  0.00  0.00    -0.060 I 
ATOM     10  F2  UNL d   1       1.388   4.821  -4.408  0.00  0.00    -0.096 F 
ATOM     11  F3  UNL d   1      -0.301   4.955  -2.296  0.00  0.00    -0.097 F 
ATOM     12  F4  UNL d   1      -0.108   3.151  -0.259  0.00  0.00    -0.092 F 
ENDROOT
TORSDOF 0
ENDMDL
