MODEL 1
REMARK minimizedAffinity -4.69676971
REMARK minimizedRMSD -1
REMARK  0 active torsions:
REMARK  status: ('A' for Active; 'I' for Inactive)
ROOT
ATOM      1  C4' PXY d   1      -0.029   3.112  -0.105  0.00  0.00     0.077 C 
ATOM      2  C1' PXY d   1       0.380  -2.586  -0.991  0.00  0.00     0.077 C 
ATOM      3  C1  PXY d   1       0.270  -1.094  -0.746  0.00  0.00    -0.082 A 
ATOM      4  C2  PXY d   1      -0.064  -0.290  -1.743  0.00  0.00     0.003 A 
ATOM      5  C3  PXY d   1      -0.136   1.065  -1.546  0.00  0.00     0.003 A 
ATOM      6  C4  PXY d   1       0.085   1.598  -0.304  0.00  0.00    -0.082 A 
ATOM      7  C5  PXY d   1       0.416   0.783   0.720  0.00  0.00     0.003 A 
ATOM      8  C6  PXY d   1       0.524  -0.585   0.490  0.00  0.00     0.003 A 
ENDROOT
TORSDOF 0
ENDMDL
