MODEL 1
REMARK minimizedAffinity -2.34806705
REMARK minimizedRMSD -1
REMARK  0 active torsions:
REMARK  status: ('A' for Active; 'I' for Inactive)
ROOT
ATOM      1  C4' PXY d   1       0.249   0.978   1.317  0.00  0.00     0.077 C 
ATOM      2  C1' PXY d   1      -0.394  -3.489  -2.295  0.00  0.00     0.077 C 
ATOM      3  C1  PXY d   1      -0.214  -2.315  -1.353  0.00  0.00    -0.082 A 
ATOM      4  C2  PXY d   1      -0.898  -2.274  -0.221  0.00  0.00     0.003 A 
ATOM      5  C3  PXY d   1      -0.771  -1.204   0.627  0.00  0.00     0.003 A 
ATOM      6  C4  PXY d   1       0.105  -0.192   0.340  0.00  0.00    -0.082 A 
ATOM      7  C5  PXY d   1       0.816  -0.233  -0.808  0.00  0.00     0.003 A 
ATOM      8  C6  PXY d   1       0.641  -1.307  -1.675  0.00  0.00     0.003 A 
ENDROOT
TORSDOF 0
ENDMDL
