MODEL 1
REMARK minimizedAffinity -0.743737698
REMARK minimizedRMSD -1
REMARK  0 active torsions:
REMARK  status: ('A' for Active; 'I' for Inactive)
ROOT
ATOM      1  C4' PXY d   1      -0.458   3.042  -1.455  0.00  0.00     0.077 C 
ATOM      2  C1' PXY d   1       0.819  -2.513  -0.494  0.00  0.00     0.077 C 
ATOM      3  C1  PXY d   1       0.477  -1.056  -0.736  0.00  0.00    -0.082 A 
ATOM      4  C2  PXY d   1       0.597  -0.549  -1.952  0.00  0.00     0.003 A 
ATOM      5  C3  PXY d   1       0.322   0.775  -2.182  0.00  0.00     0.003 A 
ATOM      6  C4  PXY d   1      -0.132   1.574  -1.167  0.00  0.00    -0.082 A 
ATOM      7  C5  PXY d   1      -0.268   1.061   0.074  0.00  0.00     0.003 A 
ATOM      8  C6  PXY d   1       0.056  -0.274   0.295  0.00  0.00     0.003 A 
ENDROOT
TORSDOF 0
ENDMDL
