MODEL 1
REMARK minimizedAffinity -0.263761759
REMARK minimizedRMSD -1
REMARK  0 active torsions:
REMARK  status: ('A' for Active; 'I' for Inactive)
ROOT
ATOM      1  C4' PXY d   1      -0.252   1.891  -0.123  0.00  0.00     0.077 C 
ATOM      2  C1' PXY d   1       0.746  -3.639  -1.475  0.00  0.00     0.077 C 
ATOM      3  C1  PXY d   1       0.482  -2.192  -1.108  0.00  0.00    -0.082 A 
ATOM      4  C2  PXY d   1       0.104  -1.338  -2.045  0.00  0.00     0.003 A 
ATOM      5  C3  PXY d   1      -0.108  -0.019  -1.737  0.00  0.00     0.003 A 
ATOM      6  C4  PXY d   1       0.017   0.419  -0.446  0.00  0.00    -0.082 A 
ATOM      7  C5  PXY d   1       0.392  -0.448   0.518  0.00  0.00     0.003 A 
ATOM      8  C6  PXY d   1       0.643  -1.774   0.177  0.00  0.00     0.003 A 
ENDROOT
TORSDOF 0
ENDMDL
