MODEL 1
REMARK minimizedAffinity -3.08914685
REMARK minimizedRMSD -1
REMARK  0 active torsions:
REMARK  status: ('A' for Active; 'I' for Inactive)
ROOT
ATOM      1  C4' PXY d   1      -0.637   2.400   1.988  0.00  0.00     0.077 C 
ATOM      2  C1' PXY d   1       0.258  -2.275  -1.292  0.00  0.00     0.077 C 
ATOM      3  C1  PXY d   1       0.024  -1.056  -0.421  0.00  0.00    -0.082 A 
ATOM      4  C2  PXY d   1      -0.615  -0.010  -0.918  0.00  0.00     0.003 A 
ATOM      5  C3  PXY d   1      -0.807   1.113  -0.155  0.00  0.00     0.003 A 
ATOM      6  C4  PXY d   1      -0.387   1.145   1.148  0.00  0.00    -0.082 A 
ATOM      7  C5  PXY d   1       0.257   0.077   1.666  0.00  0.00     0.003 A 
ATOM      8  C6  PXY d   1       0.478  -1.037   0.862  0.00  0.00     0.003 A 
ENDROOT
TORSDOF 0
ENDMDL
