MODEL 1
REMARK minimizedAffinity -6.4586153
REMARK minimizedRMSD -1
REMARK  0 active torsions:
REMARK  status: ('A' for Active; 'I' for Inactive)
ROOT
ATOM      1  C4' PXY d   1       0.272  -1.032  -0.974  0.00  0.00     0.077 C 
ATOM      2  C1' PXY d   1      -1.607   3.987   1.193  0.00  0.00     0.077 C 
ATOM      3  C1  PXY d   1      -1.107   2.669   0.636  0.00  0.00    -0.082 A 
ATOM      4  C2  PXY d   1      -1.071   2.484  -0.674  0.00  0.00     0.003 A 
ATOM      5  C3  PXY d   1      -0.652   1.286  -1.194  0.00  0.00     0.003 A 
ATOM      6  C4  PXY d   1      -0.216   0.286  -0.367  0.00  0.00    -0.082 A 
ATOM      7  C5  PXY d   1      -0.240   0.471   0.970  0.00  0.00     0.003 A 
ATOM      8  C6  PXY d   1      -0.708   1.679   1.480  0.00  0.00     0.003 A 
ENDROOT
TORSDOF 0
ENDMDL
