MODEL 1
REMARK minimizedAffinity -5.12850952
REMARK minimizedRMSD -1
REMARK  0 active torsions:
REMARK  status: ('A' for Active; 'I' for Inactive)
ROOT
ATOM      1  C4' PXY d   1       0.833  -1.489  -0.866  0.00  0.00     0.077 C 
ATOM      2  C1' PXY d   1      -1.349   3.335   1.453  0.00  0.00     0.077 C 
ATOM      3  C1  PXY d   1      -0.770   2.069   0.855  0.00  0.00    -0.082 A 
ATOM      4  C2  PXY d   1      -0.803   1.889  -0.455  0.00  0.00     0.003 A 
ATOM      5  C3  PXY d   1      -0.312   0.735  -1.010  0.00  0.00     0.003 A 
ATOM      6  C4  PXY d   1       0.267  -0.221  -0.220  0.00  0.00    -0.082 A 
ATOM      7  C5  PXY d   1       0.315  -0.041   1.117  0.00  0.00     0.003 A 
ATOM      8  C6  PXY d   1      -0.226   1.119   1.664  0.00  0.00     0.003 A 
ENDROOT
TORSDOF 0
ENDMDL
