MODEL 1
REMARK minimizedAffinity -4.49090958
REMARK minimizedRMSD -1
REMARK  0 active torsions:
REMARK  status: ('A' for Active; 'I' for Inactive)
ROOT
ATOM      1  C4' PXY d   1       1.041  -0.435   2.490  0.00  0.00     0.077 C 
ATOM      2  C1' PXY d   1      -1.793   2.709  -1.447  0.00  0.00     0.077 C 
ATOM      3  C1  PXY d   1      -1.050   1.895  -0.406  0.00  0.00    -0.082 A 
ATOM      4  C2  PXY d   1      -0.335   0.848  -0.784  0.00  0.00     0.003 A 
ATOM      5  C3  PXY d   1       0.318   0.081   0.147  0.00  0.00     0.003 A 
ATOM      6  C4  PXY d   1       0.281   0.422   1.473  0.00  0.00    -0.082 A 
ATOM      7  C5  PXY d   1      -0.437   1.495   1.865  0.00  0.00     0.003 A 
ATOM      8  C6  PXY d   1      -1.126   2.236   0.909  0.00  0.00     0.003 A 
ENDROOT
TORSDOF 0
ENDMDL
