MODEL 1
REMARK minimizedAffinity 14.8381805
REMARK minimizedRMSD -1
REMARK  0 active torsions:
REMARK  status: ('A' for Active; 'I' for Inactive)
ROOT
ATOM      1  O1  BZF d   1      -4.871  -3.567  -4.874  0.00  0.00    -0.204 OA
ATOM      2  C2  BZF d   1      -4.687  -2.696  -5.930  0.00  0.00     0.174 A 
ATOM      3  C3  BZF d   1      -3.402  -2.293  -6.000  0.00  0.00    -0.012 A 
ATOM      4  C3A BZF d   1      -2.722  -3.024  -4.975  0.00  0.00    -0.107 A 
ATOM      5  C4  BZF d   1      -1.422  -3.069  -4.558  0.00  0.00     0.055 A 
ATOM      6  C5  BZF d   1      -1.100  -3.833  -3.482  0.00  0.00    -0.016 A 
ATOM      7  C6  BZF d   1      -2.051  -4.559  -2.796  0.00  0.00     0.022 A 
ATOM      8  C7  BZF d   1      -3.352  -4.550  -3.174  0.00  0.00     0.029 A 
ATOM      9  C7A BZF d   1      -3.676  -3.805  -4.282  0.00  0.00     0.058 A 
ENDROOT
TORSDOF 0
ENDMDL
