MODEL 1
REMARK minimizedAffinity 12.1805792
REMARK minimizedRMSD -1
REMARK  0 active torsions:
REMARK  status: ('A' for Active; 'I' for Inactive)
ROOT
ATOM      1  O1  BZF d   1      -4.199   5.795  -5.323  0.00  0.00    -0.204 OA
ATOM      2  C2  BZF d   1      -4.996   4.892  -6.000  0.00  0.00     0.174 A 
ATOM      3  C3  BZF d   1      -4.436   3.665  -5.999  0.00  0.00    -0.012 A 
ATOM      4  C3A BZF d   1      -3.257   3.790  -5.196  0.00  0.00    -0.107 A 
ATOM      5  C4  BZF d   1      -2.288   2.910  -4.808  0.00  0.00     0.055 A 
ATOM      6  C5  BZF d   1      -1.232   3.367  -4.085  0.00  0.00    -0.016 A 
ATOM      7  C6  BZF d   1      -1.111   4.697  -3.737  0.00  0.00     0.022 A 
ATOM      8  C7  BZF d   1      -2.050   5.606  -4.095  0.00  0.00     0.029 A 
ATOM      9  C7A BZF d   1      -3.135   5.141  -4.798  0.00  0.00     0.058 A 
ENDROOT
TORSDOF 0
ENDMDL
