MODEL 1
REMARK minimizedAffinity 8.25294781
REMARK minimizedRMSD -1
REMARK  0 active torsions:
REMARK  status: ('A' for Active; 'I' for Inactive)
ROOT
ATOM      1  O1  BZF d   1      -0.285   2.586  -4.341  0.00  0.00    -0.204 OA
ATOM      2  C2  BZF d   1      -0.821   1.795  -5.339  0.00  0.00     0.174 A 
ATOM      3  C3  BZF d   1      -1.795   2.453  -6.000  0.00  0.00    -0.012 A 
ATOM      4  C3A BZF d   1      -1.810   3.768  -5.436  0.00  0.00    -0.107 A 
ATOM      5  C4  BZF d   1      -2.549   4.889  -5.687  0.00  0.00     0.055 A 
ATOM      6  C5  BZF d   1      -2.367   5.988  -4.909  0.00  0.00    -0.016 A 
ATOM      7  C6  BZF d   1      -1.459   6.000  -3.871  0.00  0.00     0.022 A 
ATOM      8  C7  BZF d   1      -0.699   4.914  -3.587  0.00  0.00     0.029 A 
ATOM      9  C7A BZF d   1      -0.857   3.813  -4.392  0.00  0.00     0.058 A 
ENDROOT
TORSDOF 0
ENDMDL
