MODEL 1
REMARK minimizedAffinity 8.75657463
REMARK minimizedRMSD -1
REMARK  0 active torsions:
REMARK  status: ('A' for Active; 'I' for Inactive)
ROOT
ATOM      1  O1  BZF d   1      -3.041  -2.146  -5.415  0.00  0.00    -0.204 OA
ATOM      2  C2  BZF d   1      -4.309  -2.683  -5.532  0.00  0.00     0.174 A 
ATOM      3  C3  BZF d   1      -4.492  -3.676  -4.638  0.00  0.00    -0.012 A 
ATOM      4  C3A BZF d   1      -3.295  -3.704  -3.855  0.00  0.00    -0.107 A 
ATOM      5  C4  BZF d   1      -2.882  -4.463  -2.799  0.00  0.00     0.055 A 
ATOM      6  C5  BZF d   1      -1.626  -4.288  -2.310  0.00  0.00    -0.016 A 
ATOM      7  C6  BZF d   1      -0.757  -3.366  -2.856  0.00  0.00     0.022 A 
ATOM      8  C7  BZF d   1      -1.124  -2.586  -3.901  0.00  0.00     0.029 A 
ATOM      9  C7A BZF d   1      -2.403  -2.738  -4.376  0.00  0.00     0.058 A 
ENDROOT
TORSDOF 0
ENDMDL
