MODEL 1
REMARK minimizedAffinity 19.4152756
REMARK minimizedRMSD -1
REMARK  0 active torsions:
REMARK  status: ('A' for Active; 'I' for Inactive)
ROOT
ATOM      1  O1  BZF d   1       0.130  -2.464  -3.162  0.00  0.00    -0.204 OA
ATOM      2  C2  BZF d   1       0.265  -3.835  -3.068  0.00  0.00     0.174 A 
ATOM      3  C3  BZF d   1       1.095  -4.166  -2.058  0.00  0.00    -0.012 A 
ATOM      4  C3A BZF d   1       1.432  -2.927  -1.426  0.00  0.00    -0.107 A 
ATOM      5  C4  BZF d   1       2.210  -2.602  -0.352  0.00  0.00     0.055 A 
ATOM      6  C5  BZF d   1       2.389  -1.292  -0.039  0.00  0.00    -0.016 A 
ATOM      7  C6  BZF d   1       1.811  -0.283  -0.781  0.00  0.00     0.022 A 
ATOM      8  C7  BZF d   1       1.027  -0.556  -1.852  0.00  0.00     0.029 A 
ATOM      9  C7A BZF d   1       0.817  -1.880  -2.151  0.00  0.00     0.058 A 
ENDROOT
TORSDOF 0
ENDMDL
