MODEL 1
REMARK minimizedAffinity 8.43580914
REMARK minimizedRMSD -1
REMARK  0 active torsions:
REMARK  status: ('A' for Active; 'I' for Inactive)
ROOT
ATOM      1  O1  BZF d   1       0.058   2.012   3.047  0.00  0.00    -0.204 OA
ATOM      2  C2  BZF d   1      -1.238   1.690   2.695  0.00  0.00     0.174 A 
ATOM      3  C3  BZF d   1      -1.269   1.065   1.500  0.00  0.00    -0.012 A 
ATOM      4  C3A BZF d   1       0.102   0.908   1.123  0.00  0.00    -0.107 A 
ATOM      5  C4  BZF d   1       0.720   0.345   0.043  0.00  0.00     0.055 A 
ATOM      6  C5  BZF d   1       2.073   0.422  -0.058  0.00  0.00    -0.016 A 
ATOM      7  C6  BZF d   1       2.838   1.058   0.897  0.00  0.00     0.022 A 
ATOM      8  C7  BZF d   1       2.270   1.627   1.989  0.00  0.00     0.029 A 
ATOM      9  C7A BZF d   1       0.906   1.522   2.111  0.00  0.00     0.058 A 
ENDROOT
TORSDOF 0
ENDMDL
