MODEL 1
REMARK minimizedAffinity 12.3295918
REMARK minimizedRMSD -1
REMARK  0 active torsions:
REMARK  status: ('A' for Active; 'I' for Inactive)
ROOT
ATOM      1  O1  BZF d   1       4.215  -0.188   0.344  0.00  0.00    -0.204 OA
ATOM      2  C2  BZF d   1       2.974   0.290  -0.028  0.00  0.00     0.174 A 
ATOM      3  C3  BZF d   1       2.099  -0.724  -0.187  0.00  0.00    -0.012 A 
ATOM      4  C3A BZF d   1       2.816  -1.903   0.194  0.00  0.00    -0.107 A 
ATOM      5  C4  BZF d   1       2.479  -3.224   0.265  0.00  0.00     0.055 A 
ATOM      6  C5  BZF d   1       3.433  -4.131   0.605  0.00  0.00    -0.016 A 
ATOM      7  C6  BZF d   1       4.732  -3.752   0.875  0.00  0.00     0.022 A 
ATOM      8  C7  BZF d   1       5.112  -2.452   0.822  0.00  0.00     0.029 A 
ATOM      9  C7A BZF d   1       4.142  -1.530   0.511  0.00  0.00     0.058 A 
ENDROOT
TORSDOF 0
ENDMDL
