MODEL 1
REMARK minimizedAffinity 16.6486912
REMARK minimizedRMSD -1
REMARK  0 active torsions:
REMARK  status: ('A' for Active; 'I' for Inactive)
ROOT
ATOM      1  O1  BZF d   1       1.528   0.372  -1.733  0.00  0.00    -0.204 OA
ATOM      2  C2  BZF d   1       1.142  -0.756  -2.433  0.00  0.00     0.174 A 
ATOM      3  C3  BZF d   1       1.866  -1.827  -2.050  0.00  0.00    -0.012 A 
ATOM      4  C3A BZF d   1       2.697  -1.358  -0.984  0.00  0.00    -0.107 A 
ATOM      5  C4  BZF d   1       3.627  -1.960  -0.184  0.00  0.00     0.055 A 
ATOM      6  C5  BZF d   1       4.314  -1.204   0.713  0.00  0.00    -0.016 A 
ATOM      7  C6  BZF d   1       4.101   0.153   0.833  0.00  0.00     0.022 A 
ATOM      8  C7  BZF d   1       3.185   0.793   0.066  0.00  0.00     0.029 A 
ATOM      9  C7A BZF d   1       2.466   0.027  -0.819  0.00  0.00     0.058 A 
ENDROOT
TORSDOF 0
ENDMDL
