MODEL 1
REMARK minimizedAffinity 12.6128626
REMARK minimizedRMSD -1
REMARK  0 active torsions:
REMARK  status: ('A' for Active; 'I' for Inactive)
ROOT
ATOM      1  O1  BZF d   1       4.407  -2.348   0.977  0.00  0.00    -0.204 OA
ATOM      2  C2  BZF d   1       3.625  -3.375   0.486  0.00  0.00     0.174 A 
ATOM      3  C3  BZF d   1       2.611  -2.890  -0.259  0.00  0.00    -0.012 A 
ATOM      4  C3A BZF d   1       2.822  -1.475  -0.306  0.00  0.00    -0.107 A 
ATOM      5  C4  BZF d   1       2.156  -0.446  -0.908  0.00  0.00     0.055 A 
ATOM      6  C5  BZF d   1       2.581   0.827  -0.698  0.00  0.00    -0.016 A 
ATOM      7  C6  BZF d   1       3.663   1.108   0.110  0.00  0.00     0.022 A 
ATOM      8  C7  BZF d   1       4.358   0.120   0.724  0.00  0.00     0.029 A 
ATOM      9  C7A BZF d   1       3.952  -1.170   0.488  0.00  0.00     0.058 A 
ENDROOT
TORSDOF 0
ENDMDL
