MODEL 1
REMARK minimizedAffinity 17.423542
REMARK minimizedRMSD -1
REMARK  0 active torsions:
REMARK  status: ('A' for Active; 'I' for Inactive)
ROOT
ATOM      1  O1  BZF d   1       4.822  -3.139   0.427  0.00  0.00    -0.204 OA
ATOM      2  C2  BZF d   1       5.826  -3.641  -0.378  0.00  0.00     0.174 A 
ATOM      3  C3  BZF d   1       5.499  -3.523  -1.681  0.00  0.00    -0.012 A 
ATOM      4  C3A BZF d   1       4.251  -2.824  -1.694  0.00  0.00    -0.107 A 
ATOM      5  C4  BZF d   1       3.426  -2.394  -2.694  0.00  0.00     0.055 A 
ATOM      6  C5  BZF d   1       2.244  -1.807  -2.368  0.00  0.00    -0.016 A 
ATOM      7  C6  BZF d   1       1.854  -1.639  -1.055  0.00  0.00     0.022 A 
ATOM      8  C7  BZF d   1       2.641  -2.045  -0.030  0.00  0.00     0.029 A 
ATOM      9  C7A BZF d   1       3.851  -2.608  -0.355  0.00  0.00     0.058 A 
ENDROOT
TORSDOF 0
ENDMDL
