MODEL 1
REMARK minimizedAffinity 13.8229322
REMARK minimizedRMSD -1
REMARK  0 active torsions:
REMARK  status: ('A' for Active; 'I' for Inactive)
ROOT
ATOM      1  O1  BZF d   1       1.024   0.753   2.428  0.00  0.00    -0.204 OA
ATOM      2  C2  BZF d   1      -0.017   1.225   1.652  0.00  0.00     0.174 A 
ATOM      3  C3  BZF d   1      -0.889   1.931   2.401  0.00  0.00    -0.012 A 
ATOM      4  C3A BZF d   1      -0.312   1.976   3.709  0.00  0.00    -0.107 A 
ATOM      5  C4  BZF d   1      -0.699   2.547   4.887  0.00  0.00     0.055 A 
ATOM      6  C5  BZF d   1       0.054   2.343   6.000  0.00  0.00    -0.016 A 
ATOM      7  C6  BZF d   1       1.196   1.569   5.971  0.00  0.00     0.022 A 
ATOM      8  C7  BZF d   1       1.623   0.986   4.825  0.00  0.00     0.029 A 
ATOM      9  C7A BZF d   1       0.882   1.218   3.692  0.00  0.00     0.058 A 
ENDROOT
TORSDOF 0
ENDMDL
