MODEL 1
REMARK minimizedAffinity 18.4381695
REMARK minimizedRMSD -1
REMARK  0 active torsions:
REMARK  status: ('A' for Active; 'I' for Inactive)
ROOT
ATOM      1  O1  BZF d   1      -3.407   0.551   2.212  0.00  0.00    -0.204 OA
ATOM      2  C2  BZF d   1      -4.178   1.308   3.073  0.00  0.00     0.174 A 
ATOM      3  C3  BZF d   1      -3.408   2.159   3.782  0.00  0.00    -0.012 A 
ATOM      4  C3A BZF d   1      -2.084   1.984   3.270  0.00  0.00    -0.107 A 
ATOM      5  C4  BZF d   1      -0.881   2.561   3.561  0.00  0.00     0.055 A 
ATOM      6  C5  BZF d   1       0.236   2.114   2.929  0.00  0.00    -0.016 A 
ATOM      7  C6  BZF d   1       0.188   1.090   2.007  0.00  0.00     0.022 A 
ATOM      8  C7  BZF d   1      -0.983   0.489   1.682  0.00  0.00     0.029 A 
ATOM      9  C7A BZF d   1      -2.118   0.961   2.294  0.00  0.00     0.058 A 
ENDROOT
TORSDOF 0
ENDMDL
