MODEL 1
REMARK minimizedAffinity 15.6141815
REMARK minimizedRMSD -1
REMARK  0 active torsions:
REMARK  status: ('A' for Active; 'I' for Inactive)
ROOT
ATOM      1  O1  BZF d   1       4.436  -2.297   1.097  0.00  0.00    -0.204 OA
ATOM      2  C2  BZF d   1       3.621  -3.318   0.646  0.00  0.00     0.174 A 
ATOM      3  C3  BZF d   1       2.429  -2.836   0.240  0.00  0.00    -0.012 A 
ATOM      4  C3A BZF d   1       2.537  -1.414   0.364  0.00  0.00    -0.107 A 
ATOM      5  C4  BZF d   1       1.684  -0.382   0.099  0.00  0.00     0.055 A 
ATOM      6  C5  BZF d   1       2.068   0.887   0.400  0.00  0.00    -0.016 A 
ATOM      7  C6  BZF d   1       3.295   1.158   0.970  0.00  0.00     0.022 A 
ATOM      8  C7  BZF d   1       4.177   0.167   1.247  0.00  0.00     0.029 A 
ATOM      9  C7A BZF d   1       3.804  -1.113   0.914  0.00  0.00     0.058 A 
ENDROOT
TORSDOF 0
ENDMDL
