MODEL 1
REMARK minimizedAffinity 13.9065571
REMARK minimizedRMSD -1
REMARK  0 active torsions:
REMARK  status: ('A' for Active; 'I' for Inactive)
ROOT
ATOM      1  O1  BZF d   1      -3.473   1.969   2.671  0.00  0.00    -0.204 OA
ATOM      2  C2  BZF d   1      -3.973   0.805   3.223  0.00  0.00     0.174 A 
ATOM      3  C3  BZF d   1      -2.984  -0.087   3.433  0.00  0.00    -0.012 A 
ATOM      4  C3A BZF d   1      -1.779   0.594   3.071  0.00  0.00    -0.107 A 
ATOM      5  C4  BZF d   1      -0.461   0.237   3.076  0.00  0.00     0.055 A 
ATOM      6  C5  BZF d   1       0.462   1.109   2.591  0.00  0.00    -0.016 A 
ATOM      7  C6  BZF d   1       0.101   2.343   2.089  0.00  0.00     0.022 A 
ATOM      8  C7  BZF d   1      -1.193   2.743   2.068  0.00  0.00     0.029 A 
ATOM      9  C7A BZF d   1      -2.124   1.877   2.588  0.00  0.00     0.058 A 
ENDROOT
TORSDOF 0
ENDMDL
