MODEL 1
REMARK minimizedAffinity 11.4965219
REMARK minimizedRMSD -1
REMARK  0 active torsions:
REMARK  status: ('A' for Active; 'I' for Inactive)
ROOT
ATOM      1  O1  BZF d   1      -2.473   0.093   1.121  0.00  0.00    -0.204 OA
ATOM      2  C2  BZF d   1      -3.387   0.595   2.027  0.00  0.00     0.174 A 
ATOM      3  C3  BZF d   1      -2.772   1.353   2.957  0.00  0.00    -0.012 A 
ATOM      4  C3A BZF d   1      -1.399   1.399   2.557  0.00  0.00    -0.107 A 
ATOM      5  C4  BZF d   1      -0.291   2.010   3.071  0.00  0.00     0.055 A 
ATOM      6  C5  BZF d   1       0.915   1.795   2.483  0.00  0.00    -0.016 A 
ATOM      7  C6  BZF d   1       1.050   0.972   1.384  0.00  0.00     0.022 A 
ATOM      8  C7  BZF d   1      -0.021   0.348   0.836  0.00  0.00     0.029 A 
ATOM      9  C7A BZF d   1      -1.246   0.589   1.408  0.00  0.00     0.058 A 
ENDROOT
TORSDOF 0
ENDMDL
