MODEL 1
REMARK minimizedAffinity 15.6500235
REMARK minimizedRMSD -1
REMARK  0 active torsions:
REMARK  status: ('A' for Active; 'I' for Inactive)
ROOT
ATOM      1  O1  BZF d   1       4.239   0.164   0.348  0.00  0.00    -0.204 OA
ATOM      2  C2  BZF d   1       4.443   1.445  -0.127  0.00  0.00     0.174 A 
ATOM      3  C3  BZF d   1       3.748   1.650  -1.264  0.00  0.00    -0.012 A 
ATOM      4  C3A BZF d   1       2.994   0.450  -1.466  0.00  0.00    -0.107 A 
ATOM      5  C4  BZF d   1       2.102   0.052  -2.419  0.00  0.00     0.055 A 
ATOM      6  C5  BZF d   1       1.599  -1.210  -2.368  0.00  0.00    -0.016 A 
ATOM      7  C6  BZF d   1       1.972  -2.100  -1.381  0.00  0.00     0.022 A 
ATOM      8  C7  BZF d   1       2.850  -1.748  -0.411  0.00  0.00     0.029 A 
ATOM      9  C7A BZF d   1       3.334  -0.463  -0.442  0.00  0.00     0.058 A 
ENDROOT
TORSDOF 0
ENDMDL
