MODEL 1
REMARK minimizedAffinity 10.8812122
REMARK minimizedRMSD -1
REMARK  0 active torsions:
REMARK  status: ('A' for Active; 'I' for Inactive)
ROOT
ATOM      1  O1  BZF d   1      -3.385   0.522   2.050  0.00  0.00    -0.204 OA
ATOM      2  C2  BZF d   1      -4.148   1.145   3.018  0.00  0.00     0.174 A 
ATOM      3  C3  BZF d   1      -3.364   1.811   3.890  0.00  0.00    -0.012 A 
ATOM      4  C3A BZF d   1      -2.033   1.667   3.386  0.00  0.00    -0.107 A 
ATOM      5  C4  BZF d   1      -0.815   2.119   3.807  0.00  0.00     0.055 A 
ATOM      6  C5  BZF d   1       0.300   1.739   3.130  0.00  0.00    -0.016 A 
ATOM      7  C6  BZF d   1       0.236   0.906   2.033  0.00  0.00     0.022 A 
ATOM      8  C7  BZF d   1      -0.950   0.436   1.574  0.00  0.00     0.029 A 
ATOM      9  C7A BZF d   1      -2.082   0.844   2.236  0.00  0.00     0.058 A 
ENDROOT
TORSDOF 0
ENDMDL
