MODEL 1
REMARK minimizedAffinity 8.80813313
REMARK minimizedRMSD -1
REMARK  0 active torsions:
REMARK  status: ('A' for Active; 'I' for Inactive)
ROOT
ATOM      1  O1  BZF d   1       4.327  -1.965   1.069  0.00  0.00    -0.204 OA
ATOM      2  C2  BZF d   1       3.648  -3.070   0.593  0.00  0.00     0.174 A 
ATOM      3  C3  BZF d   1       2.596  -2.697  -0.164  0.00  0.00    -0.012 A 
ATOM      4  C3A BZF d   1       2.674  -1.270  -0.237  0.00  0.00    -0.107 A 
ATOM      5  C4  BZF d   1       1.917  -0.320  -0.861  0.00  0.00     0.055 A 
ATOM      6  C5  BZF d   1       2.218   0.992  -0.674  0.00  0.00    -0.016 A 
ATOM      7  C6  BZF d   1       3.264   1.389   0.133  0.00  0.00     0.022 A 
ATOM      8  C7  BZF d   1       4.046   0.483   0.769  0.00  0.00     0.029 A 
ATOM      9  C7A BZF d   1       3.765  -0.845   0.555  0.00  0.00     0.058 A 
ENDROOT
TORSDOF 0
ENDMDL
