MODEL 1
REMARK minimizedAffinity 7.0853591
REMARK minimizedRMSD -1
REMARK  0 active torsions:
REMARK  status: ('A' for Active; 'I' for Inactive)
ROOT
ATOM      1  C1  DEN d   1       6.000  -4.961  -2.623  0.00  0.00     0.130 A 
ATOM      2  C2  DEN d   1       5.994  -3.981  -3.706  0.00  0.00    -0.031 A 
ATOM      3  C3  DEN d   1       4.897  -3.026  -3.452  0.00  0.00     0.027 A 
ATOM      4  C4  DEN d   1       3.219  -2.965  -1.495  0.00  0.00     0.027 A 
ATOM      5  C5  DEN d   1       2.822  -3.596  -0.337  0.00  0.00    -0.003 A 
ATOM      6  C6  DEN d   1       3.429  -4.736   0.119  0.00  0.00     0.001 A 
ATOM      7  C7  DEN d   1       4.497  -5.256  -0.564  0.00  0.00     0.017 A 
ATOM      8  C8  DEN d   1       4.899  -4.629  -1.737  0.00  0.00    -0.094 A 
ATOM      9  C9  DEN d   1       4.280  -3.471  -2.174  0.00  0.00    -0.072 A 
ENDROOT
TORSDOF 0
ENDMDL
