MODEL 1
REMARK minimizedAffinity 4.68459463
REMARK minimizedRMSD -1
REMARK  0 active torsions:
REMARK  status: ('A' for Active; 'I' for Inactive)
ROOT
ATOM      1  C1  DEN d   1       1.238   4.503   0.860  0.00  0.00     0.130 A 
ATOM      2  C2  DEN d   1       0.730   5.036  -0.402  0.00  0.00    -0.031 A 
ATOM      3  C3  DEN d   1      -0.467   4.257  -0.777  0.00  0.00     0.027 A 
ATOM      4  C4  DEN d   1      -1.582   2.293   0.469  0.00  0.00     0.027 A 
ATOM      5  C5  DEN d   1      -1.505   1.478   1.577  0.00  0.00    -0.003 A 
ATOM      6  C6  DEN d   1      -0.498   1.591   2.498  0.00  0.00     0.001 A 
ATOM      7  C7  DEN d   1       0.449   2.571   2.352  0.00  0.00     0.017 A 
ATOM      8  C8  DEN d   1       0.383   3.391   1.234  0.00  0.00    -0.094 A 
ATOM      9  C9  DEN d   1      -0.650   3.269   0.320  0.00  0.00    -0.072 A 
ENDROOT
TORSDOF 0
ENDMDL
