MODEL 1
REMARK minimizedAffinity 2.95381856
REMARK minimizedRMSD -1
REMARK  0 active torsions:
REMARK  status: ('A' for Active; 'I' for Inactive)
ROOT
ATOM      1  C1  DEN d   1       0.010   0.568  -1.700  0.00  0.00     0.130 A 
ATOM      2  C2  DEN d   1       1.173  -0.304  -1.554  0.00  0.00    -0.031 A 
ATOM      3  C3  DEN d   1       1.457  -0.450  -0.112  0.00  0.00     0.027 A 
ATOM      4  C4  DEN d   1       0.212   0.578   1.899  0.00  0.00     0.027 A 
ATOM      5  C5  DEN d   1      -0.831   1.397   2.274  0.00  0.00    -0.003 A 
ATOM      6  C6  DEN d   1      -1.638   2.018   1.359  0.00  0.00     0.001 A 
ATOM      7  C7  DEN d   1      -1.444   1.795   0.021  0.00  0.00     0.017 A 
ATOM      8  C8  DEN d   1      -0.391   0.977  -0.366  0.00  0.00    -0.094 A 
ATOM      9  C9  DEN d   1       0.407   0.348   0.575  0.00  0.00    -0.072 A 
ENDROOT
TORSDOF 0
ENDMDL
