MODEL 1
REMARK minimizedAffinity 2.18109846
REMARK minimizedRMSD -1
REMARK  0 active torsions:
REMARK  status: ('A' for Active; 'I' for Inactive)
ROOT
ATOM      1  C1  DEN d   1      -2.558   0.658   2.755  0.00  0.00     0.130 A 
ATOM      2  C2  DEN d   1      -1.270  -0.031   2.755  0.00  0.00    -0.031 A 
ATOM      3  C3  DEN d   1      -0.345   0.731   1.892  0.00  0.00     0.027 A 
ATOM      4  C4  DEN d   1      -0.777   2.901   0.568  0.00  0.00     0.027 A 
ATOM      5  C5  DEN d   1      -1.721   3.852   0.248  0.00  0.00    -0.003 A 
ATOM      6  C6  DEN d   1      -3.008   3.787   0.711  0.00  0.00     0.001 A 
ATOM      7  C7  DEN d   1      -3.376   2.774   1.556  0.00  0.00     0.017 A 
ATOM      8  C8  DEN d   1      -2.432   1.807   1.876  0.00  0.00    -0.094 A 
ATOM      9  C9  DEN d   1      -1.132   1.897   1.408  0.00  0.00    -0.072 A 
ENDROOT
TORSDOF 0
ENDMDL
