MODEL 1
REMARK minimizedAffinity 4.03158188
REMARK minimizedRMSD -1
REMARK  0 active torsions:
REMARK  status: ('A' for Active; 'I' for Inactive)
ROOT
ATOM      1  C1  DEN d   1      -1.573   1.996   1.077  0.00  0.00     0.130 A 
ATOM      2  C2  DEN d   1      -1.545   1.339   2.381  0.00  0.00    -0.031 A 
ATOM      3  C3  DEN d   1      -0.256   0.632   2.508  0.00  0.00     0.027 A 
ATOM      4  C4  DEN d   1       1.693   0.495   0.824  0.00  0.00     0.027 A 
ATOM      5  C5  DEN d   1       2.127   0.881  -0.425  0.00  0.00    -0.003 A 
ATOM      6  C6  DEN d   1       1.350   1.632  -1.267  0.00  0.00     0.001 A 
ATOM      7  C7  DEN d   1       0.116   2.058  -0.853  0.00  0.00     0.017 A 
ATOM      8  C8  DEN d   1      -0.331   1.666   0.402  0.00  0.00    -0.094 A 
ATOM      9  C9  DEN d   1       0.474   0.918   1.244  0.00  0.00    -0.072 A 
ENDROOT
TORSDOF 0
ENDMDL
