MODEL 1
REMARK minimizedAffinity 6.30056715
REMARK minimizedRMSD -1
REMARK  0 active torsions:
REMARK  status: ('A' for Active; 'I' for Inactive)
ROOT
ATOM      1  C1  DEN d   1       0.139   2.998   0.502  0.00  0.00     0.130 A 
ATOM      2  C2  DEN d   1      -1.007   3.837   0.163  0.00  0.00    -0.031 A 
ATOM      3  C3  DEN d   1      -2.224   3.178   0.678  0.00  0.00     0.027 A 
ATOM      4  C4  DEN d   1      -2.444   0.954   1.965  0.00  0.00     0.027 A 
ATOM      5  C5  DEN d   1      -1.750  -0.120   2.477  0.00  0.00    -0.003 A 
ATOM      6  C6  DEN d   1      -0.394  -0.246   2.339  0.00  0.00     0.001 A 
ATOM      7  C7  DEN d   1       0.319   0.741   1.710  0.00  0.00     0.017 A 
ATOM      8  C8  DEN d   1      -0.375   1.824   1.185  0.00  0.00    -0.094 A 
ATOM      9  C9  DEN d   1      -1.745   1.939   1.346  0.00  0.00    -0.072 A 
ENDROOT
TORSDOF 0
ENDMDL
