MODEL 1
REMARK minimizedAffinity -1.52733886
REMARK minimizedRMSD -1
REMARK  0 active torsions:
REMARK  status: ('A' for Active; 'I' for Inactive)
ROOT
ATOM      1  C1  DEN d   1       0.455   3.061  -0.655  0.00  0.00     0.130 A 
ATOM      2  C2  DEN d   1      -0.371   4.138  -1.195  0.00  0.00    -0.031 A 
ATOM      3  C3  DEN d   1      -1.721   4.016  -0.609  0.00  0.00     0.027 A 
ATOM      4  C4  DEN d   1      -2.607   2.278   1.077  0.00  0.00     0.027 A 
ATOM      5  C5  DEN d   1      -2.281   1.162   1.815  0.00  0.00    -0.003 A 
ATOM      6  C6  DEN d   1      -1.040   0.585   1.756  0.00  0.00     0.001 A 
ATOM      7  C7  DEN d   1      -0.065   1.149   0.976  0.00  0.00     0.017 A 
ATOM      8  C8  DEN d   1      -0.389   2.270   0.223  0.00  0.00    -0.094 A 
ATOM      9  C9  DEN d   1      -1.646   2.846   0.306  0.00  0.00    -0.072 A 
ENDROOT
TORSDOF 0
ENDMDL
