MODEL 1
REMARK minimizedAffinity 0.472450256
REMARK minimizedRMSD -1
REMARK  0 active torsions:
REMARK  status: ('A' for Active; 'I' for Inactive)
ROOT
ATOM      1  C1  DEN d   1      -0.156   0.359   1.556  0.00  0.00     0.130 A 
ATOM      2  C2  DEN d   1      -0.998  -0.277   2.565  0.00  0.00    -0.031 A 
ATOM      3  C3  DEN d   1      -2.256   0.491   2.661  0.00  0.00     0.027 A 
ATOM      4  C4  DEN d   1      -2.980   2.588   1.347  0.00  0.00     0.027 A 
ATOM      5  C5  DEN d   1      -2.597   3.501   0.389  0.00  0.00    -0.003 A 
ATOM      6  C6  DEN d   1      -1.370   3.451  -0.217  0.00  0.00     0.001 A 
ATOM      7  C7  DEN d   1      -0.499   2.441   0.095  0.00  0.00     0.017 A 
ATOM      8  C8  DEN d   1      -0.876   1.521   1.065  0.00  0.00    -0.094 A 
ATOM      9  C9  DEN d   1      -2.125   1.581   1.657  0.00  0.00    -0.072 A 
ENDROOT
TORSDOF 0
ENDMDL
