MODEL 1
REMARK minimizedAffinity 9.47620869
REMARK minimizedRMSD -1
REMARK  0 active torsions:
REMARK  status: ('A' for Active; 'I' for Inactive)
ROOT
ATOM      1  C1  DEN d   1      -1.903   2.546   1.904  0.00  0.00     0.130 A 
ATOM      2  C2  DEN d   1      -2.167   1.136   1.632  0.00  0.00    -0.031 A 
ATOM      3  C3  DEN d   1      -1.535   0.794   0.342  0.00  0.00     0.027 A 
ATOM      4  C4  DEN d   1      -0.176   2.301  -1.250  0.00  0.00     0.027 A 
ATOM      5  C5  DEN d   1       0.304   3.577  -1.451  0.00  0.00    -0.003 A 
ATOM      6  C6  DEN d   1       0.055   4.598  -0.572  0.00  0.00     0.001 A 
ATOM      7  C7  DEN d   1      -0.656   4.350   0.572  0.00  0.00     0.017 A 
ATOM      8  C8  DEN d   1      -1.149   3.069   0.778  0.00  0.00    -0.094 A 
ATOM      9  C9  DEN d   1      -0.877   2.047  -0.116  0.00  0.00    -0.072 A 
ENDROOT
TORSDOF 0
ENDMDL
