MODEL 1
REMARK minimizedAffinity 8.68847847
REMARK minimizedRMSD -1
REMARK  0 active torsions:
REMARK  status: ('A' for Active; 'I' for Inactive)
ROOT
ATOM      1  C1  DEN d   1      -1.139  -4.508   5.998  0.00  0.00     0.130 A 
ATOM      2  C2  DEN d   1      -0.035  -4.564   5.043  0.00  0.00    -0.031 A 
ATOM      3  C3  DEN d   1      -0.346  -3.645   3.930  0.00  0.00     0.027 A 
ATOM      4  C4  DEN d   1      -2.418  -2.145   3.595  0.00  0.00     0.027 A 
ATOM      5  C5  DEN d   1      -3.628  -1.766   4.133  0.00  0.00    -0.003 A 
ATOM      6  C6  DEN d   1      -4.105  -2.295   5.303  0.00  0.00     0.001 A 
ATOM      7  C7  DEN d   1      -3.347  -3.200   5.998  0.00  0.00     0.017 A 
ATOM      8  C8  DEN d   1      -2.129  -3.593   5.458  0.00  0.00    -0.094 A 
ATOM      9  C9  DEN d   1      -1.658  -3.037   4.280  0.00  0.00    -0.072 A 
ENDROOT
TORSDOF 0
ENDMDL
