MODEL 1
REMARK minimizedAffinity 7.51405382
REMARK minimizedRMSD -1
REMARK  0 active torsions:
REMARK  status: ('A' for Active; 'I' for Inactive)
ROOT
ATOM      1  C1  DEN d   1      -2.621  -0.572   2.947  0.00  0.00     0.130 A 
ATOM      2  C2  DEN d   1      -1.343  -0.104   2.418  0.00  0.00    -0.031 A 
ATOM      3  C3  DEN d   1      -0.298  -1.062   2.834  0.00  0.00     0.027 A 
ATOM      4  C4  DEN d   1      -0.536  -3.214   4.235  0.00  0.00     0.027 A 
ATOM      5  C5  DEN d   1      -1.423  -4.017   4.918  0.00  0.00    -0.003 A 
ATOM      6  C6  DEN d   1      -2.754  -3.712   5.020  0.00  0.00     0.001 A 
ATOM      7  C7  DEN d   1      -3.246  -2.599   4.391  0.00  0.00     0.017 A 
ATOM      8  C8  DEN d   1      -2.356  -1.781   3.706  0.00  0.00    -0.094 A 
ATOM      9  C9  DEN d   1      -1.016  -2.113   3.604  0.00  0.00    -0.072 A 
ENDROOT
TORSDOF 0
ENDMDL
