MODEL 1
REMARK minimizedAffinity 4.87233734
REMARK minimizedRMSD -1
REMARK  0 active torsions:
REMARK  status: ('A' for Active; 'I' for Inactive)
ROOT
ATOM      1  C1  DEN d   1      -1.878   1.888   2.290  0.00  0.00     0.130 A 
ATOM      2  C2  DEN d   1      -1.492   0.488   2.446  0.00  0.00    -0.031 A 
ATOM      3  C3  DEN d   1      -0.644   0.118   1.295  0.00  0.00     0.027 A 
ATOM      4  C4  DEN d   1       0.108   1.569  -0.699  0.00  0.00     0.027 A 
ATOM      5  C5  DEN d   1       0.023   2.818  -1.274  0.00  0.00    -0.003 A 
ATOM      6  C6  DEN d   1      -0.723   3.826  -0.724  0.00  0.00     0.001 A 
ATOM      7  C7  DEN d   1      -1.378   3.616   0.461  0.00  0.00     0.017 A 
ATOM      8  C8  DEN d   1      -1.303   2.358   1.043  0.00  0.00    -0.094 A 
ATOM      9  C9  DEN d   1      -0.533   1.355   0.477  0.00  0.00    -0.072 A 
ENDROOT
TORSDOF 0
ENDMDL
