MODEL 1
REMARK minimizedAffinity 7.55204344
REMARK minimizedRMSD -1
REMARK  0 active torsions:
REMARK  status: ('A' for Active; 'I' for Inactive)
ROOT
ATOM      1  C1  DEN d   1       0.284   1.852   2.812  0.00  0.00     0.130 A 
ATOM      2  C2  DEN d   1      -0.816   2.807   2.706  0.00  0.00    -0.031 A 
ATOM      3  C3  DEN d   1      -1.205   2.899   1.284  0.00  0.00     0.027 A 
ATOM      4  C4  DEN d   1      -0.220   1.657  -0.751  0.00  0.00     0.027 A 
ATOM      5  C5  DEN d   1       0.736   0.754  -1.159  0.00  0.00    -0.003 A 
ATOM      6  C6  DEN d   1       1.623   0.183  -0.285  0.00  0.00     0.001 A 
ATOM      7  C7  DEN d   1       1.543   0.476   1.051  0.00  0.00     0.017 A 
ATOM      8  C8  DEN d   1       0.587   1.392   1.469  0.00  0.00    -0.094 A 
ATOM      9  C9  DEN d   1      -0.308   1.949   0.572  0.00  0.00    -0.072 A 
ENDROOT
TORSDOF 0
ENDMDL
