MODEL 1
REMARK minimizedAffinity 7.76159096
REMARK minimizedRMSD -1
REMARK  0 active torsions:
REMARK  status: ('A' for Active; 'I' for Inactive)
ROOT
ATOM      1  C1  DEN d   1       1.241   0.728  -1.292  0.00  0.00     0.130 A 
ATOM      2  C2  DEN d   1       0.353   1.643  -2.003  0.00  0.00    -0.031 A 
ATOM      3  C3  DEN d   1      -0.483   2.337  -1.003  0.00  0.00     0.027 A 
ATOM      4  C4  DEN d   1      -0.484   2.089   1.564  0.00  0.00     0.027 A 
ATOM      5  C5  DEN d   1       0.086   1.425   2.628  0.00  0.00    -0.003 A 
ATOM      6  C6  DEN d   1       1.050   0.466   2.459  0.00  0.00     0.001 A 
ATOM      7  C7  DEN d   1       1.504   0.176   1.200  0.00  0.00     0.017 A 
ATOM      8  C8  DEN d   1       0.929   0.835   0.122  0.00  0.00    -0.094 A 
ATOM      9  C9  DEN d   1      -0.035   1.810   0.314  0.00  0.00    -0.072 A 
ENDROOT
TORSDOF 0
ENDMDL
