MODEL 1
REMARK minimizedAffinity 16.5748367
REMARK minimizedRMSD -1
REMARK  0 active torsions:
REMARK  status: ('A' for Active; 'I' for Inactive)
ROOT
ATOM      1  C1  DEN d   1       0.839  -0.424   1.244  0.00  0.00     0.130 A 
ATOM      2  C2  DEN d   1       2.227   0.019   1.148  0.00  0.00    -0.031 A 
ATOM      3  C3  DEN d   1       2.322   1.358   1.763  0.00  0.00     0.027 A 
ATOM      4  C4  DEN d   1       0.466   2.779   2.852  0.00  0.00     0.027 A 
ATOM      5  C5  DEN d   1      -0.876   2.828   3.159  0.00  0.00    -0.003 A 
ATOM      6  C6  DEN d   1      -1.739   1.820   2.822  0.00  0.00     0.001 A 
ATOM      7  C7  DEN d   1      -1.262   0.698   2.197  0.00  0.00     0.017 A 
ATOM      8  C8  DEN d   1       0.088   0.645   1.877  0.00  0.00    -0.094 A 
ATOM      9  C9  DEN d   1       0.947   1.669   2.238  0.00  0.00    -0.072 A 
ENDROOT
TORSDOF 0
ENDMDL
