MODEL 1
REMARK minimizedAffinity -4.68211985
REMARK minimizedRMSD -1
REMARK  2 active torsions:
REMARK  status: ('A' for Active; 'I' for Inactive)
REMARK    1  A    between atoms: C2'_3  and  C1'_4 
REMARK    2  A    between atoms: C1'_4  and  C1_5 
ROOT
ATOM      1  C1  I4B d   1       0.100   0.202  -0.894  0.00  0.00    -0.075 A 
ATOM      2  C2  I4B d   1      -0.120   0.634   0.390  0.00  0.00     0.003 A 
ATOM      3  C3  I4B d   1       0.754   0.243   1.433  0.00  0.00     0.002 A 
ATOM      4  C4  I4B d   1       1.799  -0.616   1.159  0.00  0.00    -0.004 A 
ATOM      5  C5  I4B d   1       2.034  -1.034  -0.148  0.00  0.00     0.002 A 
ATOM      6  C6  I4B d   1       1.186  -0.613  -1.183  0.00  0.00     0.003 A 
ENDROOT
BRANCH   1   7
ATOM      7  C1' I4B d   1      -0.862   0.608  -1.965  0.00  0.00     0.060 C 
BRANCH   7   8
ATOM      8  C2' I4B d   1      -0.682   2.092  -2.217  0.00  0.00    -0.013 C 
ATOM      9  C4' I4B d   1      -0.181   2.351  -3.613  0.00  0.00     0.013 C 
ATOM     10  C3' I4B d   1      -2.002   2.764  -1.981  0.00  0.00     0.013 C 
ENDBRANCH   7   8
ENDBRANCH   1   7
TORSDOF 2
ENDMDL
