MODEL 1
REMARK minimizedAffinity -0.141485542
REMARK minimizedRMSD -1
REMARK  2 active torsions:
REMARK  status: ('A' for Active; 'I' for Inactive)
REMARK    1  A    between atoms: C2'_3  and  C1'_4 
REMARK    2  A    between atoms: C1'_4  and  C1_5 
ROOT
ATOM      1  C1  I4B d   1      -0.420   0.278  -1.032  0.00  0.00    -0.075 A 
ATOM      2  C2  I4B d   1       0.811  -0.112  -1.498  0.00  0.00     0.003 A 
ATOM      3  C3  I4B d   1       1.766  -0.667  -0.611  0.00  0.00     0.002 A 
ATOM      4  C4  I4B d   1       1.468  -0.765   0.733  0.00  0.00    -0.004 A 
ATOM      5  C5  I4B d   1       0.211  -0.391   1.199  0.00  0.00     0.002 A 
ATOM      6  C6  I4B d   1      -0.744   0.122   0.309  0.00  0.00     0.003 A 
ENDROOT
BRANCH   1   7
ATOM      7  C1' I4B d   1      -1.392   0.890  -1.990  0.00  0.00     0.060 C 
BRANCH   7   8
ATOM      8  C2' I4B d   1      -1.327   2.394  -1.824  0.00  0.00    -0.013 C 
ATOM      9  C4' I4B d   1      -0.156   2.975  -2.573  0.00  0.00     0.013 C 
ATOM     10  C3' I4B d   1      -2.622   2.970  -2.313  0.00  0.00     0.013 C 
ENDBRANCH   7   8
ENDBRANCH   1   7
TORSDOF 2
ENDMDL
