MODEL 1
REMARK minimizedAffinity -4.53730345
REMARK minimizedRMSD -1
REMARK  2 active torsions:
REMARK  status: ('A' for Active; 'I' for Inactive)
REMARK    1  A    between atoms: C2'_3  and  C1'_4 
REMARK    2  A    between atoms: C1'_4  and  C1_5 
ROOT
ATOM      1  C1  I4B d   1       0.172  -0.157  -0.282  0.00  0.00    -0.075 A 
ATOM      2  C2  I4B d   1      -0.910  -0.110   0.560  0.00  0.00     0.003 A 
ATOM      3  C3  I4B d   1      -0.745  -0.343   1.947  0.00  0.00     0.002 A 
ATOM      4  C4  I4B d   1       0.504  -0.667   2.437  0.00  0.00    -0.004 A 
ATOM      5  C5  I4B d   1       1.604  -0.692   1.585  0.00  0.00     0.002 A 
ATOM      6  C6  I4B d   1       1.440  -0.423   0.218  0.00  0.00     0.003 A 
ENDROOT
BRANCH   1   7
ATOM      7  C1' I4B d   1      -0.044   0.062  -1.746  0.00  0.00     0.060 C 
BRANCH   7   8
ATOM      8  C2' I4B d   1      -0.523   1.486  -1.940  0.00  0.00    -0.013 C 
ATOM      9  C4' I4B d   1       0.564   2.352  -2.521  0.00  0.00     0.013 C 
ATOM     10  C3' I4B d   1      -1.725   1.453  -2.835  0.00  0.00     0.013 C 
ENDBRANCH   7   8
ENDBRANCH   1   7
TORSDOF 2
ENDMDL
