MODEL 1
REMARK minimizedAffinity -4.62934637
REMARK minimizedRMSD -1
REMARK  2 active torsions:
REMARK  status: ('A' for Active; 'I' for Inactive)
REMARK    1  A    between atoms: C2'_3  and  C1'_4 
REMARK    2  A    between atoms: C1'_4  and  C1_5 
ROOT
ATOM      1  C1  I4B d   1      -0.258   0.073  -0.358  0.00  0.00    -0.075 A 
ATOM      2  C2  I4B d   1       1.052  -0.295  -0.172  0.00  0.00     0.003 A 
ATOM      3  C3  I4B d   1       1.514  -0.659   1.115  0.00  0.00     0.002 A 
ATOM      4  C4  I4B d   1       0.651  -0.594   2.191  0.00  0.00    -0.004 A 
ATOM      5  C5  I4B d   1      -0.682  -0.243   1.996  0.00  0.00     0.002 A 
ATOM      6  C6  I4B d   1      -1.143   0.081   0.712  0.00  0.00     0.003 A 
ENDROOT
BRANCH   1   7
ATOM      7  C1' I4B d   1      -0.704   0.483  -1.726  0.00  0.00     0.060 C 
BRANCH   7   8
ATOM      8  C2' I4B d   1      -0.567   1.989  -1.829  0.00  0.00    -0.013 C 
ATOM      9  C4' I4B d   1       0.715   2.374  -2.519  0.00  0.00     0.013 C 
ATOM     10  C3' I4B d   1      -1.760   2.512  -2.571  0.00  0.00     0.013 C 
ENDBRANCH   7   8
ENDBRANCH   1   7
TORSDOF 2
ENDMDL
