MODEL 1
REMARK minimizedAffinity -5.12274551
REMARK minimizedRMSD -1
REMARK  2 active torsions:
REMARK  status: ('A' for Active; 'I' for Inactive)
REMARK    1  A    between atoms: C2'_3  and  C1'_4 
REMARK    2  A    between atoms: C1'_4  and  C1_5 
ROOT
ATOM      1  C1  I4B d   1       0.075  -0.151  -0.244  0.00  0.00    -0.075 A 
ATOM      2  C2  I4B d   1      -0.857  -0.077   0.761  0.00  0.00     0.003 A 
ATOM      3  C3  I4B d   1      -0.463  -0.234   2.112  0.00  0.00     0.002 A 
ATOM      4  C4  I4B d   1       0.856  -0.513   2.407  0.00  0.00    -0.004 A 
ATOM      5  C5  I4B d   1       1.804  -0.565   1.388  0.00  0.00     0.002 A 
ATOM      6  C6  I4B d   1       1.413  -0.371   0.055  0.00  0.00     0.003 A 
ENDROOT
BRANCH   1   7
ATOM      7  C1' I4B d   1      -0.382  -0.012  -1.662  0.00  0.00     0.060 C 
BRANCH   7   8
ATOM      8  C2' I4B d   1      -0.912   1.395  -1.846  0.00  0.00    -0.013 C 
ATOM      9  C4' I4B d   1       0.082   2.261  -2.573  0.00  0.00     0.013 C 
ATOM     10  C3' I4B d   1      -2.206   1.307  -2.598  0.00  0.00     0.013 C 
ENDBRANCH   7   8
ENDBRANCH   1   7
TORSDOF 2
ENDMDL
