MODEL 1
REMARK minimizedAffinity -5.58118868
REMARK minimizedRMSD -1
REMARK  2 active torsions:
REMARK  status: ('A' for Active; 'I' for Inactive)
REMARK    1  A    between atoms: C2'_3  and  C1'_4 
REMARK    2  A    between atoms: C1'_4  and  C1_5 
ROOT
ATOM      1  C1  I4B d   1       0.743  -0.045   0.532  0.00  0.00    -0.075 A 
ATOM      2  C2  I4B d   1       0.347  -0.136  -0.779  0.00  0.00     0.003 A 
ATOM      3  C3  I4B d   1      -1.020  -0.316  -1.101  0.00  0.00     0.002 A 
ATOM      4  C4  I4B d   1      -1.945  -0.450  -0.085  0.00  0.00    -0.004 A 
ATOM      5  C5  I4B d   1      -1.545  -0.335   1.243  0.00  0.00     0.002 A 
ATOM      6  C6  I4B d   1      -0.195  -0.119   1.554  0.00  0.00     0.003 A 
ENDROOT
BRANCH   1   7
ATOM      7  C1' I4B d   1       2.199   0.112   0.836  0.00  0.00     0.060 C 
BRANCH   7   8
ATOM      8  C2' I4B d   1       2.765  -1.262   1.131  0.00  0.00    -0.013 C 
ATOM      9  C4' I4B d   1       1.919  -1.996   2.137  0.00  0.00     0.013 C 
ATOM     10  C3' I4B d   1       2.846  -2.017  -0.162  0.00  0.00     0.013 C 
ENDBRANCH   7   8
ENDBRANCH   1   7
TORSDOF 2
ENDMDL
