MODEL 1
REMARK minimizedAffinity -4.95812082
REMARK minimizedRMSD -1
REMARK  2 active torsions:
REMARK  status: ('A' for Active; 'I' for Inactive)
REMARK    1  A    between atoms: C2'_3  and  C1'_4 
REMARK    2  A    between atoms: C1'_4  and  C1_5 
ROOT
ATOM      1  C1  I4B d   1       0.235  -0.339  -0.062  0.00  0.00    -0.075 A 
ATOM      2  C2  I4B d   1      -0.588  -0.095   1.009  0.00  0.00     0.003 A 
ATOM      3  C3  I4B d   1      -0.173  -0.438   2.319  0.00  0.00     0.002 A 
ATOM      4  C4  I4B d   1       1.043  -1.064   2.505  0.00  0.00    -0.004 A 
ATOM      5  C5  I4B d   1       1.885  -1.289   1.420  0.00  0.00     0.002 A 
ATOM      6  C6  I4B d   1       1.485  -0.913   0.129  0.00  0.00     0.003 A 
ENDROOT
BRANCH   1   7
ATOM      7  C1' I4B d   1      -0.249   0.006  -1.435  0.00  0.00     0.060 C 
BRANCH   7   8
ATOM      8  C2' I4B d   1      -0.694   1.454  -1.424  0.00  0.00    -0.013 C 
ATOM      9  C4' I4B d   1       0.340   2.348  -2.054  0.00  0.00     0.013 C 
ATOM     10  C3' I4B d   1      -2.002   1.542  -2.152  0.00  0.00     0.013 C 
ENDBRANCH   7   8
ENDBRANCH   1   7
TORSDOF 2
ENDMDL
