MODEL 1
REMARK minimizedAffinity 12.4919024
REMARK minimizedRMSD -1
REMARK  0 active torsions:
REMARK  status: ('A' for Active; 'I' for Inactive)
ROOT
ATOM      1  C4' PXY d   1       2.755   5.996  -4.694  0.00  0.00     0.077 C 
ATOM      2  C1' PXY d   1      -2.158   3.175  -3.546  0.00  0.00     0.077 C 
ATOM      3  C1  PXY d   1      -0.875   3.919  -3.859  0.00  0.00    -0.082 A 
ATOM      4  C2  PXY d   1       0.249   3.564  -3.258  0.00  0.00     0.003 A 
ATOM      5  C3  PXY d   1       1.413   4.246  -3.505  0.00  0.00     0.003 A 
ATOM      6  C4  PXY d   1       1.437   5.268  -4.416  0.00  0.00    -0.082 A 
ATOM      7  C5  PXY d   1       0.296   5.628  -5.042  0.00  0.00     0.003 A 
ATOM      8  C6  PXY d   1      -0.883   4.950  -4.746  0.00  0.00     0.003 A 
ENDROOT
TORSDOF 0
ENDMDL
