MODEL 1
REMARK minimizedAffinity 9.07037449
REMARK minimizedRMSD -1
REMARK  0 active torsions:
REMARK  status: ('A' for Active; 'I' for Inactive)
ROOT
ATOM      1  C4' PXY d   1      -1.280   2.033   0.393  0.00  0.00     0.077 C 
ATOM      2  C1' PXY d   1       0.320   4.763  -4.444  0.00  0.00     0.077 C 
ATOM      3  C1  PXY d   1      -0.087   4.043  -3.174  0.00  0.00    -0.082 A 
ATOM      4  C2  PXY d   1      -1.346   3.670  -3.008  0.00  0.00     0.003 A 
ATOM      5  C3  PXY d   1      -1.738   3.046  -1.852  0.00  0.00     0.003 A 
ATOM      6  C4  PXY d   1      -0.821   2.754  -0.878  0.00  0.00    -0.082 A 
ATOM      7  C5  PXY d   1       0.467   3.122  -1.044  0.00  0.00     0.003 A 
ATOM      8  C6  PXY d   1       0.836   3.791  -2.207  0.00  0.00     0.003 A 
ENDROOT
TORSDOF 0
ENDMDL
