MODEL 1
REMARK minimizedAffinity 14.6128645
REMARK minimizedRMSD -1
REMARK  0 active torsions:
REMARK  status: ('A' for Active; 'I' for Inactive)
ROOT
ATOM      1  C4' PXY d   1       4.707  -1.158  -5.875  0.00  0.00     0.077 C 
ATOM      2  C1' PXY d   1      -0.789  -2.944  -5.992  0.00  0.00     0.077 C 
ATOM      3  C1  PXY d   1       0.648  -2.464  -5.967  0.00  0.00    -0.082 A 
ATOM      4  C2  PXY d   1       1.632  -3.348  -5.923  0.00  0.00     0.003 A 
ATOM      5  C3  PXY d   1       2.937  -2.931  -5.867  0.00  0.00     0.003 A 
ATOM      6  C4  PXY d   1       3.241  -1.597  -5.911  0.00  0.00    -0.082 A 
ATOM      7  C5  PXY d   1       2.243  -0.689  -5.967  0.00  0.00     0.003 A 
ATOM      8  C6  PXY d   1       0.924  -1.132  -5.981  0.00  0.00     0.003 A 
ENDROOT
TORSDOF 0
ENDMDL
