MODEL 1
REMARK minimizedAffinity 8.46943951
REMARK minimizedRMSD -1
REMARK  0 active torsions:
REMARK  status: ('A' for Active; 'I' for Inactive)
ROOT
ATOM      1  C4' PXY d   1      -5.162   5.994   4.148  0.00  0.00     0.077 C 
ATOM      2  C1' PXY d   1      -4.397   5.969  -1.582  0.00  0.00     0.077 C 
ATOM      3  C1  PXY d   1      -4.585   5.970  -0.078  0.00  0.00    -0.082 A 
ATOM      4  C2  PXY d   1      -5.808   5.961   0.428  0.00  0.00     0.003 A 
ATOM      5  C3  PXY d   1      -5.998   5.994   1.786  0.00  0.00     0.003 A 
ATOM      6  C4  PXY d   1      -4.924   5.983   2.635  0.00  0.00    -0.082 A 
ATOM      7  C5  PXY d   1      -3.673   5.982   2.127  0.00  0.00     0.003 A 
ATOM      8  C6  PXY d   1      -3.503   5.990   0.746  0.00  0.00     0.003 A 
ENDROOT
TORSDOF 0
ENDMDL
