MODEL 1
REMARK minimizedAffinity 12.0490837
REMARK minimizedRMSD -1
REMARK  0 active torsions:
REMARK  status: ('A' for Active; 'I' for Inactive)
ROOT
ATOM      1  C4' PXY d   1       1.233  -2.932  -4.155  0.00  0.00     0.077 C 
ATOM      2  C1' PXY d   1       1.799  -3.400   1.579  0.00  0.00     0.077 C 
ATOM      3  C1  PXY d   1       1.658  -3.287   0.074  0.00  0.00    -0.082 A 
ATOM      4  C2  PXY d   1       1.328  -2.126  -0.467  0.00  0.00     0.003 A 
ATOM      5  C3  PXY d   1       1.165  -2.014  -1.824  0.00  0.00     0.003 A 
ATOM      6  C4  PXY d   1       1.395  -3.090  -2.640  0.00  0.00    -0.082 A 
ATOM      7  C5  PXY d   1       1.743  -4.275  -2.097  0.00  0.00     0.003 A 
ATOM      8  C6  PXY d   1       1.863  -4.378  -0.714  0.00  0.00     0.003 A 
ENDROOT
TORSDOF 0
ENDMDL
