MODEL 1
REMARK minimizedAffinity 13.4799299
REMARK minimizedRMSD -1
REMARK  0 active torsions:
REMARK  status: ('A' for Active; 'I' for Inactive)
ROOT
ATOM      1  C4' PXY d   1      -5.108   5.945   3.964  0.00  0.00     0.077 C 
ATOM      2  C1' PXY d   1      -4.477   5.964  -1.782  0.00  0.00     0.077 C 
ATOM      3  C1  PXY d   1      -4.630   5.953  -0.274  0.00  0.00    -0.082 A 
ATOM      4  C2  PXY d   1      -5.841   5.976   0.260  0.00  0.00     0.003 A 
ATOM      5  C3  PXY d   1      -5.997   5.999   1.622  0.00  0.00     0.003 A 
ATOM      6  C4  PXY d   1      -4.905   5.945   2.446  0.00  0.00    -0.082 A 
ATOM      7  C5  PXY d   1      -3.667   5.911   1.909  0.00  0.00     0.003 A 
ATOM      8  C6  PXY d   1      -3.528   5.930   0.524  0.00  0.00     0.003 A 
ENDROOT
TORSDOF 0
ENDMDL
