MODEL 1
REMARK minimizedAffinity 10.9062767
REMARK minimizedRMSD -1
REMARK  0 active torsions:
REMARK  status: ('A' for Active; 'I' for Inactive)
ROOT
ATOM      1  C4' PXY d   1       1.507  -2.079  -5.999  0.00  0.00     0.077 C 
ATOM      2  C1' PXY d   1       1.657  -2.508  -0.237  0.00  0.00     0.077 C 
ATOM      3  C1  PXY d   1       1.617  -2.408  -1.749  0.00  0.00    -0.082 A 
ATOM      4  C2  PXY d   1       2.175  -1.371  -2.351  0.00  0.00     0.003 A 
ATOM      5  C3  PXY d   1       2.120  -1.249  -3.716  0.00  0.00     0.003 A 
ATOM      6  C4  PXY d   1       1.533  -2.226  -4.475  0.00  0.00    -0.082 A 
ATOM      7  C5  PXY d   1       0.970  -3.292  -3.869  0.00  0.00     0.003 A 
ATOM      8  C6  PXY d   1       1.001  -3.377  -2.480  0.00  0.00     0.003 A 
ENDROOT
TORSDOF 0
ENDMDL
