MODEL 1
REMARK minimizedAffinity 20.8960419
REMARK minimizedRMSD -1
REMARK  0 active torsions:
REMARK  status: ('A' for Active; 'I' for Inactive)
ROOT
ATOM      1  C4' PXY d   1      -5.233   5.936   4.402  0.00  0.00     0.077 C 
ATOM      2  C1' PXY d   1      -4.359   5.465  -1.293  0.00  0.00     0.077 C 
ATOM      3  C1  PXY d   1      -4.578   5.581   0.203  0.00  0.00    -0.082 A 
ATOM      4  C2  PXY d   1      -5.787   5.851   0.668  0.00  0.00     0.003 A 
ATOM      5  C3  PXY d   1      -5.996   5.991   2.016  0.00  0.00     0.003 A 
ATOM      6  C4  PXY d   1      -4.968   5.800   2.900  0.00  0.00    -0.082 A 
ATOM      7  C5  PXY d   1      -3.734   5.514   2.433  0.00  0.00     0.003 A 
ATOM      8  C6  PXY d   1      -3.534   5.417   1.059  0.00  0.00     0.003 A 
ENDROOT
TORSDOF 0
ENDMDL
