MODEL 1
REMARK minimizedAffinity 15.1516819
REMARK minimizedRMSD -1
REMARK  0 active torsions:
REMARK  status: ('A' for Active; 'I' for Inactive)
ROOT
ATOM      1  C4' PXY d   1       1.876  -1.602  -6.000  0.00  0.00     0.077 C 
ATOM      2  C1' PXY d   1       2.116  -6.000  -2.257  0.00  0.00     0.077 C 
ATOM      3  C1  PXY d   1       2.060  -4.839  -3.230  0.00  0.00    -0.082 A 
ATOM      4  C2  PXY d   1       1.102  -4.796  -4.141  0.00  0.00     0.003 A 
ATOM      5  C3  PXY d   1       1.055  -3.770  -5.050  0.00  0.00     0.003 A 
ATOM      6  C4  PXY d   1       1.966  -2.750  -4.991  0.00  0.00    -0.082 A 
ATOM      7  C5  PXY d   1       2.940  -2.781  -4.057  0.00  0.00     0.003 A 
ATOM      8  C6  PXY d   1       2.995  -3.853  -3.170  0.00  0.00     0.003 A 
ENDROOT
TORSDOF 0
ENDMDL
