MODEL 1
REMARK minimizedAffinity 13.3448486
REMARK minimizedRMSD -1
REMARK  0 active torsions:
REMARK  status: ('A' for Active; 'I' for Inactive)
ROOT
ATOM      1  C4' PXY d   1       1.871  -1.032  -5.996  0.00  0.00     0.077 C 
ATOM      2  C1' PXY d   1       1.148  -4.034  -1.109  0.00  0.00     0.077 C 
ATOM      3  C1  PXY d   1       1.336  -3.257  -2.398  0.00  0.00    -0.082 A 
ATOM      4  C2  PXY d   1       2.042  -2.139  -2.390  0.00  0.00     0.003 A 
ATOM      5  C3  PXY d   1       2.195  -1.407  -3.540  0.00  0.00     0.003 A 
ATOM      6  C4  PXY d   1       1.664  -1.853  -4.721  0.00  0.00    -0.082 A 
ATOM      7  C5  PXY d   1       0.951  -3.000  -4.738  0.00  0.00     0.003 A 
ATOM      8  C6  PXY d   1       0.772  -3.706  -3.552  0.00  0.00     0.003 A 
ENDROOT
TORSDOF 0
ENDMDL
