MODEL 1
REMARK minimizedAffinity 14.3805351
REMARK minimizedRMSD -1
REMARK  0 active torsions:
REMARK  status: ('A' for Active; 'I' for Inactive)
ROOT
ATOM      1  C4' PXY d   1      -0.809   1.387   0.857  0.00  0.00     0.077 C 
ATOM      2  C1' PXY d   1       2.471   6.000   2.031  0.00  0.00     0.077 C 
ATOM      3  C1  PXY d   1       1.616   4.783   1.733  0.00  0.00    -0.082 A 
ATOM      4  C2  PXY d   1       1.108   4.622   0.523  0.00  0.00     0.003 A 
ATOM      5  C3  PXY d   1       0.306   3.545   0.245  0.00  0.00     0.003 A 
ATOM      6  C4  PXY d   1       0.067   2.595   1.201  0.00  0.00    -0.082 A 
ATOM      7  C5  PXY d   1       0.591   2.746   2.436  0.00  0.00     0.003 A 
ATOM      8  C6  PXY d   1       1.368   3.868   2.709  0.00  0.00     0.003 A 
ENDROOT
TORSDOF 0
ENDMDL
