MODEL 1
REMARK minimizedAffinity 12.1708641
REMARK minimizedRMSD -1
REMARK  0 active torsions:
REMARK  status: ('A' for Active; 'I' for Inactive)
ROOT
ATOM      1  C4' PXY d   1      -1.532   1.216   3.098  0.00  0.00     0.077 C 
ATOM      2  C1' PXY d   1       0.809   3.743  -1.545  0.00  0.00     0.077 C 
ATOM      3  C1  PXY d   1       0.184   3.087  -0.329  0.00  0.00    -0.082 A 
ATOM      4  C2  PXY d   1       0.963   2.594   0.620  0.00  0.00     0.003 A 
ATOM      5  C3  PXY d   1       0.415   1.969   1.711  0.00  0.00     0.003 A 
ATOM      6  C4  PXY d   1      -0.945   1.896   1.857  0.00  0.00    -0.082 A 
ATOM      7  C5  PXY d   1      -1.745   2.406   0.898  0.00  0.00     0.003 A 
ATOM      8  C6  PXY d   1      -1.169   3.000  -0.221  0.00  0.00     0.003 A 
ENDROOT
TORSDOF 0
ENDMDL
