MODEL 1
REMARK minimizedAffinity 14.7332163
REMARK minimizedRMSD -1
REMARK  0 active torsions:
REMARK  status: ('A' for Active; 'I' for Inactive)
ROOT
ATOM      1  C4' PXY d   1       0.353   4.814  -4.147  0.00  0.00     0.077 C 
ATOM      2  C1' PXY d   1      -1.156   1.479   0.327  0.00  0.00     0.077 C 
ATOM      3  C1  PXY d   1      -0.768   2.347  -0.854  0.00  0.00    -0.082 A 
ATOM      4  C2  PXY d   1       0.389   2.987  -0.843  0.00  0.00     0.003 A 
ATOM      5  C3  PXY d   1       0.742   3.801  -1.889  0.00  0.00     0.003 A 
ATOM      6  C4  PXY d   1      -0.076   3.920  -2.981  0.00  0.00    -0.082 A 
ATOM      7  C5  PXY d   1      -1.254   3.261  -3.004  0.00  0.00     0.003 A 
ATOM      8  C6  PXY d   1      -1.612   2.472  -1.915  0.00  0.00     0.003 A 
ENDROOT
TORSDOF 0
ENDMDL
