MODEL 1
REMARK minimizedAffinity 15.7539854
REMARK minimizedRMSD -1
REMARK  0 active torsions:
REMARK  status: ('A' for Active; 'I' for Inactive)
ROOT
ATOM      1  C4' PXY d   1      -4.917   5.912   3.664  0.00  0.00     0.077 C 
ATOM      2  C1' PXY d   1      -4.587   6.000  -2.106  0.00  0.00     0.077 C 
ATOM      3  C1  PXY d   1      -4.686   5.982  -0.594  0.00  0.00    -0.082 A 
ATOM      4  C2  PXY d   1      -3.581   5.988   0.134  0.00  0.00     0.003 A 
ATOM      5  C3  PXY d   1      -3.651   5.940   1.502  0.00  0.00     0.003 A 
ATOM      6  C4  PXY d   1      -4.866   5.939   2.134  0.00  0.00    -0.082 A 
ATOM      7  C5  PXY d   1      -5.998   5.944   1.399  0.00  0.00     0.003 A 
ATOM      8  C6  PXY d   1      -5.905   5.951   0.010  0.00  0.00     0.003 A 
ENDROOT
TORSDOF 0
ENDMDL
