MODEL 1
REMARK minimizedAffinity 0.655622602
REMARK minimizedRMSD -1
REMARK  0 active torsions:
REMARK  status: ('A' for Active; 'I' for Inactive)
ROOT
ATOM      1  C4' PXY d   1      -5.895  -3.068   0.797  0.00  0.00     0.077 C 
ATOM      2  C1' PXY d   1      -6.000  -5.998   5.780  0.00  0.00     0.077 C 
ATOM      3  C1  PXY d   1      -5.967  -5.240   4.467  0.00  0.00    -0.082 A 
ATOM      4  C2  PXY d   1      -5.922  -3.918   4.476  0.00  0.00     0.003 A 
ATOM      5  C3  PXY d   1      -5.925  -3.215   3.298  0.00  0.00     0.003 A 
ATOM      6  C4  PXY d   1      -5.919  -3.875   2.099  0.00  0.00    -0.082 A 
ATOM      7  C5  PXY d   1      -5.954  -5.224   2.081  0.00  0.00     0.003 A 
ATOM      8  C6  PXY d   1      -5.993  -5.918   3.287  0.00  0.00     0.003 A 
ENDROOT
TORSDOF 0
ENDMDL
