MODEL 1
REMARK minimizedAffinity 17.0656605
REMARK minimizedRMSD -1
REMARK  0 active torsions:
REMARK  status: ('A' for Active; 'I' for Inactive)
ROOT
ATOM      1  C4' PXY d   1       2.246  -1.396  -5.999  0.00  0.00     0.077 C 
ATOM      2  C1' PXY d   1       0.917  -4.177  -1.109  0.00  0.00     0.077 C 
ATOM      3  C1  PXY d   1       1.260  -3.457  -2.398  0.00  0.00    -0.082 A 
ATOM      4  C2  PXY d   1       2.269  -2.602  -2.422  0.00  0.00     0.003 A 
ATOM      5  C3  PXY d   1       2.573  -1.919  -3.571  0.00  0.00     0.003 A 
ATOM      6  C4  PXY d   1       1.870  -2.153  -4.722  0.00  0.00    -0.082 A 
ATOM      7  C5  PXY d   1       0.845  -3.031  -4.709  0.00  0.00     0.003 A 
ATOM      8  C6  PXY d   1       0.527  -3.684  -3.522  0.00  0.00     0.003 A 
ENDROOT
TORSDOF 0
ENDMDL
