MODEL 1
REMARK minimizedAffinity 11.1601591
REMARK minimizedRMSD -1
REMARK  0 active torsions:
REMARK  status: ('A' for Active; 'I' for Inactive)
ROOT
ATOM      1  C4' PXY d   1       0.855   5.998  -2.178  0.00  0.00     0.077 C 
ATOM      2  C1' PXY d   1      -0.718   1.563   1.179  0.00  0.00     0.077 C 
ATOM      3  C1  PXY d   1      -0.313   2.734   0.305  0.00  0.00    -0.082 A 
ATOM      4  C2  PXY d   1       0.171   2.510  -0.906  0.00  0.00     0.003 A 
ATOM      5  C3  PXY d   1       0.571   3.556  -1.697  0.00  0.00     0.003 A 
ATOM      6  C4  PXY d   1       0.425   4.847  -1.265  0.00  0.00    -0.082 A 
ATOM      7  C5  PXY d   1      -0.078   5.084  -0.035  0.00  0.00     0.003 A 
ATOM      8  C6  PXY d   1      -0.440   4.007   0.769  0.00  0.00     0.003 A 
ENDROOT
TORSDOF 0
ENDMDL
