MODEL 1
REMARK minimizedAffinity 7.6891098
REMARK minimizedRMSD -1
REMARK  0 active torsions:
REMARK  status: ('A' for Active; 'I' for Inactive)
ROOT
ATOM      1  C4' PXY d   1      -2.079   1.272   0.588  0.00  0.00     0.077 C 
ATOM      2  C1' PXY d   1       1.382   5.020  -2.130  0.00  0.00     0.077 C 
ATOM      3  C1  PXY d   1       0.484   4.030  -1.415  0.00  0.00    -0.082 A 
ATOM      4  C2  PXY d   1      -0.809   4.000  -1.693  0.00  0.00     0.003 A 
ATOM      5  C3  PXY d   1      -1.640   3.132  -1.032  0.00  0.00     0.003 A 
ATOM      6  C4  PXY d   1      -1.134   2.249  -0.116  0.00  0.00    -0.082 A 
ATOM      7  C5  PXY d   1       0.186   2.266   0.165  0.00  0.00     0.003 A 
ATOM      8  C6  PXY d   1       1.007   3.183  -0.487  0.00  0.00     0.003 A 
ENDROOT
TORSDOF 0
ENDMDL
