MODEL 1
REMARK minimizedAffinity 13.383462
REMARK minimizedRMSD -1
REMARK  0 active torsions:
REMARK  status: ('A' for Active; 'I' for Inactive)
ROOT
ATOM      1  C4' PXY d   1       1.071   6.000   1.152  0.00  0.00     0.077 C 
ATOM      2  C1' PXY d   1      -1.498   3.381  -3.314  0.00  0.00     0.077 C 
ATOM      3  C1  PXY d   1      -0.828   4.079  -2.148  0.00  0.00    -0.082 A 
ATOM      4  C2  PXY d   1       0.155   3.475  -1.500  0.00  0.00     0.003 A 
ATOM      5  C3  PXY d   1       0.751   4.079  -0.423  0.00  0.00     0.003 A 
ATOM      6  C4  PXY d   1       0.372   5.337  -0.037  0.00  0.00    -0.082 A 
ATOM      7  C5  PXY d   1      -0.622   5.964  -0.699  0.00  0.00     0.003 A 
ATOM      8  C6  PXY d   1      -1.242   5.317  -1.765  0.00  0.00     0.003 A 
ENDROOT
TORSDOF 0
ENDMDL
