MODEL 1
REMARK minimizedAffinity 11.8154907
REMARK minimizedRMSD -1
REMARK  0 active torsions:
REMARK  status: ('A' for Active; 'I' for Inactive)
ROOT
ATOM      1  C4' PXY d   1       1.718  -2.315  -4.093  0.00  0.00     0.077 C 
ATOM      2  C1' PXY d   1       1.983  -2.967   1.645  0.00  0.00     0.077 C 
ATOM      3  C1  PXY d   1       1.920  -2.807   0.139  0.00  0.00    -0.082 A 
ATOM      4  C2  PXY d   1       1.768  -1.602  -0.386  0.00  0.00     0.003 A 
ATOM      5  C3  PXY d   1       1.677  -1.443  -1.744  0.00  0.00     0.003 A 
ATOM      6  C4  PXY d   1       1.796  -2.523  -2.578  0.00  0.00    -0.082 A 
ATOM      7  C5  PXY d   1       1.963  -3.755  -2.051  0.00  0.00     0.003 A 
ATOM      8  C6  PXY d   1       2.012  -3.899  -0.667  0.00  0.00     0.003 A 
ENDROOT
TORSDOF 0
ENDMDL
