MODEL 1
REMARK minimizedAffinity -3.36992455
REMARK minimizedRMSD -1
REMARK  1 active torsions:
REMARK  status: ('A' for Active; 'I' for Inactive)
REMARK    1  A    between atoms: N_2  and  C1_3 
ROOT
ATOM      1  C1  UNL d   1       1.146   0.389  -1.361  0.00  0.00     0.143 A 
ATOM      2  C2  UNL d   1       0.806  -0.649  -0.487  0.00  0.00    -0.057 A 
ATOM      3  C3  UNL d   1       1.542  -1.840  -0.452  0.00  0.00     0.033 A 
ATOM      4  C4  UNL d   1       2.618  -2.025  -1.314  0.00  0.00    -0.042 A 
ATOM      5  C5  UNL d   1       2.959  -1.017  -2.209  0.00  0.00     0.033 A 
ATOM      6  C6  UNL d   1       2.224   0.172  -2.234  0.00  0.00    -0.057 A 
ENDROOT
BRANCH   1   7
ATOM      7  N   UNL d   1       0.394   1.556  -1.513  0.00  0.00    -0.732 N 
ATOM      8  C   UNL d   1      -0.793   1.777  -0.716  0.00  0.00     0.284 C 
ATOM      9  H3  UNL d   1       0.978   2.382  -1.627  0.00  0.00     0.395 HD
ENDBRANCH   1   7
TORSDOF 1
ENDMDL
