MODEL 1
REMARK minimizedAffinity 2.37478042
REMARK minimizedRMSD -1
REMARK  1 active torsions:
REMARK  status: ('A' for Active; 'I' for Inactive)
REMARK    1  A    between atoms: N_2  and  C1_3 
ROOT
ATOM      1  C1  UNL d   1       0.245   0.969  -1.223  0.00  0.00     0.143 A 
ATOM      2  C2  UNL d   1       0.593   2.012  -2.089  0.00  0.00    -0.057 A 
ATOM      3  C3  UNL d   1       1.689   1.903  -2.953  0.00  0.00     0.033 A 
ATOM      4  C4  UNL d   1       2.477   0.757  -2.946  0.00  0.00    -0.042 A 
ATOM      5  C5  UNL d   1       2.165  -0.283  -2.076  0.00  0.00     0.033 A 
ATOM      6  C6  UNL d   1       1.065  -0.171  -1.221  0.00  0.00    -0.057 A 
ENDROOT
BRANCH   1   7
ATOM      7  N   UNL d   1      -0.774   1.055  -0.271  0.00  0.00    -0.732 N 
ATOM      8  C   UNL d   1      -2.079   0.487  -0.535  0.00  0.00     0.284 C 
ATOM      9  H3  UNL d   1      -0.435   0.898   0.675  0.00  0.00     0.395 HD
ENDBRANCH   1   7
TORSDOF 1
ENDMDL
