MODEL 1
REMARK minimizedAffinity 3.86406612
REMARK minimizedRMSD -1
REMARK  1 active torsions:
REMARK  status: ('A' for Active; 'I' for Inactive)
REMARK    1  A    between atoms: N_2  and  C1_3 
ROOT
ATOM      1  C1  UNL d   1       0.971   0.585  -1.645  0.00  0.00     0.143 A 
ATOM      2  C2  UNL d   1      -0.231   0.206  -1.040  0.00  0.00    -0.057 A 
ATOM      3  C3  UNL d   1      -0.387  -1.061  -0.465  0.00  0.00     0.033 A 
ATOM      4  C4  UNL d   1       0.652  -1.985  -0.511  0.00  0.00    -0.042 A 
ATOM      5  C5  UNL d   1       1.848  -1.638  -1.130  0.00  0.00     0.033 A 
ATOM      6  C6  UNL d   1       2.000  -0.369  -1.696  0.00  0.00    -0.057 A 
ENDROOT
BRANCH   1   7
ATOM      7  N   UNL d   1       1.155   1.794  -2.321  0.00  0.00    -0.732 N 
ATOM      8  C   UNL d   1       1.691   1.813  -3.665  0.00  0.00     0.284 C 
ATOM      9  H3  UNL d   1       0.386   2.444  -2.171  0.00  0.00     0.395 HD
ENDBRANCH   1   7
TORSDOF 1
ENDMDL
