MODEL 1
REMARK minimizedAffinity 4.30086565
REMARK minimizedRMSD -1
REMARK  1 active torsions:
REMARK  status: ('A' for Active; 'I' for Inactive)
REMARK    1  A    between atoms: N_2  and  C1_3 
ROOT
ATOM      1  C1  UNL d   1       0.876  -0.287  -1.151  0.00  0.00     0.143 A 
ATOM      2  C2  UNL d   1       2.230  -0.062  -1.425  0.00  0.00    -0.057 A 
ATOM      3  C3  UNL d   1       3.199  -1.033  -1.141  0.00  0.00     0.033 A 
ATOM      4  C4  UNL d   1       2.833  -2.237  -0.550  0.00  0.00    -0.042 A 
ATOM      5  C5  UNL d   1       1.496  -2.472  -0.246  0.00  0.00     0.033 A 
ATOM      6  C6  UNL d   1       0.533  -1.502  -0.538  0.00  0.00    -0.057 A 
ENDROOT
BRANCH   1   7
ATOM      7  N   UNL d   1      -0.121   0.677  -1.319  0.00  0.00    -0.732 N 
ATOM      8  C   UNL d   1       0.122   2.059  -0.967  0.00  0.00     0.284 C 
ATOM      9  H3  UNL d   1      -0.638   0.553  -2.187  0.00  0.00     0.395 HD
ENDBRANCH   1   7
TORSDOF 1
ENDMDL
