MODEL 1
REMARK minimizedAffinity 5.48613071
REMARK minimizedRMSD -1
REMARK  1 active torsions:
REMARK  status: ('A' for Active; 'I' for Inactive)
REMARK    1  A    between atoms: N_2  and  C1_3 
ROOT
ATOM      1  C1  UNL d   1       0.763   1.654  -0.932  0.00  0.00     0.143 A 
ATOM      2  C2  UNL d   1       0.817   2.531  -2.022  0.00  0.00    -0.057 A 
ATOM      3  C3  UNL d   1       1.778   2.379  -3.029  0.00  0.00     0.033 A 
ATOM      4  C4  UNL d   1       2.724   1.362  -2.948  0.00  0.00    -0.042 A 
ATOM      5  C5  UNL d   1       2.705   0.495  -1.862  0.00  0.00     0.033 A 
ATOM      6  C6  UNL d   1       1.739   0.647  -0.863  0.00  0.00    -0.057 A 
ENDROOT
BRANCH   1   7
ATOM      7  N   UNL d   1      -0.105   1.812   0.150  0.00  0.00    -0.732 N 
ATOM      8  C   UNL d   1       0.389   2.267   1.432  0.00  0.00     0.284 C 
ATOM      9  H3  UNL d   1      -0.995   2.224  -0.122  0.00  0.00     0.395 HD
ENDBRANCH   1   7
TORSDOF 1
ENDMDL
