MODEL 1
REMARK minimizedAffinity 2.71465564
REMARK minimizedRMSD -1
REMARK  1 active torsions:
REMARK  status: ('A' for Active; 'I' for Inactive)
REMARK    1  A    between atoms: N_2  and  C1_3 
ROOT
ATOM      1  C1  UNL d   1       2.308   0.047  -1.862  0.00  0.00     0.143 A 
ATOM      2  C2  UNL d   1       1.030  -0.521  -1.918  0.00  0.00    -0.057 A 
ATOM      3  C3  UNL d   1       0.689  -1.621  -1.122  0.00  0.00     0.033 A 
ATOM      4  C4  UNL d   1       1.633  -2.194  -0.275  0.00  0.00    -0.042 A 
ATOM      5  C5  UNL d   1       2.916  -1.662  -0.222  0.00  0.00     0.033 A 
ATOM      6  C6  UNL d   1       3.249  -0.559  -1.015  0.00  0.00    -0.057 A 
ENDROOT
BRANCH   1   7
ATOM      7  N   UNL d   1       2.738   1.079  -2.700  0.00  0.00    -0.732 N 
ATOM      8  C   UNL d   1       1.782   1.873  -3.441  0.00  0.00     0.284 C 
ATOM      9  H3  UNL d   1       3.499   1.618  -2.293  0.00  0.00     0.395 HD
ENDBRANCH   1   7
TORSDOF 1
ENDMDL
