MODEL 1
REMARK minimizedAffinity -0.0453546271
REMARK minimizedRMSD -1
REMARK  1 active torsions:
REMARK  status: ('A' for Active; 'I' for Inactive)
REMARK    1  A    between atoms: N_2  and  C1_3 
ROOT
ATOM      1  C1  UNL d   1       1.975  -2.521  -0.257  0.00  0.00     0.143 A 
ATOM      2  C2  UNL d   1       2.986  -1.554  -0.228  0.00  0.00    -0.057 A 
ATOM      3  C3  UNL d   1       2.854  -0.345  -0.923  0.00  0.00     0.033 A 
ATOM      4  C4  UNL d   1       1.718  -0.094  -1.684  0.00  0.00    -0.042 A 
ATOM      5  C5  UNL d   1       0.711  -1.051  -1.747  0.00  0.00     0.033 A 
ATOM      6  C6  UNL d   1       0.845  -2.253  -1.046  0.00  0.00    -0.057 A 
ENDROOT
BRANCH   1   7
ATOM      7  N   UNL d   1       2.088  -3.783   0.332  0.00  0.00    -0.732 N 
ATOM      8  C   UNL d   1       1.017  -4.315   1.146  0.00  0.00     0.284 C 
ATOM      9  H3  UNL d   1       2.516  -4.465  -0.290  0.00  0.00     0.395 HD
ENDBRANCH   1   7
TORSDOF 1
ENDMDL
