MODEL 1
REMARK minimizedAffinity 3.04448009
REMARK minimizedRMSD -1
REMARK  1 active torsions:
REMARK  status: ('A' for Active; 'I' for Inactive)
REMARK    1  A    between atoms: N_2  and  C1_3 
ROOT
ATOM      1  C1  UNL d   1       0.890   1.471  -0.752  0.00  0.00     0.143 A 
ATOM      2  C2  UNL d   1      -0.448   1.621  -0.375  0.00  0.00    -0.057 A 
ATOM      3  C3  UNL d   1      -0.796   2.175   0.863  0.00  0.00     0.033 A 
ATOM      4  C4  UNL d   1       0.194   2.564   1.760  0.00  0.00    -0.042 A 
ATOM      5  C5  UNL d   1       1.531   2.401   1.416  0.00  0.00     0.033 A 
ATOM      6  C6  UNL d   1       1.872   1.853   0.176  0.00  0.00    -0.057 A 
ENDROOT
BRANCH   1   7
ATOM      7  N   UNL d   1       1.301   0.836  -1.927  0.00  0.00    -0.732 N 
ATOM      8  C   UNL d   1       2.252  -0.253  -1.883  0.00  0.00     0.284 C 
ATOM      9  H3  UNL d   1       0.533   0.692  -2.579  0.00  0.00     0.395 HD
ENDBRANCH   1   7
TORSDOF 1
ENDMDL
