MODEL 1
REMARK minimizedAffinity -1.03088582
REMARK minimizedRMSD -1
REMARK  0 active torsions:
REMARK  status: ('A' for Active; 'I' for Inactive)
ROOT
ATOM      1  C   UNL d   1      -1.171  -2.290   0.454  0.00  0.00     0.172 C 
ATOM      2  N   UNL d   1       0.122  -1.789   0.049  0.00  0.00    -0.070 N 
ATOM      3  C1  UNL d   1       1.332  -2.292   0.445  0.00  0.00    -0.004 A 
ATOM      4  C2  UNL d   1       2.319  -1.542  -0.158  0.00  0.00    -0.047 A 
ATOM      5  C3  UNL d   1       1.679  -0.554  -0.944  0.00  0.00    -0.047 A 
ATOM      6  C4  UNL d   1       0.319  -0.730  -0.797  0.00  0.00    -0.004 A 
ENDROOT
TORSDOF 0
ENDMDL
