MODEL 1
REMARK minimizedAffinity 1.27966833
REMARK minimizedRMSD -1
REMARK  0 active torsions:
REMARK  status: ('A' for Active; 'I' for Inactive)
ROOT
ATOM      1  C   UNL d   1       1.112  -0.720  -0.043  0.00  0.00     0.172 C 
ATOM      2  N   UNL d   1       1.197  -0.863  -1.478  0.00  0.00    -0.070 N 
ATOM      3  C1  UNL d   1       0.983  -2.019  -2.179  0.00  0.00    -0.004 A 
ATOM      4  C2  UNL d   1       1.158  -1.740  -3.517  0.00  0.00    -0.047 A 
ATOM      5  C3  UNL d   1       1.488  -0.368  -3.624  0.00  0.00    -0.047 A 
ATOM      6  C4  UNL d   1       1.505   0.151  -2.346  0.00  0.00    -0.004 A 
ENDROOT
TORSDOF 0
ENDMDL
