MODEL 1
REMARK minimizedAffinity -3.1633954
REMARK minimizedRMSD -1
REMARK  0 active torsions:
REMARK  status: ('A' for Active; 'I' for Inactive)
ROOT
ATOM      1  C   UNL d   1      -5.977  -0.525   2.461  0.00  0.00     0.172 C 
ATOM      2  N   UNL d   1      -4.780  -0.126   3.163  0.00  0.00    -0.070 N 
ATOM      3  C1  UNL d   1      -4.489   1.142   3.588  0.00  0.00    -0.004 A 
ATOM      4  C2  UNL d   1      -3.261   1.107   4.212  0.00  0.00    -0.047 A 
ATOM      5  C3  UNL d   1      -2.797  -0.229   4.159  0.00  0.00    -0.047 A 
ATOM      6  C4  UNL d   1      -3.757  -0.971   3.505  0.00  0.00    -0.004 A 
ENDROOT
TORSDOF 0
ENDMDL
