MODEL 1
REMARK minimizedAffinity 2.779356
REMARK minimizedRMSD -1
REMARK  0 active torsions:
REMARK  status: ('A' for Active; 'I' for Inactive)
ROOT
ATOM      1  C   UNL d   1       0.168   0.721  -3.154  0.00  0.00     0.172 C 
ATOM      2  N   UNL d   1       0.560  -0.046  -1.995  0.00  0.00    -0.070 N 
ATOM      3  C1  UNL d   1      -0.259  -0.864  -1.264  0.00  0.00    -0.004 A 
ATOM      4  C2  UNL d   1       0.491  -1.411  -0.246  0.00  0.00    -0.047 A 
ATOM      5  C3  UNL d   1       1.806  -0.903  -0.368  0.00  0.00    -0.047 A 
ATOM      6  C4  UNL d   1       1.821  -0.061  -1.460  0.00  0.00    -0.004 A 
ENDROOT
TORSDOF 0
ENDMDL
