MODEL 1
REMARK minimizedAffinity -2.46450686
REMARK minimizedRMSD -1
REMARK  0 active torsions:
REMARK  status: ('A' for Active; 'I' for Inactive)
ROOT
ATOM      1  C   UNL d   1       1.151  -4.195   1.104  0.00  0.00     0.172 C 
ATOM      2  N   UNL d   1       0.955  -2.965   0.373  0.00  0.00    -0.070 N 
ATOM      3  C1  UNL d   1      -0.250  -2.357   0.142  0.00  0.00    -0.004 A 
ATOM      4  C2  UNL d   1      -0.012  -1.213  -0.588  0.00  0.00    -0.047 A 
ATOM      5  C3  UNL d   1       1.384  -1.131  -0.804  0.00  0.00    -0.047 A 
ATOM      6  C4  UNL d   1       1.959  -2.228  -0.199  0.00  0.00    -0.004 A 
ENDROOT
TORSDOF 0
ENDMDL
