MODEL 1
REMARK minimizedAffinity 7.94991684
REMARK minimizedRMSD -1
REMARK  0 active torsions:
REMARK  status: ('A' for Active; 'I' for Inactive)
ROOT
ATOM      1  C   UNL d   1       1.079  -1.961  -2.190  0.00  0.00     0.172 C 
ATOM      2  N   UNL d   1       0.997  -0.522  -2.111  0.00  0.00    -0.070 N 
ATOM      3  C1  UNL d   1       1.327   0.353  -3.112  0.00  0.00    -0.004 A 
ATOM      4  C2  UNL d   1       1.110   1.631  -2.644  0.00  0.00    -0.047 A 
ATOM      5  C3  UNL d   1       0.636   1.521  -1.316  0.00  0.00    -0.047 A 
ATOM      6  C4  UNL d   1       0.575   0.178  -1.011  0.00  0.00    -0.004 A 
ENDROOT
TORSDOF 0
ENDMDL
