MODEL 1
REMARK minimizedAffinity 1.41990495
REMARK minimizedRMSD -1
REMARK  0 active torsions:
REMARK  status: ('A' for Active; 'I' for Inactive)
ROOT
ATOM      1  C   UNL d   1       1.198  -0.776  -0.337  0.00  0.00     0.172 C 
ATOM      2  N   UNL d   1       1.113  -0.058  -1.588  0.00  0.00    -0.070 N 
ATOM      3  C1  UNL d   1       0.682   1.233  -1.739  0.00  0.00    -0.004 A 
ATOM      4  C2  UNL d   1       0.750   1.546  -3.080  0.00  0.00    -0.047 A 
ATOM      5  C3  UNL d   1       1.238   0.403  -3.757  0.00  0.00    -0.047 A 
ATOM      6  C4  UNL d   1       1.454  -0.575  -2.809  0.00  0.00    -0.004 A 
ENDROOT
TORSDOF 0
ENDMDL
