MODEL 1
REMARK minimizedAffinity -1.83824456
REMARK minimizedRMSD -1
REMARK  0 active torsions:
REMARK  status: ('A' for Active; 'I' for Inactive)
ROOT
ATOM      1  C   UNL d   1       1.526   1.484  -4.614  0.00  0.00     0.172 C 
ATOM      2  N   UNL d   1       1.339   1.064  -3.245  0.00  0.00    -0.070 N 
ATOM      3  C1  UNL d   1       1.859  -0.070  -2.680  0.00  0.00    -0.004 A 
ATOM      4  C2  UNL d   1       1.453  -0.108  -1.363  0.00  0.00    -0.047 A 
ATOM      5  C3  UNL d   1       0.662   1.041  -1.130  0.00  0.00    -0.047 A 
ATOM      6  C4  UNL d   1       0.607   1.749  -2.312  0.00  0.00    -0.004 A 
ENDROOT
TORSDOF 0
ENDMDL
