MODEL 1
REMARK minimizedAffinity 4.41170931
REMARK minimizedRMSD -1
REMARK  0 active torsions:
REMARK  status: ('A' for Active; 'I' for Inactive)
ROOT
ATOM      1  C   UNL d   1       1.154   1.725  -3.524  0.00  0.00     0.172 C 
ATOM      2  N   UNL d   1       2.370   1.835  -4.295  0.00  0.00    -0.070 N 
ATOM      3  C1  UNL d   1       3.636   1.606  -3.826  0.00  0.00    -0.004 A 
ATOM      4  C2  UNL d   1       4.515   1.815  -4.866  0.00  0.00    -0.047 A 
ATOM      5  C3  UNL d   1       3.751   2.184  -5.999  0.00  0.00    -0.047 A 
ATOM      6  C4  UNL d   1       2.426   2.188  -5.617  0.00  0.00    -0.004 A 
ENDROOT
TORSDOF 0
ENDMDL
