MODEL 1
REMARK minimizedAffinity 0.943416119
REMARK minimizedRMSD -1
REMARK  0 active torsions:
REMARK  status: ('A' for Active; 'I' for Inactive)
ROOT
ATOM      1  C   UNL d   1      -4.056   5.624   2.452  0.00  0.00     0.172 C 
ATOM      2  N   UNL d   1      -4.569   5.735   3.798  0.00  0.00    -0.070 N 
ATOM      3  C1  UNL d   1      -3.819   5.960   4.921  0.00  0.00    -0.004 A 
ATOM      4  C2  UNL d   1      -4.677   6.000   6.000  0.00  0.00    -0.047 A 
ATOM      5  C3  UNL d   1      -5.987   5.789   5.507  0.00  0.00    -0.047 A 
ATOM      6  C4  UNL d   1      -5.891   5.628   4.141  0.00  0.00    -0.004 A 
ENDROOT
TORSDOF 0
ENDMDL
