MODEL 1
REMARK minimizedAffinity 0.54336834
REMARK minimizedRMSD -1
REMARK  0 active torsions:
REMARK  status: ('A' for Active; 'I' for Inactive)
ROOT
ATOM      1  C   UNL d   1       0.272  -2.757  -2.969  0.00  0.00     0.172 C 
ATOM      2  N   UNL d   1       0.553  -1.828  -1.899  0.00  0.00    -0.070 N 
ATOM      3  C1  UNL d   1       0.933  -0.522  -2.056  0.00  0.00    -0.004 A 
ATOM      4  C2  UNL d   1       1.102   0.021  -0.801  0.00  0.00    -0.047 A 
ATOM      5  C3  UNL d   1       0.815  -0.994   0.143  0.00  0.00    -0.047 A 
ATOM      6  C4  UNL d   1       0.478  -2.128  -0.565  0.00  0.00    -0.004 A 
ENDROOT
TORSDOF 0
ENDMDL
