MODEL 1
REMARK minimizedAffinity 5.16636086
REMARK minimizedRMSD -1
REMARK  0 active torsions:
REMARK  status: ('A' for Active; 'I' for Inactive)
ROOT
ATOM      1  C   UNL d   1       1.598   0.427  -3.858  0.00  0.00     0.172 C 
ATOM      2  N   UNL d   1       1.242   0.041  -2.513  0.00  0.00    -0.070 N 
ATOM      3  C1  UNL d   1       0.428   0.749  -1.668  0.00  0.00    -0.004 A 
ATOM      4  C2  UNL d   1       0.338   0.050  -0.485  0.00  0.00    -0.047 A 
ATOM      5  C3  UNL d   1       1.124  -1.119  -0.622  0.00  0.00    -0.047 A 
ATOM      6  C4  UNL d   1       1.673  -1.098  -1.887  0.00  0.00    -0.004 A 
ENDROOT
TORSDOF 0
ENDMDL
