MODEL 1
REMARK minimizedAffinity 0.407873124
REMARK minimizedRMSD -1
REMARK  0 active torsions:
REMARK  status: ('A' for Active; 'I' for Inactive)
ROOT
ATOM      1  C   UNL d   1       1.315  -1.094  -0.862  0.00  0.00     0.172 C 
ATOM      2  N   UNL d   1       1.367  -1.171  -2.303  0.00  0.00    -0.070 N 
ATOM      3  C1  UNL d   1       1.466  -2.322  -3.037  0.00  0.00    -0.004 A 
ATOM      4  C2  UNL d   1       1.487  -1.972  -4.370  0.00  0.00    -0.047 A 
ATOM      5  C3  UNL d   1       1.397  -0.561  -4.439  0.00  0.00    -0.047 A 
ATOM      6  C4  UNL d   1       1.325  -0.091  -3.144  0.00  0.00    -0.004 A 
ENDROOT
TORSDOF 0
ENDMDL
