MODEL 1
REMARK minimizedAffinity 2.01773238
REMARK minimizedRMSD -1
REMARK  0 active torsions:
REMARK  status: ('A' for Active; 'I' for Inactive)
ROOT
ATOM      1  C   UNL d   1       1.540  -2.547  -3.384  0.00  0.00     0.172 C 
ATOM      2  N   UNL d   1       1.273  -1.395  -2.556  0.00  0.00    -0.070 N 
ATOM      3  C1  UNL d   1       1.153  -0.104  -2.998  0.00  0.00    -0.004 A 
ATOM      4  C2  UNL d   1       0.900   0.695  -1.904  0.00  0.00    -0.047 A 
ATOM      5  C3  UNL d   1       0.867  -0.145  -0.765  0.00  0.00    -0.047 A 
ATOM      6  C4  UNL d   1       1.101  -1.433  -1.197  0.00  0.00    -0.004 A 
ENDROOT
TORSDOF 0
ENDMDL
