MODEL 1
REMARK minimizedAffinity -0.798129082
REMARK minimizedRMSD -1
REMARK  0 active torsions:
REMARK  status: ('A' for Active; 'I' for Inactive)
ROOT
ATOM      1  C   UNL d   1       0.549  -0.785   0.227  0.00  0.00     0.172 C 
ATOM      2  N   UNL d   1       0.749  -0.182  -1.069  0.00  0.00    -0.070 N 
ATOM      3  C1  UNL d   1       0.334   1.069  -1.440  0.00  0.00    -0.004 A 
ATOM      4  C2  UNL d   1       0.717   1.270  -2.749  0.00  0.00    -0.047 A 
ATOM      5  C3  UNL d   1       1.384   0.098  -3.179  0.00  0.00    -0.047 A 
ATOM      6  C4  UNL d   1       1.390  -0.784  -2.120  0.00  0.00    -0.004 A 
ENDROOT
TORSDOF 0
ENDMDL
