MODEL 1
REMARK minimizedAffinity 3.87201977
REMARK minimizedRMSD -1
REMARK  0 active torsions:
REMARK  status: ('A' for Active; 'I' for Inactive)
ROOT
ATOM      1  C   UNL d   1       5.895  -5.999   4.189  0.00  0.00     0.172 C 
ATOM      2  N   UNL d   1       4.453  -5.998   4.123  0.00  0.00    -0.070 N 
ATOM      3  C1  UNL d   1       3.604  -5.995   5.198  0.00  0.00    -0.004 A 
ATOM      4  C2  UNL d   1       2.313  -5.994   4.716  0.00  0.00    -0.047 A 
ATOM      5  C3  UNL d   1       2.388  -5.997   3.303  0.00  0.00    -0.047 A 
ATOM      6  C4  UNL d   1       3.724  -5.999   2.963  0.00  0.00    -0.004 A 
ENDROOT
TORSDOF 0
ENDMDL
