MODEL 1
REMARK minimizedAffinity -3.38322473
REMARK minimizedRMSD -1
REMARK  0 active torsions:
REMARK  status: ('A' for Active; 'I' for Inactive)
ROOT
ATOM      1  C   UNL d   1      -3.854   2.387   5.066  0.00  0.00     0.172 C 
ATOM      2  N   UNL d   1      -3.724   3.816   4.905  0.00  0.00    -0.070 N 
ATOM      3  C1  UNL d   1      -3.954   4.753   5.876  0.00  0.00    -0.004 A 
ATOM      4  C2  UNL d   1      -3.722   5.996   5.328  0.00  0.00    -0.047 A 
ATOM      5  C3  UNL d   1      -3.339   5.799   3.980  0.00  0.00    -0.047 A 
ATOM      6  C4  UNL d   1      -3.349   4.441   3.744  0.00  0.00    -0.004 A 
ENDROOT
TORSDOF 0
ENDMDL
