MODEL 1
REMARK minimizedAffinity -1.31993306
REMARK minimizedRMSD -1
REMARK  0 active torsions:
REMARK  status: ('A' for Active; 'I' for Inactive)
ROOT
ATOM      1  C   UNL d   1       1.488  -2.311  -2.951  0.00  0.00     0.172 C 
ATOM      2  N   UNL d   1       1.221  -0.915  -2.694  0.00  0.00    -0.070 N 
ATOM      3  C1  UNL d   1       0.724  -0.399  -1.527  0.00  0.00    -0.004 A 
ATOM      4  C2  UNL d   1       0.614   0.966  -1.683  0.00  0.00    -0.047 A 
ATOM      5  C3  UNL d   1       1.059   1.280  -2.989  0.00  0.00    -0.047 A 
ATOM      6  C4  UNL d   1       1.428   0.097  -3.593  0.00  0.00    -0.004 A 
ENDROOT
TORSDOF 0
ENDMDL
