MODEL 1
REMARK minimizedAffinity 1.12504721
REMARK minimizedRMSD -1
REMARK  0 active torsions:
REMARK  status: ('A' for Active; 'I' for Inactive)
ROOT
ATOM      1  C   UNL d   1       1.054   0.551  -2.119  0.00  0.00     0.172 C 
ATOM      2  N   UNL d   1       1.164  -0.709  -2.815  0.00  0.00    -0.070 N 
ATOM      3  C1  UNL d   1       1.032  -1.949  -2.249  0.00  0.00    -0.004 A 
ATOM      4  C2  UNL d   1       1.205  -2.888  -3.242  0.00  0.00    -0.047 A 
ATOM      5  C3  UNL d   1       1.451  -2.189  -4.448  0.00  0.00    -0.047 A 
ATOM      6  C4  UNL d   1       1.420  -0.842  -4.155  0.00  0.00    -0.004 A 
ENDROOT
TORSDOF 0
ENDMDL
