MODEL 1
REMARK minimizedAffinity -1.01439857
REMARK minimizedRMSD -1
REMARK  0 active torsions:
REMARK  status: ('A' for Active; 'I' for Inactive)
ROOT
ATOM      1  C   UNL d   1      -0.970   1.156   2.748  0.00  0.00     0.077 C 
ATOM      2  C1  UNL d   1      -0.618   0.508   1.442  0.00  0.00    -0.074 A 
ATOM      3  C2  UNL d   1      -0.918  -0.837   1.203  0.00  0.00    -0.005 A 
ATOM      4  C3  UNL d   1      -0.593  -1.424  -0.020  0.00  0.00     0.006 A 
ATOM      5  C4  UNL d   1       0.036  -0.673  -1.015  0.00  0.00    -0.005 A 
ATOM      6  C5  UNL d   1       0.343   0.673  -0.794  0.00  0.00    -0.074 A 
ATOM      7  C6  UNL d   1       1.010   1.497  -1.855  0.00  0.00     0.077 C 
ATOM      8  C7  UNL d   1       0.007   1.257   0.435  0.00  0.00    -0.001 A 
ENDROOT
TORSDOF 0
ENDMDL
