MODEL 1
REMARK minimizedAffinity -0.345338613
REMARK minimizedRMSD -1
REMARK  0 active torsions:
REMARK  status: ('A' for Active; 'I' for Inactive)
ROOT
ATOM      1  C   UNL d   1       0.451   2.296  -1.483  0.00  0.00     0.077 C 
ATOM      2  C1  UNL d   1       0.039   1.425  -0.333  0.00  0.00    -0.074 A 
ATOM      3  C2  UNL d   1       0.122   0.031  -0.421  0.00  0.00    -0.005 A 
ATOM      4  C3  UNL d   1      -0.256  -0.765   0.660  0.00  0.00     0.006 A 
ATOM      5  C4  UNL d   1      -0.720  -0.178   1.837  0.00  0.00    -0.005 A 
ATOM      6  C5  UNL d   1      -0.809   1.214   1.944  0.00  0.00    -0.074 A 
ATOM      7  C6  UNL d   1      -1.296   1.861   3.206  0.00  0.00     0.077 C 
ATOM      8  C7  UNL d   1      -0.421   2.008   0.856  0.00  0.00    -0.001 A 
ENDROOT
TORSDOF 0
ENDMDL
