MODEL 1
REMARK minimizedAffinity -4.29188538
REMARK minimizedRMSD -1
REMARK  0 active torsions:
REMARK  status: ('A' for Active; 'I' for Inactive)
ROOT
ATOM      1  C   UNL d   1       1.288  -0.252  -0.692  0.00  0.00     0.077 C 
ATOM      2  C1  UNL d   1      -0.004   0.194  -0.076  0.00  0.00    -0.074 A 
ATOM      3  C2  UNL d   1      -1.232  -0.153  -0.650  0.00  0.00    -0.005 A 
ATOM      4  C3  UNL d   1      -2.426   0.261  -0.061  0.00  0.00     0.006 A 
ATOM      5  C4  UNL d   1      -2.406   1.025   1.107  0.00  0.00    -0.005 A 
ATOM      6  C5  UNL d   1      -1.188   1.382   1.695  0.00  0.00    -0.074 A 
ATOM      7  C6  UNL d   1      -1.149   2.194   2.955  0.00  0.00     0.077 C 
ATOM      8  C7  UNL d   1       0.008   0.956   1.101  0.00  0.00    -0.001 A 
ENDROOT
TORSDOF 0
ENDMDL
