MODEL 1
REMARK minimizedAffinity -1.57768881
REMARK minimizedRMSD -1
REMARK  0 active torsions:
REMARK  status: ('A' for Active; 'I' for Inactive)
ROOT
ATOM      1  C   UNL d   1       0.017  -1.010  -0.676  0.00  0.00     0.077 C 
ATOM      2  C1  UNL d   1      -0.191  -0.327   0.642  0.00  0.00    -0.074 A 
ATOM      3  C2  UNL d   1       0.404  -0.819   1.809  0.00  0.00    -0.005 A 
ATOM      4  C3  UNL d   1       0.209  -0.167   3.026  0.00  0.00     0.006 A 
ATOM      5  C4  UNL d   1      -0.582   0.981   3.090  0.00  0.00    -0.005 A 
ATOM      6  C5  UNL d   1      -1.185   1.488   1.934  0.00  0.00    -0.074 A 
ATOM      7  C6  UNL d   1      -2.030   2.726   1.983  0.00  0.00     0.077 C 
ATOM      8  C7  UNL d   1      -0.978   0.831   0.713  0.00  0.00    -0.001 A 
ENDROOT
TORSDOF 0
ENDMDL
