MODEL 1
REMARK minimizedAffinity -3.62084031
REMARK minimizedRMSD -1
REMARK  0 active torsions:
REMARK  status: ('A' for Active; 'I' for Inactive)
ROOT
ATOM      1  C   UNL d   1      -2.072   1.533   0.689  0.00  0.00     0.077 C 
ATOM      2  C1  UNL d   1      -0.854   1.170  -0.106  0.00  0.00    -0.074 A 
ATOM      3  C2  UNL d   1      -0.260   2.092  -0.973  0.00  0.00    -0.005 A 
ATOM      4  C3  UNL d   1       0.879   1.743  -1.699  0.00  0.00     0.006 A 
ATOM      5  C4  UNL d   1       1.434   0.470  -1.566  0.00  0.00    -0.005 A 
ATOM      6  C5  UNL d   1       0.854  -0.466  -0.703  0.00  0.00    -0.074 A 
ATOM      7  C6  UNL d   1       1.444  -1.835  -0.541  0.00  0.00     0.077 C 
ATOM      8  C7  UNL d   1      -0.286  -0.105   0.028  0.00  0.00    -0.001 A 
ENDROOT
TORSDOF 0
ENDMDL
