MODEL 1
REMARK minimizedAffinity -4.14382362
REMARK minimizedRMSD -1
REMARK  0 active torsions:
REMARK  status: ('A' for Active; 'I' for Inactive)
ROOT
ATOM      1  C   UNL d   1      -2.045   1.959   0.347  0.00  0.00     0.077 C 
ATOM      2  C1  UNL d   1      -0.875   1.424  -0.422  0.00  0.00    -0.074 A 
ATOM      3  C2  UNL d   1      -0.063   2.274  -1.180  0.00  0.00    -0.005 A 
ATOM      4  C3  UNL d   1       1.028   1.763  -1.883  0.00  0.00     0.006 A 
ATOM      5  C4  UNL d   1       1.318   0.399  -1.835  0.00  0.00    -0.005 A 
ATOM      6  C5  UNL d   1       0.518  -0.467  -1.083  0.00  0.00    -0.074 A 
ATOM      7  C6  UNL d   1       0.821  -1.934  -1.013  0.00  0.00     0.077 C 
ATOM      8  C7  UNL d   1      -0.573   0.055  -0.374  0.00  0.00    -0.001 A 
ENDROOT
TORSDOF 0
ENDMDL
