MODEL 1
REMARK minimizedAffinity 0.886103034
REMARK minimizedRMSD -1
REMARK  0 active torsions:
REMARK  status: ('A' for Active; 'I' for Inactive)
ROOT
ATOM      1  C   UNL d   1       1.324  -0.282  -0.300  0.00  0.00     0.077 C 
ATOM      2  C1  UNL d   1       0.889  -1.428  -1.165  0.00  0.00    -0.074 A 
ATOM      3  C2  UNL d   1       0.332  -1.204  -2.428  0.00  0.00    -0.005 A 
ATOM      4  C3  UNL d   1      -0.059  -2.280  -3.225  0.00  0.00     0.006 A 
ATOM      5  C4  UNL d   1       0.103  -3.588  -2.768  0.00  0.00    -0.005 A 
ATOM      6  C5  UNL d   1       0.658  -3.832  -1.508  0.00  0.00    -0.074 A 
ATOM      7  C6  UNL d   1       0.848  -5.232  -1.005  0.00  0.00     0.077 C 
ATOM      8  C7  UNL d   1       1.055  -2.746  -0.716  0.00  0.00    -0.001 A 
ENDROOT
TORSDOF 0
ENDMDL
