MODEL 1
REMARK minimizedAffinity -2.565871
REMARK minimizedRMSD -1
REMARK  0 active torsions:
REMARK  status: ('A' for Active; 'I' for Inactive)
ROOT
ATOM      1  C   UNL d   1       1.570  -5.305  -0.738  0.00  0.00     0.077 C 
ATOM      2  C1  UNL d   1       0.886  -4.147  -1.402  0.00  0.00    -0.074 A 
ATOM      3  C2  UNL d   1       0.249  -4.300  -2.637  0.00  0.00    -0.005 A 
ATOM      4  C3  UNL d   1      -0.390  -3.216  -3.238  0.00  0.00     0.006 A 
ATOM      5  C4  UNL d   1      -0.399  -1.969  -2.611  0.00  0.00    -0.005 A 
ATOM      6  C5  UNL d   1       0.232  -1.797  -1.375  0.00  0.00    -0.074 A 
ATOM      7  C6  UNL d   1       0.224  -0.467  -0.683  0.00  0.00     0.077 C 
ATOM      8  C7  UNL d   1       0.867  -2.893  -0.774  0.00  0.00    -0.001 A 
ENDROOT
TORSDOF 0
ENDMDL
