MODEL 1
REMARK minimizedAffinity 0.645439446
REMARK minimizedRMSD -1
REMARK  0 active torsions:
REMARK  status: ('A' for Active; 'I' for Inactive)
ROOT
ATOM      1  C   UNL d   1      -3.680  -2.231   6.000  0.00  0.00     0.077 C 
ATOM      2  C1  UNL d   1      -3.592  -2.190   4.503  0.00  0.00    -0.074 A 
ATOM      3  C2  UNL d   1      -2.374  -2.397   3.848  0.00  0.00    -0.005 A 
ATOM      4  C3  UNL d   1      -2.310  -2.365   2.455  0.00  0.00     0.006 A 
ATOM      5  C4  UNL d   1      -3.461  -2.126   1.704  0.00  0.00    -0.005 A 
ATOM      6  C5  UNL d   1      -4.688  -1.917   2.341  0.00  0.00    -0.074 A 
ATOM      7  C6  UNL d   1      -5.937  -1.669   1.549  0.00  0.00     0.077 C 
ATOM      8  C7  UNL d   1      -4.746  -1.958   3.741  0.00  0.00    -0.001 A 
ENDROOT
TORSDOF 0
ENDMDL
