MODEL 1
REMARK minimizedAffinity -1.05074215
REMARK minimizedRMSD -1
REMARK  0 active torsions:
REMARK  status: ('A' for Active; 'I' for Inactive)
ROOT
ATOM      1  C   UNL d   1      -4.952  -2.442   2.316  0.00  0.00     0.077 C 
ATOM      2  C1  UNL d   1      -4.146  -2.438   3.581  0.00  0.00    -0.074 A 
ATOM      3  C2  UNL d   1      -4.772  -2.408   4.832  0.00  0.00    -0.005 A 
ATOM      4  C3  UNL d   1      -4.009  -2.414   6.000  0.00  0.00     0.006 A 
ATOM      5  C4  UNL d   1      -2.616  -2.450   5.929  0.00  0.00    -0.005 A 
ATOM      6  C5  UNL d   1      -1.973  -2.481   4.688  0.00  0.00    -0.074 A 
ATOM      7  C6  UNL d   1      -0.477  -2.529   4.594  0.00  0.00     0.077 C 
ATOM      8  C7  UNL d   1      -2.747  -2.482   3.519  0.00  0.00    -0.001 A 
ENDROOT
TORSDOF 0
ENDMDL
