MODEL 1
REMARK minimizedAffinity -3.17942119
REMARK minimizedRMSD -1
REMARK  0 active torsions:
REMARK  status: ('A' for Active; 'I' for Inactive)
ROOT
ATOM      1  C   UNL d   1      -0.898   0.820   2.698  0.00  0.00     0.077 C 
ATOM      2  C1  UNL d   1      -0.604   0.108   1.411  0.00  0.00    -0.074 A 
ATOM      3  C2  UNL d   1      -1.264  -1.080   1.080  0.00  0.00    -0.005 A 
ATOM      4  C3  UNL d   1      -0.987  -1.727  -0.124  0.00  0.00     0.006 A 
ATOM      5  C4  UNL d   1      -0.048  -1.193  -1.008  0.00  0.00    -0.005 A 
ATOM      6  C5  UNL d   1       0.621  -0.006  -0.695  0.00  0.00    -0.074 A 
ATOM      7  C6  UNL d   1       1.625   0.587  -1.639  0.00  0.00     0.077 C 
ATOM      8  C7  UNL d   1       0.332   0.642   0.514  0.00  0.00    -0.001 A 
ENDROOT
TORSDOF 0
ENDMDL
