MODEL 1
REMARK minimizedAffinity -3.5108583
REMARK minimizedRMSD -1
REMARK  0 active torsions:
REMARK  status: ('A' for Active; 'I' for Inactive)
ROOT
ATOM      1  C   UNL d   1       0.352  -0.079   2.740  0.00  0.00     0.077 C 
ATOM      2  C1  UNL d   1      -0.043  -0.061   1.293  0.00  0.00    -0.074 A 
ATOM      3  C2  UNL d   1      -1.024   0.821   0.827  0.00  0.00    -0.005 A 
ATOM      4  C3  UNL d   1      -1.374   0.833  -0.523  0.00  0.00     0.006 A 
ATOM      5  C4  UNL d   1      -0.748  -0.034  -1.419  0.00  0.00    -0.005 A 
ATOM      6  C5  UNL d   1       0.236  -0.921  -0.972  0.00  0.00    -0.074 A 
ATOM      7  C6  UNL d   1       0.925  -1.853  -1.924  0.00  0.00     0.077 C 
ATOM      8  C7  UNL d   1       0.587  -0.923   0.385  0.00  0.00    -0.001 A 
ENDROOT
TORSDOF 0
ENDMDL
