MODEL 1
REMARK minimizedAffinity -2.37274599
REMARK minimizedRMSD -1
REMARK  0 active torsions:
REMARK  status: ('A' for Active; 'I' for Inactive)
ROOT
ATOM      1  C   UNL d   1      -0.672   0.536   2.953  0.00  0.00     0.077 C 
ATOM      2  C1  UNL d   1      -0.416   0.523   1.475  0.00  0.00    -0.074 A 
ATOM      3  C2  UNL d   1      -0.271   1.716   0.760  0.00  0.00    -0.005 A 
ATOM      4  C3  UNL d   1      -0.023   1.687  -0.612  0.00  0.00     0.006 A 
ATOM      5  C4  UNL d   1       0.083   0.468  -1.282  0.00  0.00    -0.005 A 
ATOM      6  C5  UNL d   1      -0.058  -0.736  -0.583  0.00  0.00    -0.074 A 
ATOM      7  C6  UNL d   1       0.062  -2.055  -1.286  0.00  0.00     0.077 C 
ATOM      8  C7  UNL d   1      -0.301  -0.699   0.797  0.00  0.00    -0.001 A 
ENDROOT
TORSDOF 0
ENDMDL
