MODEL 1
REMARK minimizedAffinity -4.18048763
REMARK minimizedRMSD -1
REMARK  0 active torsions:
REMARK  status: ('A' for Active; 'I' for Inactive)
ROOT
ATOM      1  C   UNL d   1       0.155  -1.368   3.220  0.00  0.00     0.077 C 
ATOM      2  C1  UNL d   1      -0.049  -0.762   1.864  0.00  0.00    -0.074 A 
ATOM      3  C2  UNL d   1      -0.765   0.430   1.709  0.00  0.00    -0.005 A 
ATOM      4  C3  UNL d   1      -0.939   0.987   0.443  0.00  0.00     0.006 A 
ATOM      5  C4  UNL d   1      -0.399   0.359  -0.681  0.00  0.00    -0.005 A 
ATOM      6  C5  UNL d   1       0.320  -0.832  -0.546  0.00  0.00    -0.074 A 
ATOM      7  C6  UNL d   1       0.915  -1.515  -1.742  0.00  0.00     0.077 C 
ATOM      8  C7  UNL d   1       0.496  -1.382   0.731  0.00  0.00    -0.001 A 
ENDROOT
TORSDOF 0
ENDMDL
