MODEL 1
REMARK minimizedAffinity -3.85459542
REMARK minimizedRMSD -1
REMARK  0 active torsions:
REMARK  status: ('A' for Active; 'I' for Inactive)
ROOT
ATOM      1  C   UNL d   1      -1.435   1.567   0.716  0.00  0.00     0.077 C 
ATOM      2  C1  UNL d   1      -0.528   0.541   0.105  0.00  0.00    -0.074 A 
ATOM      3  C2  UNL d   1       0.795   0.856  -0.223  0.00  0.00    -0.005 A 
ATOM      4  C3  UNL d   1       1.630  -0.112  -0.782  0.00  0.00     0.006 A 
ATOM      5  C4  UNL d   1       1.151  -1.401  -1.019  0.00  0.00    -0.005 A 
ATOM      6  C5  UNL d   1      -0.168  -1.734  -0.696  0.00  0.00    -0.074 A 
ATOM      7  C6  UNL d   1      -0.695  -3.118  -0.934  0.00  0.00     0.077 C 
ATOM      8  C7  UNL d   1      -0.999  -0.759  -0.128  0.00  0.00    -0.001 A 
ENDROOT
TORSDOF 0
ENDMDL
