MODEL 1
REMARK minimizedAffinity -4.93432331
REMARK minimizedRMSD -1
REMARK  0 active torsions:
REMARK  status: ('A' for Active; 'I' for Inactive)
ROOT
ATOM      1  C   UNL d   1       1.990  -4.882  -0.116  0.00  0.00     0.077 C 
ATOM      2  C1  UNL d   1       1.091  -3.835  -0.704  0.00  0.00    -0.074 A 
ATOM      3  C2  UNL d   1      -0.051  -4.193  -1.426  0.00  0.00    -0.005 A 
ATOM      4  C3  UNL d   1      -0.883  -3.208  -1.959  0.00  0.00     0.006 A 
ATOM      5  C4  UNL d   1      -0.581  -1.858  -1.775  0.00  0.00    -0.005 A 
ATOM      6  C5  UNL d   1       0.557  -1.482  -1.054  0.00  0.00    -0.074 A 
ATOM      7  C6  UNL d   1       0.890  -0.035  -0.839  0.00  0.00     0.077 C 
ATOM      8  C7  UNL d   1       1.384  -2.477  -0.516  0.00  0.00    -0.001 A 
ENDROOT
TORSDOF 0
ENDMDL
