MODEL 1
REMARK minimizedAffinity 4.37062263
REMARK minimizedRMSD -1
REMARK  0 active torsions:
REMARK  status: ('A' for Active; 'I' for Inactive)
ROOT
ATOM      1  C1  DEN d   1       2.285  -1.088   1.548  0.00  0.00     0.130 A 
ATOM      2  C2  DEN d   1       3.514  -0.422   1.123  0.00  0.00    -0.031 A 
ATOM      3  C3  DEN d   1       3.207   0.377  -0.080  0.00  0.00     0.027 A 
ATOM      4  C4  DEN d   1       0.961   0.651  -1.318  0.00  0.00     0.027 A 
ATOM      5  C5  DEN d   1      -0.363   0.271  -1.338  0.00  0.00    -0.003 A 
ATOM      6  C6  DEN d   1      -0.885  -0.607  -0.425  0.00  0.00     0.001 A 
ATOM      7  C7  DEN d   1      -0.088  -1.100   0.574  0.00  0.00     0.017 A 
ATOM      8  C8  DEN d   1       1.249  -0.728   0.596  0.00  0.00    -0.094 A 
ATOM      9  C9  DEN d   1       1.755   0.170  -0.328  0.00  0.00    -0.072 A 
ENDROOT
TORSDOF 0
ENDMDL
