MODEL 1
REMARK minimizedAffinity 0.854710996
REMARK minimizedRMSD -1
REMARK  0 active torsions:
REMARK  status: ('A' for Active; 'I' for Inactive)
ROOT
ATOM      1  C1  DEN d   1      -2.607   1.850   3.385  0.00  0.00     0.130 A 
ATOM      2  C2  DEN d   1      -1.875   1.004   4.324  0.00  0.00    -0.031 A 
ATOM      3  C3  DEN d   1      -1.296  -0.124   3.567  0.00  0.00     0.027 A 
ATOM      4  C4  DEN d   1      -1.456  -0.637   1.044  0.00  0.00     0.027 A 
ATOM      5  C5  DEN d   1      -1.981  -0.212  -0.157  0.00  0.00    -0.003 A 
ATOM      6  C6  DEN d   1      -2.772   0.901  -0.255  0.00  0.00     0.001 A 
ATOM      7  C7  DEN d   1      -3.025   1.655   0.861  0.00  0.00     0.017 A 
ATOM      8  C8  DEN d   1      -2.506   1.229   2.077  0.00  0.00    -0.094 A 
ATOM      9  C9  DEN d   1      -1.698   0.107   2.153  0.00  0.00    -0.072 A 
ENDROOT
TORSDOF 0
ENDMDL
