MODEL 1
REMARK minimizedAffinity 1.71920657
REMARK minimizedRMSD -1
REMARK  0 active torsions:
REMARK  status: ('A' for Active; 'I' for Inactive)
ROOT
ATOM      1  C1  DEN d   1       1.820  -0.340   2.012  0.00  0.00     0.130 A 
ATOM      2  C2  DEN d   1       2.333  -1.142   0.906  0.00  0.00    -0.031 A 
ATOM      3  C3  DEN d   1       1.199  -1.484   0.024  0.00  0.00     0.027 A 
ATOM      4  C4  DEN d   1      -1.289  -0.846   0.262  0.00  0.00     0.027 A 
ATOM      5  C5  DEN d   1      -2.208  -0.184   1.046  0.00  0.00    -0.003 A 
ATOM      6  C6  DEN d   1      -1.858   0.439   2.214  0.00  0.00     0.001 A 
ATOM      7  C7  DEN d   1      -0.547   0.451   2.610  0.00  0.00     0.017 A 
ATOM      8  C8  DEN d   1       0.385  -0.221   1.829  0.00  0.00    -0.094 A 
ATOM      9  C9  DEN d   1       0.013  -0.834   0.645  0.00  0.00    -0.072 A 
ENDROOT
TORSDOF 0
ENDMDL
