MODEL 1
REMARK minimizedAffinity 3.30701184
REMARK minimizedRMSD -1
REMARK  0 active torsions:
REMARK  status: ('A' for Active; 'I' for Inactive)
ROOT
ATOM      1  C1  DEN d   1       0.041  -1.096   0.040  0.00  0.00     0.130 A 
ATOM      2  C2  DEN d   1       1.467  -1.023   0.346  0.00  0.00    -0.031 A 
ATOM      3  C3  DEN d   1       1.638  -0.134   1.513  0.00  0.00     0.027 A 
ATOM      4  C4  DEN d   1      -0.158   1.125   2.871  0.00  0.00     0.027 A 
ATOM      5  C5  DEN d   1      -1.507   1.381   2.982  0.00  0.00    -0.003 A 
ATOM      6  C6  DEN d   1      -2.423   0.861   2.107  0.00  0.00     0.001 A 
ATOM      7  C7  DEN d   1      -2.007   0.021   1.108  0.00  0.00     0.017 A 
ATOM      8  C8  DEN d   1      -0.648  -0.236   0.985  0.00  0.00    -0.094 A 
ATOM      9  C9  DEN d   1       0.261   0.289   1.887  0.00  0.00    -0.072 A 
ENDROOT
TORSDOF 0
ENDMDL
