MODEL 1
REMARK minimizedAffinity 9.83952141
REMARK minimizedRMSD -1
REMARK  0 active torsions:
REMARK  status: ('A' for Active; 'I' for Inactive)
ROOT
ATOM      1  C1  DEN d   1      -4.360   0.119  -0.564  0.00  0.00     0.130 A 
ATOM      2  C2  DEN d   1      -5.075   1.383  -0.715  0.00  0.00    -0.031 A 
ATOM      3  C3  DEN d   1      -4.425   2.382   0.157  0.00  0.00     0.027 A 
ATOM      4  C4  DEN d   1      -2.390   2.096   1.715  0.00  0.00     0.027 A 
ATOM      5  C5  DEN d   1      -1.454   1.202   2.187  0.00  0.00    -0.003 A 
ATOM      6  C6  DEN d   1      -1.443  -0.113   1.804  0.00  0.00     0.001 A 
ATOM      7  C7  DEN d   1      -2.358  -0.561   0.889  0.00  0.00     0.017 A 
ATOM      8  C8  DEN d   1      -3.308   0.332   0.414  0.00  0.00    -0.094 A 
ATOM      9  C9  DEN d   1      -3.296   1.661   0.803  0.00  0.00    -0.072 A 
ENDROOT
TORSDOF 0
ENDMDL
