MODEL 1
REMARK minimizedAffinity 3.46721005
REMARK minimizedRMSD -1
REMARK  0 active torsions:
REMARK  status: ('A' for Active; 'I' for Inactive)
ROOT
ATOM      1  C1  DEN d   1      -3.717  -0.663  -0.863  0.00  0.00     0.130 A 
ATOM      2  C2  DEN d   1      -4.253   0.645  -1.231  0.00  0.00    -0.031 A 
ATOM      3  C3  DEN d   1      -3.885   1.605  -0.171  0.00  0.00     0.027 A 
ATOM      4  C4  DEN d   1      -2.541   1.195   1.993  0.00  0.00     0.027 A 
ATOM      5  C5  DEN d   1      -1.888   0.244   2.746  0.00  0.00    -0.003 A 
ATOM      6  C6  DEN d   1      -1.829  -1.071   2.369  0.00  0.00     0.001 A 
ATOM      7  C7  DEN d   1      -2.394  -1.464   1.184  0.00  0.00     0.017 A 
ATOM      8  C8  DEN d   1      -3.061  -0.513   0.424  0.00  0.00    -0.094 A 
ATOM      9  C9  DEN d   1      -3.100   0.815   0.816  0.00  0.00    -0.072 A 
ENDROOT
TORSDOF 0
ENDMDL
