MODEL 1
REMARK minimizedAffinity 11.4399395
REMARK minimizedRMSD -1
REMARK  0 active torsions:
REMARK  status: ('A' for Active; 'I' for Inactive)
ROOT
ATOM      1  C1  DEN d   1      -2.778   1.935   2.071  0.00  0.00     0.130 A 
ATOM      2  C2  DEN d   1      -1.471   1.899   1.420  0.00  0.00    -0.031 A 
ATOM      3  C3  DEN d   1      -0.935   0.529   1.549  0.00  0.00     0.027 A 
ATOM      4  C4  DEN d   1      -1.998  -1.530   2.681  0.00  0.00     0.027 A 
ATOM      5  C5  DEN d   1      -3.094  -1.986   3.380  0.00  0.00    -0.003 A 
ATOM      6  C6  DEN d   1      -4.137  -1.165   3.719  0.00  0.00     0.001 A 
ATOM      7  C7  DEN d   1      -4.128   0.145   3.319  0.00  0.00     0.017 A 
ATOM      8  C8  DEN d   1      -3.023   0.614   2.620  0.00  0.00    -0.094 A 
ATOM      9  C9  DEN d   1      -1.984  -0.235   2.277  0.00  0.00    -0.072 A 
ENDROOT
TORSDOF 0
ENDMDL
