MODEL 1
REMARK minimizedAffinity 11.6113605
REMARK minimizedRMSD -1
REMARK  0 active torsions:
REMARK  status: ('A' for Active; 'I' for Inactive)
ROOT
ATOM      1  C   UNL d   1      -0.741   2.964  -0.935  0.00  0.00    -0.002 A 
ATOM      2  C1  UNL d   1       0.071   4.015  -0.536  0.00  0.00     0.010 A 
ATOM      3  C2  UNL d   1       0.660   4.016   0.730  0.00  0.00     0.041 A 
ATOM      4  C3  UNL d   1       0.418   2.931   1.595  0.00  0.00    -0.075 A 
ATOM      5  S   UNL d   1       1.034   2.716   3.191  0.00  0.00     0.015 SA
ATOM      6  C4  UNL d   1       0.234   1.223   3.380  0.00  0.00     0.022 A 
ATOM      7  C5  UNL d   1      -0.490   0.882   2.262  0.00  0.00     0.026 A 
ATOM      8  C6  UNL d   1      -0.395   1.860   1.215  0.00  0.00    -0.082 A 
ATOM      9  C7  UNL d   1      -0.979   1.889  -0.074  0.00  0.00     0.045 A 
ENDROOT
TORSDOF 0
ENDMDL
