MODEL 1
REMARK minimizedAffinity 10.8354225
REMARK minimizedRMSD -1
REMARK  0 active torsions:
REMARK  status: ('A' for Active; 'I' for Inactive)
ROOT
ATOM      1  C   UNL d   1       1.478   2.110   3.519  0.00  0.00    -0.002 A 
ATOM      2  C1  UNL d   1       0.459   1.178   3.662  0.00  0.00     0.010 A 
ATOM      3  C2  UNL d   1      -0.502   1.017   2.663  0.00  0.00     0.041 A 
ATOM      4  C3  UNL d   1      -0.420   1.814   1.504  0.00  0.00    -0.075 A 
ATOM      5  S   UNL d   1      -1.486   1.790   0.149  0.00  0.00     0.015 SA
ATOM      6  C4  UNL d   1      -0.613   3.015  -0.654  0.00  0.00     0.022 A 
ATOM      7  C5  UNL d   1       0.467   3.443   0.080  0.00  0.00     0.026 A 
ATOM      8  C6  UNL d   1       0.597   2.758   1.336  0.00  0.00    -0.082 A 
ATOM      9  C7  UNL d   1       1.556   2.899   2.368  0.00  0.00     0.045 A 
ENDROOT
TORSDOF 0
ENDMDL
