MODEL 1
REMARK minimizedAffinity 12.4018698
REMARK minimizedRMSD -1
REMARK  0 active torsions:
REMARK  status: ('A' for Active; 'I' for Inactive)
ROOT
ATOM      1  C   UNL d   1      -1.042   5.673  -1.890  0.00  0.00    -0.002 A 
ATOM      2  C1  UNL d   1      -0.747   6.000  -0.574  0.00  0.00     0.010 A 
ATOM      3  C2  UNL d   1      -0.517   4.999   0.373  0.00  0.00     0.041 A 
ATOM      4  C3  UNL d   1      -0.588   3.651  -0.030  0.00  0.00    -0.075 A 
ATOM      5  S   UNL d   1      -0.342   2.258   0.955  0.00  0.00     0.015 SA
ATOM      6  C4  UNL d   1      -0.621   1.195  -0.348  0.00  0.00     0.022 A 
ATOM      7  C5  UNL d   1      -0.897   1.870  -1.514  0.00  0.00     0.026 A 
ATOM      8  C6  UNL d   1      -0.882   3.297  -1.350  0.00  0.00    -0.082 A 
ATOM      9  C7  UNL d   1      -1.111   4.334  -2.285  0.00  0.00     0.045 A 
ENDROOT
TORSDOF 0
ENDMDL
