MODEL 1
REMARK minimizedAffinity 16.889946
REMARK minimizedRMSD -1
REMARK  0 active torsions:
REMARK  status: ('A' for Active; 'I' for Inactive)
ROOT
ATOM      1  C   UNL d   1       5.998  -3.041  -1.594  0.00  0.00    -0.002 A 
ATOM      2  C1  UNL d   1       5.715  -4.314  -1.120  0.00  0.00     0.010 A 
ATOM      3  C2  UNL d   1       4.667  -4.520  -0.220  0.00  0.00     0.041 A 
ATOM      4  C3  UNL d   1       3.900  -3.415   0.197  0.00  0.00    -0.075 A 
ATOM      5  S   UNL d   1       2.567  -3.428   1.291  0.00  0.00     0.015 SA
ATOM      6  C4  UNL d   1       2.342  -1.744   1.153  0.00  0.00     0.022 A 
ATOM      7  C5  UNL d   1       3.252  -1.170   0.298  0.00  0.00     0.026 A 
ATOM      8  C6  UNL d   1       4.165  -2.124  -0.268  0.00  0.00    -0.082 A 
ATOM      9  C7  UNL d   1       5.234  -1.947  -1.178  0.00  0.00     0.045 A 
ENDROOT
TORSDOF 0
ENDMDL
