MODEL 1
REMARK minimizedAffinity 11.7203331
REMARK minimizedRMSD -1
REMARK  0 active torsions:
REMARK  status: ('A' for Active; 'I' for Inactive)
ROOT
ATOM      1  C   UNL d   1      -0.090   0.985   2.543  0.00  0.00    -0.002 A 
ATOM      2  C1  UNL d   1      -1.360   1.456   2.244  0.00  0.00     0.010 A 
ATOM      3  C2  UNL d   1      -1.551   2.379   1.213  0.00  0.00     0.041 A 
ATOM      4  C3  UNL d   1      -0.433   2.822   0.480  0.00  0.00    -0.075 A 
ATOM      5  S   UNL d   1      -0.426   3.948  -0.826  0.00  0.00     0.015 SA
ATOM      6  C4  UNL d   1       1.263   3.829  -1.018  0.00  0.00     0.022 A 
ATOM      7  C5  UNL d   1       1.825   2.957  -0.116  0.00  0.00     0.026 A 
ATOM      8  C6  UNL d   1       0.857   2.362   0.762  0.00  0.00    -0.082 A 
ATOM      9  C7  UNL d   1       1.017   1.427   1.813  0.00  0.00     0.045 A 
ENDROOT
TORSDOF 0
ENDMDL
