MODEL 1
REMARK minimizedAffinity 3.88576269
REMARK minimizedRMSD -1
REMARK  3 active torsions:
REMARK  status: ('A' for Active; 'I' for Inactive)
REMARK    1  A    between atoms: C3'_2  and  C2'_3 
REMARK    2  A    between atoms: C2'_3  and  C1'_4 
REMARK    3  A    between atoms: C1'_4  and  C1_5 
ROOT
ATOM      1  C1  N4B d   1      -1.942  -3.353   0.191  0.00  0.00    -0.075 A 
ATOM      2  C2  N4B d   1      -1.726  -3.723  -1.154  0.00  0.00     0.002 A 
ATOM      3  C3  N4B d   1      -1.516  -5.041  -1.479  0.00  0.00     0.002 A 
ATOM      4  C4  N4B d   1      -1.499  -6.000  -0.477  0.00  0.00    -0.004 A 
ATOM      5  C5  N4B d   1      -1.734  -5.637   0.818  0.00  0.00     0.002 A 
ATOM      6  C6  N4B d   1      -1.950  -4.317   1.158  0.00  0.00     0.002 A 
ENDROOT
BRANCH   1   7
ATOM      7  C1' N4B d   1      -2.091  -1.915   0.605  0.00  0.00     0.057 C 
BRANCH   7   8
ATOM      8  C2' N4B d   1      -2.572  -1.857   2.052  0.00  0.00     0.009 C 
BRANCH   8   9
ATOM      9  C3' N4B d   1      -2.091  -0.602   2.761  0.00  0.00     0.004 C 
ATOM     10  C4' N4B d   1      -1.740  -0.846   4.199  0.00  0.00     0.003 C 
ENDBRANCH   8   9
ENDBRANCH   7   8
ENDBRANCH   1   7
TORSDOF 3
ENDMDL
