MODEL 1
REMARK minimizedAffinity 3.84703159
REMARK minimizedRMSD -1
REMARK  3 active torsions:
REMARK  status: ('A' for Active; 'I' for Inactive)
REMARK    1  A    between atoms: C3'_2  and  C2'_3 
REMARK    2  A    between atoms: C2'_3  and  C1'_4 
REMARK    3  A    between atoms: C1'_4  and  C1_5 
ROOT
ATOM      1  C1  N4B d   1      -1.067   1.440   2.465  0.00  0.00    -0.075 A 
ATOM      2  C2  N4B d   1      -0.934   2.351   1.394  0.00  0.00     0.002 A 
ATOM      3  C3  N4B d   1      -0.068   3.412   1.498  0.00  0.00     0.002 A 
ATOM      4  C4  N4B d   1       0.657   3.593   2.666  0.00  0.00    -0.004 A 
ATOM      5  C5  N4B d   1       0.541   2.694   3.687  0.00  0.00     0.002 A 
ATOM      6  C6  N4B d   1      -0.322   1.621   3.594  0.00  0.00     0.002 A 
ENDROOT
BRANCH   1   7
ATOM      7  C1' N4B d   1      -2.064   0.314   2.431  0.00  0.00     0.057 C 
BRANCH   7   8
ATOM      8  C2' N4B d   1      -3.019   0.526   1.259  0.00  0.00     0.009 C 
BRANCH   8   9
ATOM      9  C3' N4B d   1      -3.080  -0.689   0.349  0.00  0.00     0.004 C 
ATOM     10  C4' N4B d   1      -4.248  -0.653  -0.590  0.00  0.00     0.003 C 
ENDBRANCH   8   9
ENDBRANCH   7   8
ENDBRANCH   1   7
TORSDOF 3
ENDMDL
