MODEL 1
REMARK minimizedAffinity 7.54532814
REMARK minimizedRMSD -1
REMARK  3 active torsions:
REMARK  status: ('A' for Active; 'I' for Inactive)
REMARK    1  A    between atoms: C3'_2  and  C2'_3 
REMARK    2  A    between atoms: C2'_3  and  C1'_4 
REMARK    3  A    between atoms: C1'_4  and  C1_5 
ROOT
ATOM      1  C1  N4B d   1      -2.231  -2.767   0.763  0.00  0.00    -0.075 A 
ATOM      2  C2  N4B d   1      -1.926  -4.134   0.943  0.00  0.00     0.002 A 
ATOM      3  C3  N4B d   1      -1.523  -4.894  -0.127  0.00  0.00     0.002 A 
ATOM      4  C4  N4B d   1      -1.435  -4.316  -1.385  0.00  0.00    -0.004 A 
ATOM      5  C5  N4B d   1      -1.707  -2.989  -1.546  0.00  0.00     0.002 A 
ATOM      6  C6  N4B d   1      -2.109  -2.212  -0.478  0.00  0.00     0.002 A 
ENDROOT
BRANCH   1   7
ATOM      7  C1' N4B d   1      -2.759  -1.916   1.885  0.00  0.00     0.057 C 
BRANCH   7   8
ATOM      8  C2' N4B d   1      -4.107  -1.329   1.478  0.00  0.00     0.009 C 
BRANCH   8   9
ATOM      9  C3' N4B d   1      -3.949  -0.069   0.643  0.00  0.00     0.004 C 
ATOM     10  C4' N4B d   1      -5.127   0.852   0.754  0.00  0.00     0.003 C 
ENDBRANCH   8   9
ENDBRANCH   7   8
ENDBRANCH   1   7
TORSDOF 3
ENDMDL
