MODEL 1
REMARK minimizedAffinity 18.0696182
REMARK minimizedRMSD -1
REMARK  3 active torsions:
REMARK  status: ('A' for Active; 'I' for Inactive)
REMARK    1  A    between atoms: C3'_2  and  C2'_3 
REMARK    2  A    between atoms: C2'_3  and  C1'_4 
REMARK    3  A    between atoms: C1'_4  and  C1_5 
ROOT
ATOM      1  C1  N4B d   1       0.421   0.835   4.046  0.00  0.00    -0.075 A 
ATOM      2  C2  N4B d   1       0.779   1.940   4.850  0.00  0.00     0.002 A 
ATOM      3  C3  N4B d   1       1.346   3.051   4.275  0.00  0.00     0.002 A 
ATOM      4  C4  N4B d   1       1.581   3.073   2.909  0.00  0.00    -0.004 A 
ATOM      5  C5  N4B d   1       1.209   2.012   2.136  0.00  0.00     0.002 A 
ATOM      6  C6  N4B d   1       0.634   0.890   2.700  0.00  0.00     0.002 A 
ENDROOT
BRANCH   1   7
ATOM      7  C1' N4B d   1      -0.123  -0.435   4.640  0.00  0.00     0.057 C 
BRANCH   7   8
ATOM      8  C2' N4B d   1       1.017  -1.212   5.292  0.00  0.00     0.009 C 
BRANCH   8   9
ATOM      9  C3' N4B d   1       0.562  -2.568   5.802  0.00  0.00     0.004 C 
ATOM     10  C4' N4B d   1       1.563  -3.653   5.539  0.00  0.00     0.003 C 
ENDBRANCH   8   9
ENDBRANCH   7   8
ENDBRANCH   1   7
TORSDOF 3
ENDMDL
