MODEL 1
REMARK minimizedAffinity 7.50356436
REMARK minimizedRMSD -1
REMARK  3 active torsions:
REMARK  status: ('A' for Active; 'I' for Inactive)
REMARK    1  A    between atoms: C3'_2  and  C2'_3 
REMARK    2  A    between atoms: C2'_3  and  C1'_4 
REMARK    3  A    between atoms: C1'_4  and  C1_5 
ROOT
ATOM      1  C1  N4B d   1       5.999   1.184   0.544  0.00  0.00    -0.075 A 
ATOM      2  C2  N4B d   1       5.996   2.274   1.441  0.00  0.00     0.002 A 
ATOM      3  C3  N4B d   1       5.984   2.048   2.796  0.00  0.00     0.002 A 
ATOM      4  C4  N4B d   1       5.954   0.746   3.274  0.00  0.00    -0.004 A 
ATOM      5  C5  N4B d   1       5.983  -0.301   2.400  0.00  0.00     0.002 A 
ATOM      6  C6  N4B d   1       5.999  -0.089   1.036  0.00  0.00     0.002 A 
ENDROOT
BRANCH   1   7
ATOM      7  C1' N4B d   1       5.926   1.382  -0.946  0.00  0.00     0.057 C 
BRANCH   7   8
ATOM      8  C2' N4B d   1       4.463   1.485  -1.366  0.00  0.00     0.009 C 
BRANCH   8   9
ATOM      9  C3' N4B d   1       3.701   0.199  -1.093  0.00  0.00     0.004 C 
ATOM     10  C4' N4B d   1       2.215   0.398  -1.068  0.00  0.00     0.003 C 
ENDBRANCH   8   9
ENDBRANCH   7   8
ENDBRANCH   1   7
TORSDOF 3
ENDMDL
