MODEL 1
REMARK minimizedAffinity 14.1250391
REMARK minimizedRMSD -1
REMARK  3 active torsions:
REMARK  status: ('A' for Active; 'I' for Inactive)
REMARK    1  A    between atoms: C3'_2  and  C2'_3 
REMARK    2  A    between atoms: C2'_3  and  C1'_4 
REMARK    3  A    between atoms: C1'_4  and  C1_5 
ROOT
ATOM      1  C1  N4B d   1       3.331   1.242   2.276  0.00  0.00    -0.075 A 
ATOM      2  C2  N4B d   1       4.337   2.041   2.863  0.00  0.00     0.002 A 
ATOM      3  C3  N4B d   1       5.660   1.719   2.685  0.00  0.00     0.002 A 
ATOM      4  C4  N4B d   1       6.000   0.597   1.944  0.00  0.00    -0.004 A 
ATOM      5  C5  N4B d   1       5.023  -0.155   1.360  0.00  0.00     0.002 A 
ATOM      6  C6  N4B d   1       3.689   0.159   1.526  0.00  0.00     0.002 A 
ENDROOT
BRANCH   1   7
ATOM      7  C1' N4B d   1       1.869   1.504   2.514  0.00  0.00     0.057 C 
BRANCH   7   8
ATOM      8  C2' N4B d   1       1.592   2.994   2.334  0.00  0.00     0.009 C 
BRANCH   8   9
ATOM      9  C3' N4B d   1       1.793   3.769   3.625  0.00  0.00     0.004 C 
ATOM     10  C4' N4B d   1       2.282   5.167   3.394  0.00  0.00     0.003 C 
ENDBRANCH   8   9
ENDBRANCH   7   8
ENDBRANCH   1   7
TORSDOF 3
ENDMDL
