MODEL 1
REMARK minimizedAffinity 13.3071127
REMARK minimizedRMSD -1
REMARK  0 active torsions:
REMARK  status: ('A' for Active; 'I' for Inactive)
ROOT
ATOM      1  C2' OXE d   1      -0.991  -3.623  -2.808  0.00  0.00     0.078 C 
ATOM      2  C1' OXE d   1       0.409  -5.571  -1.350  0.00  0.00     0.078 C 
ATOM      3  C1  OXE d   1       0.750  -4.123  -1.098  0.00  0.00    -0.078 A 
ATOM      4  C2  OXE d   1       0.093  -3.179  -1.850  0.00  0.00    -0.078 A 
ATOM      5  C3  OXE d   1       0.330  -1.827  -1.619  0.00  0.00     0.003 A 
ATOM      6  C4  OXE d   1       1.341  -1.425  -0.737  0.00  0.00    -0.002 A 
ATOM      7  C5  OXE d   1       2.050  -2.372   0.009  0.00  0.00    -0.002 A 
ATOM      8  C6  OXE d   1       1.738  -3.720  -0.128  0.00  0.00     0.003 A 
ENDROOT
TORSDOF 0
ENDMDL
