MODEL 1
REMARK minimizedAffinity 0.366917133
REMARK minimizedRMSD -1
REMARK  0 active torsions:
REMARK  status: ('A' for Active; 'I' for Inactive)
ROOT
ATOM      1  C2' OXE d   1      -1.113   3.352   1.528  0.00  0.00     0.078 C 
ATOM      2  C1' OXE d   1       1.439   3.396   0.361  0.00  0.00     0.078 C 
ATOM      3  C1  OXE d   1       0.287   3.938  -0.447  0.00  0.00    -0.078 A 
ATOM      4  C2  OXE d   1      -0.966   3.870   0.114  0.00  0.00    -0.078 A 
ATOM      5  C3  OXE d   1      -2.056   4.406  -0.566  0.00  0.00     0.003 A 
ATOM      6  C4  OXE d   1      -1.912   4.873  -1.878  0.00  0.00    -0.002 A 
ATOM      7  C5  OXE d   1      -0.652   4.915  -2.483  0.00  0.00    -0.002 A 
ATOM      8  C6  OXE d   1       0.462   4.492  -1.767  0.00  0.00     0.003 A 
ENDROOT
TORSDOF 0
ENDMDL
