MODEL 1
REMARK minimizedAffinity 10.6388636
REMARK minimizedRMSD -1
REMARK  0 active torsions:
REMARK  status: ('A' for Active; 'I' for Inactive)
ROOT
ATOM      1  C2' OXE d   1      -0.859   5.999   1.113  0.00  0.00     0.078 C 
ATOM      2  C1' OXE d   1       0.355   3.481   0.866  0.00  0.00     0.078 C 
ATOM      3  C1  OXE d   1      -0.188   4.125  -0.384  0.00  0.00    -0.078 A 
ATOM      4  C2  OXE d   1      -0.822   5.336  -0.247  0.00  0.00    -0.078 A 
ATOM      5  C3  OXE d   1      -1.293   6.000  -1.376  0.00  0.00     0.003 A 
ATOM      6  C4  OXE d   1      -1.264   5.375  -2.629  0.00  0.00    -0.002 A 
ATOM      7  C5  OXE d   1      -0.658   4.124  -2.785  0.00  0.00    -0.002 A 
ATOM      8  C6  OXE d   1      -0.078   3.506  -1.682  0.00  0.00     0.003 A 
ENDROOT
TORSDOF 0
ENDMDL
