MODEL 1
REMARK minimizedAffinity 8.81093025
REMARK minimizedRMSD -1
REMARK  0 active torsions:
REMARK  status: ('A' for Active; 'I' for Inactive)
ROOT
ATOM      1  C2' OXE d   1       0.374   2.701   0.525  0.00  0.00     0.078 C 
ATOM      2  C1' OXE d   1       2.176   4.789   0.001  0.00  0.00     0.078 C 
ATOM      3  C1  OXE d   1       0.798   4.879  -0.607  0.00  0.00    -0.078 A 
ATOM      4  C2  OXE d   1      -0.061   3.830  -0.384  0.00  0.00    -0.078 A 
ATOM      5  C3  OXE d   1      -1.362   3.888  -0.876  0.00  0.00     0.003 A 
ATOM      6  C4  OXE d   1      -1.753   4.931  -1.724  0.00  0.00    -0.002 A 
ATOM      7  C5  OXE d   1      -0.880   5.990  -1.997  0.00  0.00    -0.002 A 
ATOM      8  C6  OXE d   1       0.382   6.000  -1.413  0.00  0.00     0.003 A 
ENDROOT
TORSDOF 0
ENDMDL
