MODEL 1
REMARK minimizedAffinity 7.83955622
REMARK minimizedRMSD -1
REMARK  0 active torsions:
REMARK  status: ('A' for Active; 'I' for Inactive)
ROOT
ATOM      1  C2' OXE d   1       2.156   3.221   3.543  0.00  0.00     0.078 C 
ATOM      2  C1' OXE d   1       0.014   1.528   2.891  0.00  0.00     0.078 C 
ATOM      3  C1  OXE d   1       0.384   2.607   1.904  0.00  0.00    -0.078 A 
ATOM      4  C2  OXE d   1       1.403   3.460   2.252  0.00  0.00    -0.078 A 
ATOM      5  C3  OXE d   1       1.820   4.438   1.354  0.00  0.00     0.003 A 
ATOM      6  C4  OXE d   1       1.112   4.659   0.167  0.00  0.00    -0.002 A 
ATOM      7  C5  OXE d   1       0.046   3.827  -0.189  0.00  0.00    -0.002 A 
ATOM      8  C6  OXE d   1      -0.303   2.771   0.647  0.00  0.00     0.003 A 
ENDROOT
TORSDOF 0
ENDMDL
