MODEL 1
REMARK minimizedAffinity 4.24482775
REMARK minimizedRMSD -1
REMARK  0 active torsions:
REMARK  status: ('A' for Active; 'I' for Inactive)
ROOT
ATOM      1  C2' OXE d   1       2.626  -1.492  -0.246  0.00  0.00     0.078 C 
ATOM      2  C1' OXE d   1       1.541  -4.074  -0.439  0.00  0.00     0.078 C 
ATOM      3  C1  OXE d   1       3.030  -3.920  -0.626  0.00  0.00    -0.078 A 
ATOM      4  C2  OXE d   1       3.546  -2.648  -0.576  0.00  0.00    -0.078 A 
ATOM      5  C3  OXE d   1       4.920  -2.456  -0.688  0.00  0.00     0.003 A 
ATOM      6  C4  OXE d   1       5.762  -3.529  -1.003  0.00  0.00    -0.002 A 
ATOM      7  C5  OXE d   1       5.252  -4.828  -1.098  0.00  0.00    -0.002 A 
ATOM      8  C6  OXE d   1       3.898  -5.046  -0.870  0.00  0.00     0.003 A 
ENDROOT
TORSDOF 0
ENDMDL
