MODEL 1
REMARK minimizedAffinity 14.3532362
REMARK minimizedRMSD -1
REMARK  0 active torsions:
REMARK  status: ('A' for Active; 'I' for Inactive)
ROOT
ATOM      1  C2' OXE d   1      -0.980  -4.107  -2.302  0.00  0.00     0.078 C 
ATOM      2  C1' OXE d   1       0.910  -5.655  -0.919  0.00  0.00     0.078 C 
ATOM      3  C1  OXE d   1       0.915  -4.165  -0.685  0.00  0.00    -0.078 A 
ATOM      4  C2  OXE d   1       0.017  -3.410  -1.401  0.00  0.00    -0.078 A 
ATOM      5  C3  OXE d   1      -0.058  -2.037  -1.183  0.00  0.00     0.003 A 
ATOM      6  C4  OXE d   1       0.874  -1.399  -0.355  0.00  0.00    -0.002 A 
ATOM      7  C5  OXE d   1       1.823  -2.145   0.353  0.00  0.00    -0.002 A 
ATOM      8  C6  OXE d   1       1.829  -3.530   0.232  0.00  0.00     0.003 A 
ENDROOT
TORSDOF 0
ENDMDL
