MODEL 1
REMARK minimizedAffinity 0.11705754
REMARK minimizedRMSD -1
REMARK  0 active torsions:
REMARK  status: ('A' for Active; 'I' for Inactive)
ROOT
ATOM      1  C2' OXE d   1      -1.848   6.000  -2.168  0.00  0.00     0.078 C 
ATOM      2  C1' OXE d   1      -2.344   6.000   0.595  0.00  0.00     0.078 C 
ATOM      3  C1  OXE d   1      -1.396   4.961   0.051  0.00  0.00    -0.078 A 
ATOM      4  C2  OXE d   1      -1.196   4.938  -1.309  0.00  0.00    -0.078 A 
ATOM      5  C3  OXE d   1      -0.289   4.036  -1.857  0.00  0.00     0.003 A 
ATOM      6  C4  OXE d   1       0.302   3.051  -1.057  0.00  0.00    -0.002 A 
ATOM      7  C5  OXE d   1       0.081   3.030   0.324  0.00  0.00    -0.002 A 
ATOM      8  C6  OXE d   1      -0.731   4.003   0.899  0.00  0.00     0.003 A 
ENDROOT
TORSDOF 0
ENDMDL
