MODEL 1
REMARK minimizedAffinity 10.7930031
REMARK minimizedRMSD -1
REMARK  0 active torsions:
REMARK  status: ('A' for Active; 'I' for Inactive)
ROOT
ATOM      1  C2' OXE d   1      -0.992  -4.098  -1.973  0.00  0.00     0.078 C 
ATOM      2  C1' OXE d   1       1.114  -5.566  -0.838  0.00  0.00     0.078 C 
ATOM      3  C1  OXE d   1       1.146  -4.065  -0.695  0.00  0.00    -0.078 A 
ATOM      4  C2  OXE d   1       0.136  -3.352  -1.294  0.00  0.00    -0.078 A 
ATOM      5  C3  OXE d   1       0.089  -1.968  -1.147  0.00  0.00     0.003 A 
ATOM      6  C4  OXE d   1       1.141  -1.285  -0.527  0.00  0.00    -0.002 A 
ATOM      7  C5  OXE d   1       2.200  -1.990   0.056  0.00  0.00    -0.002 A 
ATOM      8  C6  OXE d   1       2.196  -3.380   0.017  0.00  0.00     0.003 A 
ENDROOT
TORSDOF 0
ENDMDL
