MODEL 1
REMARK minimizedAffinity 9.63024998
REMARK minimizedRMSD -1
REMARK  0 active torsions:
REMARK  status: ('A' for Active; 'I' for Inactive)
ROOT
ATOM      1  C2' OXE d   1      -2.669   4.889  -3.177  0.00  0.00     0.078 C 
ATOM      2  C1' OXE d   1      -4.758   4.130  -4.892  0.00  0.00     0.078 C 
ATOM      3  C1  OXE d   1      -4.862   3.737  -3.440  0.00  0.00    -0.078 A 
ATOM      4  C2  OXE d   1      -3.813   4.072  -2.617  0.00  0.00    -0.078 A 
ATOM      5  C3  OXE d   1      -3.883   3.781  -1.258  0.00  0.00     0.003 A 
ATOM      6  C4  OXE d   1      -4.940   3.016  -0.750  0.00  0.00    -0.002 A 
ATOM      7  C5  OXE d   1      -5.999   2.630  -1.579  0.00  0.00    -0.002 A 
ATOM      8  C6  OXE d   1      -5.996   3.018  -2.914  0.00  0.00     0.003 A 
ENDROOT
TORSDOF 0
ENDMDL
