MODEL 1
REMARK minimizedAffinity 11.3958883
REMARK minimizedRMSD -1
REMARK  0 active torsions:
REMARK  status: ('A' for Active; 'I' for Inactive)
ROOT
ATOM      1  C2' OXE d   1      -0.376   2.194  -0.454  0.00  0.00     0.078 C 
ATOM      2  C1' OXE d   1       1.116   4.473   0.225  0.00  0.00     0.078 C 
ATOM      3  C1  OXE d   1      -0.023   4.643  -0.748  0.00  0.00    -0.078 A 
ATOM      4  C2  OXE d   1      -0.718   3.514  -1.111  0.00  0.00    -0.078 A 
ATOM      5  C3  OXE d   1      -1.813   3.623  -1.964  0.00  0.00     0.003 A 
ATOM      6  C4  OXE d   1      -2.117   4.846  -2.574  0.00  0.00    -0.002 A 
ATOM      7  C5  OXE d   1      -1.397   6.000  -2.249  0.00  0.00    -0.002 A 
ATOM      8  C6  OXE d   1      -0.376   5.924  -1.308  0.00  0.00     0.003 A 
ENDROOT
TORSDOF 0
ENDMDL
