MODEL 1
REMARK minimizedAffinity 9.82150936
REMARK minimizedRMSD -1
REMARK  0 active torsions:
REMARK  status: ('A' for Active; 'I' for Inactive)
ROOT
ATOM      1  C2' OXE d   1      -1.045  -4.158  -2.413  0.00  0.00     0.078 C 
ATOM      2  C1' OXE d   1       0.863  -5.741  -1.096  0.00  0.00     0.078 C 
ATOM      3  C1  OXE d   1       0.855  -4.261  -0.805  0.00  0.00    -0.078 A 
ATOM      4  C2  OXE d   1      -0.052  -3.487  -1.489  0.00  0.00    -0.078 A 
ATOM      5  C3  OXE d   1      -0.138  -2.125  -1.217  0.00  0.00     0.003 A 
ATOM      6  C4  OXE d   1       0.790  -1.511  -0.368  0.00  0.00    -0.002 A 
ATOM      7  C5  OXE d   1       1.747  -2.275   0.309  0.00  0.00    -0.002 A 
ATOM      8  C6  OXE d   1       1.765  -3.654   0.134  0.00  0.00     0.003 A 
ENDROOT
TORSDOF 0
ENDMDL
