MODEL 1
REMARK minimizedAffinity -1.40526044
REMARK minimizedRMSD -1
REMARK  0 active torsions:
REMARK  status: ('A' for Active; 'I' for Inactive)
ROOT
ATOM      1  C2' OXE d   1      -0.091   2.370   3.469  0.00  0.00     0.078 C 
ATOM      2  C1' OXE d   1       2.620   3.082   3.316  0.00  0.00     0.078 C 
ATOM      3  C1  OXE d   1       1.736   3.425   2.143  0.00  0.00    -0.078 A 
ATOM      4  C2  OXE d   1       0.421   3.031   2.207  0.00  0.00    -0.078 A 
ATOM      5  C3  OXE d   1      -0.451   3.370   1.176  0.00  0.00     0.003 A 
ATOM      6  C4  OXE d   1       0.033   3.972   0.008  0.00  0.00    -0.002 A 
ATOM      7  C5  OXE d   1       1.377   4.346  -0.094  0.00  0.00    -0.002 A 
ATOM      8  C6  OXE d   1       2.231   4.118   0.980  0.00  0.00     0.003 A 
ENDROOT
TORSDOF 0
ENDMDL
