MODEL 1
REMARK minimizedAffinity 15.1467905
REMARK minimizedRMSD -1
REMARK  0 active torsions:
REMARK  status: ('A' for Active; 'I' for Inactive)
ROOT
ATOM      1  C   UNL d   1      -2.983   2.100  -5.421  0.00  0.00     0.077 C 
ATOM      2  C1  UNL d   1      -1.780   2.714  -4.770  0.00  0.00    -0.074 A 
ATOM      3  C2  UNL d   1      -0.493   2.246  -5.051  0.00  0.00    -0.005 A 
ATOM      4  C3  UNL d   1       0.617   2.834  -4.445  0.00  0.00     0.006 A 
ATOM      5  C4  UNL d   1       0.451   3.895  -3.553  0.00  0.00    -0.005 A 
ATOM      6  C5  UNL d   1      -0.828   4.377  -3.261  0.00  0.00    -0.074 A 
ATOM      7  C6  UNL d   1      -1.023   5.523  -2.313  0.00  0.00     0.077 C 
ATOM      8  C7  UNL d   1      -1.938   3.786  -3.880  0.00  0.00    -0.001 A 
ENDROOT
TORSDOF 0
ENDMDL
