MODEL 1
REMARK minimizedAffinity 14.6317978
REMARK minimizedRMSD -1
REMARK  0 active torsions:
REMARK  status: ('A' for Active; 'I' for Inactive)
ROOT
ATOM      1  C   UNL d   1       2.531  -5.938   4.211  0.00  0.00     0.077 C 
ATOM      2  C1  UNL d   1       3.723  -5.269   4.828  0.00  0.00    -0.074 A 
ATOM      3  C2  UNL d   1       4.887  -5.992   5.111  0.00  0.00    -0.005 A 
ATOM      4  C3  UNL d   1       5.991  -5.354   5.676  0.00  0.00     0.006 A 
ATOM      5  C4  UNL d   1       5.944  -3.990   5.964  0.00  0.00    -0.005 A 
ATOM      6  C5  UNL d   1       4.789  -3.251   5.688  0.00  0.00    -0.074 A 
ATOM      7  C6  UNL d   1       4.725  -1.781   5.982  0.00  0.00     0.077 C 
ATOM      8  C7  UNL d   1       3.686  -3.897   5.113  0.00  0.00    -0.001 A 
ENDROOT
TORSDOF 0
ENDMDL
