MODEL 1
REMARK minimizedAffinity 8.82781792
REMARK minimizedRMSD -1
REMARK  0 active torsions:
REMARK  status: ('A' for Active; 'I' for Inactive)
ROOT
ATOM      1  C   UNL d   1      -1.762   5.996  -1.880  0.00  0.00     0.077 C 
ATOM      2  C1  UNL d   1      -1.704   4.786  -2.765  0.00  0.00    -0.074 A 
ATOM      3  C2  UNL d   1      -0.495   4.124  -3.000  0.00  0.00    -0.005 A 
ATOM      4  C3  UNL d   1      -0.459   2.994  -3.817  0.00  0.00     0.006 A 
ATOM      5  C4  UNL d   1      -1.629   2.516  -4.407  0.00  0.00    -0.005 A 
ATOM      6  C5  UNL d   1      -2.848   3.165  -4.183  0.00  0.00    -0.074 A 
ATOM      7  C6  UNL d   1      -4.117   2.658  -4.802  0.00  0.00     0.077 C 
ATOM      8  C7  UNL d   1      -2.877   4.295  -3.355  0.00  0.00    -0.001 A 
ENDROOT
TORSDOF 0
ENDMDL
