MODEL 1
REMARK minimizedAffinity 1.55715227
REMARK minimizedRMSD -1
REMARK  0 active torsions:
REMARK  status: ('A' for Active; 'I' for Inactive)
ROOT
ATOM      1  C   UNL d   1       2.767   0.280   2.317  0.00  0.00     0.077 C 
ATOM      2  C1  UNL d   1       1.373  -0.275   2.322  0.00  0.00    -0.074 A 
ATOM      3  C2  UNL d   1       0.709  -0.560   1.124  0.00  0.00    -0.005 A 
ATOM      4  C3  UNL d   1      -0.583  -1.085   1.145  0.00  0.00     0.006 A 
ATOM      5  C4  UNL d   1      -1.223  -1.328   2.360  0.00  0.00    -0.005 A 
ATOM      6  C5  UNL d   1      -0.575  -1.050   3.567  0.00  0.00    -0.074 A 
ATOM      7  C6  UNL d   1      -1.245  -1.315   4.883  0.00  0.00     0.077 C 
ATOM      8  C7  UNL d   1       0.726  -0.530   3.539  0.00  0.00    -0.001 A 
ENDROOT
TORSDOF 0
ENDMDL
