MODEL 1
REMARK minimizedAffinity 2.34781337
REMARK minimizedRMSD -1
REMARK  0 active torsions:
REMARK  status: ('A' for Active; 'I' for Inactive)
ROOT
ATOM      1  C   UNL d   1      -0.869  -1.820   4.964  0.00  0.00     0.077 C 
ATOM      2  C1  UNL d   1      -0.289  -1.328   3.671  0.00  0.00    -0.074 A 
ATOM      3  C2  UNL d   1      -1.090  -1.183   2.533  0.00  0.00    -0.005 A 
ATOM      4  C3  UNL d   1      -0.539  -0.716   1.340  0.00  0.00     0.006 A 
ATOM      5  C4  UNL d   1       0.816  -0.389   1.273  0.00  0.00    -0.005 A 
ATOM      6  C5  UNL d   1       1.632  -0.527   2.400  0.00  0.00    -0.074 A 
ATOM      7  C6  UNL d   1       3.088  -0.171   2.347  0.00  0.00     0.077 C 
ATOM      8  C7  UNL d   1       1.069  -0.991   3.597  0.00  0.00    -0.001 A 
ENDROOT
TORSDOF 0
ENDMDL
