MODEL 1
REMARK minimizedAffinity 6.59704876
REMARK minimizedRMSD -1
REMARK  0 active torsions:
REMARK  status: ('A' for Active; 'I' for Inactive)
ROOT
ATOM      1  C   UNL d   1       5.662   0.082  -2.897  0.00  0.00     0.077 C 
ATOM      2  C1  UNL d   1       4.415   0.159  -2.067  0.00  0.00    -0.074 A 
ATOM      3  C2  UNL d   1       3.746  -1.002  -1.665  0.00  0.00    -0.005 A 
ATOM      4  C3  UNL d   1       2.593  -0.915  -0.885  0.00  0.00     0.006 A 
ATOM      5  C4  UNL d   1       2.099   0.331  -0.499  0.00  0.00    -0.005 A 
ATOM      6  C5  UNL d   1       2.754   1.503  -0.890  0.00  0.00    -0.074 A 
ATOM      7  C6  UNL d   1       2.242   2.850  -0.475  0.00  0.00     0.077 C 
ATOM      8  C7  UNL d   1       3.916   1.407  -1.668  0.00  0.00    -0.001 A 
ENDROOT
TORSDOF 0
ENDMDL
