MODEL 1
REMARK minimizedAffinity 14.6774826
REMARK minimizedRMSD -1
REMARK  0 active torsions:
REMARK  status: ('A' for Active; 'I' for Inactive)
ROOT
ATOM      1  C   UNL d   1      -2.542  -2.585  -0.292  0.00  0.00     0.077 C 
ATOM      2  C1  UNL d   1      -2.528  -3.781  -1.196  0.00  0.00    -0.074 A 
ATOM      3  C2  UNL d   1      -3.496  -4.783  -1.077  0.00  0.00    -0.005 A 
ATOM      4  C3  UNL d   1      -3.476  -5.886  -1.931  0.00  0.00     0.006 A 
ATOM      5  C4  UNL d   1      -2.489  -5.997  -2.912  0.00  0.00    -0.005 A 
ATOM      6  C5  UNL d   1      -1.513  -5.004  -3.046  0.00  0.00    -0.074 A 
ATOM      7  C6  UNL d   1      -0.451  -5.103  -4.101  0.00  0.00     0.077 C 
ATOM      8  C7  UNL d   1      -1.544  -3.896  -2.188  0.00  0.00    -0.001 A 
ENDROOT
TORSDOF 0
ENDMDL
