MODEL 1
REMARK minimizedAffinity 6.30013275
REMARK minimizedRMSD -1
REMARK  0 active torsions:
REMARK  status: ('A' for Active; 'I' for Inactive)
ROOT
ATOM      1  C   UNL d   1      -1.286  -2.141   0.286  0.00  0.00     0.077 C 
ATOM      2  C1  UNL d   1      -0.353  -1.566   1.310  0.00  0.00    -0.074 A 
ATOM      3  C2  UNL d   1      -0.774  -1.349   2.626  0.00  0.00    -0.005 A 
ATOM      4  C3  UNL d   1       0.108  -0.822   3.569  0.00  0.00     0.006 A 
ATOM      5  C4  UNL d   1       1.418  -0.508   3.207  0.00  0.00    -0.005 A 
ATOM      6  C5  UNL d   1       1.858  -0.720   1.896  0.00  0.00    -0.074 A 
ATOM      7  C6  UNL d   1       3.266  -0.397   1.493  0.00  0.00     0.077 C 
ATOM      8  C7  UNL d   1       0.968  -1.256   0.956  0.00  0.00    -0.001 A 
ENDROOT
TORSDOF 0
ENDMDL
