MODEL 1
REMARK minimizedAffinity 12.3791342
REMARK minimizedRMSD -1
REMARK  0 active torsions:
REMARK  status: ('A' for Active; 'I' for Inactive)
ROOT
ATOM      1  C   UNL d   1      -0.277  -0.411   1.514  0.00  0.00     0.077 C 
ATOM      2  C1  UNL d   1      -1.397  -1.254   0.980  0.00  0.00    -0.074 A 
ATOM      3  C2  UNL d   1      -2.692  -1.139   1.496  0.00  0.00    -0.005 A 
ATOM      4  C3  UNL d   1      -3.725  -1.922   0.983  0.00  0.00     0.006 A 
ATOM      5  C4  UNL d   1      -3.475  -2.828  -0.049  0.00  0.00    -0.005 A 
ATOM      6  C5  UNL d   1      -2.187  -2.956  -0.578  0.00  0.00    -0.074 A 
ATOM      7  C6  UNL d   1      -1.902  -3.917  -1.694  0.00  0.00     0.077 C 
ATOM      8  C7  UNL d   1      -1.155  -2.160  -0.062  0.00  0.00    -0.001 A 
ENDROOT
TORSDOF 0
ENDMDL
