MODEL 1
REMARK minimizedAffinity 9.9759531
REMARK minimizedRMSD -1
REMARK  0 active torsions:
REMARK  status: ('A' for Active; 'I' for Inactive)
ROOT
ATOM      1  C   UNL d   1       2.518   0.329   0.924  0.00  0.00     0.077 C 
ATOM      2  C1  UNL d   1       1.256  -0.437   1.188  0.00  0.00    -0.074 A 
ATOM      3  C2  UNL d   1       0.748  -1.333   0.241  0.00  0.00    -0.005 A 
ATOM      4  C3  UNL d   1      -0.422  -2.045   0.505  0.00  0.00     0.006 A 
ATOM      5  C4  UNL d   1      -1.094  -1.871   1.715  0.00  0.00    -0.005 A 
ATOM      6  C5  UNL d   1      -0.600  -0.980   2.674  0.00  0.00    -0.074 A 
ATOM      7  C6  UNL d   1      -1.304  -0.788   3.984  0.00  0.00     0.077 C 
ATOM      8  C7  UNL d   1       0.580  -0.273   2.405  0.00  0.00    -0.001 A 
ENDROOT
TORSDOF 0
ENDMDL
