MODEL 1
REMARK minimizedAffinity 4.28899622
REMARK minimizedRMSD -1
REMARK  0 active torsions:
REMARK  status: ('A' for Active; 'I' for Inactive)
ROOT
ATOM      1  C   UNL d   1       1.938  -0.056   1.034  0.00  0.00     0.077 C 
ATOM      2  C1  UNL d   1       0.682  -0.809   1.361  0.00  0.00    -0.074 A 
ATOM      3  C2  UNL d   1      -0.019  -1.503   0.369  0.00  0.00    -0.005 A 
ATOM      4  C3  UNL d   1      -1.179  -2.206   0.689  0.00  0.00     0.006 A 
ATOM      5  C4  UNL d   1      -1.650  -2.224   2.003  0.00  0.00    -0.005 A 
ATOM      6  C5  UNL d   1      -0.962  -1.537   3.008  0.00  0.00    -0.074 A 
ATOM      7  C6  UNL d   1      -1.449  -1.554   4.427  0.00  0.00     0.077 C 
ATOM      8  C7  UNL d   1       0.208  -0.838   2.679  0.00  0.00    -0.001 A 
ENDROOT
TORSDOF 0
ENDMDL
