MODEL 1
REMARK minimizedAffinity 15.1168318
REMARK minimizedRMSD -1
REMARK  0 active torsions:
REMARK  status: ('A' for Active; 'I' for Inactive)
ROOT
ATOM      1  C   UNL d   1       1.617   0.190   1.061  0.00  0.00     0.077 C 
ATOM      2  C1  UNL d   1       0.434  -0.475   1.699  0.00  0.00    -0.074 A 
ATOM      3  C2  UNL d   1      -0.639  -0.931   0.926  0.00  0.00    -0.005 A 
ATOM      4  C3  UNL d   1      -1.728  -1.556   1.533  0.00  0.00     0.006 A 
ATOM      5  C4  UNL d   1      -1.755  -1.733   2.917  0.00  0.00    -0.005 A 
ATOM      6  C5  UNL d   1      -0.691  -1.285   3.706  0.00  0.00    -0.074 A 
ATOM      7  C6  UNL d   1      -0.699  -1.476   5.194  0.00  0.00     0.077 C 
ATOM      8  C7  UNL d   1       0.403  -0.664   3.088  0.00  0.00    -0.001 A 
ENDROOT
TORSDOF 0
ENDMDL
