MODEL 1
REMARK minimizedAffinity 8.27951431
REMARK minimizedRMSD -1
REMARK  0 active torsions:
REMARK  status: ('A' for Active; 'I' for Inactive)
ROOT
ATOM      1  C   UNL d   1       2.216   0.076   0.311  0.00  0.00     0.077 C 
ATOM      2  C1  UNL d   1       1.005  -0.634   0.839  0.00  0.00    -0.074 A 
ATOM      3  C2  UNL d   1       0.346  -1.600   0.072  0.00  0.00    -0.005 A 
ATOM      4  C3  UNL d   1      -0.773  -2.259   0.581  0.00  0.00     0.006 A 
ATOM      5  C4  UNL d   1      -1.244  -1.959   1.860  0.00  0.00    -0.005 A 
ATOM      6  C5  UNL d   1      -0.597  -0.997   2.642  0.00  0.00    -0.074 A 
ATOM      7  C6  UNL d   1      -1.084  -0.670   4.023  0.00  0.00     0.077 C 
ATOM      8  C7  UNL d   1       0.531  -0.344   2.127  0.00  0.00    -0.001 A 
ENDROOT
TORSDOF 0
ENDMDL
