MODEL 1
REMARK minimizedAffinity 6.97258043
REMARK minimizedRMSD -1
REMARK  0 active torsions:
REMARK  status: ('A' for Active; 'I' for Inactive)
ROOT
ATOM      1  C   UNL d   1       1.898   0.882   0.580  0.00  0.00     0.077 C 
ATOM      2  C1  UNL d   1       0.867  -0.102   1.047  0.00  0.00    -0.074 A 
ATOM      3  C2  UNL d   1       0.263  -0.990   0.151  0.00  0.00    -0.005 A 
ATOM      4  C3  UNL d   1      -0.687  -1.906   0.601  0.00  0.00     0.006 A 
ATOM      5  C4  UNL d   1      -1.042  -1.945   1.950  0.00  0.00    -0.005 A 
ATOM      6  C5  UNL d   1      -0.448  -1.066   2.861  0.00  0.00    -0.074 A 
ATOM      7  C6  UNL d   1      -0.810  -1.101   4.316  0.00  0.00     0.077 C 
ATOM      8  C7  UNL d   1       0.511  -0.152   2.402  0.00  0.00    -0.001 A 
ENDROOT
TORSDOF 0
ENDMDL
