MODEL 1
REMARK minimizedAffinity 10.8240042
REMARK minimizedRMSD -1
REMARK  0 active torsions:
REMARK  status: ('A' for Active; 'I' for Inactive)
ROOT
ATOM      1  C   UNL d   1      -0.776   5.995  -1.871  0.00  0.00     0.077 C 
ATOM      2  C1  UNL d   1      -0.836   4.841  -2.827  0.00  0.00    -0.074 A 
ATOM      3  C2  UNL d   1       0.319   4.376  -3.464  0.00  0.00    -0.005 A 
ATOM      4  C3  UNL d   1       0.250   3.296  -4.344  0.00  0.00     0.006 A 
ATOM      5  C4  UNL d   1      -0.972   2.671  -4.595  0.00  0.00    -0.005 A 
ATOM      6  C5  UNL d   1      -2.137   3.122  -3.966  0.00  0.00    -0.074 A 
ATOM      7  C6  UNL d   1      -3.457   2.455  -4.217  0.00  0.00     0.077 C 
ATOM      8  C7  UNL d   1      -2.058   4.203  -3.078  0.00  0.00    -0.001 A 
ENDROOT
TORSDOF 0
ENDMDL
