MODEL 1
REMARK minimizedAffinity -0.306845248
REMARK minimizedRMSD -1
REMARK  1 active torsions:
REMARK  status: ('A' for Active; 'I' for Inactive)
REMARK    1  A    between atoms: N_2  and  C1_3 
ROOT
ATOM      1  C1  UNL d   1       1.605   4.290   0.069  0.00  0.00     0.143 A 
ATOM      2  C2  UNL d   1       2.252   3.070   0.299  0.00  0.00    -0.057 A 
ATOM      3  C3  UNL d   1       1.533   1.872   0.387  0.00  0.00     0.033 A 
ATOM      4  C4  UNL d   1       0.146   1.876   0.275  0.00  0.00    -0.042 A 
ATOM      5  C5  UNL d   1      -0.520   3.080   0.072  0.00  0.00     0.033 A 
ATOM      6  C6  UNL d   1       0.205   4.272  -0.022  0.00  0.00    -0.057 A 
ENDROOT
BRANCH   1   7
ATOM      7  N   UNL d   1       2.254   5.527   0.070  0.00  0.00    -0.732 N 
ATOM      8  C   UNL d   1       2.939   5.999   1.254  0.00  0.00     0.284 C 
ATOM      9  H3  UNL d   1       2.755   5.703  -0.798  0.00  0.00     0.395 HD
ENDBRANCH   1   7
TORSDOF 1
ENDMDL
