MODEL 1
REMARK minimizedAffinity 2.94572186
REMARK minimizedRMSD -1
REMARK  1 active torsions:
REMARK  status: ('A' for Active; 'I' for Inactive)
REMARK    1  A    between atoms: N_2  and  C1_3 
ROOT
ATOM      1  C1  UNL d   1      -2.708   1.492   0.259  0.00  0.00     0.143 A 
ATOM      2  C2  UNL d   1      -2.262   2.763  -0.119  0.00  0.00    -0.057 A 
ATOM      3  C3  UNL d   1      -0.975   3.208   0.208  0.00  0.00     0.033 A 
ATOM      4  C4  UNL d   1      -0.119   2.398   0.946  0.00  0.00    -0.042 A 
ATOM      5  C5  UNL d   1      -0.550   1.140   1.353  0.00  0.00     0.033 A 
ATOM      6  C6  UNL d   1      -1.833   0.699   1.018  0.00  0.00    -0.057 A 
ENDROOT
BRANCH   1   7
ATOM      7  N   UNL d   1      -4.009   1.030   0.049  0.00  0.00    -0.732 N 
ATOM      8  C   UNL d   1      -5.123   1.954   0.015  0.00  0.00     0.284 C 
ATOM      9  H3  UNL d   1      -4.053   0.300  -0.658  0.00  0.00     0.395 HD
ENDBRANCH   1   7
TORSDOF 1
ENDMDL
