MODEL 1
REMARK minimizedAffinity 1.68777156
REMARK minimizedRMSD -1
REMARK  1 active torsions:
REMARK  status: ('A' for Active; 'I' for Inactive)
REMARK    1  A    between atoms: N_2  and  C1_3 
ROOT
ATOM      1  C1  UNL d   1      -0.611   0.972   2.136  0.00  0.00     0.143 A 
ATOM      2  C2  UNL d   1       0.028   0.817   0.900  0.00  0.00    -0.057 A 
ATOM      3  C3  UNL d   1       0.498   1.922   0.182  0.00  0.00     0.033 A 
ATOM      4  C4  UNL d   1       0.312   3.210   0.675  0.00  0.00    -0.042 A 
ATOM      5  C5  UNL d   1      -0.342   3.390   1.888  0.00  0.00     0.033 A 
ATOM      6  C6  UNL d   1      -0.804   2.281   2.604  0.00  0.00    -0.057 A 
ENDROOT
BRANCH   1   7
ATOM      7  N   UNL d   1      -1.188  -0.080   2.851  0.00  0.00    -0.732 N 
ATOM      8  C   UNL d   1      -0.486  -1.336   3.010  0.00  0.00     0.284 C 
ATOM      9  H3  UNL d   1      -1.667   0.237   3.690  0.00  0.00     0.395 HD
ENDBRANCH   1   7
TORSDOF 1
ENDMDL
