MODEL 1
REMARK minimizedAffinity 2.28823495
REMARK minimizedRMSD -1
REMARK  1 active torsions:
REMARK  status: ('A' for Active; 'I' for Inactive)
REMARK    1  A    between atoms: N_2  and  C1_3 
ROOT
ATOM      1  C1  UNL d   1      -3.063   2.641   0.317  0.00  0.00     0.143 A 
ATOM      2  C2  UNL d   1      -4.442   2.782   0.507  0.00  0.00    -0.057 A 
ATOM      3  C3  UNL d   1      -5.163   1.876   1.294  0.00  0.00     0.033 A 
ATOM      4  C4  UNL d   1      -4.520   0.792   1.882  0.00  0.00    -0.042 A 
ATOM      5  C5  UNL d   1      -3.155   0.617   1.686  0.00  0.00     0.033 A 
ATOM      6  C6  UNL d   1      -2.439   1.529   0.905  0.00  0.00    -0.057 A 
ENDROOT
BRANCH   1   7
ATOM      7  N   UNL d   1      -2.308   3.452  -0.534  0.00  0.00    -0.732 N 
ATOM      8  C   UNL d   1      -0.871   3.303  -0.611  0.00  0.00     0.284 C 
ATOM      9  H3  UNL d   1      -2.760   3.597  -1.434  0.00  0.00     0.395 HD
ENDBRANCH   1   7
TORSDOF 1
ENDMDL
