MODEL 1
REMARK minimizedAffinity 0.525453746
REMARK minimizedRMSD -1
REMARK  1 active torsions:
REMARK  status: ('A' for Active; 'I' for Inactive)
REMARK    1  A    between atoms: N_2  and  C1_3 
ROOT
ATOM      1  C1  UNL d   1      -2.651   1.710   0.263  0.00  0.00     0.143 A 
ATOM      2  C2  UNL d   1      -1.975   1.047   1.293  0.00  0.00    -0.057 A 
ATOM      3  C3  UNL d   1      -0.630   1.318   1.571  0.00  0.00     0.033 A 
ATOM      4  C4  UNL d   1       0.074   2.239   0.802  0.00  0.00    -0.042 A 
ATOM      5  C5  UNL d   1      -0.570   2.891  -0.243  0.00  0.00     0.033 A 
ATOM      6  C6  UNL d   1      -1.916   2.622  -0.511  0.00  0.00    -0.057 A 
ENDROOT
BRANCH   1   7
ATOM      7  N   UNL d   1      -3.959   1.414  -0.126  0.00  0.00    -0.732 N 
ATOM      8  C   UNL d   1      -5.085   1.919   0.629  0.00  0.00     0.284 C 
ATOM      9  H3  UNL d   1      -4.083   1.455  -1.135  0.00  0.00     0.395 HD
ENDBRANCH   1   7
TORSDOF 1
ENDMDL
