MODEL 1
REMARK minimizedAffinity -0.191447511
REMARK minimizedRMSD -1
REMARK  1 active torsions:
REMARK  status: ('A' for Active; 'I' for Inactive)
REMARK    1  A    between atoms: N_2  and  C1_3 
ROOT
ATOM      1  C1  UNL d   1       0.808   2.485   0.659  0.00  0.00     0.143 A 
ATOM      2  C2  UNL d   1       1.473   3.504  -0.032  0.00  0.00    -0.057 A 
ATOM      3  C3  UNL d   1       2.840   3.411  -0.322  0.00  0.00     0.033 A 
ATOM      4  C4  UNL d   1       3.574   2.309   0.101  0.00  0.00    -0.042 A 
ATOM      5  C5  UNL d   1       2.939   1.296   0.812  0.00  0.00     0.033 A 
ATOM      6  C6  UNL d   1       1.573   1.391   1.092  0.00  0.00    -0.057 A 
ENDROOT
BRANCH   1   7
ATOM      7  N   UNL d   1      -0.527   2.563   1.064  0.00  0.00    -0.732 N 
ATOM      8  C   UNL d   1      -1.565   2.908   0.116  0.00  0.00     0.284 C 
ATOM      9  H3  UNL d   1      -0.782   1.817   1.707  0.00  0.00     0.395 HD
ENDBRANCH   1   7
TORSDOF 1
ENDMDL
