MODEL 1
REMARK minimizedAffinity -0.518675983
REMARK minimizedRMSD -1
REMARK  1 active torsions:
REMARK  status: ('A' for Active; 'I' for Inactive)
REMARK    1  A    between atoms: N_2  and  C1_3 
ROOT
ATOM      1  C1  UNL d   1       2.384   0.824   0.317  0.00  0.00     0.143 A 
ATOM      2  C2  UNL d   1       1.687   2.034   0.406  0.00  0.00    -0.057 A 
ATOM      3  C3  UNL d   1       2.301   3.191   0.902  0.00  0.00     0.033 A 
ATOM      4  C4  UNL d   1       3.618   3.150   1.348  0.00  0.00    -0.042 A 
ATOM      5  C5  UNL d   1       4.322   1.953   1.292  0.00  0.00     0.033 A 
ATOM      6  C6  UNL d   1       3.706   0.803   0.789  0.00  0.00    -0.057 A 
ENDROOT
BRANCH   1   7
ATOM      7  N   UNL d   1       1.800  -0.383  -0.075  0.00  0.00    -0.732 N 
ATOM      8  C   UNL d   1       1.409  -0.599  -1.451  0.00  0.00     0.284 C 
ATOM      9  H3  UNL d   1       2.241  -1.188   0.364  0.00  0.00     0.395 HD
ENDBRANCH   1   7
TORSDOF 1
ENDMDL
