MODEL 1
REMARK minimizedAffinity 7.3500762
REMARK minimizedRMSD -1
REMARK  1 active torsions:
REMARK  status: ('A' for Active; 'I' for Inactive)
REMARK    1  A    between atoms: N_2  and  C1_3 
ROOT
ATOM      1  C1  UNL d   1       1.400   1.281   1.087  0.00  0.00     0.143 A 
ATOM      2  C2  UNL d   1       0.251   0.941   1.809  0.00  0.00    -0.057 A 
ATOM      3  C3  UNL d   1      -0.962   1.609   1.600  0.00  0.00     0.033 A 
ATOM      4  C4  UNL d   1      -1.039   2.652   0.684  0.00  0.00    -0.042 A 
ATOM      5  C5  UNL d   1       0.097   3.024  -0.027  0.00  0.00     0.033 A 
ATOM      6  C6  UNL d   1       1.303   2.348   0.181  0.00  0.00    -0.057 A 
ENDROOT
BRANCH   1   7
ATOM      7  N   UNL d   1       2.659   0.720   1.319  0.00  0.00    -0.732 N 
ATOM      8  C   UNL d   1       3.793   1.561   1.634  0.00  0.00     0.284 C 
ATOM      9  H3  UNL d   1       2.608  -0.133   1.871  0.00  0.00     0.395 HD
ENDBRANCH   1   7
TORSDOF 1
ENDMDL
