MODEL 1
REMARK minimizedAffinity 1.01208472
REMARK minimizedRMSD -1
REMARK  1 active torsions:
REMARK  status: ('A' for Active; 'I' for Inactive)
REMARK    1  A    between atoms: N_2  and  C1_3 
ROOT
ATOM      1  C1  UNL d   1      -2.362  -4.855  -0.301  0.00  0.00     0.143 A 
ATOM      2  C2  UNL d   1      -2.722  -4.128   0.839  0.00  0.00    -0.057 A 
ATOM      3  C3  UNL d   1      -2.055  -4.311   2.056  0.00  0.00     0.033 A 
ATOM      4  C4  UNL d   1      -1.032  -5.247   2.162  0.00  0.00    -0.042 A 
ATOM      5  C5  UNL d   1      -0.674  -5.998   1.048  0.00  0.00     0.033 A 
ATOM      6  C6  UNL d   1      -1.339  -5.807  -0.166  0.00  0.00    -0.057 A 
ENDROOT
BRANCH   1   7
ATOM      7  N   UNL d   1      -3.051  -4.790  -1.515  0.00  0.00    -0.732 N 
ATOM      8  C   UNL d   1      -3.481  -5.999  -2.184  0.00  0.00     0.284 C 
ATOM      9  H3  UNL d   1      -3.738  -4.039  -1.532  0.00  0.00     0.395 HD
ENDBRANCH   1   7
TORSDOF 1
ENDMDL
