MODEL 1
REMARK minimizedAffinity 6.68962002
REMARK minimizedRMSD -1
REMARK  1 active torsions:
REMARK  status: ('A' for Active; 'I' for Inactive)
REMARK    1  A    between atoms: N_2  and  C1_3 
ROOT
ATOM      1  C1  UNL d   1       1.955   0.858  -0.038  0.00  0.00     0.143 A 
ATOM      2  C2  UNL d   1       2.042  -0.483   0.348  0.00  0.00    -0.057 A 
ATOM      3  C3  UNL d   1       1.949  -1.517  -0.592  0.00  0.00     0.033 A 
ATOM      4  C4  UNL d   1       1.736  -1.226  -1.936  0.00  0.00    -0.042 A 
ATOM      5  C5  UNL d   1       1.620   0.100  -2.339  0.00  0.00     0.033 A 
ATOM      6  C6  UNL d   1       1.722   1.127  -1.396  0.00  0.00    -0.057 A 
ENDROOT
BRANCH   1   7
ATOM      7  N   UNL d   1       1.941   1.927   0.861  0.00  0.00    -0.732 N 
ATOM      8  C   UNL d   1       1.205   3.136   0.559  0.00  0.00     0.284 C 
ATOM      9  H3  UNL d   1       1.859   1.620   1.828  0.00  0.00     0.395 HD
ENDBRANCH   1   7
TORSDOF 1
ENDMDL
