MODEL 1
REMARK minimizedAffinity 2.05923128
REMARK minimizedRMSD -1
REMARK  0 active torsions:
REMARK  status: ('A' for Active; 'I' for Inactive)
ROOT
ATOM      1  C4' PXY d   1       5.949   3.241  -5.985  0.00  0.00     0.077 C 
ATOM      2  C1' PXY d   1       4.696   5.998  -1.062  0.00  0.00     0.077 C 
ATOM      3  C1  PXY d   1       5.015   5.281  -2.359  0.00  0.00    -0.082 A 
ATOM      4  C2  PXY d   1       5.674   4.134  -2.327  0.00  0.00     0.003 A 
ATOM      5  C3  PXY d   1       5.998   3.489  -3.493  0.00  0.00     0.003 A 
ATOM      6  C4  PXY d   1       5.597   3.995  -4.700  0.00  0.00    -0.082 A 
ATOM      7  C5  PXY d   1       4.915   5.159  -4.740  0.00  0.00     0.003 A 
ATOM      8  C6  PXY d   1       4.632   5.820  -3.548  0.00  0.00     0.003 A 
ENDROOT
TORSDOF 0
ENDMDL
