MODEL 1
REMARK minimizedAffinity 6.1093955
REMARK minimizedRMSD -1
REMARK  0 active torsions:
REMARK  status: ('A' for Active; 'I' for Inactive)
ROOT
ATOM      1  C4' PXY d   1       5.998   5.286  -0.107  0.00  0.00     0.077 C 
ATOM      2  C1' PXY d   1       3.236   6.000  -5.135  0.00  0.00     0.077 C 
ATOM      3  C1  PXY d   1       3.972   5.810  -3.823  0.00  0.00    -0.082 A 
ATOM      4  C2  PXY d   1       3.293   5.493  -2.732  0.00  0.00     0.003 A 
ATOM      5  C3  PXY d   1       3.938   5.349  -1.531  0.00  0.00     0.003 A 
ATOM      6  C4  PXY d   1       5.299   5.478  -1.455  0.00  0.00    -0.082 A 
ATOM      7  C5  PXY d   1       6.000   5.791  -2.566  0.00  0.00     0.003 A 
ATOM      8  C6  PXY d   1       5.321   5.973  -3.767  0.00  0.00     0.003 A 
ENDROOT
TORSDOF 0
ENDMDL
