MODEL 1
REMARK minimizedAffinity 1.06552124
REMARK minimizedRMSD -1
REMARK  0 active torsions:
REMARK  status: ('A' for Active; 'I' for Inactive)
ROOT
ATOM      1  C4' PXY d   1       5.800   4.556  -0.736  0.00  0.00     0.077 C 
ATOM      2  C1' PXY d   1       3.884   5.981  -6.000  0.00  0.00     0.077 C 
ATOM      3  C1  PXY d   1       4.393   5.597  -4.624  0.00  0.00    -0.082 A 
ATOM      4  C2  PXY d   1       3.725   5.982  -3.549  0.00  0.00     0.003 A 
ATOM      5  C3  PXY d   1       4.189   5.671  -2.297  0.00  0.00     0.003 A 
ATOM      6  C4  PXY d   1       5.318   4.913  -2.145  0.00  0.00    -0.082 A 
ATOM      7  C5  PXY d   1       5.999   4.507  -3.237  0.00  0.00     0.003 A 
ATOM      8  C6  PXY d   1       5.535   4.868  -4.499  0.00  0.00     0.003 A 
ENDROOT
TORSDOF 0
ENDMDL
