MODEL 1
REMARK minimizedAffinity 4.8022294
REMARK minimizedRMSD -1
REMARK  0 active torsions:
REMARK  status: ('A' for Active; 'I' for Inactive)
ROOT
ATOM      1  C4' PXY d   1       3.371   5.999  -5.418  0.00  0.00     0.077 C 
ATOM      2  C1' PXY d   1       5.999   4.415  -0.519  0.00  0.00     0.077 C 
ATOM      3  C1  PXY d   1       5.318   4.841  -1.805  0.00  0.00    -0.082 A 
ATOM      4  C2  PXY d   1       4.072   4.464  -2.040  0.00  0.00     0.003 A 
ATOM      5  C3  PXY d   1       3.452   4.813  -3.212  0.00  0.00     0.003 A 
ATOM      6  C4  PXY d   1       4.095   5.601  -4.129  0.00  0.00    -0.082 A 
ATOM      7  C5  PXY d   1       5.363   5.998  -3.891  0.00  0.00     0.003 A 
ATOM      8  C6  PXY d   1       5.989   5.599  -2.714  0.00  0.00     0.003 A 
ENDROOT
TORSDOF 0
ENDMDL
