MODEL 1
REMARK minimizedAffinity -4.61696672
REMARK minimizedRMSD -1
REMARK  0 active torsions:
REMARK  status: ('A' for Active; 'I' for Inactive)
ROOT
ATOM      1  C4' PXY d   1       4.851   5.983  -1.407  0.00  0.00     0.077 C 
ATOM      2  C1' PXY d   1       4.846   2.473  -6.000  0.00  0.00     0.077 C 
ATOM      3  C1  PXY d   1       4.835   3.398  -4.798  0.00  0.00    -0.082 A 
ATOM      4  C2  PXY d   1       5.981   3.822  -4.289  0.00  0.00     0.003 A 
ATOM      5  C3  PXY d   1       5.990   4.632  -3.183  0.00  0.00     0.003 A 
ATOM      6  C4  PXY d   1       4.814   5.056  -2.625  0.00  0.00    -0.082 A 
ATOM      7  C5  PXY d   1       3.641   4.637  -3.146  0.00  0.00     0.003 A 
ATOM      8  C6  PXY d   1       3.654   3.781  -4.243  0.00  0.00     0.003 A 
ENDROOT
TORSDOF 0
ENDMDL
