MODEL 1
REMARK minimizedAffinity -1.42549098
REMARK minimizedRMSD -1
REMARK  0 active torsions:
REMARK  status: ('A' for Active; 'I' for Inactive)
ROOT
ATOM      1  C4' PXY d   1      -0.686  -1.951  -0.746  0.00  0.00     0.077 C 
ATOM      2  C1' PXY d   1      -1.021  -5.091  -5.587  0.00  0.00     0.077 C 
ATOM      3  C1  PXY d   1      -0.936  -4.257  -4.324  0.00  0.00    -0.082 A 
ATOM      4  C2  PXY d   1      -0.222  -4.693  -3.299  0.00  0.00     0.003 A 
ATOM      5  C3  PXY d   1      -0.161  -3.966  -2.138  0.00  0.00     0.003 A 
ATOM      6  C4  PXY d   1      -0.792  -2.755  -2.044  0.00  0.00    -0.082 A 
ATOM      7  C5  PXY d   1      -1.513  -2.298  -3.090  0.00  0.00     0.003 A 
ATOM      8  C6  PXY d   1      -1.597  -3.070  -4.245  0.00  0.00     0.003 A 
ENDROOT
TORSDOF 0
ENDMDL
