MODEL 1
REMARK minimizedAffinity 3.84083128
REMARK minimizedRMSD -1
REMARK  0 active torsions:
REMARK  status: ('A' for Active; 'I' for Inactive)
ROOT
ATOM      1  C4' PXY d   1       5.985   2.202  -5.820  0.00  0.00     0.077 C 
ATOM      2  C1' PXY d   1       5.971   5.999  -1.461  0.00  0.00     0.077 C 
ATOM      3  C1  PXY d   1       5.980   4.995  -2.596  0.00  0.00    -0.082 A 
ATOM      4  C2  PXY d   1       5.979   5.422  -3.848  0.00  0.00     0.003 A 
ATOM      5  C3  PXY d   1       5.955   4.528  -4.887  0.00  0.00     0.003 A 
ATOM      6  C4  PXY d   1       5.986   3.181  -4.642  0.00  0.00    -0.082 A 
ATOM      7  C5  PXY d   1       5.998   2.736  -3.367  0.00  0.00     0.003 A 
ATOM      8  C6  PXY d   1       5.981   3.661  -2.327  0.00  0.00     0.003 A 
ENDROOT
TORSDOF 0
ENDMDL
