MODEL 1
REMARK minimizedAffinity -2.68668127
REMARK minimizedRMSD -1
REMARK  0 active torsions:
REMARK  status: ('A' for Active; 'I' for Inactive)
ROOT
ATOM      1  C4' PXY d   1       5.991   5.999  -5.998  0.00  0.00     0.077 C 
ATOM      2  C1' PXY d   1       3.379   5.829  -0.844  0.00  0.00     0.077 C 
ATOM      3  C1  PXY d   1       4.054   5.869  -2.201  0.00  0.00    -0.082 A 
ATOM      4  C2  PXY d   1       5.374   5.897  -2.275  0.00  0.00     0.003 A 
ATOM      5  C3  PXY d   1       6.000   5.965  -3.493  0.00  0.00     0.003 A 
ATOM      6  C4  PXY d   1       5.267   5.950  -4.650  0.00  0.00    -0.082 A 
ATOM      7  C5  PXY d   1       3.920   5.910  -4.583  0.00  0.00     0.003 A 
ATOM      8  C6  PXY d   1       3.303   5.883  -3.336  0.00  0.00     0.003 A 
ENDROOT
TORSDOF 0
ENDMDL
