MODEL 1
REMARK minimizedAffinity 8.38480949
REMARK minimizedRMSD -1
REMARK  0 active torsions:
REMARK  status: ('A' for Active; 'I' for Inactive)
ROOT
ATOM      1  C4' PXY d   1       5.998   5.682  -0.764  0.00  0.00     0.077 C 
ATOM      2  C1' PXY d   1       3.319   4.655  -5.782  0.00  0.00     0.077 C 
ATOM      3  C1  PXY d   1       4.030   4.915  -4.469  0.00  0.00    -0.082 A 
ATOM      4  C2  PXY d   1       3.375   5.489  -3.473  0.00  0.00     0.003 A 
ATOM      5  C3  PXY d   1       4.012   5.760  -2.289  0.00  0.00     0.003 A 
ATOM      6  C4  PXY d   1       5.318   5.392  -2.105  0.00  0.00    -0.082 A 
ATOM      7  C5  PXY d   1       5.990   4.796  -3.113  0.00  0.00     0.003 A 
ATOM      8  C6  PXY d   1       5.337   4.567  -4.321  0.00  0.00     0.003 A 
ENDROOT
TORSDOF 0
ENDMDL
