MODEL 1
REMARK minimizedAffinity 4.11711693
REMARK minimizedRMSD -1
REMARK  0 active torsions:
REMARK  status: ('A' for Active; 'I' for Inactive)
ROOT
ATOM      1  C4' PXY d   1       2.499  -1.905   3.810  0.00  0.00     0.077 C 
ATOM      2  C1' PXY d   1       5.995  -5.956   5.998  0.00  0.00     0.077 C 
ATOM      3  C1  PXY d   1       5.079  -4.887   5.435  0.00  0.00    -0.082 A 
ATOM      4  C2  PXY d   1       4.221  -5.199   4.478  0.00  0.00     0.003 A 
ATOM      5  C3  PXY d   1       3.408  -4.237   3.936  0.00  0.00     0.003 A 
ATOM      6  C4  PXY d   1       3.437  -2.955   4.415  0.00  0.00    -0.082 A 
ATOM      7  C5  PXY d   1       4.303  -2.631   5.398  0.00  0.00     0.003 A 
ATOM      8  C6  PXY d   1       5.148  -3.612   5.907  0.00  0.00     0.003 A 
ENDROOT
TORSDOF 0
ENDMDL
