MODEL 1
REMARK minimizedAffinity -0.812096596
REMARK minimizedRMSD -1
REMARK  0 active torsions:
REMARK  status: ('A' for Active; 'I' for Inactive)
ROOT
ATOM      1  C4' PXY d   1       1.718   4.108  -1.115  0.00  0.00     0.077 C 
ATOM      2  C1' PXY d   1       5.999   5.392  -4.781  0.00  0.00     0.077 C 
ATOM      3  C1  PXY d   1       4.867   5.057  -3.829  0.00  0.00    -0.082 A 
ATOM      4  C2  PXY d   1       5.041   5.213  -2.527  0.00  0.00     0.003 A 
ATOM      5  C3  PXY d   1       4.039   4.885  -1.650  0.00  0.00     0.003 A 
ATOM      6  C4  PXY d   1       2.829   4.443  -2.114  0.00  0.00    -0.082 A 
ATOM      7  C5  PXY d   1       2.641   4.291  -3.442  0.00  0.00     0.003 A 
ATOM      8  C6  PXY d   1       3.684   4.591  -4.313  0.00  0.00     0.003 A 
ENDROOT
TORSDOF 0
ENDMDL
