MODEL 1
REMARK minimizedAffinity 4.0938468
REMARK minimizedRMSD -1
REMARK  0 active torsions:
REMARK  status: ('A' for Active; 'I' for Inactive)
ROOT
ATOM      1  C4' PXY d   1       3.435   5.263  -5.948  0.00  0.00     0.077 C 
ATOM      2  C1' PXY d   1       6.000   4.897  -0.781  0.00  0.00     0.077 C 
ATOM      3  C1  PXY d   1       5.324   4.981  -2.135  0.00  0.00    -0.082 A 
ATOM      4  C2  PXY d   1       5.722   5.889  -3.010  0.00  0.00     0.003 A 
ATOM      5  C3  PXY d   1       5.100   6.000  -4.227  0.00  0.00     0.003 A 
ATOM      6  C4  PXY d   1       4.095   5.136  -4.572  0.00  0.00    -0.082 A 
ATOM      7  C5  PXY d   1       3.690   4.200  -3.689  0.00  0.00     0.003 A 
ATOM      8  C6  PXY d   1       4.307   4.131  -2.443  0.00  0.00     0.003 A 
ENDROOT
TORSDOF 0
ENDMDL
