MODEL 1
REMARK minimizedAffinity -1.92063773
REMARK minimizedRMSD -1
REMARK  0 active torsions:
REMARK  status: ('A' for Active; 'I' for Inactive)
ROOT
ATOM      1  C4' PXY d   1       5.999   0.972  -5.764  0.00  0.00     0.077 C 
ATOM      2  C1' PXY d   1       3.505   5.999  -4.375  0.00  0.00     0.077 C 
ATOM      3  C1  PXY d   1       4.163   4.686  -4.751  0.00  0.00    -0.082 A 
ATOM      4  C2  PXY d   1       3.733   3.560  -4.206  0.00  0.00     0.003 A 
ATOM      5  C3  PXY d   1       4.338   2.367  -4.510  0.00  0.00     0.003 A 
ATOM      6  C4  PXY d   1       5.358   2.320  -5.422  0.00  0.00    -0.082 A 
ATOM      7  C5  PXY d   1       5.796   3.464  -5.990  0.00  0.00     0.003 A 
ATOM      8  C6  PXY d   1       5.196   4.669  -5.637  0.00  0.00     0.003 A 
ENDROOT
TORSDOF 0
ENDMDL
