MODEL 1
REMARK minimizedAffinity 0.331721455
REMARK minimizedRMSD -1
REMARK  0 active torsions:
REMARK  status: ('A' for Active; 'I' for Inactive)
ROOT
ATOM      1  C4' PXY d   1       5.405   3.046  -6.000  0.00  0.00     0.077 C 
ATOM      2  C1' PXY d   1       5.999   5.999  -1.066  0.00  0.00     0.077 C 
ATOM      3  C1  PXY d   1       5.837   5.235  -2.365  0.00  0.00    -0.082 A 
ATOM      4  C2  PXY d   1       5.889   3.913  -2.357  0.00  0.00     0.003 A 
ATOM      5  C3  PXY d   1       5.777   3.207  -3.527  0.00  0.00     0.003 A 
ATOM      6  C4  PXY d   1       5.555   3.859  -4.710  0.00  0.00    -0.082 A 
ATOM      7  C5  PXY d   1       5.489   5.207  -4.725  0.00  0.00     0.003 A 
ATOM      8  C6  PXY d   1       5.647   5.907  -3.532  0.00  0.00     0.003 A 
ENDROOT
TORSDOF 0
ENDMDL
