MODEL 1
REMARK minimizedAffinity -2.49264741
REMARK minimizedRMSD -1
REMARK  0 active torsions:
REMARK  status: ('A' for Active; 'I' for Inactive)
ROOT
ATOM      1  C4' PXY d   1       5.632   2.297  -5.990  0.00  0.00     0.077 C 
ATOM      2  C1' PXY d   1       3.688   5.999  -1.999  0.00  0.00     0.077 C 
ATOM      3  C1  PXY d   1       4.210   5.033  -3.044  0.00  0.00    -0.082 A 
ATOM      4  C2  PXY d   1       3.387   4.558  -3.964  0.00  0.00     0.003 A 
ATOM      5  C3  PXY d   1       3.835   3.658  -4.897  0.00  0.00     0.003 A 
ATOM      6  C4  PXY d   1       5.151   3.283  -4.921  0.00  0.00    -0.082 A 
ATOM      7  C5  PXY d   1       6.000   3.771  -3.992  0.00  0.00     0.003 A 
ATOM      8  C6  PXY d   1       5.516   4.651  -3.029  0.00  0.00     0.003 A 
ENDROOT
TORSDOF 0
ENDMDL
