MODEL 1
REMARK minimizedAffinity -2.66930866
REMARK minimizedRMSD -1
REMARK  0 active torsions:
REMARK  status: ('A' for Active; 'I' for Inactive)
ROOT
ATOM      1  C4' PXY d   1       5.999   4.823  -0.303  0.00  0.00     0.077 C 
ATOM      2  C1' PXY d   1       5.015   4.908  -5.999  0.00  0.00     0.077 C 
ATOM      3  C1  PXY d   1       5.274   4.899  -4.505  0.00  0.00    -0.082 A 
ATOM      4  C2  PXY d   1       5.788   3.820  -3.937  0.00  0.00     0.003 A 
ATOM      5  C3  PXY d   1       5.999   3.783  -2.583  0.00  0.00     0.003 A 
ATOM      6  C4  PXY d   1       5.730   4.881  -1.810  0.00  0.00    -0.082 A 
ATOM      7  C5  PXY d   1       5.215   5.989  -2.383  0.00  0.00     0.003 A 
ATOM      8  C6  PXY d   1       4.970   5.992  -3.754  0.00  0.00     0.003 A 
ENDROOT
TORSDOF 0
ENDMDL
