MODEL 1
REMARK minimizedAffinity 2.9543035
REMARK minimizedRMSD -1
REMARK  0 active torsions:
REMARK  status: ('A' for Active; 'I' for Inactive)
ROOT
ATOM      1  C4' PXY d   1       5.974   5.944  -1.518  0.00  0.00     0.077 C 
ATOM      2  C1' PXY d   1       5.955   2.046  -5.786  0.00  0.00     0.077 C 
ATOM      3  C1  PXY d   1       5.955   3.059  -4.659  0.00  0.00    -0.082 A 
ATOM      4  C2  PXY d   1       5.920   4.351  -4.941  0.00  0.00     0.003 A 
ATOM      5  C3  PXY d   1       5.952   5.282  -3.934  0.00  0.00     0.003 A 
ATOM      6  C4  PXY d   1       5.966   4.885  -2.624  0.00  0.00    -0.082 A 
ATOM      7  C5  PXY d   1       5.991   3.568  -2.328  0.00  0.00     0.003 A 
ATOM      8  C6  PXY d   1       6.000   2.640  -3.365  0.00  0.00     0.003 A 
ENDROOT
TORSDOF 0
ENDMDL
