MODEL 1
REMARK minimizedAffinity 2.17168903
REMARK minimizedRMSD -1
REMARK  0 active torsions:
REMARK  status: ('A' for Active; 'I' for Inactive)
ROOT
ATOM      1  C4' PXY d   1       5.797   0.738  -5.842  0.00  0.00     0.077 C 
ATOM      2  C1' PXY d   1       5.879   5.981  -3.409  0.00  0.00     0.077 C 
ATOM      3  C1  PXY d   1       5.850   4.611  -4.057  0.00  0.00    -0.082 A 
ATOM      4  C2  PXY d   1       5.991   3.530  -3.307  0.00  0.00     0.003 A 
ATOM      5  C3  PXY d   1       6.000   2.285  -3.881  0.00  0.00     0.003 A 
ATOM      6  C4  PXY d   1       5.809   2.142  -5.229  0.00  0.00    -0.082 A 
ATOM      7  C5  PXY d   1       5.654   3.239  -6.000  0.00  0.00     0.003 A 
ATOM      8  C6  PXY d   1       5.690   4.496  -5.403  0.00  0.00     0.003 A 
ENDROOT
TORSDOF 0
ENDMDL
