MODEL 1
REMARK minimizedAffinity 0.940094948
REMARK minimizedRMSD -1
REMARK  0 active torsions:
REMARK  status: ('A' for Active; 'I' for Inactive)
ROOT
ATOM      1  C4' PXY d   1       2.564   4.732  -1.386  0.00  0.00     0.077 C 
ATOM      2  C1' PXY d   1       6.000   5.302  -6.000  0.00  0.00     0.077 C 
ATOM      3  C1  PXY d   1       5.088   5.153  -4.798  0.00  0.00    -0.082 A 
ATOM      4  C2  PXY d   1       5.508   5.544  -3.606  0.00  0.00     0.003 A 
ATOM      5  C3  PXY d   1       4.709   5.387  -2.503  0.00  0.00     0.003 A 
ATOM      6  C4  PXY d   1       3.447   4.872  -2.630  0.00  0.00    -0.082 A 
ATOM      7  C5  PXY d   1       3.007   4.480  -3.844  0.00  0.00     0.003 A 
ATOM      8  C6  PXY d   1       3.849   4.610  -4.945  0.00  0.00     0.003 A 
ENDROOT
TORSDOF 0
ENDMDL
