MODEL 1
REMARK minimizedAffinity 3.20106196
REMARK minimizedRMSD -1
REMARK  0 active torsions:
REMARK  status: ('A' for Active; 'I' for Inactive)
ROOT
ATOM      1  C4' PXY d   1      -1.280  -5.938  -4.932  0.00  0.00     0.077 C 
ATOM      2  C1' PXY d   1      -0.282  -1.306  -1.620  0.00  0.00     0.077 C 
ATOM      3  C1  PXY d   1      -0.533  -2.527  -2.483  0.00  0.00    -0.082 A 
ATOM      4  C2  PXY d   1      -1.193  -2.397  -3.623  0.00  0.00     0.003 A 
ATOM      5  C3  PXY d   1      -1.457  -3.496  -4.400  0.00  0.00     0.003 A 
ATOM      6  C4  PXY d   1      -0.995  -4.731  -4.033  0.00  0.00    -0.082 A 
ATOM      7  C5  PXY d   1      -0.311  -4.870  -2.877  0.00  0.00     0.003 A 
ATOM      8  C6  PXY d   1      -0.089  -3.749  -2.082  0.00  0.00     0.003 A 
ENDROOT
TORSDOF 0
ENDMDL
