MODEL 1
REMARK minimizedAffinity 5.28225756
REMARK minimizedRMSD -1
REMARK  0 active torsions:
REMARK  status: ('A' for Active; 'I' for Inactive)
ROOT
ATOM      1  C1  DEN d   1       6.000   2.213  -3.384  0.00  0.00     0.130 A 
ATOM      2  C2  DEN d   1       5.694   3.087  -2.255  0.00  0.00    -0.031 A 
ATOM      3  C3  DEN d   1       4.294   3.537  -2.393  0.00  0.00     0.027 A 
ATOM      4  C4  DEN d   1       2.579   2.964  -4.232  0.00  0.00     0.027 A 
ATOM      5  C5  DEN d   1       2.381   2.269  -5.405  0.00  0.00    -0.003 A 
ATOM      6  C6  DEN d   1       3.377   1.540  -5.999  0.00  0.00     0.001 A 
ATOM      7  C7  DEN d   1       4.605   1.453  -5.398  0.00  0.00     0.017 A 
ATOM      8  C8  DEN d   1       4.814   2.157  -4.220  0.00  0.00    -0.094 A 
ATOM      9  C9  DEN d   1       3.791   2.878  -3.628  0.00  0.00    -0.072 A 
ENDROOT
TORSDOF 0
ENDMDL
