MODEL 1
REMARK minimizedAffinity 0.293075472
REMARK minimizedRMSD -1
REMARK  0 active torsions:
REMARK  status: ('A' for Active; 'I' for Inactive)
ROOT
ATOM      1  C1  DEN d   1      -1.030   5.943  -5.953  0.00  0.00     0.130 A 
ATOM      2  C2  DEN d   1      -2.488   5.875  -5.978  0.00  0.00    -0.031 A 
ATOM      3  C3  DEN d   1      -2.879   4.451  -6.000  0.00  0.00     0.027 A 
ATOM      4  C4  DEN d   1      -1.376   2.356  -5.990  0.00  0.00     0.027 A 
ATOM      5  C5  DEN d   1      -0.073   1.909  -5.983  0.00  0.00    -0.003 A 
ATOM      6  C6  DEN d   1       0.994   2.768  -6.000  0.00  0.00     0.001 A 
ATOM      7  C7  DEN d   1       0.776   4.121  -5.978  0.00  0.00     0.017 A 
ATOM      8  C8  DEN d   1      -0.535   4.579  -5.993  0.00  0.00    -0.094 A 
ATOM      9  C9  DEN d   1      -1.599   3.694  -5.964  0.00  0.00    -0.072 A 
ENDROOT
TORSDOF 0
ENDMDL
