MODEL 1
REMARK minimizedAffinity -1.15558004
REMARK minimizedRMSD -1
REMARK  0 active torsions:
REMARK  status: ('A' for Active; 'I' for Inactive)
ROOT
ATOM      1  C1  DEN d   1       1.071   2.274  -5.952  0.00  0.00     0.130 A 
ATOM      2  C2  DEN d   1       2.046   3.361  -5.977  0.00  0.00    -0.031 A 
ATOM      3  C3  DEN d   1       1.304   4.638  -5.998  0.00  0.00     0.027 A 
ATOM      4  C4  DEN d   1      -1.244   5.035  -5.988  0.00  0.00     0.027 A 
ATOM      5  C5  DEN d   1      -2.476   4.419  -5.982  0.00  0.00    -0.003 A 
ATOM      6  C6  DEN d   1      -2.611   3.056  -5.999  0.00  0.00     0.001 A 
ATOM      7  C7  DEN d   1      -1.494   2.263  -5.978  0.00  0.00     0.017 A 
ATOM      8  C8  DEN d   1      -0.249   2.877  -5.992  0.00  0.00    -0.094 A 
ATOM      9  C9  DEN d   1      -0.133   4.256  -5.962  0.00  0.00    -0.072 A 
ENDROOT
TORSDOF 0
ENDMDL
