MODEL 1
REMARK minimizedAffinity -4.32472944
REMARK minimizedRMSD -1
REMARK  0 active torsions:
REMARK  status: ('A' for Active; 'I' for Inactive)
ROOT
ATOM      1  C1  DEN d   1      -2.655   2.709  -6.000  0.00  0.00     0.130 A 
ATOM      2  C2  DEN d   1      -3.488   3.908  -5.968  0.00  0.00    -0.031 A 
ATOM      3  C3  DEN d   1      -2.594   5.084  -5.953  0.00  0.00     0.027 A 
ATOM      4  C4  DEN d   1      -0.017   5.164  -5.983  0.00  0.00     0.027 A 
ATOM      5  C5  DEN d   1       1.130   4.400  -5.999  0.00  0.00    -0.003 A 
ATOM      6  C6  DEN d   1       1.096   3.031  -5.982  0.00  0.00     0.001 A 
ATOM      7  C7  DEN d   1      -0.110   2.382  -5.994  0.00  0.00     0.017 A 
ATOM      8  C8  DEN d   1      -1.270   3.145  -5.970  0.00  0.00    -0.094 A 
ATOM      9  C9  DEN d   1      -1.215   4.528  -6.000  0.00  0.00    -0.072 A 
ENDROOT
TORSDOF 0
ENDMDL
