MODEL 1
REMARK minimizedAffinity -1.50803614
REMARK minimizedRMSD -1
REMARK  0 active torsions:
REMARK  status: ('A' for Active; 'I' for Inactive)
ROOT
ATOM      1  C1  DEN d   1       0.539   4.719  -5.996  0.00  0.00     0.130 A 
ATOM      2  C2  DEN d   1       1.082   3.364  -5.957  0.00  0.00    -0.031 A 
ATOM      3  C3  DEN d   1      -0.053   2.418  -5.940  0.00  0.00     0.027 A 
ATOM      4  C4  DEN d   1      -2.583   2.919  -5.977  0.00  0.00     0.027 A 
ATOM      5  C5  DEN d   1      -3.529   3.920  -5.999  0.00  0.00    -0.003 A 
ATOM      6  C6  DEN d   1      -3.188   5.246  -5.988  0.00  0.00     0.001 A 
ATOM      7  C7  DEN d   1      -1.867   5.609  -5.999  0.00  0.00     0.017 A 
ATOM      8  C8  DEN d   1      -0.908   4.605  -5.969  0.00  0.00    -0.094 A 
ATOM      9  C9  DEN d   1      -1.272   3.270  -5.993  0.00  0.00    -0.072 A 
ENDROOT
TORSDOF 0
ENDMDL
