MODEL 1
REMARK minimizedAffinity -3.33305073
REMARK minimizedRMSD -1
REMARK  0 active torsions:
REMARK  status: ('A' for Active; 'I' for Inactive)
ROOT
ATOM      1  C1  DEN d   1       0.733   5.096  -5.987  0.00  0.00     0.130 A 
ATOM      2  C2  DEN d   1       1.494   3.851  -5.942  0.00  0.00    -0.031 A 
ATOM      3  C3  DEN d   1       0.534   2.729  -5.924  0.00  0.00     0.027 A 
ATOM      4  C4  DEN d   1      -2.044   2.800  -5.966  0.00  0.00     0.027 A 
ATOM      5  C5  DEN d   1      -3.144   3.628  -5.994  0.00  0.00    -0.003 A 
ATOM      6  C6  DEN d   1      -3.031   4.993  -5.986  0.00  0.00     0.001 A 
ATOM      7  C7  DEN d   1      -1.789   5.571  -5.997  0.00  0.00     0.017 A 
ATOM      8  C8  DEN d   1      -0.675   4.742  -5.962  0.00  0.00    -0.094 A 
ATOM      9  C9  DEN d   1      -0.811   3.364  -5.982  0.00  0.00    -0.072 A 
ENDROOT
TORSDOF 0
ENDMDL
