MODEL 1
REMARK minimizedAffinity -1.67896879
REMARK minimizedRMSD -1
REMARK  0 active torsions:
REMARK  status: ('A' for Active; 'I' for Inactive)
ROOT
ATOM      1  C1  DEN d   1      -3.721   5.966  -5.949  0.00  0.00     0.130 A 
ATOM      2  C2  DEN d   1      -4.713   4.894  -5.974  0.00  0.00    -0.031 A 
ATOM      3  C3  DEN d   1      -3.992   3.606  -5.997  0.00  0.00     0.027 A 
ATOM      4  C4  DEN d   1      -1.450   3.169  -5.989  0.00  0.00     0.027 A 
ATOM      5  C5  DEN d   1      -0.208   3.765  -5.983  0.00  0.00    -0.003 A 
ATOM      6  C6  DEN d   1      -0.052   5.126  -5.999  0.00  0.00     0.001 A 
ATOM      7  C7  DEN d   1      -1.156   5.936  -5.977  0.00  0.00     0.017 A 
ATOM      8  C8  DEN d   1      -2.411   5.342  -5.991  0.00  0.00    -0.094 A 
ATOM      9  C9  DEN d   1      -2.549   3.965  -5.962  0.00  0.00    -0.072 A 
ENDROOT
TORSDOF 0
ENDMDL
