MODEL 1
REMARK minimizedAffinity 1.57040095
REMARK minimizedRMSD -1
REMARK  0 active torsions:
REMARK  status: ('A' for Active; 'I' for Inactive)
ROOT
ATOM      1  C1  DEN d   1       0.386   2.335  -5.938  0.00  0.00     0.130 A 
ATOM      2  C2  DEN d   1       1.388   3.396  -5.968  0.00  0.00    -0.031 A 
ATOM      3  C3  DEN d   1       0.680   4.692  -5.999  0.00  0.00     0.027 A 
ATOM      4  C4  DEN d   1      -1.857   5.154  -5.999  0.00  0.00     0.027 A 
ATOM      5  C5  DEN d   1      -3.105   4.570  -5.992  0.00  0.00    -0.003 A 
ATOM      6  C6  DEN d   1      -3.275   3.211  -6.000  0.00  0.00     0.001 A 
ATOM      7  C7  DEN d   1      -2.179   2.390  -5.971  0.00  0.00     0.017 A 
ATOM      8  C8  DEN d   1      -0.918   2.971  -5.986  0.00  0.00    -0.094 A 
ATOM      9  C9  DEN d   1      -0.767   4.347  -5.965  0.00  0.00    -0.072 A 
ENDROOT
TORSDOF 0
ENDMDL
