MODEL 1
REMARK minimizedAffinity -2.37337518
REMARK minimizedRMSD -1
REMARK  0 active torsions:
REMARK  status: ('A' for Active; 'I' for Inactive)
ROOT
ATOM      1  C1  DEN d   1      -2.500   5.965  -5.967  0.00  0.00     0.130 A 
ATOM      2  C2  DEN d   1      -3.695   5.126  -5.983  0.00  0.00    -0.031 A 
ATOM      3  C3  DEN d   1      -3.262   3.715  -5.990  0.00  0.00     0.027 A 
ATOM      4  C4  DEN d   1      -0.869   2.752  -5.972  0.00  0.00     0.027 A 
ATOM      5  C5  DEN d   1       0.470   3.073  -5.969  0.00  0.00    -0.003 A 
ATOM      6  C6  DEN d   1       0.910   4.370  -6.000  0.00  0.00     0.001 A 
ATOM      7  C7  DEN d   1       0.001   5.395  -5.989  0.00  0.00     0.017 A 
ATOM      8  C8  DEN d   1      -1.351   5.079  -5.999  0.00  0.00    -0.094 A 
ATOM      9  C9  DEN d   1      -1.775   3.762  -5.955  0.00  0.00    -0.072 A 
ENDROOT
TORSDOF 0
ENDMDL
