MODEL 1
REMARK minimizedAffinity -1.11855137
REMARK minimizedRMSD -1
REMARK  0 active torsions:
REMARK  status: ('A' for Active; 'I' for Inactive)
ROOT
ATOM      1  C1  DEN d   1      -0.588   2.050  -5.962  0.00  0.00     0.130 A 
ATOM      2  C2  DEN d   1       0.837   2.369  -5.985  0.00  0.00    -0.031 A 
ATOM      3  C3  DEN d   1       0.975   3.839  -6.000  0.00  0.00     0.027 A 
ATOM      4  C4  DEN d   1      -0.869   5.642  -5.984  0.00  0.00     0.027 A 
ATOM      5  C5  DEN d   1      -2.229   5.857  -5.978  0.00  0.00    -0.003 A 
ATOM      6  C6  DEN d   1      -3.131   4.826  -6.000  0.00  0.00     0.001 A 
ATOM      7  C7  DEN d   1      -2.683   3.531  -5.983  0.00  0.00     0.017 A 
ATOM      8  C8  DEN d   1      -1.312   3.307  -5.998  0.00  0.00    -0.094 A 
ATOM      9  C9  DEN d   1      -0.417   4.363  -5.963  0.00  0.00    -0.072 A 
ENDROOT
TORSDOF 0
ENDMDL
