MODEL 1
REMARK minimizedAffinity -1.81619895
REMARK minimizedRMSD -1
REMARK  0 active torsions:
REMARK  status: ('A' for Active; 'I' for Inactive)
ROOT
ATOM      1  C1  DEN d   1      -1.182   2.213  -5.952  0.00  0.00     0.130 A 
ATOM      2  C2  DEN d   1       0.239   2.549  -5.976  0.00  0.00    -0.031 A 
ATOM      3  C3  DEN d   1       0.359   4.021  -5.997  0.00  0.00     0.027 A 
ATOM      4  C4  DEN d   1      -1.506   5.802  -5.988  0.00  0.00     0.027 A 
ATOM      5  C5  DEN d   1      -2.869   6.000  -5.982  0.00  0.00    -0.003 A 
ATOM      6  C6  DEN d   1      -3.758   4.958  -5.999  0.00  0.00     0.001 A 
ATOM      7  C7  DEN d   1      -3.294   3.669  -5.978  0.00  0.00     0.017 A 
ATOM      8  C8  DEN d   1      -1.921   3.462  -5.992  0.00  0.00    -0.094 A 
ATOM      9  C9  DEN d   1      -1.039   4.528  -5.962  0.00  0.00    -0.072 A 
ENDROOT
TORSDOF 0
ENDMDL
