MODEL 1
REMARK minimizedAffinity -1.84815943
REMARK minimizedRMSD -1
REMARK  0 active torsions:
REMARK  status: ('A' for Active; 'I' for Inactive)
ROOT
ATOM      1  C1  DEN d   1       1.041   5.139  -6.000  0.00  0.00     0.130 A 
ATOM      2  C2  DEN d   1       2.006   4.043  -5.974  0.00  0.00    -0.031 A 
ATOM      3  C3  DEN d   1       1.255   2.772  -5.960  0.00  0.00     0.027 A 
ATOM      4  C4  DEN d   1      -1.297   2.396  -5.980  0.00  0.00     0.027 A 
ATOM      5  C5  DEN d   1      -2.524   3.022  -5.989  0.00  0.00    -0.003 A 
ATOM      6  C6  DEN d   1      -2.648   4.386  -5.968  0.00  0.00     0.001 A 
ATOM      7  C7  DEN d   1      -1.525   5.170  -5.983  0.00  0.00     0.017 A 
ATOM      8  C8  DEN d   1      -0.284   4.546  -5.966  0.00  0.00    -0.094 A 
ATOM      9  C9  DEN d   1      -0.180   3.166  -6.000  0.00  0.00    -0.072 A 
ENDROOT
TORSDOF 0
ENDMDL
