MODEL 1
REMARK minimizedAffinity 7.17533112
REMARK minimizedRMSD -1
REMARK  0 active torsions:
REMARK  status: ('A' for Active; 'I' for Inactive)
ROOT
ATOM      1  C1  DEN d   1      -3.064   5.351  -5.774  0.00  0.00     0.130 A 
ATOM      2  C2  DEN d   1      -3.952   4.192  -5.774  0.00  0.00    -0.031 A 
ATOM      3  C3  DEN d   1      -3.117   2.976  -5.848  0.00  0.00     0.027 A 
ATOM      4  C4  DEN d   1      -0.548   2.777  -5.958  0.00  0.00     0.027 A 
ATOM      5  C5  DEN d   1       0.632   3.486  -5.996  0.00  0.00    -0.003 A 
ATOM      6  C6  DEN d   1       0.662   4.856  -5.997  0.00  0.00     0.001 A 
ATOM      7  C7  DEN d   1      -0.510   5.560  -5.913  0.00  0.00     0.017 A 
ATOM      8  C8  DEN d   1      -1.705   4.852  -5.882  0.00  0.00    -0.094 A 
ATOM      9  C9  DEN d   1      -1.713   3.468  -5.870  0.00  0.00    -0.072 A 
ENDROOT
TORSDOF 0
ENDMDL
