MODEL 1
REMARK minimizedAffinity 4.05743885
REMARK minimizedRMSD -1
REMARK  0 active torsions:
REMARK  status: ('A' for Active; 'I' for Inactive)
ROOT
ATOM      1  C1  DEN d   1      -3.498   3.730  -5.801  0.00  0.00     0.130 A 
ATOM      2  C2  DEN d   1      -3.967   5.112  -5.757  0.00  0.00    -0.031 A 
ATOM      3  C3  DEN d   1      -2.786   5.997  -5.805  0.00  0.00     0.027 A 
ATOM      4  C4  DEN d   1      -0.289   5.365  -5.948  0.00  0.00     0.027 A 
ATOM      5  C5  DEN d   1       0.602   4.316  -5.998  0.00  0.00    -0.003 A 
ATOM      6  C6  DEN d   1       0.195   3.009  -5.952  0.00  0.00     0.001 A 
ATOM      7  C7  DEN d   1      -1.142   2.717  -5.899  0.00  0.00     0.017 A 
ATOM      8  C8  DEN d   1      -2.047   3.769  -5.840  0.00  0.00    -0.094 A 
ATOM      9  C9  DEN d   1      -1.616   5.083  -5.900  0.00  0.00    -0.072 A 
ENDROOT
TORSDOF 0
ENDMDL
