MODEL 1
REMARK minimizedAffinity -2.60612869
REMARK minimizedRMSD -1
REMARK  0 active torsions:
REMARK  status: ('A' for Active; 'I' for Inactive)
ROOT
ATOM      1  C1  DEN d   1      -1.859   5.907  -5.969  0.00  0.00     0.130 A 
ATOM      2  C2  DEN d   1      -3.244   5.444  -5.990  0.00  0.00    -0.031 A 
ATOM      3  C3  DEN d   1      -3.231   3.967  -5.998  0.00  0.00     0.027 A 
ATOM      4  C4  DEN d   1      -1.213   2.361  -5.977  0.00  0.00     0.027 A 
ATOM      5  C5  DEN d   1       0.163   2.287  -5.970  0.00  0.00    -0.003 A 
ATOM      6  C6  DEN d   1       0.954   3.405  -5.997  0.00  0.00     0.001 A 
ATOM      7  C7  DEN d   1       0.376   4.647  -5.986  0.00  0.00     0.017 A 
ATOM      8  C8  DEN d   1      -1.010   4.729  -6.000  0.00  0.00    -0.094 A 
ATOM      9  C9  DEN d   1      -1.793   3.588  -5.960  0.00  0.00    -0.072 A 
ENDROOT
TORSDOF 0
ENDMDL
