MODEL 1
REMARK minimizedAffinity -2.77498865
REMARK minimizedRMSD -1
REMARK  0 active torsions:
REMARK  status: ('A' for Active; 'I' for Inactive)
ROOT
ATOM      1  C1  DEN d   1      -2.402   5.999  -5.942  0.00  0.00     0.130 A 
ATOM      2  C2  DEN d   1      -3.803   5.589  -5.964  0.00  0.00    -0.031 A 
ATOM      3  C3  DEN d   1      -3.847   4.113  -5.985  0.00  0.00     0.027 A 
ATOM      4  C4  DEN d   1      -1.891   2.432  -5.983  0.00  0.00     0.027 A 
ATOM      5  C5  DEN d   1      -0.520   2.306  -5.981  0.00  0.00    -0.003 A 
ATOM      6  C6  DEN d   1       0.314   3.392  -6.000  0.00  0.00     0.001 A 
ATOM      7  C7  DEN d   1      -0.217   4.655  -5.976  0.00  0.00     0.017 A 
ATOM      8  C8  DEN d   1      -1.599   4.791  -5.986  0.00  0.00    -0.094 A 
ATOM      9  C9  DEN d   1      -2.424   3.680  -5.954  0.00  0.00    -0.072 A 
ENDROOT
TORSDOF 0
ENDMDL
