MODEL 1
REMARK minimizedAffinity -1.2483561
REMARK minimizedRMSD -1
REMARK  0 active torsions:
REMARK  status: ('A' for Active; 'I' for Inactive)
ROOT
ATOM      1  C1  DEN d   1      -3.498   2.622  -5.979  0.00  0.00     0.130 A 
ATOM      2  C2  DEN d   1      -4.756   3.364  -6.000  0.00  0.00    -0.031 A 
ATOM      3  C3  DEN d   1      -4.435   4.806  -6.000  0.00  0.00     0.027 A 
ATOM      4  C4  DEN d   1      -2.125   5.954  -5.974  0.00  0.00     0.027 A 
ATOM      5  C5  DEN d   1      -0.765   5.739  -5.943  0.00  0.00    -0.003 A 
ATOM      6  C6  DEN d   1      -0.226   4.481  -5.887  0.00  0.00     0.001 A 
ATOM      7  C7  DEN d   1      -1.050   3.387  -5.907  0.00  0.00     0.017 A 
ATOM      8  C8  DEN d   1      -2.423   3.596  -5.931  0.00  0.00    -0.094 A 
ATOM      9  C9  DEN d   1      -2.949   4.875  -6.000  0.00  0.00    -0.072 A 
ENDROOT
TORSDOF 0
ENDMDL
