MODEL 1
REMARK minimizedAffinity 3.45358253
REMARK minimizedRMSD -1
REMARK  1 active torsions:
REMARK  status: ('A' for Active; 'I' for Inactive)
REMARK    1  A    between atoms: C3_4  and  O_7 
ROOT
ATOM      1  C   UNL d   1       1.755  -1.858   3.645  0.00  0.00    -0.033 A 
ATOM      2  C1  UNL d   1       1.133  -2.999   3.134  0.00  0.00     0.039 A 
ATOM      3  C2  UNL d   1       1.038  -4.153   3.914  0.00  0.00    -0.080 A 
ATOM      4  C3  UNL d   1       1.568  -4.153   5.202  0.00  0.00     0.150 A 
ATOM      5  C4  UNL d   1       2.185  -3.018   5.718  0.00  0.00    -0.007 A 
ATOM      6  C5  UNL d   1       2.280  -1.867   4.937  0.00  0.00     0.039 A 
ENDROOT
BRANCH   4   7
ATOM      7  O   UNL d   1       1.503  -5.257   5.999  0.00  0.00    -0.526 OA
ATOM      8  H5  UNL d   1       1.075  -5.972   5.499  0.00  0.00     0.418 HD
ENDBRANCH   4   7
TORSDOF 1
ENDMDL
