MODEL 1
REMARK minimizedAffinity 0.266301185
REMARK minimizedRMSD -1
REMARK  1 active torsions:
REMARK  status: ('A' for Active; 'I' for Inactive)
REMARK    1  A    between atoms: C3_4  and  O_7 
ROOT
ATOM      1  C   UNL d   1       3.392  -4.155   4.379  0.00  0.00    -0.033 A 
ATOM      2  C1  UNL d   1       2.510  -4.600   3.393  0.00  0.00     0.039 A 
ATOM      3  C2  UNL d   1       1.684  -3.690   2.730  0.00  0.00    -0.080 A 
ATOM      4  C3  UNL d   1       1.751  -2.339   3.062  0.00  0.00     0.150 A 
ATOM      5  C4  UNL d   1       2.631  -1.889   4.041  0.00  0.00    -0.007 A 
ATOM      6  C5  UNL d   1       3.453  -2.799   4.702  0.00  0.00     0.039 A 
ENDROOT
BRANCH   4   7
ATOM      7  O   UNL d   1       0.962  -1.414   2.445  0.00  0.00    -0.526 OA
ATOM      8  H5  UNL d   1       0.385  -1.874   1.813  0.00  0.00     0.418 HD
ENDBRANCH   4   7
TORSDOF 1
ENDMDL
