MODEL 1
REMARK minimizedAffinity 7.1431489
REMARK minimizedRMSD -1
REMARK  1 active torsions:
REMARK  status: ('A' for Active; 'I' for Inactive)
REMARK    1  A    between atoms: C3_4  and  O_7 
ROOT
ATOM      1  C   UNL d   1       3.427  -4.502   3.938  0.00  0.00    -0.033 A 
ATOM      2  C1  UNL d   1       3.992  -3.290   4.341  0.00  0.00     0.039 A 
ATOM      3  C2  UNL d   1       3.421  -2.083   3.933  0.00  0.00    -0.080 A 
ATOM      4  C3  UNL d   1       2.287  -2.101   3.126  0.00  0.00     0.150 A 
ATOM      5  C4  UNL d   1       1.718  -3.305   2.724  0.00  0.00    -0.007 A 
ATOM      6  C5  UNL d   1       2.290  -4.509   3.131  0.00  0.00     0.039 A 
ENDROOT
BRANCH   4   7
ATOM      7  O   UNL d   1       1.698  -0.948   2.699  0.00  0.00    -0.526 OA
ATOM      8  H5  UNL d   1       2.217  -0.196   3.030  0.00  0.00     0.418 HD
ENDBRANCH   4   7
TORSDOF 1
ENDMDL
