MODEL 1
REMARK minimizedAffinity 2.48009896
REMARK minimizedRMSD -1
REMARK  1 active torsions:
REMARK  status: ('A' for Active; 'I' for Inactive)
REMARK    1  A    between atoms: C3_4  and  O_7 
ROOT
ATOM      1  C   UNL d   1      -2.662  -1.149  -3.118  0.00  0.00    -0.033 A 
ATOM      2  C1  UNL d   1      -2.409   0.161  -2.708  0.00  0.00     0.039 A 
ATOM      3  C2  UNL d   1      -3.155   1.217  -3.237  0.00  0.00    -0.080 A 
ATOM      4  C3  UNL d   1      -4.149   0.948  -4.174  0.00  0.00     0.150 A 
ATOM      5  C4  UNL d   1      -4.409  -0.355  -4.584  0.00  0.00    -0.007 A 
ATOM      6  C5  UNL d   1      -3.662  -1.408  -4.055  0.00  0.00     0.039 A 
ENDROOT
BRANCH   4   7
ATOM      7  O   UNL d   1      -4.900   1.945  -4.722  0.00  0.00    -0.526 OA
ATOM      8  H5  UNL d   1      -4.590   2.795  -4.366  0.00  0.00     0.418 HD
ENDBRANCH   4   7
TORSDOF 1
ENDMDL
