MODEL 1
REMARK minimizedAffinity 7.08930016
REMARK minimizedRMSD -1
REMARK  1 active torsions:
REMARK  status: ('A' for Active; 'I' for Inactive)
REMARK    1  A    between atoms: C3_4  and  O_7 
ROOT
ATOM      1  C   UNL d   1       3.361  -5.990  -3.585  0.00  0.00    -0.033 A 
ATOM      2  C1  UNL d   1       2.687  -5.982  -2.363  0.00  0.00     0.039 A 
ATOM      3  C2  UNL d   1       3.407  -5.983  -1.167  0.00  0.00    -0.080 A 
ATOM      4  C3  UNL d   1       4.798  -5.990  -1.206  0.00  0.00     0.150 A 
ATOM      5  C4  UNL d   1       5.477  -5.994  -2.421  0.00  0.00    -0.007 A 
ATOM      6  C5  UNL d   1       4.756  -5.995  -3.614  0.00  0.00     0.039 A 
ENDROOT
BRANCH   4   7
ATOM      7  O   UNL d   1       5.544  -5.995  -0.065  0.00  0.00    -0.526 OA
ATOM      8  H5  UNL d   1       4.941  -6.021   0.696  0.00  0.00     0.418 HD
ENDBRANCH   4   7
TORSDOF 1
ENDMDL
