MODEL 1
REMARK minimizedAffinity 3.900491
REMARK minimizedRMSD -1
REMARK  1 active torsions:
REMARK  status: ('A' for Active; 'I' for Inactive)
REMARK    1  A    between atoms: C3_4  and  O_7 
ROOT
ATOM      1  C   UNL d   1       3.783  -4.576   4.280  0.00  0.00    -0.033 A 
ATOM      2  C1  UNL d   1       4.498  -3.381   4.175  0.00  0.00     0.039 A 
ATOM      3  C2  UNL d   1       3.877  -2.234   3.676  0.00  0.00    -0.080 A 
ATOM      4  C3  UNL d   1       2.541  -2.295   3.288  0.00  0.00     0.150 A 
ATOM      5  C4  UNL d   1       1.821  -3.481   3.394  0.00  0.00    -0.007 A 
ATOM      6  C5  UNL d   1       2.444  -4.625   3.891  0.00  0.00     0.039 A 
ENDROOT
BRANCH   4   7
ATOM      7  O   UNL d   1       1.893  -1.203   2.792  0.00  0.00    -0.526 OA
ATOM      8  H5  UNL d   1       2.523  -0.464   2.749  0.00  0.00     0.418 HD
ENDBRANCH   4   7
TORSDOF 1
ENDMDL
