MODEL 1
REMARK minimizedAffinity 4.73145962
REMARK minimizedRMSD -1
REMARK  1 active torsions:
REMARK  status: ('A' for Active; 'I' for Inactive)
REMARK    1  A    between atoms: C3_4  and  O_7 
ROOT
ATOM      1  C   UNL d   1       2.393  -4.934   3.588  0.00  0.00    -0.033 A 
ATOM      2  C1  UNL d   1       1.113  -4.575   3.164  0.00  0.00     0.039 A 
ATOM      3  C2  UNL d   1       0.834  -3.250   2.823  0.00  0.00    -0.080 A 
ATOM      4  C3  UNL d   1       1.844  -2.295   2.910  0.00  0.00     0.150 A 
ATOM      5  C4  UNL d   1       3.123  -2.647   3.328  0.00  0.00    -0.007 A 
ATOM      6  C5  UNL d   1       3.399  -3.970   3.669  0.00  0.00     0.039 A 
ENDROOT
BRANCH   4   7
ATOM      7  O   UNL d   1       1.618  -0.989   2.592  0.00  0.00    -0.526 OA
ATOM      8  H5  UNL d   1       0.683  -0.889   2.348  0.00  0.00     0.418 HD
ENDBRANCH   4   7
TORSDOF 1
ENDMDL
