MODEL 1
REMARK minimizedAffinity 7.42045975
REMARK minimizedRMSD -1
REMARK  2 active torsions:
REMARK  status: ('A' for Active; 'I' for Inactive)
REMARK    1  A    between atoms: C1_2  and  C2_3 
REMARK    2  A    between atoms: C2_3  and  C3_4 
ROOT
ATOM      1  C3  UNL d   1      -3.005   2.814   1.103  0.00  0.00    -0.075 A 
ATOM      2  C4  UNL d   1      -3.925   2.664   2.150  0.00  0.00     0.002 A 
ATOM      3  C5  UNL d   1      -5.159   3.314   2.107  0.00  0.00     0.002 A 
ATOM      4  C6  UNL d   1      -5.483   4.129   1.025  0.00  0.00    -0.004 A 
ATOM      5  C7  UNL d   1      -4.569   4.298  -0.013  0.00  0.00     0.002 A 
ATOM      6  C8  UNL d   1      -3.336   3.645   0.025  0.00  0.00     0.002 A 
ENDROOT
BRANCH   1   7
ATOM      7  C2  UNL d   1      -1.680   2.090   1.129  0.00  0.00     0.056 C 
BRANCH   7   8
ATOM      8  C1  UNL d   1      -1.614   0.875   0.198  0.00  0.00     0.007 C 
ATOM      9  C   UNL d   1      -0.687  -0.222   0.705  0.00  0.00     0.009 C 
ENDBRANCH   7   8
ENDBRANCH   1   7
TORSDOF 2
ENDMDL
