MODEL 1
REMARK minimizedAffinity 10.9093733
REMARK minimizedRMSD -1
REMARK  2 active torsions:
REMARK  status: ('A' for Active; 'I' for Inactive)
REMARK    1  A    between atoms: C1_2  and  C2_3 
REMARK    2  A    between atoms: C2_3  and  C3_4 
ROOT
ATOM      1  C3  UNL d   1       2.485   2.370   1.517  0.00  0.00    -0.075 A 
ATOM      2  C4  UNL d   1       2.462   1.980   0.170  0.00  0.00     0.002 A 
ATOM      3  C5  UNL d   1       1.462   2.446  -0.685  0.00  0.00     0.002 A 
ATOM      4  C6  UNL d   1       0.470   3.296  -0.203  0.00  0.00    -0.004 A 
ATOM      5  C7  UNL d   1       0.474   3.677   1.137  0.00  0.00     0.002 A 
ATOM      6  C8  UNL d   1       1.475   3.216   1.994  0.00  0.00     0.002 A 
ENDROOT
BRANCH   1   7
ATOM      7  C2  UNL d   1       3.581   1.894   2.440  0.00  0.00     0.056 C 
BRANCH   7   8
ATOM      8  C1  UNL d   1       3.258   2.061   3.929  0.00  0.00     0.007 C 
ATOM      9  C   UNL d   1       2.912   0.748   4.619  0.00  0.00     0.009 C 
ENDBRANCH   7   8
ENDBRANCH   1   7
TORSDOF 2
ENDMDL
