MODEL 1
REMARK minimizedAffinity 12.4460487
REMARK minimizedRMSD -1
REMARK  2 active torsions:
REMARK  status: ('A' for Active; 'I' for Inactive)
REMARK    1  A    between atoms: C1_2  and  C2_3 
REMARK    2  A    between atoms: C2_3  and  C3_4 
ROOT
ATOM      1  C3  UNL d   1       4.111   0.003  -3.997  0.00  0.00    -0.075 A 
ATOM      2  C4  UNL d   1       5.242  -0.631  -4.531  0.00  0.00     0.002 A 
ATOM      3  C5  UNL d   1       6.000  -0.008  -5.523  0.00  0.00     0.002 A 
ATOM      4  C6  UNL d   1       5.632   1.248  -6.000  0.00  0.00    -0.004 A 
ATOM      5  C7  UNL d   1       4.501   1.880  -5.488  0.00  0.00     0.002 A 
ATOM      6  C8  UNL d   1       3.743   1.261  -4.492  0.00  0.00     0.002 A 
ENDROOT
BRANCH   1   7
ATOM      7  C2  UNL d   1       3.303  -0.653  -2.902  0.00  0.00     0.056 C 
BRANCH   7   8
ATOM      8  C1  UNL d   1       2.141  -1.511  -3.413  0.00  0.00     0.007 C 
ATOM      9  C   UNL d   1       1.133  -1.865  -2.327  0.00  0.00     0.009 C 
ENDBRANCH   7   8
ENDBRANCH   1   7
TORSDOF 2
ENDMDL
