MODEL 1
REMARK minimizedAffinity 7.19836378
REMARK minimizedRMSD -1
REMARK  2 active torsions:
REMARK  status: ('A' for Active; 'I' for Inactive)
REMARK    1  A    between atoms: C1_2  and  C2_3 
REMARK    2  A    between atoms: C2_3  and  C3_4 
ROOT
ATOM      1  C3  UNL d   1       5.299  -0.776  -5.392  0.00  0.00    -0.075 A 
ATOM      2  C4  UNL d   1       4.515  -0.905  -4.236  0.00  0.00     0.002 A 
ATOM      3  C5  UNL d   1       3.848   0.199  -3.705  0.00  0.00     0.002 A 
ATOM      4  C6  UNL d   1       3.963   1.446  -4.316  0.00  0.00    -0.004 A 
ATOM      5  C7  UNL d   1       4.751   1.589  -5.456  0.00  0.00     0.002 A 
ATOM      6  C8  UNL d   1       5.417   0.485  -5.991  0.00  0.00     0.002 A 
ENDROOT
BRANCH   1   7
ATOM      7  C2  UNL d   1       6.000  -1.973  -5.988  0.00  0.00     0.056 C 
BRANCH   7   8
ATOM      8  C1  UNL d   1       5.159  -3.255  -5.984  0.00  0.00     0.007 C 
ATOM      9  C   UNL d   1       6.000  -4.524  -5.992  0.00  0.00     0.009 C 
ENDBRANCH   7   8
ENDBRANCH   1   7
TORSDOF 2
ENDMDL
