MODEL 1
REMARK minimizedAffinity 10.4929047
REMARK minimizedRMSD -1
REMARK  2 active torsions:
REMARK  status: ('A' for Active; 'I' for Inactive)
REMARK    1  A    between atoms: C1_2  and  C2_3 
REMARK    2  A    between atoms: C2_3  and  C3_4 
ROOT
ATOM      1  C3  UNL d   1       1.295  -0.421   0.830  0.00  0.00    -0.075 A 
ATOM      2  C4  UNL d   1       1.665  -1.271  -0.222  0.00  0.00     0.002 A 
ATOM      3  C5  UNL d   1       0.725  -1.671  -1.173  0.00  0.00     0.002 A 
ATOM      4  C6  UNL d   1      -0.595  -1.237  -1.079  0.00  0.00    -0.004 A 
ATOM      5  C7  UNL d   1      -0.977  -0.405  -0.028  0.00  0.00     0.002 A 
ATOM      6  C8  UNL d   1      -0.039   0.000   0.922  0.00  0.00     0.002 A 
ENDROOT
BRANCH   1   7
ATOM      7  C2  UNL d   1       2.313   0.040   1.846  0.00  0.00     0.056 C 
BRANCH   7   8
ATOM      8  C1  UNL d   1       2.745  -1.048   2.834  0.00  0.00     0.007 C 
ATOM      9  C   UNL d   1       1.719  -1.307   3.929  0.00  0.00     0.009 C 
ENDBRANCH   7   8
ENDBRANCH   1   7
TORSDOF 2
ENDMDL
