MODEL 1
REMARK minimizedAffinity 10.091794
REMARK minimizedRMSD -1
REMARK  2 active torsions:
REMARK  status: ('A' for Active; 'I' for Inactive)
REMARK    1  A    between atoms: C1_2  and  C2_3 
REMARK    2  A    between atoms: C2_3  and  C3_4 
ROOT
ATOM      1  C3  UNL d   1       1.721  -2.166   4.113  0.00  0.00    -0.075 A 
ATOM      2  C4  UNL d   1       1.627  -1.054   4.963  0.00  0.00     0.002 A 
ATOM      3  C5  UNL d   1       1.915   0.226   4.489  0.00  0.00     0.002 A 
ATOM      4  C6  UNL d   1       2.311   0.410   3.165  0.00  0.00    -0.004 A 
ATOM      5  C7  UNL d   1       2.424  -0.690   2.317  0.00  0.00     0.002 A 
ATOM      6  C8  UNL d   1       2.131  -1.971   2.787  0.00  0.00     0.002 A 
ENDROOT
BRANCH   1   7
ATOM      7  C2  UNL d   1       1.382  -3.550   4.612  0.00  0.00     0.056 C 
BRANCH   7   8
ATOM      8  C1  UNL d   1       2.135  -4.674   3.892  0.00  0.00     0.007 C 
ATOM      9  C   UNL d   1       1.384  -5.999   3.898  0.00  0.00     0.009 C 
ENDBRANCH   7   8
ENDBRANCH   1   7
TORSDOF 2
ENDMDL
