MODEL 1
REMARK minimizedAffinity 7.61817598
REMARK minimizedRMSD -1
REMARK  2 active torsions:
REMARK  status: ('A' for Active; 'I' for Inactive)
REMARK    1  A    between atoms: C1_2  and  C2_3 
REMARK    2  A    between atoms: C2_3  and  C3_4 
ROOT
ATOM      1  C3  UNL d   1       3.450  -2.281   4.593  0.00  0.00    -0.075 A 
ATOM      2  C4  UNL d   1       3.024  -1.162   3.863  0.00  0.00     0.002 A 
ATOM      3  C5  UNL d   1       1.817  -1.189   3.165  0.00  0.00     0.002 A 
ATOM      4  C6  UNL d   1       1.026  -2.336   3.179  0.00  0.00    -0.004 A 
ATOM      5  C7  UNL d   1       1.447  -3.460   3.887  0.00  0.00     0.002 A 
ATOM      6  C8  UNL d   1       2.653  -3.434   4.591  0.00  0.00     0.002 A 
ENDROOT
BRANCH   1   7
ATOM      7  C2  UNL d   1       4.741  -2.248   5.375  0.00  0.00     0.056 C 
BRANCH   7   8
ATOM      8  C1  UNL d   1       5.999  -2.361   4.507  0.00  0.00     0.007 C 
ATOM      9  C   UNL d   1       5.988  -1.420   3.309  0.00  0.00     0.009 C 
ENDBRANCH   7   8
ENDBRANCH   1   7
TORSDOF 2
ENDMDL
