MODEL 1
REMARK minimizedAffinity 9.95677471
REMARK minimizedRMSD -1
REMARK  2 active torsions:
REMARK  status: ('A' for Active; 'I' for Inactive)
REMARK    1  A    between atoms: C1_2  and  C2_3 
REMARK    2  A    between atoms: C2_3  and  C3_4 
ROOT
ATOM      1  C3  UNL d   1       1.419  -1.230   1.296  0.00  0.00    -0.075 A 
ATOM      2  C4  UNL d   1       0.254  -0.486   1.537  0.00  0.00     0.002 A 
ATOM      3  C5  UNL d   1      -0.859  -0.626   0.707  0.00  0.00     0.002 A 
ATOM      4  C6  UNL d   1      -0.819  -1.500  -0.376  0.00  0.00    -0.004 A 
ATOM      5  C7  UNL d   1       0.338  -2.232  -0.635  0.00  0.00     0.002 A 
ATOM      6  C8  UNL d   1       1.452  -2.098   0.196  0.00  0.00     0.002 A 
ENDROOT
BRANCH   1   7
ATOM      7  C2  UNL d   1       2.617  -1.106   2.207  0.00  0.00     0.056 C 
BRANCH   7   8
ATOM      8  C1  UNL d   1       2.995  -2.408   2.921  0.00  0.00     0.007 C 
ATOM      9  C   UNL d   1       4.467  -2.477   3.305  0.00  0.00     0.009 C 
ENDBRANCH   7   8
ENDBRANCH   1   7
TORSDOF 2
ENDMDL
