MODEL 1
REMARK minimizedAffinity 2.60758638
REMARK minimizedRMSD -1
REMARK  2 active torsions:
REMARK  status: ('A' for Active; 'I' for Inactive)
REMARK    1  A    between atoms: C1_2  and  C2_3 
REMARK    2  A    between atoms: C2_3  and  C3_4 
ROOT
ATOM      1  C3  UNL d   1       3.296  -1.370   3.776  0.00  0.00    -0.075 A 
ATOM      2  C4  UNL d   1       2.662  -1.809   4.948  0.00  0.00     0.002 A 
ATOM      3  C5  UNL d   1       3.407  -2.342   5.999  0.00  0.00     0.002 A 
ATOM      4  C6  UNL d   1       4.792  -2.451   5.890  0.00  0.00    -0.004 A 
ATOM      5  C7  UNL d   1       5.430  -2.033   4.725  0.00  0.00     0.002 A 
ATOM      6  C8  UNL d   1       4.687  -1.496   3.672  0.00  0.00     0.002 A 
ENDROOT
BRANCH   1   7
ATOM      7  C2  UNL d   1       2.497  -0.765   2.646  0.00  0.00     0.056 C 
BRANCH   7   8
ATOM      8  C1  UNL d   1       2.582   0.763   2.570  0.00  0.00     0.007 C 
ATOM      9  C   UNL d   1       3.306   1.263   1.327  0.00  0.00     0.009 C 
ENDBRANCH   7   8
ENDBRANCH   1   7
TORSDOF 2
ENDMDL
