MODEL 1
REMARK minimizedAffinity -0.247591391
REMARK minimizedRMSD -1
REMARK  2 active torsions:
REMARK  status: ('A' for Active; 'I' for Inactive)
REMARK    1  A    between atoms: C1_2  and  C2_3 
REMARK    2  A    between atoms: C2_3  and  C3_4 
ROOT
ATOM      1  C3  UNL d   1       3.667  -1.953   4.422  0.00  0.00    -0.075 A 
ATOM      2  C4  UNL d   1       4.876  -1.252   4.315  0.00  0.00     0.002 A 
ATOM      3  C5  UNL d   1       6.000  -1.665   5.032  0.00  0.00     0.002 A 
ATOM      4  C6  UNL d   1       5.926  -2.774   5.871  0.00  0.00    -0.004 A 
ATOM      5  C7  UNL d   1       4.724  -3.468   5.998  0.00  0.00     0.002 A 
ATOM      6  C8  UNL d   1       3.600  -3.061   5.279  0.00  0.00     0.002 A 
ENDROOT
BRANCH   1   7
ATOM      7  C2  UNL d   1       2.455  -1.530   3.626  0.00  0.00     0.056 C 
BRANCH   7   8
ATOM      8  C1  UNL d   1       2.463  -0.053   3.217  0.00  0.00     0.007 C 
ATOM      9  C   UNL d   1       3.110   0.191   1.861  0.00  0.00     0.009 C 
ENDBRANCH   7   8
ENDBRANCH   1   7
TORSDOF 2
ENDMDL
