MODEL 1
REMARK minimizedAffinity -2.58961868
REMARK minimizedRMSD -1
REMARK  2 active torsions:
REMARK  status: ('A' for Active; 'I' for Inactive)
REMARK    1  A    between atoms: C2'_3  and  C1'_4 
REMARK    2  A    between atoms: C1'_4  and  C1_5 
ROOT
ATOM      1  C1  I4B d   1       0.998  -0.895  -0.984  0.00  0.00    -0.075 A 
ATOM      2  C2  I4B d   1      -0.266  -0.846  -0.451  0.00  0.00     0.003 A 
ATOM      3  C3  I4B d   1      -0.897   0.402  -0.226  0.00  0.00     0.002 A 
ATOM      4  C4  I4B d   1      -0.212   1.569  -0.498  0.00  0.00    -0.004 A 
ATOM      5  C5  I4B d   1       1.061   1.516  -1.059  0.00  0.00     0.002 A 
ATOM      6  C6  I4B d   1       1.665   0.277  -1.315  0.00  0.00     0.003 A 
ENDROOT
BRANCH   1   7
ATOM      7  C1' I4B d   1       1.647  -2.229  -1.178  0.00  0.00     0.060 C 
BRANCH   7   8
ATOM      8  C2' I4B d   1       0.657  -3.130  -1.887  0.00  0.00    -0.013 C 
ATOM      9  C4' I4B d   1       0.944  -3.201  -3.363  0.00  0.00     0.013 C 
ATOM     10  C3' I4B d   1       0.733  -4.488  -1.254  0.00  0.00     0.013 C 
ENDBRANCH   7   8
ENDBRANCH   1   7
TORSDOF 2
ENDMDL
