MODEL 1
REMARK minimizedAffinity -1.33767295
REMARK minimizedRMSD -1
REMARK  2 active torsions:
REMARK  status: ('A' for Active; 'I' for Inactive)
REMARK    1  A    between atoms: C2'_3  and  C1'_4 
REMARK    2  A    between atoms: C1'_4  and  C1_5 
ROOT
ATOM      1  C1  I4B d   1      -0.590   0.330   0.967  0.00  0.00    -0.075 A 
ATOM      2  C2  I4B d   1      -0.377   0.851   2.218  0.00  0.00     0.003 A 
ATOM      3  C3  I4B d   1      -1.129   1.965   2.664  0.00  0.00     0.002 A 
ATOM      4  C4  I4B d   1      -2.042   2.553   1.813  0.00  0.00    -0.004 A 
ATOM      5  C5  I4B d   1      -2.273   2.009   0.553  0.00  0.00     0.002 A 
ATOM      6  C6  I4B d   1      -1.552   0.883   0.131  0.00  0.00     0.003 A 
ENDROOT
BRANCH   1   7
ATOM      7  C1' I4B d   1       0.245  -0.826   0.516  0.00  0.00     0.060 C 
BRANCH   7   8
ATOM      8  C2' I4B d   1       0.286  -0.810  -0.999  0.00  0.00    -0.013 C 
ATOM      9  C4' I4B d   1       1.146   0.315  -1.509  0.00  0.00     0.013 C 
ATOM     10  C3' I4B d   1       0.802  -2.140  -1.462  0.00  0.00     0.013 C 
ENDBRANCH   7   8
ENDBRANCH   1   7
TORSDOF 2
ENDMDL
