MODEL 1
REMARK minimizedAffinity -3.491436
REMARK minimizedRMSD -1
REMARK  2 active torsions:
REMARK  status: ('A' for Active; 'I' for Inactive)
REMARK    1  A    between atoms: C2'_3  and  C1'_4 
REMARK    2  A    between atoms: C1'_4  and  C1_5 
ROOT
ATOM      1  C1  I4B d   1       0.390  -0.378  -0.210  0.00  0.00    -0.075 A 
ATOM      2  C2  I4B d   1       0.111  -0.917   1.021  0.00  0.00     0.003 A 
ATOM      3  C3  I4B d   1      -0.818  -0.284   1.882  0.00  0.00     0.002 A 
ATOM      4  C4  I4B d   1      -1.403   0.905   1.495  0.00  0.00    -0.004 A 
ATOM      5  C5  I4B d   1      -1.136   1.437   0.237  0.00  0.00     0.002 A 
ATOM      6  C6  I4B d   1      -0.243   0.786  -0.627  0.00  0.00     0.003 A 
ENDROOT
BRANCH   1   7
ATOM      7  C1' I4B d   1       1.401  -1.055  -1.081  0.00  0.00     0.060 C 
BRANCH   7   8
ATOM      8  C2' I4B d   1       0.780  -2.330  -1.613  0.00  0.00    -0.013 C 
ATOM      9  C4' I4B d   1       0.014  -2.074  -2.884  0.00  0.00     0.013 C 
ATOM     10  C3' I4B d   1       1.881  -3.324  -1.835  0.00  0.00     0.013 C 
ENDBRANCH   7   8
ENDBRANCH   1   7
TORSDOF 2
ENDMDL
