MODEL 1
REMARK minimizedAffinity -5.04078913
REMARK minimizedRMSD -1
REMARK  2 active torsions:
REMARK  status: ('A' for Active; 'I' for Inactive)
REMARK    1  A    between atoms: C2'_3  and  C1'_4 
REMARK    2  A    between atoms: C1'_4  and  C1_5 
ROOT
ATOM      1  C1  I4B d   1       0.627  -1.272  -1.293  0.00  0.00    -0.075 A 
ATOM      2  C2  I4B d   1       1.340  -2.408  -1.003  0.00  0.00     0.003 A 
ATOM      3  C3  I4B d   1       1.253  -3.540  -1.849  0.00  0.00     0.002 A 
ATOM      4  C4  I4B d   1       0.409  -3.510  -2.940  0.00  0.00    -0.004 A 
ATOM      5  C5  I4B d   1      -0.296  -2.349  -3.246  0.00  0.00     0.002 A 
ATOM      6  C6  I4B d   1      -0.177  -1.219  -2.425  0.00  0.00     0.003 A 
ENDROOT
BRANCH   1   7
ATOM      7  C1' I4B d   1       0.716  -0.107  -0.360  0.00  0.00     0.060 C 
BRANCH   7   8
ATOM      8  C2' I4B d   1      -0.375   0.876  -0.734  0.00  0.00    -0.013 C 
ATOM      9  C4' I4B d   1      -1.294   1.139   0.430  0.00  0.00     0.013 C 
ATOM     10  C3' I4B d   1       0.282   2.140  -1.203  0.00  0.00     0.013 C 
ENDBRANCH   7   8
ENDBRANCH   1   7
TORSDOF 2
ENDMDL
