MODEL 1
REMARK minimizedAffinity -1.98783314
REMARK minimizedRMSD -1
REMARK  2 active torsions:
REMARK  status: ('A' for Active; 'I' for Inactive)
REMARK    1  A    between atoms: C2'_3  and  C1'_4 
REMARK    2  A    between atoms: C1'_4  and  C1_5 
ROOT
ATOM      1  C1  I4B d   1       0.243  -0.014  -0.437  0.00  0.00    -0.075 A 
ATOM      2  C2  I4B d   1       0.685   1.073  -1.149  0.00  0.00     0.003 A 
ATOM      3  C3  I4B d   1      -0.030   2.294  -1.103  0.00  0.00     0.002 A 
ATOM      4  C4  I4B d   1      -1.202   2.369  -0.378  0.00  0.00    -0.004 A 
ATOM      5  C5  I4B d   1      -1.636   1.273   0.363  0.00  0.00     0.002 A 
ATOM      6  C6  I4B d   1      -0.902   0.077   0.343  0.00  0.00     0.003 A 
ENDROOT
BRANCH   1   7
ATOM      7  C1' I4B d   1       1.005  -1.298  -0.534  0.00  0.00     0.060 C 
BRANCH   7   8
ATOM      8  C2' I4B d   1       0.171  -2.275  -1.338  0.00  0.00    -0.013 C 
ATOM      9  C4' I4B d   1      -0.050  -1.777  -2.742  0.00  0.00     0.013 C 
ATOM     10  C3' I4B d   1       0.880  -3.597  -1.338  0.00  0.00     0.013 C 
ENDBRANCH   7   8
ENDBRANCH   1   7
TORSDOF 2
ENDMDL
