MODEL 1
REMARK minimizedAffinity -4.74523115
REMARK minimizedRMSD -1
REMARK  2 active torsions:
REMARK  status: ('A' for Active; 'I' for Inactive)
REMARK    1  A    between atoms: C2'_3  and  C1'_4 
REMARK    2  A    between atoms: C1'_4  and  C1_5 
ROOT
ATOM      1  C1  I4B d   1       0.003   0.167  -0.145  0.00  0.00    -0.075 A 
ATOM      2  C2  I4B d   1      -0.130  -0.425   1.087  0.00  0.00     0.003 A 
ATOM      3  C3  I4B d   1      -0.892   0.204   2.101  0.00  0.00     0.002 A 
ATOM      4  C4  I4B d   1      -1.459   1.439   1.859  0.00  0.00    -0.004 A 
ATOM      5  C5  I4B d   1      -1.342   2.026   0.602  0.00  0.00     0.002 A 
ATOM      6  C6  I4B d   1      -0.617   1.381  -0.410  0.00  0.00     0.003 A 
ENDROOT
BRANCH   1   7
ATOM      7  C1' I4B d   1       0.842  -0.509  -1.182  0.00  0.00     0.060 C 
BRANCH   7   8
ATOM      8  C2' I4B d   1       0.370  -1.944  -1.302  0.00  0.00    -0.013 C 
ATOM      9  C4' I4B d   1      -0.332  -2.179  -2.614  0.00  0.00     0.013 C 
ATOM     10  C3' I4B d   1       1.566  -2.838  -1.160  0.00  0.00     0.013 C 
ENDBRANCH   7   8
ENDBRANCH   1   7
TORSDOF 2
ENDMDL
