MODEL 1
REMARK minimizedAffinity -0.688139677
REMARK minimizedRMSD -1
REMARK  2 active torsions:
REMARK  status: ('A' for Active; 'I' for Inactive)
REMARK    1  A    between atoms: C2'_3  and  C1'_4 
REMARK    2  A    between atoms: C1'_4  and  C1_5 
ROOT
ATOM      1  C1  I4B d   1       0.298  -0.127  -0.479  0.00  0.00    -0.075 A 
ATOM      2  C2  I4B d   1      -0.230   1.110  -0.753  0.00  0.00     0.003 A 
ATOM      3  C3  I4B d   1      -1.097   1.737   0.175  0.00  0.00     0.002 A 
ATOM      4  C4  I4B d   1      -1.446   1.073   1.334  0.00  0.00    -0.004 A 
ATOM      5  C5  I4B d   1      -0.891  -0.171   1.621  0.00  0.00     0.002 A 
ATOM      6  C6  I4B d   1      -0.004  -0.769   0.715  0.00  0.00     0.003 A 
ENDROOT
BRANCH   1   7
ATOM      7  C1' I4B d   1       1.184  -0.774  -1.496  0.00  0.00     0.060 C 
BRANCH   7   8
ATOM      8  C2' I4B d   1       0.497  -2.036  -1.977  0.00  0.00    -0.013 C 
ATOM      9  C4' I4B d   1       0.165  -1.950  -3.444  0.00  0.00     0.013 C 
ATOM     10  C3' I4B d   1       1.407  -3.194  -1.695  0.00  0.00     0.013 C 
ENDBRANCH   7   8
ENDBRANCH   1   7
TORSDOF 2
ENDMDL
