MODEL 1
REMARK minimizedAffinity -4.48532486
REMARK minimizedRMSD -1
REMARK  2 active torsions:
REMARK  status: ('A' for Active; 'I' for Inactive)
REMARK    1  A    between atoms: C2'_3  and  C1'_4 
REMARK    2  A    between atoms: C1'_4  and  C1_5 
ROOT
ATOM      1  C1  I4B d   1      -0.409   0.592   0.365  0.00  0.00    -0.075 A 
ATOM      2  C2  I4B d   1      -1.428   0.763   1.268  0.00  0.00     0.003 A 
ATOM      3  C3  I4B d   1      -2.078   2.016   1.382  0.00  0.00     0.002 A 
ATOM      4  C4  I4B d   1      -1.646   3.078   0.614  0.00  0.00    -0.004 A 
ATOM      5  C5  I4B d   1      -0.628   2.897  -0.318  0.00  0.00     0.002 A 
ATOM      6  C6  I4B d   1      -0.013   1.643  -0.452  0.00  0.00     0.003 A 
ENDROOT
BRANCH   1   7
ATOM      7  C1' I4B d   1       0.277  -0.735   0.294  0.00  0.00     0.060 C 
BRANCH   7   8
ATOM      8  C2' I4B d   1       0.841  -0.895  -1.103  0.00  0.00    -0.013 C 
ATOM      9  C4' I4B d   1       2.163  -0.188  -1.242  0.00  0.00     0.013 C 
ATOM     10  C3' I4B d   1       0.980  -2.363  -1.381  0.00  0.00     0.013 C 
ENDBRANCH   7   8
ENDBRANCH   1   7
TORSDOF 2
ENDMDL
