MODEL 1
REMARK minimizedAffinity -3.76848149
REMARK minimizedRMSD -1
REMARK  2 active torsions:
REMARK  status: ('A' for Active; 'I' for Inactive)
REMARK    1  A    between atoms: C2'_3  and  C1'_4 
REMARK    2  A    between atoms: C1'_4  and  C1_5 
ROOT
ATOM      1  C1  I4B d   1       0.651  -0.598  -0.420  0.00  0.00    -0.075 A 
ATOM      2  C2  I4B d   1       0.678   0.739  -0.727  0.00  0.00     0.003 A 
ATOM      3  C3  I4B d   1       0.093   1.684   0.150  0.00  0.00     0.002 A 
ATOM      4  C4  I4B d   1      -0.550   1.246   1.290  0.00  0.00    -0.004 A 
ATOM      5  C5  I4B d   1      -0.557  -0.108   1.611  0.00  0.00     0.002 A 
ATOM      6  C6  I4B d   1       0.058  -1.036   0.757  0.00  0.00     0.003 A 
ENDROOT
BRANCH   1   7
ATOM      7  C1' I4B d   1       1.250  -1.571  -1.385  0.00  0.00     0.060 C 
BRANCH   7   8
ATOM      8  C2' I4B d   1       0.196  -2.607  -1.719  0.00  0.00    -0.013 C 
ATOM      9  C4' I4B d   1      -0.302  -2.441  -3.131  0.00  0.00     0.013 C 
ATOM     10  C3' I4B d   1       0.798  -3.964  -1.513  0.00  0.00     0.013 C 
ENDBRANCH   7   8
ENDBRANCH   1   7
TORSDOF 2
ENDMDL
