MODEL 1
REMARK minimizedAffinity -4.18770742
REMARK minimizedRMSD -1
REMARK  2 active torsions:
REMARK  status: ('A' for Active; 'I' for Inactive)
REMARK    1  A    between atoms: C2'_3  and  C1'_4 
REMARK    2  A    between atoms: C1'_4  and  C1_5 
ROOT
ATOM      1  C1  I4B d   1       0.089   0.077  -0.144  0.00  0.00    -0.075 A 
ATOM      2  C2  I4B d   1      -0.835   0.976  -0.614  0.00  0.00     0.003 A 
ATOM      3  C3  I4B d   1      -1.780   1.553   0.268  0.00  0.00     0.002 A 
ATOM      4  C4  I4B d   1      -1.798   1.168   1.592  0.00  0.00    -0.004 A 
ATOM      5  C5  I4B d   1      -0.845   0.273   2.072  0.00  0.00     0.002 A 
ATOM      6  C6  I4B d   1       0.112  -0.267   1.201  0.00  0.00     0.003 A 
ENDROOT
BRANCH   1   7
ATOM      7  C1' I4B d   1       1.052  -0.539  -1.110  0.00  0.00     0.060 C 
BRANCH   7   8
ATOM      8  C2' I4B d   1       0.617  -1.970  -1.354  0.00  0.00    -0.013 C 
ATOM      9  C4' I4B d   1       0.177  -2.170  -2.780  0.00  0.00     0.013 C 
ATOM     10  C3' I4B d   1       1.768  -2.868  -1.012  0.00  0.00     0.013 C 
ENDBRANCH   7   8
ENDBRANCH   1   7
TORSDOF 2
ENDMDL
