MODEL 1
REMARK minimizedAffinity -4.87218761
REMARK minimizedRMSD -1
REMARK  2 active torsions:
REMARK  status: ('A' for Active; 'I' for Inactive)
REMARK    1  A    between atoms: C2'_3  and  C1'_4 
REMARK    2  A    between atoms: C1'_4  and  C1_5 
ROOT
ATOM      1  C1  I4B d   1       0.290   0.611  -0.373  0.00  0.00    -0.075 A 
ATOM      2  C2  I4B d   1      -0.382   0.228   0.760  0.00  0.00     0.003 A 
ATOM      3  C3  I4B d   1      -1.281   1.122   1.392  0.00  0.00     0.002 A 
ATOM      4  C4  I4B d   1      -1.437   2.397   0.888  0.00  0.00    -0.004 A 
ATOM      5  C5  I4B d   1      -0.772   2.776  -0.274  0.00  0.00     0.002 A 
ATOM      6  C6  I4B d   1       0.088   1.873  -0.916  0.00  0.00     0.003 A 
ENDROOT
BRANCH   1   7
ATOM      7  C1' I4B d   1       1.257  -0.346  -0.996  0.00  0.00     0.060 C 
BRANCH   7   8
ATOM      8  C2' I4B d   1       0.511  -1.630  -1.301  0.00  0.00    -0.013 C 
ATOM      9  C4' I4B d   1       0.088  -1.683  -2.746  0.00  0.00     0.013 C 
ATOM     10  C3' I4B d   1       1.409  -2.780  -0.958  0.00  0.00     0.013 C 
ENDBRANCH   7   8
ENDBRANCH   1   7
TORSDOF 2
ENDMDL
