MODEL 1
REMARK minimizedAffinity -5.49206543
REMARK minimizedRMSD -1
REMARK  2 active torsions:
REMARK  status: ('A' for Active; 'I' for Inactive)
REMARK    1  A    between atoms: C2'_3  and  C1'_4 
REMARK    2  A    between atoms: C1'_4  and  C1_5 
ROOT
ATOM      1  C1  I4B d   1       0.173   0.549  -0.386  0.00  0.00    -0.075 A 
ATOM      2  C2  I4B d   1      -0.626   0.131   0.649  0.00  0.00     0.003 A 
ATOM      3  C3  I4B d   1      -1.519   1.036   1.271  0.00  0.00     0.002 A 
ATOM      4  C4  I4B d   1      -1.546   2.354   0.861  0.00  0.00    -0.004 A 
ATOM      5  C5  I4B d   1      -0.752   2.770  -0.204  0.00  0.00     0.002 A 
ATOM      6  C6  I4B d   1       0.103   1.859  -0.840  0.00  0.00     0.003 A 
ENDROOT
BRANCH   1   7
ATOM      7  C1' I4B d   1       1.129  -0.426  -0.998  0.00  0.00     0.060 C 
BRANCH   7   8
ATOM      8  C2' I4B d   1       0.376  -1.714  -1.263  0.00  0.00    -0.013 C 
ATOM      9  C4' I4B d   1      -0.238  -1.713  -2.638  0.00  0.00     0.013 C 
ATOM     10  C3' I4B d   1       1.337  -2.854  -1.100  0.00  0.00     0.013 C 
ENDBRANCH   7   8
ENDBRANCH   1   7
TORSDOF 2
ENDMDL
