MODEL 1
REMARK minimizedAffinity 8.38056278
REMARK minimizedRMSD -1
REMARK  0 active torsions:
REMARK  status: ('A' for Active; 'I' for Inactive)
ROOT
ATOM      1  N1  IND d   1       4.696   0.250  -1.864  0.00  0.00    -0.196 N 
ATOM      2  C2  IND d   1       4.293   0.794  -0.676  0.00  0.00     0.054 A 
ATOM      3  C3  IND d   1       3.373   0.000  -0.084  0.00  0.00    -0.031 A 
ATOM      4  C4  IND d   1       2.457  -2.285  -0.836  0.00  0.00     0.051 A 
ATOM      5  C5  IND d   1       2.499  -3.174  -1.873  0.00  0.00    -0.031 A 
ATOM      6  C6  IND d   1       3.293  -2.964  -2.981  0.00  0.00     0.015 A 
ATOM      7  C7  IND d   1       4.088  -1.857  -3.089  0.00  0.00    -0.016 A 
ATOM      8  C8  IND d   1       4.042  -0.949  -2.041  0.00  0.00    -0.047 A 
ATOM      9  C9  IND d   1       3.206  -1.136  -0.933  0.00  0.00    -0.096 A 
ATOM     10  HN1 IND d   1       5.262   0.599  -2.409  0.00  0.00     0.298 HD
ENDROOT
TORSDOF 0
ENDMDL
