MODEL 1
REMARK minimizedAffinity 9.7414732
REMARK minimizedRMSD -1
REMARK  0 active torsions:
REMARK  status: ('A' for Active; 'I' for Inactive)
ROOT
ATOM      1  N1  IND d   1       4.714   1.692  -1.018  0.00  0.00    -0.196 N 
ATOM      2  C2  IND d   1       5.995   1.267  -0.797  0.00  0.00     0.054 A 
ATOM      3  C3  IND d   1       5.998  -0.012  -0.360  0.00  0.00    -0.031 A 
ATOM      4  C4  IND d   1       4.025  -1.633  -0.032  0.00  0.00     0.051 A 
ATOM      5  C5  IND d   1       2.660  -1.690  -0.069  0.00  0.00    -0.031 A 
ATOM      6  C6  IND d   1       1.894  -0.601  -0.435  0.00  0.00     0.015 A 
ATOM      7  C7  IND d   1       2.469   0.587  -0.789  0.00  0.00    -0.016 A 
ATOM      8  C8  IND d   1       3.854   0.650  -0.745  0.00  0.00    -0.047 A 
ATOM      9  C9  IND d   1       4.634  -0.438  -0.334  0.00  0.00    -0.096 A 
ATOM     10  HN1 IND d   1       4.484   2.477  -1.282  0.00  0.00     0.298 HD
ENDROOT
TORSDOF 0
ENDMDL
