MODEL 1
REMARK minimizedAffinity 16.0667667
REMARK minimizedRMSD -1
REMARK  0 active torsions:
REMARK  status: ('A' for Active; 'I' for Inactive)
ROOT
ATOM      1  N1  IND d   1      -3.068   2.061  -5.569  0.00  0.00    -0.196 N 
ATOM      2  C2  IND d   1      -2.622   0.810  -5.248  0.00  0.00     0.054 A 
ATOM      3  C3  IND d   1      -3.304   0.325  -4.186  0.00  0.00    -0.031 A 
ATOM      4  C4  IND d   1      -5.262   1.372  -2.883  0.00  0.00     0.051 A 
ATOM      5  C5  IND d   1      -5.998   2.519  -2.783  0.00  0.00    -0.031 A 
ATOM      6  C6  IND d   1      -5.793   3.593  -3.625  0.00  0.00     0.015 A 
ATOM      7  C7  IND d   1      -4.847   3.555  -4.610  0.00  0.00    -0.016 A 
ATOM      8  C8  IND d   1      -4.093   2.394  -4.710  0.00  0.00    -0.047 A 
ATOM      9  C9  IND d   1      -4.268   1.318  -3.831  0.00  0.00    -0.096 A 
ATOM     10  HN1 IND d   1      -2.760   2.557  -6.200  0.00  0.00     0.298 HD
ENDROOT
TORSDOF 0
ENDMDL
