MODEL 1
REMARK minimizedAffinity 21.0130157
REMARK minimizedRMSD -1
REMARK  0 active torsions:
REMARK  status: ('A' for Active; 'I' for Inactive)
ROOT
ATOM      1  N1  IND d   1      -0.752  -5.231   4.745  0.00  0.00    -0.196 N 
ATOM      2  C2  IND d   1      -0.092  -5.930   5.718  0.00  0.00     0.054 A 
ATOM      3  C3  IND d   1       1.091  -5.341   6.000  0.00  0.00    -0.031 A 
ATOM      4  C4  IND d   1       2.101  -3.167   5.060  0.00  0.00     0.051 A 
ATOM      5  C5  IND d   1       1.886  -2.197   4.121  0.00  0.00    -0.031 A 
ATOM      6  C6  IND d   1       0.757  -2.187   3.329  0.00  0.00     0.015 A 
ATOM      7  C7  IND d   1      -0.209  -3.145   3.454  0.00  0.00    -0.016 A 
ATOM      8  C8  IND d   1       0.009  -4.136   4.401  0.00  0.00    -0.047 A 
ATOM      9  C9  IND d   1       1.173  -4.175   5.178  0.00  0.00    -0.096 A 
ATOM     10  HN1 IND d   1      -1.513  -5.441   4.405  0.00  0.00     0.298 HD
ENDROOT
TORSDOF 0
ENDMDL
