MODEL 1
REMARK minimizedAffinity 10.7076759
REMARK minimizedRMSD -1
REMARK  0 active torsions:
REMARK  status: ('A' for Active; 'I' for Inactive)
ROOT
ATOM      1  N1  IND d   1       1.309   0.541   0.165  0.00  0.00    -0.196 N 
ATOM      2  C2  IND d   1       0.319   1.283  -0.416  0.00  0.00     0.054 A 
ATOM      3  C3  IND d   1      -0.529   0.483  -1.101  0.00  0.00    -0.031 A 
ATOM      4  C4  IND d   1      -0.541  -2.082  -1.318  0.00  0.00     0.051 A 
ATOM      5  C5  IND d   1       0.184  -3.194  -0.992  0.00  0.00    -0.031 A 
ATOM      6  C6  IND d   1       1.343  -3.117  -0.247  0.00  0.00     0.015 A 
ATOM      7  C7  IND d   1       1.816  -1.920   0.212  0.00  0.00    -0.016 A 
ATOM      8  C8  IND d   1       1.086  -0.788  -0.122  0.00  0.00    -0.047 A 
ATOM      9  C9  IND d   1      -0.068  -0.856  -0.914  0.00  0.00    -0.096 A 
ATOM     10  HN1 IND d   1       1.960   0.851   0.632  0.00  0.00     0.298 HD
ENDROOT
TORSDOF 0
ENDMDL
