MODEL 1
REMARK minimizedAffinity 9.79100323
REMARK minimizedRMSD -1
REMARK  0 active torsions:
REMARK  status: ('A' for Active; 'I' for Inactive)
ROOT
ATOM      1  C   UNL d   1       0.327   2.740   2.671  0.00  0.00     0.124 A 
ATOM      2  C1  UNL d   1      -0.935   2.691   2.095  0.00  0.00     0.062 A 
ATOM      3  C2  UNL d   1      -1.124   3.126   0.787  0.00  0.00     0.162 A 
ATOM      4  C3  UNL d   1      -0.049   3.613   0.044  0.00  0.00    -0.034 A 
ATOM      5  C4  UNL d   1       1.217   3.661   0.631  0.00  0.00     0.162 A 
ATOM      6  C5  UNL d   1       1.402   3.225   1.939  0.00  0.00     0.062 A 
ATOM      7  F   UNL d   1       2.621   3.273   2.494  0.00  0.00    -0.097 F 
ATOM      8  F1  UNL d   1       2.273   4.123  -0.055  0.00  0.00    -0.096 F 
ATOM      9  I   UNL d   1      -0.328   4.265  -1.913  0.00  0.00    -0.060 I 
ATOM     10  F2  UNL d   1      -2.355   3.067   0.256  0.00  0.00    -0.096 F 
ATOM     11  F3  UNL d   1      -1.975   2.224   2.801  0.00  0.00    -0.097 F 
ATOM     12  F4  UNL d   1       0.507   2.322   3.931  0.00  0.00    -0.092 F 
ENDROOT
TORSDOF 0
ENDMDL
