MODEL 1
REMARK minimizedAffinity 7.68633413
REMARK minimizedRMSD -1
REMARK  0 active torsions:
REMARK  status: ('A' for Active; 'I' for Inactive)
ROOT
ATOM      1  C   UNL d   1      -5.688   3.059  -1.104  0.00  0.00     0.124 A 
ATOM      2  C1  UNL d   1      -5.570   4.387  -1.490  0.00  0.00     0.062 A 
ATOM      3  C2  UNL d   1      -5.251   4.708  -2.806  0.00  0.00     0.162 A 
ATOM      4  C3  UNL d   1      -5.048   3.698  -3.747  0.00  0.00    -0.034 A 
ATOM      5  C4  UNL d   1      -5.167   2.365  -3.351  0.00  0.00     0.162 A 
ATOM      6  C5  UNL d   1      -5.486   2.049  -2.034  0.00  0.00     0.062 A 
ATOM      7  F   UNL d   1      -5.599   0.766  -1.663  0.00  0.00    -0.097 F 
ATOM      8  F1  UNL d   1      -4.978   1.369  -4.230  0.00  0.00    -0.096 F 
ATOM      9  I   UNL d   1      -4.571   4.173  -5.716  0.00  0.00    -0.060 I 
ATOM     10  F2  UNL d   1      -5.144   5.999  -3.151  0.00  0.00    -0.096 F 
ATOM     11  F3  UNL d   1      -5.764   5.364  -0.593  0.00  0.00    -0.097 F 
ATOM     12  F4  UNL d   1      -5.994   2.753   0.163  0.00  0.00    -0.092 F 
ENDROOT
TORSDOF 0
ENDMDL
