MODEL 1
REMARK minimizedAffinity 5.9528017
REMARK minimizedRMSD -1
REMARK  0 active torsions:
REMARK  status: ('A' for Active; 'I' for Inactive)
ROOT
ATOM      1  C   UNL d   1      -5.672   2.535  -1.874  0.00  0.00     0.124 A 
ATOM      2  C1  UNL d   1      -5.645   3.923  -1.831  0.00  0.00     0.062 A 
ATOM      3  C2  UNL d   1      -5.736   4.661  -3.008  0.00  0.00     0.162 A 
ATOM      4  C3  UNL d   1      -5.858   4.013  -4.237  0.00  0.00    -0.034 A 
ATOM      5  C4  UNL d   1      -5.884   2.618  -4.272  0.00  0.00     0.162 A 
ATOM      6  C5  UNL d   1      -5.791   1.884  -3.093  0.00  0.00     0.062 A 
ATOM      7  F   UNL d   1      -5.818   0.544  -3.136  0.00  0.00    -0.097 F 
ATOM      8  F1  UNL d   1      -5.999   1.963  -5.437  0.00  0.00    -0.096 F 
ATOM      9  I   UNL d   1      -5.995   5.113  -5.999  0.00  0.00    -0.060 I 
ATOM     10  F2  UNL d   1      -5.707   6.000  -2.937  0.00  0.00    -0.096 F 
ATOM     11  F3  UNL d   1      -5.528   4.554  -0.654  0.00  0.00    -0.097 F 
ATOM     12  F4  UNL d   1      -5.583   1.828  -0.740  0.00  0.00    -0.092 F 
ENDROOT
TORSDOF 0
ENDMDL
