MODEL 1
REMARK minimizedAffinity 8.72124863
REMARK minimizedRMSD -1
REMARK  0 active torsions:
REMARK  status: ('A' for Active; 'I' for Inactive)
ROOT
ATOM      1  C   UNL d   1      -5.534   4.203  -4.397  0.00  0.00     0.124 A 
ATOM      2  C1  UNL d   1      -5.750   2.848  -4.603  0.00  0.00     0.062 A 
ATOM      3  C2  UNL d   1      -5.786   1.972  -3.521  0.00  0.00     0.162 A 
ATOM      4  C3  UNL d   1      -5.607   2.450  -2.223  0.00  0.00    -0.034 A 
ATOM      5  C4  UNL d   1      -5.389   3.814  -2.024  0.00  0.00     0.162 A 
ATOM      6  C5  UNL d   1      -5.354   4.685  -3.108  0.00  0.00     0.062 A 
ATOM      7  F   UNL d   1      -5.145   5.994  -2.907  0.00  0.00    -0.097 F 
ATOM      8  F1  UNL d   1      -5.213   4.307  -0.789  0.00  0.00    -0.096 F 
ATOM      9  I   UNL d   1      -5.660   1.144  -0.603  0.00  0.00    -0.060 I 
ATOM     10  F2  UNL d   1      -5.997   0.667  -3.750  0.00  0.00    -0.096 F 
ATOM     11  F3  UNL d   1      -5.924   2.379  -5.847  0.00  0.00    -0.097 F 
ATOM     12  F4  UNL d   1      -5.499   5.043  -5.439  0.00  0.00    -0.092 F 
ENDROOT
TORSDOF 0
ENDMDL
