MODEL 1
REMARK minimizedAffinity 12.0276718
REMARK minimizedRMSD -1
REMARK  0 active torsions:
REMARK  status: ('A' for Active; 'I' for Inactive)
ROOT
ATOM      1  C   UNL d   1      -5.855   2.812  -1.387  0.00  0.00     0.124 A 
ATOM      2  C1  UNL d   1      -5.927   4.179  -1.615  0.00  0.00     0.062 A 
ATOM      3  C2  UNL d   1      -5.923   4.673  -2.916  0.00  0.00     0.162 A 
ATOM      4  C3  UNL d   1      -5.848   3.799  -4.000  0.00  0.00    -0.034 A 
ATOM      5  C4  UNL d   1      -5.775   2.426  -3.764  0.00  0.00     0.162 A 
ATOM      6  C5  UNL d   1      -5.779   1.937  -2.461  0.00  0.00     0.062 A 
ATOM      7  F   UNL d   1      -5.709   0.615  -2.243  0.00  0.00    -0.097 F 
ATOM      8  F1  UNL d   1      -5.701   1.557  -4.783  0.00  0.00    -0.096 F 
ATOM      9  I   UNL d   1      -5.842   4.535  -5.947  0.00  0.00    -0.060 I 
ATOM     10  F2  UNL d   1      -5.994   5.999  -3.106  0.00  0.00    -0.096 F 
ATOM     11  F3  UNL d   1      -5.999   5.027  -0.578  0.00  0.00    -0.097 F 
ATOM     12  F4  UNL d   1      -5.858   2.339  -0.134  0.00  0.00    -0.092 F 
ENDROOT
TORSDOF 0
ENDMDL
