MODEL 1
REMARK minimizedAffinity 4.5098753
REMARK minimizedRMSD -1
REMARK  0 active torsions:
REMARK  status: ('A' for Active; 'I' for Inactive)
ROOT
ATOM      1  C   UNL d   1       0.383  -0.406  -2.250  0.00  0.00     0.124 A 
ATOM      2  C1  UNL d   1      -0.120  -1.291  -3.193  0.00  0.00     0.062 A 
ATOM      3  C2  UNL d   1      -0.057  -2.663  -2.968  0.00  0.00     0.162 A 
ATOM      4  C3  UNL d   1       0.509  -3.159  -1.793  0.00  0.00    -0.034 A 
ATOM      5  C4  UNL d   1       1.013  -2.262  -0.850  0.00  0.00     0.162 A 
ATOM      6  C5  UNL d   1       0.948  -0.891  -1.080  0.00  0.00     0.062 A 
ATOM      7  F   UNL d   1       1.434  -0.037  -0.168  0.00  0.00    -0.097 F 
ATOM      8  F1  UNL d   1       1.564  -2.704   0.290  0.00  0.00    -0.096 F 
ATOM      9  I   UNL d   1       0.604  -5.210  -1.452  0.00  0.00    -0.060 I 
ATOM     10  F2  UNL d   1      -0.551  -3.496  -3.896  0.00  0.00    -0.096 F 
ATOM     11  F3  UNL d   1      -0.666  -0.825  -4.325  0.00  0.00    -0.097 F 
ATOM     12  F4  UNL d   1       0.323   0.914  -2.470  0.00  0.00    -0.092 F 
ENDROOT
TORSDOF 0
ENDMDL
