MODEL 1
REMARK minimizedAffinity 3.70010495
REMARK minimizedRMSD -1
REMARK  0 active torsions:
REMARK  status: ('A' for Active; 'I' for Inactive)
ROOT
ATOM      1  C   UNL d   1      -3.683   3.471  -5.096  0.00  0.00     0.124 A 
ATOM      2  C1  UNL d   1      -4.527   4.055  -4.162  0.00  0.00     0.062 A 
ATOM      3  C2  UNL d   1      -5.189   3.266  -3.226  0.00  0.00     0.162 A 
ATOM      4  C3  UNL d   1      -5.010   1.883  -3.219  0.00  0.00    -0.034 A 
ATOM      5  C4  UNL d   1      -4.160   1.302  -4.163  0.00  0.00     0.162 A 
ATOM      6  C5  UNL d   1      -3.500   2.095  -5.096  0.00  0.00     0.062 A 
ATOM      7  F   UNL d   1      -2.685   1.529  -5.997  0.00  0.00    -0.097 F 
ATOM      8  F1  UNL d   1      -3.965  -0.025  -4.184  0.00  0.00    -0.096 F 
ATOM      9  I   UNL d   1      -5.998   0.699  -1.822  0.00  0.00    -0.060 I 
ATOM     10  F2  UNL d   1      -5.999   3.858  -2.335  0.00  0.00    -0.096 F 
ATOM     11  F3  UNL d   1      -4.706   5.384  -4.161  0.00  0.00    -0.097 F 
ATOM     12  F4  UNL d   1      -3.048   4.233  -5.996  0.00  0.00    -0.092 F 
ENDROOT
TORSDOF 0
ENDMDL
