MODEL 1
REMARK minimizedAffinity 0.201259151
REMARK minimizedRMSD -1
REMARK  0 active torsions:
REMARK  status: ('A' for Active; 'I' for Inactive)
ROOT
ATOM      1  C   UNL d   1      -5.222   3.884  -2.463  0.00  0.00     0.124 A 
ATOM      2  C1  UNL d   1      -5.505   2.642  -1.911  0.00  0.00     0.062 A 
ATOM      3  C2  UNL d   1      -5.727   1.544  -2.736  0.00  0.00     0.162 A 
ATOM      4  C3  UNL d   1      -5.667   1.681  -4.123  0.00  0.00    -0.034 A 
ATOM      5  C4  UNL d   1      -5.383   2.934  -4.671  0.00  0.00     0.162 A 
ATOM      6  C5  UNL d   1      -5.161   4.028  -3.842  0.00  0.00     0.062 A 
ATOM      7  F   UNL d   1      -4.888   5.227  -4.377  0.00  0.00    -0.097 F 
ATOM      8  F1  UNL d   1      -5.317   3.101  -6.000  0.00  0.00    -0.096 F 
ATOM      9  I   UNL d   1      -5.999   0.041  -5.360  0.00  0.00    -0.060 I 
ATOM     10  F2  UNL d   1      -5.999   0.356  -2.176  0.00  0.00    -0.096 F 
ATOM     11  F3  UNL d   1      -5.565   2.500  -0.579  0.00  0.00    -0.097 F 
ATOM     12  F4  UNL d   1      -5.009   4.939  -1.667  0.00  0.00    -0.092 F 
ENDROOT
TORSDOF 0
ENDMDL
