MODEL 1
REMARK minimizedAffinity 7.78630018
REMARK minimizedRMSD -1
REMARK  0 active torsions:
REMARK  status: ('A' for Active; 'I' for Inactive)
ROOT
ATOM      1  C   UNL d   1      -0.291   3.184   1.983  0.00  0.00     0.124 A 
ATOM      2  C1  UNL d   1       0.008   3.393   0.644  0.00  0.00     0.062 A 
ATOM      3  C2  UNL d   1       0.658   2.406  -0.090  0.00  0.00     0.162 A 
ATOM      4  C3  UNL d   1       1.014   1.199   0.512  0.00  0.00    -0.034 A 
ATOM      5  C4  UNL d   1       0.710   0.996   1.860  0.00  0.00     0.162 A 
ATOM      6  C5  UNL d   1       0.060   1.986   2.590  0.00  0.00     0.062 A 
ATOM      7  F   UNL d   1      -0.228   1.782   3.883  0.00  0.00    -0.097 F 
ATOM      8  F1  UNL d   1       1.037  -0.152   2.471  0.00  0.00    -0.096 F 
ATOM      9  I   UNL d   1       1.986  -0.280  -0.582  0.00  0.00    -0.060 I 
ATOM     10  F2  UNL d   1       0.935   2.635  -1.383  0.00  0.00    -0.096 F 
ATOM     11  F3  UNL d   1      -0.330   4.550   0.056  0.00  0.00    -0.097 F 
ATOM     12  F4  UNL d   1      -0.916   4.136   2.688  0.00  0.00    -0.092 F 
ENDROOT
TORSDOF 0
ENDMDL
