MODEL 1
REMARK minimizedAffinity -1.52897739
REMARK minimizedRMSD -1
REMARK  1 active torsions:
REMARK  status: ('A' for Active; 'I' for Inactive)
REMARK    1  A    between atoms: C1_2  and  C2_3 
ROOT
ATOM      1  C2  UNL d   1      -0.916  -1.100  -0.557  0.00  0.00    -0.077 A 
ATOM      2  C3  UNL d   1      -1.063  -2.090   0.426  0.00  0.00     0.002 A 
ATOM      3  C4  UNL d   1      -0.108  -2.230   1.435  0.00  0.00     0.002 A 
ATOM      4  C5  UNL d   1       0.997  -1.382   1.474  0.00  0.00    -0.004 A 
ATOM      5  C6  UNL d   1       1.153  -0.396   0.500  0.00  0.00     0.002 A 
ATOM      6  C7  UNL d   1       0.200  -0.255  -0.510  0.00  0.00     0.002 A 
ENDROOT
BRANCH   1   7
ATOM      7  C1  UNL d   1      -1.970  -0.915  -1.617  0.00  0.00     0.055 C 
ATOM      8  C   UNL d   1      -1.990   0.516  -2.134  0.00  0.00     0.019 C 
ENDBRANCH   1   7
TORSDOF 1
ENDMDL
