MODEL 1
REMARK minimizedAffinity -2.97092676
REMARK minimizedRMSD -1
REMARK  1 active torsions:
REMARK  status: ('A' for Active; 'I' for Inactive)
REMARK    1  A    between atoms: C1_2  and  C2_3 
ROOT
ATOM      1  C2  UNL d   1       0.379  -0.303  -0.427  0.00  0.00    -0.077 A 
ATOM      2  C3  UNL d   1      -0.904   0.091  -0.831  0.00  0.00     0.002 A 
ATOM      3  C4  UNL d   1      -1.130   0.528  -2.138  0.00  0.00     0.002 A 
ATOM      4  C5  UNL d   1      -0.079   0.570  -3.052  0.00  0.00    -0.004 A 
ATOM      5  C6  UNL d   1       1.201   0.183  -2.659  0.00  0.00     0.002 A 
ATOM      6  C7  UNL d   1       1.429  -0.253  -1.352  0.00  0.00     0.002 A 
ENDROOT
BRANCH   1   7
ATOM      7  C1  UNL d   1       0.614  -0.820   0.968  0.00  0.00     0.055 C 
ATOM      8  C   UNL d   1      -0.424  -1.863   1.354  0.00  0.00     0.019 C 
ENDBRANCH   1   7
TORSDOF 1
ENDMDL
