MODEL 1
REMARK minimizedAffinity -5.3376956
REMARK minimizedRMSD -1
REMARK  1 active torsions:
REMARK  status: ('A' for Active; 'I' for Inactive)
REMARK    1  A    between atoms: C1_2  and  C2_3 
ROOT
ATOM      1  C2  UNL d   1       0.019  -1.131   0.502  0.00  0.00    -0.077 A 
ATOM      2  C3  UNL d   1      -0.720  -2.207   1.014  0.00  0.00     0.002 A 
ATOM      3  C4  UNL d   1      -1.923  -2.586   0.415  0.00  0.00     0.002 A 
ATOM      4  C5  UNL d   1      -2.394  -1.899  -0.702  0.00  0.00    -0.004 A 
ATOM      5  C6  UNL d   1      -1.667  -0.827  -1.217  0.00  0.00     0.002 A 
ATOM      6  C7  UNL d   1      -0.466  -0.445  -0.619  0.00  0.00     0.002 A 
ENDROOT
BRANCH   1   7
ATOM      7  C1  UNL d   1       1.340  -0.752   1.117  0.00  0.00     0.055 C 
ATOM      8  C   UNL d   1       1.760   0.652   0.704  0.00  0.00     0.019 C 
ENDBRANCH   1   7
TORSDOF 1
ENDMDL
