MODEL 1
REMARK minimizedAffinity -2.55407286
REMARK minimizedRMSD -1
REMARK  1 active torsions:
REMARK  status: ('A' for Active; 'I' for Inactive)
REMARK    1  A    between atoms: C1_2  and  C2_3 
ROOT
ATOM      1  C2  UNL d   1      -1.164  -0.163  -1.008  0.00  0.00    -0.077 A 
ATOM      2  C3  UNL d   1      -0.563  -0.836   0.065  0.00  0.00     0.002 A 
ATOM      3  C4  UNL d   1       0.646  -0.381   0.596  0.00  0.00     0.002 A 
ATOM      4  C5  UNL d   1       1.262   0.749   0.062  0.00  0.00    -0.004 A 
ATOM      5  C6  UNL d   1       0.673   1.424  -1.006  0.00  0.00     0.002 A 
ATOM      6  C7  UNL d   1      -0.535   0.971  -1.539  0.00  0.00     0.002 A 
ENDROOT
BRANCH   1   7
ATOM      7  C1  UNL d   1      -2.493  -0.622  -1.549  0.00  0.00     0.055 C 
ATOM      8  C   UNL d   1      -2.980  -1.873  -0.832  0.00  0.00     0.019 C 
ENDBRANCH   1   7
TORSDOF 1
ENDMDL
