MODEL 1
REMARK minimizedAffinity -3.79103899
REMARK minimizedRMSD -1
REMARK  1 active torsions:
REMARK  status: ('A' for Active; 'I' for Inactive)
REMARK    1  A    between atoms: C1_2  and  C2_3 
ROOT
ATOM      1  C2  UNL d   1       1.105   1.204   0.497  0.00  0.00    -0.077 A 
ATOM      2  C3  UNL d   1       1.045   1.726   1.797  0.00  0.00     0.002 A 
ATOM      3  C4  UNL d   1       1.851   2.806   2.163  0.00  0.00     0.002 A 
ATOM      4  C5  UNL d   1       2.719   3.376   1.234  0.00  0.00    -0.004 A 
ATOM      5  C6  UNL d   1       2.787   2.863  -0.061  0.00  0.00     0.002 A 
ATOM      6  C7  UNL d   1       1.984   1.783  -0.428  0.00  0.00     0.002 A 
ENDROOT
BRANCH   1   7
ATOM      7  C1  UNL d   1       0.201   0.072   0.087  0.00  0.00     0.055 C 
ATOM      8  C   UNL d   1      -0.688   0.469  -1.082  0.00  0.00     0.019 C 
ENDBRANCH   1   7
TORSDOF 1
ENDMDL
