MODEL 1
REMARK minimizedAffinity -1.22745049
REMARK minimizedRMSD -1
REMARK  1 active torsions:
REMARK  status: ('A' for Active; 'I' for Inactive)
REMARK    1  A    between atoms: C1_2  and  C2_3 
ROOT
ATOM      1  C2  UNL d   1      -0.291   0.065  -0.647  0.00  0.00    -0.077 A 
ATOM      2  C3  UNL d   1       1.038   0.457  -0.861  0.00  0.00     0.002 A 
ATOM      3  C4  UNL d   1       2.022   0.162   0.085  0.00  0.00     0.002 A 
ATOM      4  C5  UNL d   1       1.688  -0.530   1.247  0.00  0.00    -0.004 A 
ATOM      5  C6  UNL d   1       0.369  -0.923   1.470  0.00  0.00     0.002 A 
ATOM      6  C7  UNL d   1      -0.616  -0.628   0.526  0.00  0.00     0.002 A 
ENDROOT
BRANCH   1   7
ATOM      7  C1  UNL d   1      -1.344   0.339  -1.689  0.00  0.00     0.055 C 
ATOM      8  C   UNL d   1      -2.435  -0.723  -1.666  0.00  0.00     0.019 C 
ENDBRANCH   1   7
TORSDOF 1
ENDMDL
