MODEL 1
REMARK minimizedAffinity -4.32937145
REMARK minimizedRMSD -1
REMARK  1 active torsions:
REMARK  status: ('A' for Active; 'I' for Inactive)
REMARK    1  A    between atoms: C1_2  and  C2_3 
ROOT
ATOM      1  C2  UNL d   1       0.109  -0.147  -0.182  0.00  0.00    -0.073 A 
ATOM      2  C3  UNL d   1      -1.252  -0.370  -0.420  0.00  0.00    -0.002 A 
ATOM      3  C4  UNL d   1      -2.210   0.098   0.480  0.00  0.00     0.004 A 
ATOM      4  C5  UNL d   1      -1.820   0.798   1.621  0.00  0.00    -0.004 A 
ATOM      5  C6  UNL d   1      -0.465   1.040   1.871  0.00  0.00    -0.075 A 
ATOM      6  C7  UNL d   1      -0.028   1.790   3.095  0.00  0.00     0.076 C 
ATOM      7  C8  UNL d   1       0.492   0.565   0.964  0.00  0.00     0.001 A 
ENDROOT
BRANCH   1   8
ATOM      8  C1  UNL d   1       1.148  -0.645  -1.153  0.00  0.00     0.053 C 
ATOM      9  C   UNL d   1       0.609  -0.724  -2.573  0.00  0.00     0.018 C 
ENDBRANCH   1   8
TORSDOF 1
ENDMDL
