MODEL 1
REMARK minimizedAffinity 5.84163857
REMARK minimizedRMSD -1
REMARK  1 active torsions:
REMARK  status: ('A' for Active; 'I' for Inactive)
REMARK    1  A    between atoms: C1_2  and  C2_3 
ROOT
ATOM      1  C2  UNL d   1      -1.543  -0.306   1.933  0.00  0.00    -0.073 A 
ATOM      2  C3  UNL d   1      -2.010  -0.313   0.614  0.00  0.00    -0.002 A 
ATOM      3  C4  UNL d   1      -1.110  -0.369  -0.452  0.00  0.00     0.004 A 
ATOM      4  C5  UNL d   1       0.263  -0.425  -0.209  0.00  0.00    -0.004 A 
ATOM      5  C6  UNL d   1       0.747  -0.431   1.103  0.00  0.00    -0.075 A 
ATOM      6  C7  UNL d   1       2.221  -0.489   1.381  0.00  0.00     0.076 C 
ATOM      7  C8  UNL d   1      -0.162  -0.372   2.167  0.00  0.00     0.001 A 
ENDROOT
BRANCH   1   8
ATOM      8  C1  UNL d   1      -2.512  -0.252   3.087  0.00  0.00     0.053 C 
ATOM      9  C   UNL d   1      -3.315  -1.536   3.217  0.00  0.00     0.018 C 
ENDBRANCH   1   8
TORSDOF 1
ENDMDL
