MODEL 1
REMARK minimizedAffinity -3.26117921
REMARK minimizedRMSD -1
REMARK  1 active torsions:
REMARK  status: ('A' for Active; 'I' for Inactive)
REMARK    1  A    between atoms: C1_2  and  C2_3 
ROOT
ATOM      1  C2  UNL d   1       0.186   0.020  -0.652  0.00  0.00    -0.073 A 
ATOM      2  C3  UNL d   1       0.761  -1.233  -0.894  0.00  0.00    -0.002 A 
ATOM      3  C4  UNL d   1       1.530  -1.446  -2.039  0.00  0.00     0.004 A 
ATOM      4  C5  UNL d   1       1.739  -0.409  -2.948  0.00  0.00    -0.004 A 
ATOM      5  C6  UNL d   1       1.183   0.853  -2.717  0.00  0.00    -0.075 A 
ATOM      6  C7  UNL d   1       1.396   1.979  -3.686  0.00  0.00     0.076 C 
ATOM      7  C8  UNL d   1       0.409   1.059  -1.567  0.00  0.00     0.001 A 
ENDROOT
BRANCH   1   8
ATOM      8  C1  UNL d   1      -0.640   0.256   0.586  0.00  0.00     0.053 C 
ATOM      9  C   UNL d   1      -2.000   0.852   0.258  0.00  0.00     0.018 C 
ENDBRANCH   1   8
TORSDOF 1
ENDMDL
