MODEL 1
REMARK minimizedAffinity -4.66095924
REMARK minimizedRMSD -1
REMARK  1 active torsions:
REMARK  status: ('A' for Active; 'I' for Inactive)
REMARK    1  A    between atoms: C1_2  and  C2_3 
ROOT
ATOM      1  C2  UNL d   1      -0.217  -0.059  -1.584  0.00  0.00    -0.073 A 
ATOM      2  C3  UNL d   1      -1.464   0.259  -1.034  0.00  0.00    -0.002 A 
ATOM      3  C4  UNL d   1      -1.636   0.293   0.350  0.00  0.00     0.004 A 
ATOM      4  C5  UNL d   1      -0.564   0.018   1.198  0.00  0.00    -0.004 A 
ATOM      5  C6  UNL d   1       0.693  -0.290   0.668  0.00  0.00    -0.075 A 
ATOM      6  C7  UNL d   1       1.857  -0.591   1.567  0.00  0.00     0.076 C 
ATOM      7  C8  UNL d   1       0.858  -0.325  -0.723  0.00  0.00     0.001 A 
ENDROOT
BRANCH   1   8
ATOM      8  C1  UNL d   1      -0.024  -0.091  -3.078  0.00  0.00     0.053 C 
ATOM      9  C   UNL d   1       1.445  -0.030  -3.465  0.00  0.00     0.018 C 
ENDBRANCH   1   8
TORSDOF 1
ENDMDL
