MODEL 1
REMARK minimizedAffinity -0.0991337597
REMARK minimizedRMSD -1
REMARK  1 active torsions:
REMARK  status: ('A' for Active; 'I' for Inactive)
REMARK    1  A    between atoms: C1_2  and  C2_3 
ROOT
ATOM      1  C2  UNL d   1       0.369  -0.160  -1.329  0.00  0.00    -0.073 A 
ATOM      2  C3  UNL d   1       1.488  -0.697  -0.681  0.00  0.00    -0.002 A 
ATOM      3  C4  UNL d   1       1.492  -0.852   0.706  0.00  0.00     0.004 A 
ATOM      4  C5  UNL d   1       0.378  -0.478   1.458  0.00  0.00    -0.004 A 
ATOM      5  C6  UNL d   1      -0.753   0.049   0.827  0.00  0.00    -0.075 A 
ATOM      6  C7  UNL d   1      -1.959   0.458   1.622  0.00  0.00     0.076 C 
ATOM      7  C8  UNL d   1      -0.749   0.204  -0.565  0.00  0.00     0.001 A 
ENDROOT
BRANCH   1   8
ATOM      8  C1  UNL d   1       0.357   0.002  -2.827  0.00  0.00     0.053 C 
ATOM      9  C   UNL d   1       1.469   0.920  -3.309  0.00  0.00     0.018 C 
ENDBRANCH   1   8
TORSDOF 1
ENDMDL
