MODEL 1
REMARK minimizedAffinity -4.40180397
REMARK minimizedRMSD -1
REMARK  1 active torsions:
REMARK  status: ('A' for Active; 'I' for Inactive)
REMARK    1  A    between atoms: C1_2  and  C2_3 
ROOT
ATOM      1  C2  UNL d   1       0.565   0.715   1.245  0.00  0.00    -0.073 A 
ATOM      2  C3  UNL d   1       1.726   0.125   1.757  0.00  0.00    -0.002 A 
ATOM      3  C4  UNL d   1       2.362  -0.901   1.058  0.00  0.00     0.004 A 
ATOM      4  C5  UNL d   1       1.850  -1.343  -0.162  0.00  0.00    -0.004 A 
ATOM      5  C6  UNL d   1       0.698  -0.757  -0.696  0.00  0.00    -0.075 A 
ATOM      6  C7  UNL d   1       0.133  -1.222  -2.006  0.00  0.00     0.076 C 
ATOM      7  C8  UNL d   1       0.063   0.271   0.013  0.00  0.00     0.001 A 
ENDROOT
BRANCH   1   8
ATOM      8  C1  UNL d   1      -0.122   1.828   1.993  0.00  0.00     0.053 C 
ATOM      9  C   UNL d   1      -1.068   1.299   3.059  0.00  0.00     0.018 C 
ENDBRANCH   1   8
TORSDOF 1
ENDMDL
