MODEL 1
REMARK minimizedAffinity 5.80240536
REMARK minimizedRMSD -1
REMARK  0 active torsions:
REMARK  status: ('A' for Active; 'I' for Inactive)
ROOT
ATOM      1  C   UNL d   1       1.573  -0.577  -0.807  0.00  0.00     0.077 C 
ATOM      2  C1  UNL d   1       1.598  -0.451   0.687  0.00  0.00    -0.074 A 
ATOM      3  C2  UNL d   1       1.333  -1.554   1.506  0.00  0.00    -0.005 A 
ATOM      4  C3  UNL d   1       1.370  -1.424   2.894  0.00  0.00     0.006 A 
ATOM      5  C4  UNL d   1       1.671  -0.192   3.477  0.00  0.00    -0.005 A 
ATOM      6  C5  UNL d   1       1.939   0.921   2.674  0.00  0.00    -0.074 A 
ATOM      7  C6  UNL d   1       2.274   2.250   3.284  0.00  0.00     0.077 C 
ATOM      8  C7  UNL d   1       1.907   0.781   1.280  0.00  0.00    -0.001 A 
ENDROOT
TORSDOF 0
ENDMDL
