MODEL 1
REMARK minimizedAffinity 3.97700095
REMARK minimizedRMSD -1
REMARK  0 active torsions:
REMARK  status: ('A' for Active; 'I' for Inactive)
ROOT
ATOM      1  C   UNL d   1       0.358  -4.083   0.936  0.00  0.00     0.077 C 
ATOM      2  C1  UNL d   1       0.509  -2.597   0.804  0.00  0.00    -0.074 A 
ATOM      3  C2  UNL d   1       1.764  -1.990   0.911  0.00  0.00    -0.005 A 
ATOM      4  C3  UNL d   1       1.891  -0.607   0.777  0.00  0.00     0.006 A 
ATOM      5  C4  UNL d   1       0.765   0.181   0.535  0.00  0.00    -0.005 A 
ATOM      6  C5  UNL d   1      -0.498  -0.409   0.424  0.00  0.00    -0.074 A 
ATOM      7  C6  UNL d   1      -1.717   0.423   0.154  0.00  0.00     0.077 C 
ATOM      8  C7  UNL d   1      -0.616  -1.799   0.553  0.00  0.00    -0.001 A 
ENDROOT
TORSDOF 0
ENDMDL
