MODEL 1
REMARK minimizedAffinity 2.6474185
REMARK minimizedRMSD -1
REMARK  0 active torsions:
REMARK  status: ('A' for Active; 'I' for Inactive)
ROOT
ATOM      1  C   UNL d   1      -2.869  -3.273   1.685  0.00  0.00     0.077 C 
ATOM      2  C1  UNL d   1      -1.831  -2.488   0.938  0.00  0.00    -0.074 A 
ATOM      3  C2  UNL d   1      -1.922  -1.097   0.830  0.00  0.00    -0.005 A 
ATOM      4  C3  UNL d   1      -0.945  -0.380   0.140  0.00  0.00     0.006 A 
ATOM      5  C4  UNL d   1       0.131  -1.045  -0.448  0.00  0.00    -0.005 A 
ATOM      6  C5  UNL d   1       0.239  -2.436  -0.350  0.00  0.00    -0.074 A 
ATOM      7  C6  UNL d   1       1.394  -3.166  -0.968  0.00  0.00     0.077 C 
ATOM      8  C7  UNL d   1      -0.743  -3.149   0.351  0.00  0.00    -0.001 A 
ENDROOT
TORSDOF 0
ENDMDL
