MODEL 1
REMARK minimizedAffinity 8.71720409
REMARK minimizedRMSD -1
REMARK  0 active torsions:
REMARK  status: ('A' for Active; 'I' for Inactive)
ROOT
ATOM      1  C   UNL d   1       2.027   4.566  -1.371  0.00  0.00     0.077 C 
ATOM      2  C1  UNL d   1       3.391   5.074  -1.733  0.00  0.00    -0.074 A 
ATOM      3  C2  UNL d   1       4.293   5.478  -0.744  0.00  0.00    -0.005 A 
ATOM      4  C3  UNL d   1       5.562   5.939  -1.096  0.00  0.00     0.006 A 
ATOM      5  C4  UNL d   1       5.940   6.000  -2.437  0.00  0.00    -0.005 A 
ATOM      6  C5  UNL d   1       5.052   5.599  -3.440  0.00  0.00    -0.074 A 
ATOM      7  C6  UNL d   1       5.446   5.648  -4.886  0.00  0.00     0.077 C 
ATOM      8  C7  UNL d   1       3.781   5.130  -3.078  0.00  0.00    -0.001 A 
ENDROOT
TORSDOF 0
ENDMDL
