MODEL 1
REMARK minimizedAffinity 1.00748479
REMARK minimizedRMSD -1
REMARK  0 active torsions:
REMARK  status: ('A' for Active; 'I' for Inactive)
ROOT
ATOM      1  C   UNL d   1       2.278  -2.367   2.633  0.00  0.00     0.077 C 
ATOM      2  C1  UNL d   1       1.589  -1.230   1.940  0.00  0.00    -0.074 A 
ATOM      3  C2  UNL d   1       0.216  -1.275   1.674  0.00  0.00    -0.005 A 
ATOM      4  C3  UNL d   1      -0.413  -0.205   1.038  0.00  0.00     0.006 A 
ATOM      5  C4  UNL d   1       0.323   0.919   0.661  0.00  0.00    -0.005 A 
ATOM      6  C5  UNL d   1       1.696   0.983   0.920  0.00  0.00    -0.074 A 
ATOM      7  C6  UNL d   1       2.499   2.188   0.530  0.00  0.00     0.077 C 
ATOM      8  C7  UNL d   1       2.319  -0.093   1.566  0.00  0.00    -0.001 A 
ENDROOT
TORSDOF 0
ENDMDL
