MODEL 1
REMARK minimizedAffinity 3.88693357
REMARK minimizedRMSD -1
REMARK  0 active torsions:
REMARK  status: ('A' for Active; 'I' for Inactive)
ROOT
ATOM      1  C   UNL d   1       2.983  -2.069   1.311  0.00  0.00     0.077 C 
ATOM      2  C1  UNL d   1       2.423  -1.666   2.643  0.00  0.00    -0.074 A 
ATOM      3  C2  UNL d   1       2.182  -2.618   3.639  0.00  0.00    -0.005 A 
ATOM      4  C3  UNL d   1       1.669  -2.226   4.876  0.00  0.00     0.006 A 
ATOM      5  C4  UNL d   1       1.394  -0.882   5.129  0.00  0.00    -0.005 A 
ATOM      6  C5  UNL d   1       1.630   0.084   4.145  0.00  0.00    -0.074 A 
ATOM      7  C6  UNL d   1       1.349   1.534   4.404  0.00  0.00     0.077 C 
ATOM      8  C7  UNL d   1       2.152  -0.316   2.907  0.00  0.00    -0.001 A 
ENDROOT
TORSDOF 0
ENDMDL
