MODEL 1
REMARK minimizedAffinity -4.11616516
REMARK minimizedRMSD -1
REMARK  0 active torsions:
REMARK  status: ('A' for Active; 'I' for Inactive)
ROOT
ATOM      1  C   UNL d   1      -4.131  -5.998  -1.199  0.00  0.00     0.077 C 
ATOM      2  C1  UNL d   1      -4.608  -5.221  -2.390  0.00  0.00    -0.074 A 
ATOM      3  C2  UNL d   1      -4.773  -3.834  -2.325  0.00  0.00    -0.005 A 
ATOM      4  C3  UNL d   1      -5.209  -3.124  -3.444  0.00  0.00     0.006 A 
ATOM      5  C4  UNL d   1      -5.483  -3.793  -4.637  0.00  0.00    -0.005 A 
ATOM      6  C5  UNL d   1      -5.323  -5.180  -4.722  0.00  0.00    -0.074 A 
ATOM      7  C6  UNL d   1      -5.603  -5.913  -6.000  0.00  0.00     0.077 C 
ATOM      8  C7  UNL d   1      -4.878  -5.885  -3.595  0.00  0.00    -0.001 A 
ENDROOT
TORSDOF 0
ENDMDL
