MODEL 1
REMARK minimizedAffinity 0.0620948002
REMARK minimizedRMSD -1
REMARK  0 active torsions:
REMARK  status: ('A' for Active; 'I' for Inactive)
ROOT
ATOM      1  C   UNL d   1      -6.000  -2.187  -4.826  0.00  0.00     0.077 C 
ATOM      2  C1  UNL d   1      -5.606  -0.739  -4.820  0.00  0.00    -0.074 A 
ATOM      3  C2  UNL d   1      -5.608   0.011  -6.000  0.00  0.00    -0.005 A 
ATOM      4  C3  UNL d   1      -5.249   1.359  -5.977  0.00  0.00     0.006 A 
ATOM      5  C4  UNL d   1      -4.885   1.969  -4.775  0.00  0.00    -0.005 A 
ATOM      6  C5  UNL d   1      -4.879   1.234  -3.585  0.00  0.00    -0.074 A 
ATOM      7  C6  UNL d   1      -4.500   1.877  -2.284  0.00  0.00     0.077 C 
ATOM      8  C7  UNL d   1      -5.247  -0.117  -3.615  0.00  0.00    -0.001 A 
ENDROOT
TORSDOF 0
ENDMDL
