MODEL 1
REMARK minimizedAffinity 8.33607101
REMARK minimizedRMSD -1
REMARK  0 active torsions:
REMARK  status: ('A' for Active; 'I' for Inactive)
ROOT
ATOM      1  C   UNL d   1      -0.889   3.294  -2.667  0.00  0.00    -0.002 A 
ATOM      2  C1  UNL d   1      -0.390   2.758  -1.489  0.00  0.00     0.010 A 
ATOM      3  C2  UNL d   1      -1.088   1.754  -0.814  0.00  0.00     0.041 A 
ATOM      4  C3  UNL d   1      -2.306   1.293  -1.350  0.00  0.00    -0.075 A 
ATOM      5  S   UNL d   1      -3.332   0.071  -0.697  0.00  0.00     0.015 SA
ATOM      6  C4  UNL d   1      -4.457   0.231  -1.967  0.00  0.00     0.022 A 
ATOM      7  C5  UNL d   1      -4.075   1.189  -2.876  0.00  0.00     0.026 A 
ATOM      8  C6  UNL d   1      -2.829   1.817  -2.535  0.00  0.00    -0.082 A 
ATOM      9  C7  UNL d   1      -2.098   2.834  -3.196  0.00  0.00     0.045 A 
ENDROOT
TORSDOF 0
ENDMDL
