MODEL 1
REMARK minimizedAffinity 7.70615387
REMARK minimizedRMSD -1
REMARK  0 active torsions:
REMARK  status: ('A' for Active; 'I' for Inactive)
ROOT
ATOM      1  C   UNL d   1       0.634   3.383  -1.225  0.00  0.00    -0.002 A 
ATOM      2  C1  UNL d   1       1.087   4.260  -0.250  0.00  0.00     0.010 A 
ATOM      3  C2  UNL d   1       1.275   3.826   1.064  0.00  0.00     0.041 A 
ATOM      4  C3  UNL d   1       1.000   2.482   1.383  0.00  0.00    -0.075 A 
ATOM      5  S   UNL d   1       1.159   1.726   2.925  0.00  0.00     0.015 SA
ATOM      6  C4  UNL d   1       0.630   0.221   2.325  0.00  0.00     0.022 A 
ATOM      7  C5  UNL d   1       0.335   0.276   0.983  0.00  0.00     0.026 A 
ATOM      8  C6  UNL d   1       0.544   1.579   0.418  0.00  0.00    -0.082 A 
ATOM      9  C7  UNL d   1       0.362   2.050  -0.905  0.00  0.00     0.045 A 
ENDROOT
TORSDOF 0
ENDMDL
