MODEL 1
REMARK minimizedAffinity 4.71591854
REMARK minimizedRMSD -1
REMARK  0 active torsions:
REMARK  status: ('A' for Active; 'I' for Inactive)
ROOT
ATOM      1  C   UNL d   1       0.353   0.189   3.344  0.00  0.00    -0.002 A 
ATOM      2  C1  UNL d   1       0.179  -0.823   2.410  0.00  0.00     0.010 A 
ATOM      3  C2  UNL d   1       0.155  -0.533   1.045  0.00  0.00     0.041 A 
ATOM      4  C3  UNL d   1       0.312   0.804   0.629  0.00  0.00    -0.075 A 
ATOM      5  S   UNL d   1       0.317   1.395  -0.991  0.00  0.00     0.015 SA
ATOM      6  C4  UNL d   1       0.552   3.004  -0.482  0.00  0.00     0.022 A 
ATOM      7  C5  UNL d   1       0.626   3.106   0.887  0.00  0.00     0.026 A 
ATOM      8  C6  UNL d   1       0.490   1.840   1.550  0.00  0.00    -0.082 A 
ATOM      9  C7  UNL d   1       0.509   1.514   2.928  0.00  0.00     0.045 A 
ENDROOT
TORSDOF 0
ENDMDL
