MODEL 1
REMARK minimizedAffinity -0.900376737
REMARK minimizedRMSD -1
REMARK  0 active torsions:
REMARK  status: ('A' for Active; 'I' for Inactive)
ROOT
ATOM      1  C   UNL d   1       0.211   0.352   0.799  0.00  0.00    -0.002 A 
ATOM      2  C1  UNL d   1      -0.350   0.948   1.919  0.00  0.00     0.010 A 
ATOM      3  C2  UNL d   1      -0.593   2.323   1.945  0.00  0.00     0.041 A 
ATOM      4  C3  UNL d   1      -0.261   3.095   0.814  0.00  0.00    -0.075 A 
ATOM      5  S   UNL d   1      -0.469   4.795   0.619  0.00  0.00     0.015 SA
ATOM      6  C4  UNL d   1       0.182   4.770  -0.956  0.00  0.00     0.022 A 
ATOM      7  C5  UNL d   1       0.554   3.503  -1.339  0.00  0.00     0.026 A 
ATOM      8  C6  UNL d   1       0.305   2.517  -0.326  0.00  0.00    -0.082 A 
ATOM      9  C7  UNL d   1       0.540   1.121  -0.321  0.00  0.00     0.045 A 
ENDROOT
TORSDOF 0
ENDMDL
