MODEL 1
REMARK minimizedAffinity 12.8422375
REMARK minimizedRMSD -1
REMARK  0 active torsions:
REMARK  status: ('A' for Active; 'I' for Inactive)
ROOT
ATOM      1  C   UNL d   1       2.670  -0.450  -0.279  0.00  0.00    -0.002 A 
ATOM      2  C1  UNL d   1       3.370  -1.444   0.390  0.00  0.00     0.010 A 
ATOM      3  C2  UNL d   1       2.992  -2.783   0.271  0.00  0.00     0.041 A 
ATOM      4  C3  UNL d   1       1.889  -3.109  -0.542  0.00  0.00    -0.075 A 
ATOM      5  S   UNL d   1       1.246  -4.681  -0.839  0.00  0.00     0.015 SA
ATOM      6  C4  UNL d   1       0.026  -4.070  -1.861  0.00  0.00     0.022 A 
ATOM      7  C5  UNL d   1       0.094  -2.703  -1.984  0.00  0.00     0.026 A 
ATOM      8  C6  UNL d   1       1.169  -2.126  -1.227  0.00  0.00    -0.082 A 
ATOM      9  C7  UNL d   1       1.576  -0.778  -1.084  0.00  0.00     0.045 A 
ENDROOT
TORSDOF 0
ENDMDL
