MODEL 1
REMARK minimizedAffinity 21.93713
REMARK minimizedRMSD -1
REMARK  0 active torsions:
REMARK  status: ('A' for Active; 'I' for Inactive)
ROOT
ATOM      1  C   UNL d   1      -4.741   1.712  -1.850  0.00  0.00    -0.002 A 
ATOM      2  C1  UNL d   1      -4.287   2.822  -2.548  0.00  0.00     0.010 A 
ATOM      3  C2  UNL d   1      -3.047   3.391  -2.249  0.00  0.00     0.041 A 
ATOM      4  C3  UNL d   1      -2.263   2.819  -1.228  0.00  0.00    -0.075 A 
ATOM      5  S   UNL d   1      -0.712   3.345  -0.689  0.00  0.00     0.015 SA
ATOM      6  C4  UNL d   1      -0.616   2.108   0.479  0.00  0.00     0.022 A 
ATOM      7  C5  UNL d   1      -1.731   1.305   0.473  0.00  0.00     0.026 A 
ATOM      8  C6  UNL d   1      -2.699   1.700  -0.511  0.00  0.00    -0.082 A 
ATOM      9  C7  UNL d   1      -3.960   1.147  -0.838  0.00  0.00     0.045 A 
ENDROOT
TORSDOF 0
ENDMDL
