MODEL 1
REMARK minimizedAffinity -1.61055446
REMARK minimizedRMSD -1
REMARK  1 active torsions:
REMARK  status: ('A' for Active; 'I' for Inactive)
REMARK    1  A    between atoms: C3_4  and  O_7 
ROOT
ATOM      1  C   UNL d   1       4.116   3.788  -5.447  0.00  0.00    -0.033 A 
ATOM      2  C1  UNL d   1       3.458   2.686  -5.997  0.00  0.00     0.039 A 
ATOM      3  C2  UNL d   1       4.071   1.431  -5.993  0.00  0.00    -0.080 A 
ATOM      4  C3  UNL d   1       5.340   1.292  -5.436  0.00  0.00     0.150 A 
ATOM      5  C4  UNL d   1       5.999   2.385  -4.884  0.00  0.00    -0.007 A 
ATOM      6  C5  UNL d   1       5.386   3.637  -4.890  0.00  0.00     0.039 A 
ENDROOT
BRANCH   4   7
ATOM      7  O   UNL d   1       5.980   0.089  -5.414  0.00  0.00    -0.526 OA
ATOM      8  H5  UNL d   1       5.417  -0.568  -5.856  0.00  0.00     0.418 HD
ENDBRANCH   4   7
TORSDOF 1
ENDMDL
