MODEL 1
REMARK minimizedAffinity -3.38490152
REMARK minimizedRMSD -1
REMARK  1 active torsions:
REMARK  status: ('A' for Active; 'I' for Inactive)
REMARK    1  A    between atoms: C3_4  and  O_7 
ROOT
ATOM      1  C   UNL d   1       4.458   4.013  -5.912  0.00  0.00    -0.033 A 
ATOM      2  C1  UNL d   1       3.412   3.093  -6.000  0.00  0.00     0.039 A 
ATOM      3  C2  UNL d   1       3.651   1.737  -5.769  0.00  0.00    -0.080 A 
ATOM      4  C3  UNL d   1       4.939   1.315  -5.451  0.00  0.00     0.150 A 
ATOM      5  C4  UNL d   1       5.985   2.227  -5.358  0.00  0.00    -0.007 A 
ATOM      6  C5  UNL d   1       5.744   3.580  -5.589  0.00  0.00     0.039 A 
ENDROOT
BRANCH   4   7
ATOM      7  O   UNL d   1       5.222   0.001  -5.221  0.00  0.00    -0.526 OA
ATOM      8  H5  UNL d   1       4.409  -0.516  -5.349  0.00  0.00     0.418 HD
ENDBRANCH   4   7
TORSDOF 1
ENDMDL
