MODEL 1
REMARK minimizedAffinity -0.902558327
REMARK minimizedRMSD -1
REMARK  1 active torsions:
REMARK  status: ('A' for Active; 'I' for Inactive)
REMARK    1  A    between atoms: C3_4  and  O_7 
ROOT
ATOM      1  C   UNL d   1       5.999   1.461  -5.607  0.00  0.00    -0.033 A 
ATOM      2  C1  UNL d   1       4.868   0.742  -5.998  0.00  0.00     0.039 A 
ATOM      3  C2  UNL d   1       3.614   1.356  -5.997  0.00  0.00    -0.080 A 
ATOM      4  C3  UNL d   1       3.505   2.687  -5.604  0.00  0.00     0.150 A 
ATOM      5  C4  UNL d   1       4.629   3.410  -5.218  0.00  0.00    -0.007 A 
ATOM      6  C5  UNL d   1       5.880   2.795  -5.219  0.00  0.00     0.039 A 
ENDROOT
BRANCH   4   7
ATOM      7  O   UNL d   1       2.302   3.328  -5.582  0.00  0.00    -0.526 OA
ATOM      8  H5  UNL d   1       1.612   2.696  -5.847  0.00  0.00     0.418 HD
ENDBRANCH   4   7
TORSDOF 1
ENDMDL
