MODEL 1
REMARK minimizedAffinity -4.28704166
REMARK minimizedRMSD -1
REMARK  1 active torsions:
REMARK  status: ('A' for Active; 'I' for Inactive)
REMARK    1  A    between atoms: C3_4  and  O_7 
ROOT
ATOM      1  C   UNL d   1       2.472   3.416  -0.025  0.00  0.00    -0.033 A 
ATOM      2  C1  UNL d   1       3.577   3.967   0.626  0.00  0.00     0.039 A 
ATOM      3  C2  UNL d   1       4.027   3.417   1.828  0.00  0.00    -0.080 A 
ATOM      4  C3  UNL d   1       3.364   2.318   2.368  0.00  0.00     0.150 A 
ATOM      5  C4  UNL d   1       2.264   1.762   1.723  0.00  0.00    -0.007 A 
ATOM      6  C5  UNL d   1       1.816   2.313   0.523  0.00  0.00     0.039 A 
ENDROOT
BRANCH   4   7
ATOM      7  O   UNL d   1       3.763   1.751   3.541  0.00  0.00    -0.526 OA
ATOM      8  H5  UNL d   1       4.516   2.257   3.887  0.00  0.00     0.418 HD
ENDBRANCH   4   7
TORSDOF 1
ENDMDL
