MODEL 1
REMARK minimizedAffinity -4.10899925
REMARK minimizedRMSD -1
REMARK  1 active torsions:
REMARK  status: ('A' for Active; 'I' for Inactive)
REMARK    1  A    between atoms: C3_4  and  O_7 
ROOT
ATOM      1  C   UNL d   1       2.961   3.867   0.634  0.00  0.00    -0.033 A 
ATOM      2  C1  UNL d   1       2.520   2.584   0.964  0.00  0.00     0.039 A 
ATOM      3  C2  UNL d   1       3.058   1.921   2.069  0.00  0.00    -0.080 A 
ATOM      4  C3  UNL d   1       4.034   2.551   2.835  0.00  0.00     0.150 A 
ATOM      5  C4  UNL d   1       4.475   3.831   2.515  0.00  0.00    -0.007 A 
ATOM      6  C5  UNL d   1       3.937   4.491   1.411  0.00  0.00     0.039 A 
ENDROOT
BRANCH   4   7
ATOM      7  O   UNL d   1       4.592   1.942   3.920  0.00  0.00    -0.526 OA
ATOM      8  H5  UNL d   1       4.211   1.052   4.003  0.00  0.00     0.418 HD
ENDBRANCH   4   7
TORSDOF 1
ENDMDL
