MODEL 1
REMARK minimizedAffinity -0.521785259
REMARK minimizedRMSD -1
REMARK  1 active torsions:
REMARK  status: ('A' for Active; 'I' for Inactive)
REMARK    1  A    between atoms: C3_4  and  O_7 
ROOT
ATOM      1  C   UNL d   1       3.001   1.653   1.147  0.00  0.00    -0.033 A 
ATOM      2  C1  UNL d   1       1.664   1.982   0.914  0.00  0.00     0.039 A 
ATOM      3  C2  UNL d   1       0.690   0.982   0.892  0.00  0.00    -0.080 A 
ATOM      4  C3  UNL d   1       1.065  -0.341   1.106  0.00  0.00     0.150 A 
ATOM      5  C4  UNL d   1       2.394  -0.676   1.343  0.00  0.00    -0.007 A 
ATOM      6  C5  UNL d   1       3.366   0.324   1.363  0.00  0.00     0.039 A 
ENDROOT
BRANCH   4   7
ATOM      7  O   UNL d   1       0.151  -1.353   1.090  0.00  0.00    -0.526 OA
ATOM      8  H5  UNL d   1      -0.721  -0.976   0.886  0.00  0.00     0.418 HD
ENDBRANCH   4   7
TORSDOF 1
ENDMDL
