MODEL 1
REMARK minimizedAffinity -2.20432019
REMARK minimizedRMSD -1
REMARK  1 active torsions:
REMARK  status: ('A' for Active; 'I' for Inactive)
REMARK    1  A    between atoms: C3_4  and  O_7 
ROOT
ATOM      1  C   UNL d   1       4.126   3.922  -5.796  0.00  0.00    -0.033 A 
ATOM      2  C1  UNL d   1       3.265   2.839  -5.984  0.00  0.00     0.039 A 
ATOM      3  C2  UNL d   1       3.770   1.538  -6.000  0.00  0.00    -0.080 A 
ATOM      4  C3  UNL d   1       5.136   1.333  -5.826  0.00  0.00     0.150 A 
ATOM      5  C4  UNL d   1       5.999   2.406  -5.635  0.00  0.00    -0.007 A 
ATOM      6  C5  UNL d   1       5.493   3.705  -5.620  0.00  0.00     0.039 A 
ENDROOT
BRANCH   4   7
ATOM      7  O   UNL d   1       5.676   0.081  -5.839  0.00  0.00    -0.526 OA
ATOM      8  H5  UNL d   1       4.965  -0.559  -6.009  0.00  0.00     0.418 HD
ENDBRANCH   4   7
TORSDOF 1
ENDMDL
