MODEL 1
REMARK minimizedAffinity -1.69417238
REMARK minimizedRMSD -1
REMARK  1 active torsions:
REMARK  status: ('A' for Active; 'I' for Inactive)
REMARK    1  A    between atoms: C3_4  and  O_7 
ROOT
ATOM      1  C   UNL d   1       4.012   3.721  -5.994  0.00  0.00    -0.033 A 
ATOM      2  C1  UNL d   1       5.403   3.601  -6.000  0.00  0.00     0.039 A 
ATOM      3  C2  UNL d   1       6.000   2.363  -5.754  0.00  0.00    -0.080 A 
ATOM      4  C3  UNL d   1       5.195   1.254  -5.506  0.00  0.00     0.150 A 
ATOM      5  C4  UNL d   1       3.809   1.366  -5.503  0.00  0.00    -0.007 A 
ATOM      6  C5  UNL d   1       3.215   2.603  -5.747  0.00  0.00     0.039 A 
ENDROOT
BRANCH   4   7
ATOM      7  O   UNL d   1       5.732   0.026  -5.256  0.00  0.00    -0.526 OA
ATOM      8  H5  UNL d   1       6.700   0.106  -5.262  0.00  0.00     0.418 HD
ENDBRANCH   4   7
TORSDOF 1
ENDMDL
