MODEL 1
REMARK minimizedAffinity -1.50977969
REMARK minimizedRMSD -1
REMARK  1 active torsions:
REMARK  status: ('A' for Active; 'I' for Inactive)
REMARK    1  A    between atoms: C3_4  and  O_7 
ROOT
ATOM      1  C   UNL d   1       3.918   4.205  -5.872  0.00  0.00    -0.033 A 
ATOM      2  C1  UNL d   1       3.209   3.003  -5.931  0.00  0.00     0.039 A 
ATOM      3  C2  UNL d   1       3.895   1.787  -5.968  0.00  0.00    -0.080 A 
ATOM      4  C3  UNL d   1       5.287   1.787  -5.945  0.00  0.00     0.150 A 
ATOM      5  C4  UNL d   1       5.999   2.980  -5.882  0.00  0.00    -0.007 A 
ATOM      6  C5  UNL d   1       5.313   4.193  -5.846  0.00  0.00     0.039 A 
ENDROOT
BRANCH   4   7
ATOM      7  O   UNL d   1       6.000   0.625  -5.985  0.00  0.00    -0.526 OA
ATOM      8  H5  UNL d   1       5.376  -0.116  -6.056  0.00  0.00     0.418 HD
ENDBRANCH   4   7
TORSDOF 1
ENDMDL
