MODEL 1
REMARK minimizedAffinity -0.893773258
REMARK minimizedRMSD -1
REMARK  1 active torsions:
REMARK  status: ('A' for Active; 'I' for Inactive)
REMARK    1  A    between atoms: C3_4  and  O_7 
ROOT
ATOM      1  C   UNL d   1      -1.257  -4.652   3.265  0.00  0.00    -0.033 A 
ATOM      2  C1  UNL d   1      -1.046  -5.665   2.327  0.00  0.00     0.039 A 
ATOM      3  C2  UNL d   1      -1.158  -5.390   0.963  0.00  0.00    -0.080 A 
ATOM      4  C3  UNL d   1      -1.480  -4.100   0.550  0.00  0.00     0.150 A 
ATOM      5  C4  UNL d   1      -1.688  -3.086   1.478  0.00  0.00    -0.007 A 
ATOM      6  C5  UNL d   1      -1.577  -3.362   2.840  0.00  0.00     0.039 A 
ENDROOT
BRANCH   4   7
ATOM      7  O   UNL d   1      -1.606  -3.785  -0.771  0.00  0.00    -0.526 OA
ATOM      8  H5  UNL d   1      -1.462  -4.591  -1.294  0.00  0.00     0.418 HD
ENDBRANCH   4   7
TORSDOF 1
ENDMDL
