MODEL 1
REMARK minimizedAffinity -0.637956798
REMARK minimizedRMSD -1
REMARK  1 active torsions:
REMARK  status: ('A' for Active; 'I' for Inactive)
REMARK    1  A    between atoms: C3_4  and  O_7 
ROOT
ATOM      1  C   UNL d   1       4.036   3.764  -6.000  0.00  0.00    -0.033 A 
ATOM      2  C1  UNL d   1       5.379   3.685  -5.627  0.00  0.00     0.039 A 
ATOM      3  C2  UNL d   1       5.927   2.461  -5.239  0.00  0.00    -0.080 A 
ATOM      4  C3  UNL d   1       5.124   1.324  -5.231  0.00  0.00     0.150 A 
ATOM      5  C4  UNL d   1       3.786   1.394  -5.606  0.00  0.00    -0.007 A 
ATOM      6  C5  UNL d   1       3.240   2.618  -5.991  0.00  0.00     0.039 A 
ENDROOT
BRANCH   4   7
ATOM      7  O   UNL d   1       5.613   0.108  -4.856  0.00  0.00    -0.526 OA
ATOM      8  H5  UNL d   1       6.543   0.218  -4.597  0.00  0.00     0.418 HD
ENDBRANCH   4   7
TORSDOF 1
ENDMDL
