MODEL 1
REMARK minimizedAffinity -1.58305645
REMARK minimizedRMSD -1
REMARK  1 active torsions:
REMARK  status: ('A' for Active; 'I' for Inactive)
REMARK    1  A    between atoms: C3_4  and  O_7 
ROOT
ATOM      1  C   UNL d   1       4.198   4.084  -6.000  0.00  0.00    -0.033 A 
ATOM      2  C1  UNL d   1       3.314   3.004  -5.998  0.00  0.00     0.039 A 
ATOM      3  C2  UNL d   1       3.764   1.731  -5.645  0.00  0.00    -0.080 A 
ATOM      4  C3  UNL d   1       5.100   1.551  -5.297  0.00  0.00     0.150 A 
ATOM      5  C4  UNL d   1       5.986   2.623  -5.293  0.00  0.00    -0.007 A 
ATOM      6  C5  UNL d   1       5.535   3.894  -5.646  0.00  0.00     0.039 A 
ENDROOT
BRANCH   4   7
ATOM      7  O   UNL d   1       5.588   0.326  -4.950  0.00  0.00    -0.526 OA
ATOM      8  H5  UNL d   1       4.869  -0.324  -5.026  0.00  0.00     0.418 HD
ENDBRANCH   4   7
TORSDOF 1
ENDMDL
