MODEL 1
REMARK minimizedAffinity -1.37618375
REMARK minimizedRMSD -1
REMARK  1 active torsions:
REMARK  status: ('A' for Active; 'I' for Inactive)
REMARK    1  A    between atoms: C3_4  and  O_7 
ROOT
ATOM      1  C   UNL d   1       1.598   2.613   0.755  0.00  0.00    -0.033 A 
ATOM      2  C1  UNL d   1       1.833   1.793   1.861  0.00  0.00     0.039 A 
ATOM      3  C2  UNL d   1       3.052   1.863   2.537  0.00  0.00    -0.080 A 
ATOM      4  C3  UNL d   1       4.027   2.755   2.099  0.00  0.00     0.150 A 
ATOM      5  C4  UNL d   1       3.798   3.577   1.000  0.00  0.00    -0.007 A 
ATOM      6  C5  UNL d   1       2.580   3.506   0.326  0.00  0.00     0.039 A 
ENDROOT
BRANCH   4   7
ATOM      7  O   UNL d   1       5.234   2.856   2.724  0.00  0.00    -0.526 OA
ATOM      8  H5  UNL d   1       5.261   2.208   3.447  0.00  0.00     0.418 HD
ENDBRANCH   4   7
TORSDOF 1
ENDMDL
