MODEL 1
REMARK minimizedAffinity 0.632835686
REMARK minimizedRMSD -1
REMARK  1 active torsions:
REMARK  status: ('A' for Active; 'I' for Inactive)
REMARK    1  A    between atoms: C3_4  and  O_7 
ROOT
ATOM      1  C   UNL d   1       3.896   4.161   0.493  0.00  0.00    -0.033 A 
ATOM      2  C1  UNL d   1       3.361   2.906   0.789  0.00  0.00     0.039 A 
ATOM      3  C2  UNL d   1       3.645   2.294   2.012  0.00  0.00    -0.080 A 
ATOM      4  C3  UNL d   1       4.464   2.948   2.929  0.00  0.00     0.150 A 
ATOM      5  C4  UNL d   1       4.997   4.200   2.642  0.00  0.00    -0.007 A 
ATOM      6  C5  UNL d   1       4.713   4.809   1.420  0.00  0.00     0.039 A 
ENDROOT
BRANCH   4   7
ATOM      7  O   UNL d   1       4.773   2.388   4.133  0.00  0.00    -0.526 OA
ATOM      8  H5  UNL d   1       4.358   1.511   4.180  0.00  0.00     0.418 HD
ENDBRANCH   4   7
TORSDOF 1
ENDMDL
