MODEL 1
REMARK minimizedAffinity -0.397736669
REMARK minimizedRMSD -1
REMARK  1 active torsions:
REMARK  status: ('A' for Active; 'I' for Inactive)
REMARK    1  A    between atoms: C3_4  and  O_7 
ROOT
ATOM      1  C   UNL d   1       5.014   3.954   1.788  0.00  0.00    -0.033 A 
ATOM      2  C1  UNL d   1       4.141   3.808   0.708  0.00  0.00     0.039 A 
ATOM      3  C2  UNL d   1       3.125   2.850   0.754  0.00  0.00    -0.080 A 
ATOM      4  C3  UNL d   1       2.993   2.048   1.884  0.00  0.00     0.150 A 
ATOM      5  C4  UNL d   1       3.857   2.191   2.965  0.00  0.00    -0.007 A 
ATOM      6  C5  UNL d   1       4.871   3.147   2.917  0.00  0.00     0.039 A 
ENDROOT
BRANCH   4   7
ATOM      7  O   UNL d   1       2.021   1.097   1.973  0.00  0.00    -0.526 OA
ATOM      8  H5  UNL d   1       1.518   1.092   1.141  0.00  0.00     0.418 HD
ENDBRANCH   4   7
TORSDOF 1
ENDMDL
