MODEL 1
REMARK minimizedAffinity -2.38888097
REMARK minimizedRMSD -1
REMARK  1 active torsions:
REMARK  status: ('A' for Active; 'I' for Inactive)
REMARK    1  A    between atoms: C3_4  and  O_7 
ROOT
ATOM      1  C   UNL d   1       0.574   2.323   1.531  0.00  0.00    -0.033 A 
ATOM      2  C1  UNL d   1      -0.758   1.906   1.512  0.00  0.00     0.039 A 
ATOM      3  C2  UNL d   1      -1.673   2.447   2.417  0.00  0.00    -0.080 A 
ATOM      4  C3  UNL d   1      -1.244   3.402   3.334  0.00  0.00     0.150 A 
ATOM      5  C4  UNL d   1       0.081   3.825   3.356  0.00  0.00    -0.007 A 
ATOM      6  C5  UNL d   1       0.994   3.283   2.452  0.00  0.00     0.039 A 
ENDROOT
BRANCH   4   7
ATOM      7  O   UNL d   1      -2.099   3.955   4.240  0.00  0.00    -0.526 OA
ATOM      8  H5  UNL d   1      -2.974   3.547   4.127  0.00  0.00     0.418 HD
ENDBRANCH   4   7
TORSDOF 1
ENDMDL
