MODEL 1
REMARK minimizedAffinity -3.9329524
REMARK minimizedRMSD -1
REMARK  1 active torsions:
REMARK  status: ('A' for Active; 'I' for Inactive)
REMARK    1  A    between atoms: C3_4  and  O_7 
ROOT
ATOM      1  C   UNL d   1       1.311  -0.743  -0.007  0.00  0.00    -0.033 A 
ATOM      2  C1  UNL d   1      -0.028  -0.350  -0.022  0.00  0.00     0.039 A 
ATOM      3  C2  UNL d   1      -0.359   1.007  -0.054  0.00  0.00    -0.080 A 
ATOM      4  C3  UNL d   1       0.658   1.958  -0.072  0.00  0.00     0.150 A 
ATOM      5  C4  UNL d   1       1.994   1.572  -0.061  0.00  0.00    -0.007 A 
ATOM      6  C5  UNL d   1       2.323   0.218  -0.028  0.00  0.00     0.039 A 
ENDROOT
BRANCH   4   7
ATOM      7  O   UNL d   1       0.384   3.293  -0.098  0.00  0.00    -0.526 OA
ATOM      8  H5  UNL d   1      -0.580   3.410  -0.074  0.00  0.00     0.418 HD
ENDBRANCH   4   7
TORSDOF 1
ENDMDL
