MODEL 1
REMARK minimizedAffinity 11.6105566
REMARK minimizedRMSD -1
REMARK  1 active torsions:
REMARK  status: ('A' for Active; 'I' for Inactive)
REMARK    1  A    between atoms: C1_2  and  C2_3 
ROOT
ATOM      1  C2  UNL d   1      -1.920  -0.919   0.418  0.00  0.00    -0.081 A 
ATOM      2  C3  UNL d   1      -2.970  -0.005   0.568  0.00  0.00     0.006 A 
ATOM      3  C4  UNL d   1      -2.710   1.364   0.658  0.00  0.00     0.002 A 
ATOM      4  C5  UNL d   1      -1.398   1.844   0.592  0.00  0.00    -0.080 A 
ATOM      5  C6  UNL d   1      -1.107   3.314   0.658  0.00  0.00     0.076 C 
ATOM      6  C7  UNL d   1      -0.347   0.930   0.461  0.00  0.00     0.002 A 
ATOM      7  C8  UNL d   1      -0.606  -0.440   0.371  0.00  0.00     0.006 A 
ENDROOT
BRANCH   1   8
ATOM      8  C1  UNL d   1      -2.201  -2.391   0.256  0.00  0.00     0.054 C 
ATOM      9  C   UNL d   1      -2.088  -2.818  -1.201  0.00  0.00     0.018 C 
ENDBRANCH   1   8
TORSDOF 1
ENDMDL
