MODEL 1
REMARK minimizedAffinity 0.0810017139
REMARK minimizedRMSD -1
REMARK  1 active torsions:
REMARK  status: ('A' for Active; 'I' for Inactive)
REMARK    1  A    between atoms: C1_2  and  C2_3 
ROOT
ATOM      1  C2  UNL d   1      -0.581   0.808   0.625  0.00  0.00    -0.081 A 
ATOM      2  C3  UNL d   1       0.728   0.337   0.463  0.00  0.00     0.006 A 
ATOM      3  C4  UNL d   1       1.809   1.062   0.971  0.00  0.00     0.002 A 
ATOM      4  C5  UNL d   1       1.599   2.263   1.656  0.00  0.00    -0.080 A 
ATOM      5  C6  UNL d   1       2.748   3.035   2.233  0.00  0.00     0.076 C 
ATOM      6  C7  UNL d   1       0.292   2.742   1.803  0.00  0.00     0.002 A 
ATOM      7  C8  UNL d   1      -0.789   2.019   1.294  0.00  0.00     0.006 A 
ENDROOT
BRANCH   1   8
ATOM      8  C1  UNL d   1      -1.753  -0.003   0.134  0.00  0.00     0.054 C 
ATOM      9  C   UNL d   1      -2.860  -0.062   1.177  0.00  0.00     0.018 C 
ENDBRANCH   1   8
TORSDOF 1
ENDMDL
