MODEL 1
REMARK minimizedAffinity 4.36156368
REMARK minimizedRMSD -1
REMARK  1 active torsions:
REMARK  status: ('A' for Active; 'I' for Inactive)
REMARK    1  A    between atoms: C1_2  and  C2_3 
ROOT
ATOM      1  C2  UNL d   1       0.827  -0.086   0.132  0.00  0.00    -0.081 A 
ATOM      2  C3  UNL d   1       0.130   1.121   0.267  0.00  0.00     0.006 A 
ATOM      3  C4  UNL d   1      -1.168   1.136   0.785  0.00  0.00     0.002 A 
ATOM      4  C5  UNL d   1      -1.786  -0.054   1.184  0.00  0.00    -0.080 A 
ATOM      5  C6  UNL d   1      -3.166  -0.049   1.770  0.00  0.00     0.076 C 
ATOM      6  C7  UNL d   1      -1.096  -1.262   1.034  0.00  0.00     0.002 A 
ATOM      7  C8  UNL d   1       0.201  -1.277   0.515  0.00  0.00     0.006 A 
ENDROOT
BRANCH   1   8
ATOM      8  C1  UNL d   1       2.250  -0.097  -0.365  0.00  0.00     0.054 C 
ATOM      9  C   UNL d   1       2.491  -1.256  -1.323  0.00  0.00     0.018 C 
ENDBRANCH   1   8
TORSDOF 1
ENDMDL
