MODEL 1
REMARK minimizedAffinity -1.60526276
REMARK minimizedRMSD -1
REMARK  1 active torsions:
REMARK  status: ('A' for Active; 'I' for Inactive)
REMARK    1  A    between atoms: C1_2  and  C2_3 
ROOT
ATOM      1  C2  UNL d   1       1.265   2.321   1.449  0.00  0.00    -0.081 A 
ATOM      2  C3  UNL d   1       0.126   3.133   1.522  0.00  0.00     0.006 A 
ATOM      3  C4  UNL d   1      -1.144   2.592   1.312  0.00  0.00     0.002 A 
ATOM      4  C5  UNL d   1      -1.298   1.230   1.033  0.00  0.00    -0.080 A 
ATOM      5  C6  UNL d   1      -2.659   0.630   0.834  0.00  0.00     0.076 C 
ATOM      6  C7  UNL d   1      -0.160   0.422   0.942  0.00  0.00     0.002 A 
ATOM      7  C8  UNL d   1       1.111   0.962   1.152  0.00  0.00     0.006 A 
ENDROOT
BRANCH   1   8
ATOM      8  C1  UNL d   1       2.631   2.888   1.740  0.00  0.00     0.054 C 
ATOM      9  C   UNL d   1       2.888   2.972   3.238  0.00  0.00     0.018 C 
ENDBRANCH   1   8
TORSDOF 1
ENDMDL
