MODEL 1
REMARK minimizedAffinity 2.86330009
REMARK minimizedRMSD -1
REMARK  1 active torsions:
REMARK  status: ('A' for Active; 'I' for Inactive)
REMARK    1  A    between atoms: C1_2  and  C2_3 
ROOT
ATOM      1  C2  UNL d   1       0.523   1.061   1.013  0.00  0.00    -0.081 A 
ATOM      2  C3  UNL d   1      -0.234  -0.118   1.020  0.00  0.00     0.006 A 
ATOM      3  C4  UNL d   1      -1.604  -0.081   0.751  0.00  0.00     0.002 A 
ATOM      4  C5  UNL d   1      -2.239   1.131   0.462  0.00  0.00    -0.080 A 
ATOM      5  C6  UNL d   1      -3.703   1.180   0.142  0.00  0.00     0.076 C 
ATOM      6  C7  UNL d   1      -1.487   2.311   0.473  0.00  0.00     0.002 A 
ATOM      7  C8  UNL d   1      -0.117   2.275   0.743  0.00  0.00     0.006 A 
ENDROOT
BRANCH   1   8
ATOM      8  C1  UNL d   1       2.012   1.017   1.240  0.00  0.00     0.054 C 
ATOM      9  C   UNL d   1       2.513   2.304   1.879  0.00  0.00     0.018 C 
ENDBRANCH   1   8
TORSDOF 1
ENDMDL
