MODEL 1
REMARK minimizedAffinity 4.11548567
REMARK minimizedRMSD -1
REMARK  1 active torsions:
REMARK  status: ('A' for Active; 'I' for Inactive)
REMARK    1  A    between atoms: C1_2  and  C2_3 
ROOT
ATOM      1  C2  UNL d   1      -0.261   1.490   0.816  0.00  0.00    -0.081 A 
ATOM      2  C3  UNL d   1       1.092   1.186   0.620  0.00  0.00     0.006 A 
ATOM      3  C4  UNL d   1       2.083   1.895   1.302  0.00  0.00     0.002 A 
ATOM      4  C5  UNL d   1       1.739   2.914   2.197  0.00  0.00    -0.080 A 
ATOM      5  C6  UNL d   1       2.792   3.662   2.959  0.00  0.00     0.076 C 
ATOM      6  C7  UNL d   1       0.388   3.229   2.380  0.00  0.00     0.002 A 
ATOM      7  C8  UNL d   1      -0.604   2.521   1.698  0.00  0.00     0.006 A 
ENDROOT
BRANCH   1   8
ATOM      8  C1  UNL d   1      -1.335   0.684   0.131  0.00  0.00     0.054 C 
ATOM      9  C   UNL d   1      -2.168  -0.096   1.138  0.00  0.00     0.018 C 
ENDBRANCH   1   8
TORSDOF 1
ENDMDL
