MODEL 1
REMARK minimizedAffinity 8.02423286
REMARK minimizedRMSD -1
REMARK  1 active torsions:
REMARK  status: ('A' for Active; 'I' for Inactive)
REMARK    1  A    between atoms: C1_2  and  C2_3 
ROOT
ATOM      1  C2  UNL d   1      -1.373   0.996   0.745  0.00  0.00    -0.081 A 
ATOM      2  C3  UNL d   1      -1.390   2.243   1.383  0.00  0.00     0.006 A 
ATOM      3  C4  UNL d   1      -0.212   2.790   1.898  0.00  0.00     0.002 A 
ATOM      4  C5  UNL d   1       1.001   2.105   1.777  0.00  0.00    -0.080 A 
ATOM      5  C6  UNL d   1       2.278   2.696   2.298  0.00  0.00     0.076 C 
ATOM      6  C7  UNL d   1       1.015   0.852   1.155  0.00  0.00     0.002 A 
ATOM      7  C8  UNL d   1      -0.162   0.304   0.641  0.00  0.00     0.006 A 
ENDROOT
BRANCH   1   8
ATOM      8  C1  UNL d   1      -2.630   0.432   0.132  0.00  0.00     0.054 C 
ATOM      9  C   UNL d   1      -2.868   0.999  -1.260  0.00  0.00     0.018 C 
ENDBRANCH   1   8
TORSDOF 1
ENDMDL
