MODEL 1
REMARK minimizedAffinity 9.64347363
REMARK minimizedRMSD -1
REMARK  1 active torsions:
REMARK  status: ('A' for Active; 'I' for Inactive)
REMARK    1  A    between atoms: C1_2  and  C2_3 
ROOT
ATOM      1  C2  UNL d   1      -1.833   0.429   0.475  0.00  0.00    -0.081 A 
ATOM      2  C3  UNL d   1      -1.595   1.798   0.298  0.00  0.00     0.006 A 
ATOM      3  C4  UNL d   1      -1.643   2.672   1.387  0.00  0.00     0.002 A 
ATOM      4  C5  UNL d   1      -1.921   2.191   2.671  0.00  0.00    -0.080 A 
ATOM      5  C6  UNL d   1      -1.945   3.114   3.854  0.00  0.00     0.076 C 
ATOM      6  C7  UNL d   1      -2.175   0.826   2.846  0.00  0.00     0.002 A 
ATOM      7  C8  UNL d   1      -2.128  -0.048   1.757  0.00  0.00     0.006 A 
ENDROOT
BRANCH   1   8
ATOM      8  C1  UNL d   1      -1.718  -0.525  -0.686  0.00  0.00     0.054 C 
ATOM      9  C   UNL d   1      -1.576  -1.963  -0.208  0.00  0.00     0.018 C 
ENDBRANCH   1   8
TORSDOF 1
ENDMDL
