MODEL 1
REMARK minimizedAffinity -0.600821793
REMARK minimizedRMSD -1
REMARK  1 active torsions:
REMARK  status: ('A' for Active; 'I' for Inactive)
REMARK    1  A    between atoms: C1_2  and  C2_3 
ROOT
ATOM      1  C2  UNL d   1       1.626   1.839   1.438  0.00  0.00    -0.081 A 
ATOM      2  C3  UNL d   1       0.644   2.812   1.662  0.00  0.00     0.006 A 
ATOM      3  C4  UNL d   1      -0.684   2.572   1.304  0.00  0.00     0.002 A 
ATOM      4  C5  UNL d   1      -1.055   1.354   0.725  0.00  0.00    -0.080 A 
ATOM      5  C6  UNL d   1      -2.484   1.073   0.364  0.00  0.00     0.076 C 
ATOM      6  C7  UNL d   1      -0.072   0.389   0.485  0.00  0.00     0.002 A 
ATOM      7  C8  UNL d   1       1.257   0.628   0.841  0.00  0.00     0.006 A 
ENDROOT
BRANCH   1   8
ATOM      8  C1  UNL d   1       3.048   2.068   1.881  0.00  0.00     0.054 C 
ATOM      9  C   UNL d   1       3.103   2.882   3.167  0.00  0.00     0.018 C 
ENDBRANCH   1   8
TORSDOF 1
ENDMDL
