MODEL 1
REMARK minimizedAffinity 8.03783989
REMARK minimizedRMSD -1
REMARK  1 active torsions:
REMARK  status: ('A' for Active; 'I' for Inactive)
REMARK    1  A    between atoms: C1_2  and  C2_3 
ROOT
ATOM      1  C2  UNL d   1       1.346   1.111   0.958  0.00  0.00    -0.081 A 
ATOM      2  C3  UNL d   1       0.731  -0.022   0.410  0.00  0.00     0.006 A 
ATOM      3  C4  UNL d   1      -0.656  -0.066   0.249  0.00  0.00     0.002 A 
ATOM      4  C5  UNL d   1      -1.449   1.023   0.624  0.00  0.00    -0.080 A 
ATOM      5  C6  UNL d   1      -2.936   1.001   0.428  0.00  0.00     0.076 C 
ATOM      6  C7  UNL d   1      -0.836   2.148   1.187  0.00  0.00     0.002 A 
ATOM      7  C8  UNL d   1       0.550   2.193   1.350  0.00  0.00     0.006 A 
ENDROOT
BRANCH   1   8
ATOM      8  C1  UNL d   1       2.847   1.188   1.073  0.00  0.00     0.054 C 
ATOM      9  C   UNL d   1       3.271   2.238   2.090  0.00  0.00     0.018 C 
ENDBRANCH   1   8
TORSDOF 1
ENDMDL
