MODEL 1
REMARK minimizedAffinity -5.19081306
REMARK minimizedRMSD -1
REMARK  1 active torsions:
REMARK  status: ('A' for Active; 'I' for Inactive)
REMARK    1  A    between atoms: C1_2  and  C2_3 
ROOT
ATOM      1  C2  UNL d   1       0.082   0.033   0.000  0.00  0.00    -0.076 A 
ATOM      2  C3  UNL d   1       1.099   0.427   0.887  0.00  0.00     0.004 A 
ATOM      3  C4  UNL d   1       0.795   1.043   2.100  0.00  0.00    -0.003 A 
ATOM      4  C5  UNL d   1      -0.532   1.274   2.446  0.00  0.00     0.000 A 
ATOM      5  C6  UNL d   1      -1.554   0.873   1.587  0.00  0.00     0.000 A 
ATOM      6  C7  UNL d   1      -1.265   0.237   0.367  0.00  0.00    -0.073 A 
ATOM      7  C8  UNL d   1      -2.407  -0.169  -0.524  0.00  0.00     0.078 C 
ENDROOT
BRANCH   1   8
ATOM      8  C1  UNL d   1       0.474  -0.606  -1.313  0.00  0.00     0.053 C 
ATOM      9  C   UNL d   1       1.014   0.404  -2.314  0.00  0.00     0.018 C 
ENDBRANCH   1   8
TORSDOF 1
ENDMDL
