MODEL 1
REMARK minimizedAffinity -4.37628269
REMARK minimizedRMSD -1
REMARK  1 active torsions:
REMARK  status: ('A' for Active; 'I' for Inactive)
REMARK    1  A    between atoms: C1_2  and  C2_3 
ROOT
ATOM      1  C2  UNL d   1       0.018  -0.128   0.352  0.00  0.00    -0.076 A 
ATOM      2  C3  UNL d   1      -1.318   0.207   0.069  0.00  0.00     0.004 A 
ATOM      3  C4  UNL d   1      -2.104   0.878   1.004  0.00  0.00    -0.003 A 
ATOM      4  C5  UNL d   1      -1.566   1.226   2.239  0.00  0.00     0.000 A 
ATOM      5  C6  UNL d   1      -0.238   0.917   2.530  0.00  0.00     0.000 A 
ATOM      6  C7  UNL d   1       0.573   0.256   1.592  0.00  0.00    -0.073 A 
ATOM      7  C8  UNL d   1       1.997  -0.057   1.962  0.00  0.00     0.078 C 
ENDROOT
BRANCH   1   8
ATOM      8  C1  UNL d   1       0.813  -0.880  -0.691  0.00  0.00     0.053 C 
ATOM      9  C   UNL d   1       0.788  -0.195  -2.048  0.00  0.00     0.018 C 
ENDBRANCH   1   8
TORSDOF 1
ENDMDL
