MODEL 1
REMARK minimizedAffinity -0.368098021
REMARK minimizedRMSD -1
REMARK  1 active torsions:
REMARK  status: ('A' for Active; 'I' for Inactive)
REMARK    1  A    between atoms: C1_2  and  C2_3 
ROOT
ATOM      1  C2  UNL d   1      -0.142   0.661  -0.025  0.00  0.00    -0.076 A 
ATOM      2  C3  UNL d   1       0.456   1.732   0.662  0.00  0.00     0.004 A 
ATOM      3  C4  UNL d   1       0.034   2.088   1.942  0.00  0.00    -0.003 A 
ATOM      4  C5  UNL d   1      -0.993   1.379   2.556  0.00  0.00     0.000 A 
ATOM      5  C6  UNL d   1      -1.585   0.303   1.896  0.00  0.00     0.000 A 
ATOM      6  C7  UNL d   1      -1.161  -0.080   0.612  0.00  0.00    -0.073 A 
ATOM      7  C8  UNL d   1      -1.839  -1.245  -0.056  0.00  0.00     0.078 C 
ENDROOT
BRANCH   1   8
ATOM      8  C1  UNL d   1       0.338   0.338  -1.422  0.00  0.00     0.053 C 
ATOM      9  C   UNL d   1      -0.406   1.123  -2.490  0.00  0.00     0.018 C 
ENDBRANCH   1   8
TORSDOF 1
ENDMDL
