MODEL 1
REMARK minimizedAffinity -4.68368721
REMARK minimizedRMSD -1
REMARK  1 active torsions:
REMARK  status: ('A' for Active; 'I' for Inactive)
REMARK    1  A    between atoms: C1_2  and  C2_3 
ROOT
ATOM      1  C2  UNL d   1       0.064   0.021   0.216  0.00  0.00    -0.076 A 
ATOM      2  C3  UNL d   1       0.985   0.846   0.885  0.00  0.00     0.004 A 
ATOM      3  C4  UNL d   1       0.573   1.694   1.911  0.00  0.00    -0.003 A 
ATOM      4  C5  UNL d   1      -0.765   1.730   2.286  0.00  0.00     0.000 A 
ATOM      5  C6  UNL d   1      -1.689   0.905   1.645  0.00  0.00     0.000 A 
ATOM      6  C7  UNL d   1      -1.288   0.033   0.619  0.00  0.00    -0.073 A 
ATOM      7  C8  UNL d   1      -2.327  -0.830  -0.042  0.00  0.00     0.078 C 
ENDROOT
BRANCH   1   8
ATOM      8  C1  UNL d   1       0.564  -0.859  -0.908  0.00  0.00     0.053 C 
ATOM      9  C   UNL d   1       0.659  -0.115  -2.232  0.00  0.00     0.018 C 
ENDBRANCH   1   8
TORSDOF 1
ENDMDL
