MODEL 1
REMARK minimizedAffinity -6.01102114
REMARK minimizedRMSD -1
REMARK  1 active torsions:
REMARK  status: ('A' for Active; 'I' for Inactive)
REMARK    1  A    between atoms: C1_2  and  C2_3 
ROOT
ATOM      1  C2  UNL d   1      -0.370   0.601   1.200  0.00  0.00    -0.076 A 
ATOM      2  C3  UNL d   1      -1.430   0.526   0.280  0.00  0.00     0.004 A 
ATOM      3  C4  UNL d   1      -1.248  -0.043  -0.979  0.00  0.00    -0.003 A 
ATOM      4  C5  UNL d   1      -0.003  -0.546  -1.339  0.00  0.00     0.000 A 
ATOM      5  C6  UNL d   1       1.056  -0.496  -0.432  0.00  0.00     0.000 A 
ATOM      6  C7  UNL d   1       0.885   0.059   0.847  0.00  0.00    -0.073 A 
ATOM      7  C8  UNL d   1       2.062   0.093   1.783  0.00  0.00     0.078 C 
ENDROOT
BRANCH   1   8
ATOM      8  C1  UNL d   1      -0.620   1.253   2.541  0.00  0.00     0.053 C 
ATOM      9  C   UNL d   1      -1.527   0.421   3.434  0.00  0.00     0.018 C 
ENDBRANCH   1   8
TORSDOF 1
ENDMDL
