MODEL 1
REMARK minimizedAffinity -4.87404108
REMARK minimizedRMSD -1
REMARK  1 active torsions:
REMARK  status: ('A' for Active; 'I' for Inactive)
REMARK    1  A    between atoms: C1_2  and  C2_3 
ROOT
ATOM      1  C2  UNL d   1       0.109   0.108   0.164  0.00  0.00    -0.076 A 
ATOM      2  C3  UNL d   1       0.976   0.771   1.051  0.00  0.00     0.004 A 
ATOM      3  C4  UNL d   1       0.479   1.518   2.117  0.00  0.00    -0.003 A 
ATOM      4  C5  UNL d   1      -0.894   1.614   2.315  0.00  0.00     0.000 A 
ATOM      5  C6  UNL d   1      -1.769   0.949   1.456  0.00  0.00     0.000 A 
ATOM      6  C7  UNL d   1      -1.283   0.178   0.386  0.00  0.00    -0.073 A 
ATOM      7  C8  UNL d   1      -2.271  -0.513  -0.513  0.00  0.00     0.078 C 
ENDROOT
BRANCH   1   8
ATOM      8  C1  UNL d   1       0.706  -0.665  -0.990  0.00  0.00     0.053 C 
ATOM      9  C   UNL d   1       0.907   0.198  -2.227  0.00  0.00     0.018 C 
ENDBRANCH   1   8
TORSDOF 1
ENDMDL
