MODEL 1
REMARK minimizedAffinity -0.533889115
REMARK minimizedRMSD -1
REMARK  1 active torsions:
REMARK  status: ('A' for Active; 'I' for Inactive)
REMARK    1  A    between atoms: C1_2  and  C2_3 
ROOT
ATOM      1  C2  UNL d   1       0.394   0.760  -0.901  0.00  0.00    -0.077 A 
ATOM      2  C3  UNL d   1       1.332   0.160  -1.753  0.00  0.00     0.002 A 
ATOM      3  C4  UNL d   1       2.149   0.945  -2.569  0.00  0.00     0.002 A 
ATOM      4  C5  UNL d   1       2.039   2.334  -2.538  0.00  0.00    -0.004 A 
ATOM      5  C6  UNL d   1       1.107   2.940  -1.696  0.00  0.00     0.002 A 
ATOM      6  C7  UNL d   1       0.289   2.157  -0.881  0.00  0.00     0.002 A 
ENDROOT
BRANCH   1   7
ATOM      7  C1  UNL d   1      -0.454  -0.083   0.015  0.00  0.00     0.055 C 
ATOM      8  C   UNL d   1      -0.527   0.519   1.411  0.00  0.00     0.019 C 
ENDBRANCH   1   7
TORSDOF 1
ENDMDL
