MODEL 1
REMARK minimizedAffinity 7.59841681
REMARK minimizedRMSD -1
REMARK  1 active torsions:
REMARK  status: ('A' for Active; 'I' for Inactive)
REMARK    1  A    between atoms: C1_2  and  C2_3 
ROOT
ATOM      1  C2  UNL d   1       2.296   2.731  -5.918  0.00  0.00    -0.077 A 
ATOM      2  C3  UNL d   1       1.796   1.423  -5.998  0.00  0.00     0.002 A 
ATOM      3  C4  UNL d   1       0.419   1.192  -5.997  0.00  0.00     0.002 A 
ATOM      4  C5  UNL d   1      -0.469   2.262  -5.921  0.00  0.00    -0.004 A 
ATOM      5  C6  UNL d   1       0.018   3.566  -5.839  0.00  0.00     0.002 A 
ATOM      6  C7  UNL d   1       1.394   3.800  -5.839  0.00  0.00     0.002 A 
ENDROOT
BRANCH   1   7
ATOM      7  C1  UNL d   1       3.779   2.986  -5.968  0.00  0.00     0.055 C 
ATOM      8  C   UNL d   1       4.089   4.473  -5.873  0.00  0.00     0.019 C 
ENDBRANCH   1   7
TORSDOF 1
ENDMDL
