MODEL 1
REMARK minimizedAffinity -1.80073857
REMARK minimizedRMSD -1
REMARK  1 active torsions:
REMARK  status: ('A' for Active; 'I' for Inactive)
REMARK    1  A    between atoms: C1_2  and  C2_3 
ROOT
ATOM      1  C2  UNL d   1      -0.685   3.422  -5.999  0.00  0.00    -0.077 A 
ATOM      2  C3  UNL d   1      -0.323   4.776  -5.999  0.00  0.00     0.002 A 
ATOM      3  C4  UNL d   1      -1.304   5.770  -5.999  0.00  0.00     0.002 A 
ATOM      4  C5  UNL d   1      -2.653   5.419  -5.993  0.00  0.00    -0.004 A 
ATOM      5  C6  UNL d   1      -3.023   4.075  -5.994  0.00  0.00     0.002 A 
ATOM      6  C7  UNL d   1      -2.043   3.081  -5.996  0.00  0.00     0.002 A 
ENDROOT
BRANCH   1   7
ATOM      7  C1  UNL d   1       0.372   2.349  -5.950  0.00  0.00     0.055 C 
ATOM      8  C   UNL d   1       1.770   2.948  -5.978  0.00  0.00     0.019 C 
ENDBRANCH   1   7
TORSDOF 1
ENDMDL
