MODEL 1
REMARK minimizedAffinity -2.10082054
REMARK minimizedRMSD -1
REMARK  1 active torsions:
REMARK  status: ('A' for Active; 'I' for Inactive)
REMARK    1  A    between atoms: C1_2  and  C2_3 
ROOT
ATOM      1  C2  UNL d   1      -1.160   4.174  -5.954  0.00  0.00    -0.077 A 
ATOM      2  C3  UNL d   1      -2.117   3.149  -5.965  0.00  0.00     0.002 A 
ATOM      3  C4  UNL d   1      -3.479   3.455  -5.974  0.00  0.00     0.002 A 
ATOM      4  C5  UNL d   1      -3.897   4.784  -5.977  0.00  0.00    -0.004 A 
ATOM      5  C6  UNL d   1      -2.953   5.811  -5.965  0.00  0.00     0.002 A 
ATOM      6  C7  UNL d   1      -1.591   5.507  -5.954  0.00  0.00     0.002 A 
ENDROOT
BRANCH   1   7
ATOM      7  C1  UNL d   1       0.310   3.847  -5.994  0.00  0.00     0.055 C 
ATOM      8  C   UNL d   1       0.580   2.449  -5.455  0.00  0.00     0.019 C 
ENDBRANCH   1   7
TORSDOF 1
ENDMDL
