MODEL 1
REMARK minimizedAffinity -1.32524943
REMARK minimizedRMSD -1
REMARK  1 active torsions:
REMARK  status: ('A' for Active; 'I' for Inactive)
REMARK    1  A    between atoms: C1_2  and  C2_3 
ROOT
ATOM      1  C2  UNL d   1      -0.828   3.042  -5.940  0.00  0.00    -0.077 A 
ATOM      2  C3  UNL d   1      -2.209   2.806  -5.997  0.00  0.00     0.002 A 
ATOM      3  C4  UNL d   1      -3.108   3.875  -5.992  0.00  0.00     0.002 A 
ATOM      4  C5  UNL d   1      -2.637   5.184  -5.933  0.00  0.00    -0.004 A 
ATOM      5  C6  UNL d   1      -1.265   5.428  -5.874  0.00  0.00     0.002 A 
ATOM      6  C7  UNL d   1      -0.365   4.362  -5.878  0.00  0.00     0.002 A 
ENDROOT
BRANCH   1   7
ATOM      7  C1  UNL d   1       0.145   1.893  -5.995  0.00  0.00     0.055 C 
ATOM      8  C   UNL d   1       1.584   2.386  -5.990  0.00  0.00     0.019 C 
ENDBRANCH   1   7
TORSDOF 1
ENDMDL
