MODEL 1
REMARK minimizedAffinity 0.312779188
REMARK minimizedRMSD -1
REMARK  1 active torsions:
REMARK  status: ('A' for Active; 'I' for Inactive)
REMARK    1  A    between atoms: C1_2  and  C2_3 
ROOT
ATOM      1  C2  UNL d   1      -1.623   3.485  -5.946  0.00  0.00    -0.077 A 
ATOM      2  C3  UNL d   1      -3.017   3.350  -5.889  0.00  0.00     0.002 A 
ATOM      3  C4  UNL d   1      -3.837   4.480  -5.885  0.00  0.00     0.002 A 
ATOM      4  C5  UNL d   1      -3.273   5.752  -5.942  0.00  0.00    -0.004 A 
ATOM      5  C6  UNL d   1      -1.887   5.898  -5.997  0.00  0.00     0.002 A 
ATOM      6  C7  UNL d   1      -1.066   4.769  -5.999  0.00  0.00     0.002 A 
ENDROOT
BRANCH   1   7
ATOM      7  C1  UNL d   1      -0.739   2.267  -6.000  0.00  0.00     0.055 C 
ATOM      8  C   UNL d   1       0.734   2.651  -6.000  0.00  0.00     0.019 C 
ENDBRANCH   1   7
TORSDOF 1
ENDMDL
