MODEL 1
REMARK minimizedAffinity 0.527685165
REMARK minimizedRMSD -1
REMARK  1 active torsions:
REMARK  status: ('A' for Active; 'I' for Inactive)
REMARK    1  A    between atoms: C1_2  and  C2_3 
ROOT
ATOM      1  C2  UNL d   1      -1.955   3.707  -5.992  0.00  0.00    -0.077 A 
ATOM      2  C3  UNL d   1      -0.626   3.260  -5.994  0.00  0.00     0.002 A 
ATOM      3  C4  UNL d   1       0.427   4.176  -5.999  0.00  0.00     0.002 A 
ATOM      4  C5  UNL d   1       0.163   5.544  -5.997  0.00  0.00    -0.004 A 
ATOM      5  C6  UNL d   1      -1.155   5.999  -5.998  0.00  0.00     0.002 A 
ATOM      6  C7  UNL d   1      -2.209   5.084  -5.994  0.00  0.00     0.002 A 
ENDROOT
BRANCH   1   7
ATOM      7  C1  UNL d   1      -3.092   2.720  -5.938  0.00  0.00     0.055 C 
ATOM      8  C   UNL d   1      -4.437   3.429  -5.874  0.00  0.00     0.019 C 
ENDBRANCH   1   7
TORSDOF 1
ENDMDL
