MODEL 1
REMARK minimizedAffinity -2.99753237
REMARK minimizedRMSD -1
REMARK  1 active torsions:
REMARK  status: ('A' for Active; 'I' for Inactive)
REMARK    1  A    between atoms: C1_2  and  C2_3 
ROOT
ATOM      1  C2  UNL d   1      -1.394   3.715  -5.278  0.00  0.00    -0.077 A 
ATOM      2  C3  UNL d   1      -2.644   3.384  -5.820  0.00  0.00     0.002 A 
ATOM      3  C4  UNL d   1      -3.819   3.771  -5.173  0.00  0.00     0.002 A 
ATOM      4  C5  UNL d   1      -3.756   4.495  -3.984  0.00  0.00    -0.004 A 
ATOM      5  C6  UNL d   1      -2.518   4.827  -3.436  0.00  0.00     0.002 A 
ATOM      6  C7  UNL d   1      -1.342   4.440  -4.081  0.00  0.00     0.002 A 
ENDROOT
BRANCH   1   7
ATOM      7  C1  UNL d   1      -0.126   3.341  -6.000  0.00  0.00     0.055 C 
ATOM      8  C   UNL d   1       0.871   4.492  -6.000  0.00  0.00     0.019 C 
ENDBRANCH   1   7
TORSDOF 1
ENDMDL
