MODEL 1
REMARK minimizedAffinity -1.16663289
REMARK minimizedRMSD -1
REMARK  1 active torsions:
REMARK  status: ('A' for Active; 'I' for Inactive)
REMARK    1  A    between atoms: C1_2  and  C2_3 
ROOT
ATOM      1  C2  UNL d   1      -0.906   4.533  -5.930  0.00  0.00    -0.077 A 
ATOM      2  C3  UNL d   1      -1.497   5.805  -5.932  0.00  0.00     0.002 A 
ATOM      3  C4  UNL d   1      -2.886   5.938  -5.969  0.00  0.00     0.002 A 
ATOM      4  C5  UNL d   1      -3.696   4.805  -6.000  0.00  0.00    -0.004 A 
ATOM      5  C6  UNL d   1      -3.118   3.536  -6.000  0.00  0.00     0.002 A 
ATOM      6  C7  UNL d   1      -1.730   3.401  -5.964  0.00  0.00     0.002 A 
ENDROOT
BRANCH   1   7
ATOM      7  C1  UNL d   1       0.591   4.387  -5.840  0.00  0.00     0.055 C 
ATOM      8  C   UNL d   1       1.289   5.729  -5.999  0.00  0.00     0.019 C 
ENDBRANCH   1   7
TORSDOF 1
ENDMDL
