MODEL 1
REMARK minimizedAffinity 15.4927454
REMARK minimizedRMSD -1
REMARK  2 active torsions:
REMARK  status: ('A' for Active; 'I' for Inactive)
REMARK    1  A    between atoms: C2'_3  and  C1'_4 
REMARK    2  A    between atoms: C1'_4  and  C1_5 
ROOT
ATOM      1  C1  I4B d   1       3.351  -0.761   2.263  0.00  0.00    -0.075 A 
ATOM      2  C2  I4B d   1       2.477  -0.223   3.174  0.00  0.00     0.003 A 
ATOM      3  C3  I4B d   1       2.040   1.117   3.037  0.00  0.00     0.002 A 
ATOM      4  C4  I4B d   1       2.538   1.893   2.011  0.00  0.00    -0.004 A 
ATOM      5  C5  I4B d   1       3.407   1.338   1.075  0.00  0.00     0.002 A 
ATOM      6  C6  I4B d   1       3.806  -0.001   1.194  0.00  0.00     0.003 A 
ENDROOT
BRANCH   1   7
ATOM      7  C1' I4B d   1       3.817  -2.169   2.457  0.00  0.00     0.060 C 
BRANCH   7   8
ATOM      8  C2' I4B d   1       5.300  -2.132   2.766  0.00  0.00    -0.013 C 
ATOM      9  C4' I4B d   1       5.571  -2.556   4.186  0.00  0.00     0.013 C 
ATOM     10  C3' I4B d   1       6.000  -3.029   1.790  0.00  0.00     0.013 C 
ENDBRANCH   7   8
ENDBRANCH   1   7
TORSDOF 2
ENDMDL
