MODEL 1
REMARK minimizedAffinity 6.61591482
REMARK minimizedRMSD -1
REMARK  2 active torsions:
REMARK  status: ('A' for Active; 'I' for Inactive)
REMARK    1  A    between atoms: C2'_3  and  C1'_4 
REMARK    2  A    between atoms: C1'_4  and  C1_5 
ROOT
ATOM      1  C1  I4B d   1       3.210   0.585   1.231  0.00  0.00    -0.075 A 
ATOM      2  C2  I4B d   1       3.054   0.791   2.579  0.00  0.00     0.003 A 
ATOM      3  C3  I4B d   1       1.953   1.540   3.062  0.00  0.00     0.002 A 
ATOM      4  C4  I4B d   1       1.068   2.103   2.166  0.00  0.00    -0.004 A 
ATOM      5  C5  I4B d   1       1.215   1.873   0.801  0.00  0.00     0.002 A 
ATOM      6  C6  I4B d   1       2.286   1.099   0.331  0.00  0.00     0.003 A 
ENDROOT
BRANCH   1   7
ATOM      7  C1' I4B d   1       4.401  -0.183   0.753  0.00  0.00     0.060 C 
BRANCH   7   8
ATOM      8  C2' I4B d   1       4.619  -1.345   1.701  0.00  0.00    -0.013 C 
ATOM      9  C4' I4B d   1       3.574  -2.411   1.506  0.00  0.00     0.013 C 
ATOM     10  C3' I4B d   1       5.997  -1.886   1.461  0.00  0.00     0.013 C 
ENDBRANCH   7   8
ENDBRANCH   1   7
TORSDOF 2
ENDMDL
