MODEL 1
REMARK minimizedAffinity 13.9955769
REMARK minimizedRMSD -1
REMARK  2 active torsions:
REMARK  status: ('A' for Active; 'I' for Inactive)
REMARK    1  A    between atoms: C2'_3  and  C1'_4 
REMARK    2  A    between atoms: C1'_4  and  C1_5 
ROOT
ATOM      1  C1  I4B d   1      -3.419   1.285  -2.672  0.00  0.00    -0.075 A 
ATOM      2  C2  I4B d   1      -4.478   1.673  -1.889  0.00  0.00     0.003 A 
ATOM      3  C3  I4B d   1      -5.508   2.480  -2.431  0.00  0.00     0.002 A 
ATOM      4  C4  I4B d   1      -5.414   2.914  -3.738  0.00  0.00    -0.004 A 
ATOM      5  C5  I4B d   1      -4.352   2.501  -4.537  0.00  0.00     0.002 A 
ATOM      6  C6  I4B d   1      -3.354   1.671  -4.005  0.00  0.00     0.003 A 
ENDROOT
BRANCH   1   7
ATOM      7  C1' I4B d   1      -2.333   0.461  -2.058  0.00  0.00     0.060 C 
BRANCH   7   8
ATOM      8  C2' I4B d   1      -2.382   0.667  -0.558  0.00  0.00    -0.013 C 
ATOM      9  C4' I4B d   1      -1.499  -0.322   0.157  0.00  0.00     0.013 C 
ATOM     10  C3' I4B d   1      -1.960   2.077  -0.270  0.00  0.00     0.013 C 
ENDBRANCH   7   8
ENDBRANCH   1   7
TORSDOF 2
ENDMDL
