MODEL 1
REMARK minimizedAffinity 6.96830177
REMARK minimizedRMSD -1
REMARK  2 active torsions:
REMARK  status: ('A' for Active; 'I' for Inactive)
REMARK    1  A    between atoms: C2'_3  and  C1'_4 
REMARK    2  A    between atoms: C1'_4  and  C1_5 
ROOT
ATOM      1  C1  I4B d   1       2.254   0.360   1.953  0.00  0.00    -0.075 A 
ATOM      2  C2  I4B d   1       2.755  -0.535   2.865  0.00  0.00     0.003 A 
ATOM      3  C3  I4B d   1       2.044  -1.723   3.162  0.00  0.00     0.002 A 
ATOM      4  C4  I4B d   1       0.820  -1.950   2.565  0.00  0.00    -0.004 A 
ATOM      5  C5  I4B d   1       0.325  -1.052   1.624  0.00  0.00     0.002 A 
ATOM      6  C6  I4B d   1       1.052   0.105   1.306  0.00  0.00     0.003 A 
ENDROOT
BRANCH   1   7
ATOM      7  C1' I4B d   1       3.015   1.621   1.688  0.00  0.00     0.060 C 
BRANCH   7   8
ATOM      8  C2' I4B d   1       2.192   2.473   0.744  0.00  0.00    -0.013 C 
ATOM      9  C4' I4B d   1       1.113   3.220   1.484  0.00  0.00     0.013 C 
ATOM     10  C3' I4B d   1       3.122   3.418   0.044  0.00  0.00     0.013 C 
ENDBRANCH   7   8
ENDBRANCH   1   7
TORSDOF 2
ENDMDL
