MODEL 1
REMARK minimizedAffinity 7.61279154
REMARK minimizedRMSD -1
REMARK  2 active torsions:
REMARK  status: ('A' for Active; 'I' for Inactive)
REMARK    1  A    between atoms: C2'_3  and  C1'_4 
REMARK    2  A    between atoms: C1'_4  and  C1_5 
ROOT
ATOM      1  C1  I4B d   1       2.208  -0.632   1.933  0.00  0.00    -0.075 A 
ATOM      2  C2  I4B d   1       2.808  -0.993   3.113  0.00  0.00     0.003 A 
ATOM      3  C3  I4B d   1       2.211  -1.970   3.946  0.00  0.00     0.002 A 
ATOM      4  C4  I4B d   1       0.998  -2.521   3.587  0.00  0.00    -0.004 A 
ATOM      5  C5  I4B d   1       0.403  -2.171   2.378  0.00  0.00     0.002 A 
ATOM      6  C6  I4B d   1       1.018  -1.230   1.540  0.00  0.00     0.003 A 
ENDROOT
BRANCH   1   7
ATOM      7  C1' I4B d   1       2.849   0.427   1.093  0.00  0.00     0.060 C 
BRANCH   7   8
ATOM      8  C2' I4B d   1       2.194   1.751   1.432  0.00  0.00    -0.013 C 
ATOM      9  C4' I4B d   1       2.619   2.236   2.793  0.00  0.00     0.013 C 
ATOM     10  C3' I4B d   1       2.564   2.737   0.366  0.00  0.00     0.013 C 
ENDBRANCH   7   8
ENDBRANCH   1   7
TORSDOF 2
ENDMDL
