MODEL 1
REMARK minimizedAffinity 7.77936459
REMARK minimizedRMSD -1
REMARK  2 active torsions:
REMARK  status: ('A' for Active; 'I' for Inactive)
REMARK    1  A    between atoms: C2'_3  and  C1'_4 
REMARK    2  A    between atoms: C1'_4  and  C1_5 
ROOT
ATOM      1  C1  I4B d   1       2.052  -3.377   1.478  0.00  0.00    -0.075 A 
ATOM      2  C2  I4B d   1       1.990  -2.950   2.781  0.00  0.00     0.003 A 
ATOM      3  C3  I4B d   1       1.884  -1.569   3.075  0.00  0.00     0.002 A 
ATOM      4  C4  I4B d   1       1.893  -0.653   2.043  0.00  0.00    -0.004 A 
ATOM      5  C5  I4B d   1       1.932  -1.088   0.722  0.00  0.00     0.002 A 
ATOM      6  C6  I4B d   1       2.000  -2.460   0.437  0.00  0.00     0.003 A 
ENDROOT
BRANCH   1   7
ATOM      7  C1' I4B d   1       2.198  -4.841   1.205  0.00  0.00     0.060 C 
BRANCH   7   8
ATOM      8  C2' I4B d   1       1.210  -5.213   0.118  0.00  0.00    -0.013 C 
ATOM      9  C4' I4B d   1       1.877  -6.000  -0.979  0.00  0.00     0.013 C 
ATOM     10  C3' I4B d   1       0.101  -6.000   0.751  0.00  0.00     0.013 C 
ENDBRANCH   7   8
ENDBRANCH   1   7
TORSDOF 2
ENDMDL
