MODEL 1
REMARK minimizedAffinity -3.11249423
REMARK minimizedRMSD -1
REMARK  0 active torsions:
REMARK  status: ('A' for Active; 'I' for Inactive)
ROOT
ATOM      1  C   UNL d   1      -0.218  -1.924   1.398  0.00  0.00     0.023 A 
ATOM      2  C1  UNL d   1       1.113  -1.512   1.337  0.00  0.00     0.003 A 
ATOM      3  C2  UNL d   1       1.491  -0.493   0.460  0.00  0.00     0.048 A 
ATOM      4  C3  UNL d   1       0.532   0.110  -0.353  0.00  0.00     0.023 A 
ATOM      5  C4  UNL d   1      -0.802  -0.299  -0.295  0.00  0.00     0.048 A 
ATOM      6  C5  UNL d   1      -1.174  -1.318   0.582  0.00  0.00     0.003 A 
ATOM      7  I   UNL d   1       1.091   1.626  -1.659  0.00  0.00    -0.146 I 
ENDROOT
TORSDOF 0
ENDMDL
