MODEL 1
REMARK minimizedAffinity -2.8447454
REMARK minimizedRMSD -1
REMARK  0 active torsions:
REMARK  status: ('A' for Active; 'I' for Inactive)
ROOT
ATOM      1  C   UNL d   1      -0.468  -2.693   0.930  0.00  0.00     0.023 A 
ATOM      2  C1  UNL d   1      -1.432  -2.105   0.110  0.00  0.00     0.003 A 
ATOM      3  C2  UNL d   1      -1.137  -0.930  -0.585  0.00  0.00     0.048 A 
ATOM      4  C3  UNL d   1       0.124  -0.349  -0.456  0.00  0.00     0.023 A 
ATOM      5  C4  UNL d   1       1.092  -0.934   0.362  0.00  0.00     0.048 A 
ATOM      6  C5  UNL d   1       0.792  -2.108   1.055  0.00  0.00     0.003 A 
ATOM      7  I   UNL d   1       0.566   1.400  -1.490  0.00  0.00    -0.146 I 
ENDROOT
TORSDOF 0
ENDMDL
