MODEL 1
REMARK minimizedAffinity -4.60055923
REMARK minimizedRMSD -1
REMARK  0 active torsions:
REMARK  status: ('A' for Active; 'I' for Inactive)
ROOT
ATOM      1  C   UNL d   1      -2.428  -1.958   1.866  0.00  0.00     0.023 A 
ATOM      2  C1  UNL d   1      -2.533  -0.570   1.770  0.00  0.00     0.003 A 
ATOM      3  C2  UNL d   1      -1.641   0.144   0.968  0.00  0.00     0.048 A 
ATOM      4  C3  UNL d   1      -0.647  -0.535   0.265  0.00  0.00     0.023 A 
ATOM      5  C4  UNL d   1      -0.538  -1.923   0.358  0.00  0.00     0.048 A 
ATOM      6  C5  UNL d   1      -1.432  -2.634   1.162  0.00  0.00     0.003 A 
ATOM      7  I   UNL d   1       0.683   0.527  -0.929  0.00  0.00    -0.146 I 
ENDROOT
TORSDOF 0
ENDMDL
