MODEL 1
REMARK minimizedAffinity -1.4932102
REMARK minimizedRMSD -1
REMARK  0 active torsions:
REMARK  status: ('A' for Active; 'I' for Inactive)
ROOT
ATOM      1  C   UNL d   1      -1.104  -2.655   1.069  0.00  0.00     0.023 A 
ATOM      2  C1  UNL d   1      -1.772  -1.442   1.241  0.00  0.00     0.003 A 
ATOM      3  C2  UNL d   1      -1.216  -0.262   0.745  0.00  0.00     0.048 A 
ATOM      4  C3  UNL d   1       0.008  -0.301   0.077  0.00  0.00     0.023 A 
ATOM      5  C4  UNL d   1       0.679  -1.512  -0.098  0.00  0.00     0.048 A 
ATOM      6  C5  UNL d   1       0.119  -2.690   0.401  0.00  0.00     0.003 A 
ATOM      7  I   UNL d   1       0.837   1.456  -0.662  0.00  0.00    -0.146 I 
ENDROOT
TORSDOF 0
ENDMDL
