MODEL 1
REMARK minimizedAffinity -1.88097656
REMARK minimizedRMSD -1
REMARK  0 active torsions:
REMARK  status: ('A' for Active; 'I' for Inactive)
ROOT
ATOM      1  C   UNL d   1      -0.099  -1.472   0.836  0.00  0.00     0.023 A 
ATOM      2  C1  UNL d   1      -1.145  -0.657   0.403  0.00  0.00     0.003 A 
ATOM      3  C2  UNL d   1      -0.893   0.393  -0.482  0.00  0.00     0.048 A 
ATOM      4  C3  UNL d   1       0.407   0.623  -0.930  0.00  0.00     0.023 A 
ATOM      5  C4  UNL d   1       1.457  -0.190  -0.500  0.00  0.00     0.048 A 
ATOM      6  C5  UNL d   1       1.201  -1.239   0.385  0.00  0.00     0.003 A 
ATOM      7  I   UNL d   1       0.784   2.186  -2.247  0.00  0.00    -0.146 I 
ENDROOT
TORSDOF 0
ENDMDL
