MODEL 1
REMARK minimizedAffinity -2.79406333
REMARK minimizedRMSD -1
REMARK  0 active torsions:
REMARK  status: ('A' for Active; 'I' for Inactive)
ROOT
ATOM      1  C   UNL d   1      -1.540  -2.267   1.172  0.00  0.00     0.023 A 
ATOM      2  C1  UNL d   1      -0.148  -2.226   1.244  0.00  0.00     0.003 A 
ATOM      3  C2  UNL d   1       0.557  -1.216   0.585  0.00  0.00     0.048 A 
ATOM      4  C3  UNL d   1      -0.138  -0.250  -0.143  0.00  0.00     0.023 A 
ATOM      5  C4  UNL d   1      -1.531  -0.287  -0.216  0.00  0.00     0.048 A 
ATOM      6  C5  UNL d   1      -2.231  -1.299   0.443  0.00  0.00     0.003 A 
ATOM      7  I   UNL d   1       0.908   1.254  -1.124  0.00  0.00    -0.146 I 
ENDROOT
TORSDOF 0
ENDMDL
