MODEL 1
REMARK minimizedAffinity -4.35380697
REMARK minimizedRMSD -1
REMARK  0 active torsions:
REMARK  status: ('A' for Active; 'I' for Inactive)
ROOT
ATOM      1  C   UNL d   1      -2.207  -2.109   1.321  0.00  0.00     0.023 A 
ATOM      2  C1  UNL d   1      -1.165  -2.648   0.566  0.00  0.00     0.003 A 
ATOM      3  C2  UNL d   1      -0.250  -1.804  -0.065  0.00  0.00     0.048 A 
ATOM      4  C3  UNL d   1      -0.382  -0.421   0.063  0.00  0.00     0.023 A 
ATOM      5  C4  UNL d   1      -1.423   0.122   0.818  0.00  0.00     0.048 A 
ATOM      6  C5  UNL d   1      -2.336  -0.726   1.447  0.00  0.00     0.003 A 
ATOM      7  I   UNL d   1       0.979   0.838  -0.876  0.00  0.00    -0.146 I 
ENDROOT
TORSDOF 0
ENDMDL
