MODEL 1
REMARK minimizedAffinity -4.43244982
REMARK minimizedRMSD -1
REMARK  0 active torsions:
REMARK  status: ('A' for Active; 'I' for Inactive)
ROOT
ATOM      1  C   UNL d   1       1.294  -1.103  -0.333  0.00  0.00     0.023 A 
ATOM      2  C1  UNL d   1       0.724   0.162  -0.190  0.00  0.00     0.003 A 
ATOM      3  C2  UNL d   1      -0.530   0.299   0.409  0.00  0.00     0.048 A 
ATOM      4  C3  UNL d   1      -1.207  -0.832   0.864  0.00  0.00     0.023 A 
ATOM      5  C4  UNL d   1      -0.640  -2.099   0.723  0.00  0.00     0.048 A 
ATOM      6  C5  UNL d   1       0.614  -2.232   0.122  0.00  0.00     0.003 A 
ATOM      7  I   UNL d   1      -3.074  -0.630   1.756  0.00  0.00    -0.146 I 
ENDROOT
TORSDOF 0
ENDMDL
