MODEL 1
REMARK minimizedAffinity -3.18608618
REMARK minimizedRMSD -1
REMARK  0 active torsions:
REMARK  status: ('A' for Active; 'I' for Inactive)
ROOT
ATOM      1  C   UNL d   1      -0.470  -2.368   1.212  0.00  0.00     0.023 A 
ATOM      2  C1  UNL d   1      -1.408  -1.560   0.569  0.00  0.00     0.003 A 
ATOM      3  C2  UNL d   1      -0.988  -0.455  -0.175  0.00  0.00     0.048 A 
ATOM      4  C3  UNL d   1       0.372  -0.165  -0.272  0.00  0.00     0.023 A 
ATOM      5  C4  UNL d   1       1.315  -0.970   0.368  0.00  0.00     0.048 A 
ATOM      6  C5  UNL d   1       0.890  -2.073   1.112  0.00  0.00     0.003 A 
ATOM      7  I   UNL d   1       1.000   1.479  -1.379  0.00  0.00    -0.146 I 
ENDROOT
TORSDOF 0
ENDMDL
