MODEL 1
REMARK minimizedAffinity -4.08872032
REMARK minimizedRMSD -1
REMARK  0 active torsions:
REMARK  status: ('A' for Active; 'I' for Inactive)
ROOT
ATOM      1  C   UNL d   1      -0.691  -2.377   1.227  0.00  0.00     0.023 A 
ATOM      2  C1  UNL d   1       0.662  -2.161   0.969  0.00  0.00     0.003 A 
ATOM      3  C2  UNL d   1       1.075  -0.982   0.343  0.00  0.00     0.048 A 
ATOM      4  C3  UNL d   1       0.130  -0.024  -0.020  0.00  0.00     0.023 A 
ATOM      5  C4  UNL d   1      -1.226  -0.236   0.237  0.00  0.00     0.048 A 
ATOM      6  C5  UNL d   1      -1.634  -1.416   0.862  0.00  0.00     0.003 A 
ATOM      7  I   UNL d   1       0.742   1.731  -0.950  0.00  0.00    -0.146 I 
ENDROOT
TORSDOF 0
ENDMDL
