MODEL 1
REMARK minimizedAffinity -3.39465737
REMARK minimizedRMSD -1
REMARK  1 active torsions:
REMARK  status: ('A' for Active; 'I' for Inactive)
REMARK    1  A    between atoms: C3_4  and  O_7 
ROOT
ATOM      1  C   UNL d   1       0.226  -0.507  -1.085  0.00  0.00    -0.033 A 
ATOM      2  C1  UNL d   1       1.264   0.218  -0.497  0.00  0.00     0.039 A 
ATOM      3  C2  UNL d   1       1.205   0.551   0.857  0.00  0.00    -0.080 A 
ATOM      4  C3  UNL d   1       0.104   0.154   1.611  0.00  0.00     0.150 A 
ATOM      5  C4  UNL d   1      -0.932  -0.571   1.033  0.00  0.00    -0.007 A 
ATOM      6  C5  UNL d   1      -0.872  -0.903  -0.320  0.00  0.00     0.039 A 
ENDROOT
BRANCH   4   7
ATOM      7  O   UNL d   1      -0.001   0.461   2.936  0.00  0.00    -0.526 OA
ATOM      8  H5  UNL d   1       0.774   0.989   3.191  0.00  0.00     0.418 HD
ENDBRANCH   4   7
TORSDOF 1
ENDMDL
