MODEL 1
REMARK minimizedAffinity -5.2050333
REMARK minimizedRMSD -1
REMARK  1 active torsions:
REMARK  status: ('A' for Active; 'I' for Inactive)
REMARK    1  A    between atoms: C3_4  and  O_7 
ROOT
ATOM      1  C   UNL d   1      -1.711  -0.351   3.271  0.00  0.00    -0.033 A 
ATOM      2  C1  UNL d   1      -0.327  -0.359   3.086  0.00  0.00     0.039 A 
ATOM      3  C2  UNL d   1       0.208  -0.250   1.800  0.00  0.00    -0.080 A 
ATOM      4  C3  UNL d   1      -0.651  -0.133   0.711  0.00  0.00     0.150 A 
ATOM      5  C4  UNL d   1      -2.031  -0.120   0.889  0.00  0.00    -0.007 A 
ATOM      6  C5  UNL d   1      -2.562  -0.230   2.173  0.00  0.00     0.039 A 
ENDROOT
BRANCH   4   7
ATOM      7  O   UNL d   1      -0.176  -0.028  -0.563  0.00  0.00    -0.526 OA
ATOM      8  H5  UNL d   1       0.794  -0.080  -0.535  0.00  0.00     0.418 HD
ENDBRANCH   4   7
TORSDOF 1
ENDMDL
