MODEL 1
REMARK minimizedAffinity 0.274058968
REMARK minimizedRMSD -1
REMARK  1 active torsions:
REMARK  status: ('A' for Active; 'I' for Inactive)
REMARK    1  A    between atoms: C3_4  and  O_7 
ROOT
ATOM      1  C   UNL d   1       1.750  -2.118  -4.194  0.00  0.00    -0.033 A 
ATOM      2  C1  UNL d   1       0.370  -2.016  -4.011  0.00  0.00     0.039 A 
ATOM      3  C2  UNL d   1      -0.156  -1.006  -3.203  0.00  0.00    -0.080 A 
ATOM      4  C3  UNL d   1       0.707  -0.106  -2.585  0.00  0.00     0.150 A 
ATOM      5  C4  UNL d   1       2.083  -0.199  -2.766  0.00  0.00    -0.007 A 
ATOM      6  C5  UNL d   1       2.607  -1.208  -3.573  0.00  0.00     0.039 A 
ENDROOT
BRANCH   4   7
ATOM      7  O   UNL d   1       0.241   0.894  -1.783  0.00  0.00    -0.526 OA
ATOM      8  H5  UNL d   1      -0.726   0.817  -1.728  0.00  0.00     0.418 HD
ENDBRANCH   4   7
TORSDOF 1
ENDMDL
