MODEL 1
REMARK minimizedAffinity -5.51006794
REMARK minimizedRMSD -1
REMARK  1 active torsions:
REMARK  status: ('A' for Active; 'I' for Inactive)
REMARK    1  A    between atoms: C3_4  and  O_7 
ROOT
ATOM      1  C   UNL d   1       0.448   0.598  -0.059  0.00  0.00    -0.033 A 
ATOM      2  C1  UNL d   1       1.244   0.867   1.057  0.00  0.00     0.039 A 
ATOM      3  C2  UNL d   1       0.952   0.269   2.284  0.00  0.00    -0.080 A 
ATOM      4  C3  UNL d   1      -0.136  -0.594   2.382  0.00  0.00     0.150 A 
ATOM      5  C4  UNL d   1      -0.930  -0.869   1.274  0.00  0.00    -0.007 A 
ATOM      6  C5  UNL d   1      -0.638  -0.271   0.049  0.00  0.00     0.039 A 
ENDROOT
BRANCH   4   7
ATOM      7  O   UNL d   1      -0.463  -1.197   3.560  0.00  0.00    -0.526 OA
ATOM      8  H5  UNL d   1       0.155  -0.891   4.245  0.00  0.00     0.418 HD
ENDBRANCH   4   7
TORSDOF 1
ENDMDL
