MODEL 1
REMARK minimizedAffinity 2.47585845
REMARK minimizedRMSD -1
REMARK  1 active torsions:
REMARK  status: ('A' for Active; 'I' for Inactive)
REMARK    1  A    between atoms: C3_4  and  O_7 
ROOT
ATOM      1  C   UNL d   1       2.287  -0.815  -4.160  0.00  0.00    -0.033 A 
ATOM      2  C1  UNL d   1       3.439  -1.342  -4.748  0.00  0.00     0.039 A 
ATOM      3  C2  UNL d   1       4.460  -0.491  -5.174  0.00  0.00    -0.080 A 
ATOM      4  C3  UNL d   1       4.318   0.884  -5.006  0.00  0.00     0.150 A 
ATOM      5  C4  UNL d   1       3.176   1.416  -4.417  0.00  0.00    -0.007 A 
ATOM      6  C5  UNL d   1       2.157   0.564  -3.993  0.00  0.00     0.039 A 
ENDROOT
BRANCH   4   7
ATOM      7  O   UNL d   1       5.286   1.754  -5.410  0.00  0.00    -0.526 OA
ATOM      8  H5  UNL d   1       6.003   1.246  -5.824  0.00  0.00     0.418 HD
ENDBRANCH   4   7
TORSDOF 1
ENDMDL
