MODEL 1
REMARK minimizedAffinity -4.11659431
REMARK minimizedRMSD -1
REMARK  1 active torsions:
REMARK  status: ('A' for Active; 'I' for Inactive)
REMARK    1  A    between atoms: C3_4  and  O_7 
ROOT
ATOM      1  C   UNL d   1      -0.085   0.088  -0.569  0.00  0.00    -0.033 A 
ATOM      2  C1  UNL d   1       1.036   0.399   0.202  0.00  0.00     0.039 A 
ATOM      3  C2  UNL d   1       1.047   0.115   1.569  0.00  0.00    -0.080 A 
ATOM      4  C3  UNL d   1      -0.068  -0.482   2.151  0.00  0.00     0.150 A 
ATOM      5  C4  UNL d   1      -1.187  -0.799   1.388  0.00  0.00    -0.007 A 
ATOM      6  C5  UNL d   1      -1.196  -0.513   0.023  0.00  0.00     0.039 A 
ENDROOT
BRANCH   4   7
ATOM      7  O   UNL d   1      -0.106  -0.775   3.482  0.00  0.00    -0.526 OA
ATOM      8  H5  UNL d   1       0.724  -0.474   3.887  0.00  0.00     0.418 HD
ENDBRANCH   4   7
TORSDOF 1
ENDMDL
