MODEL 1
REMARK minimizedAffinity -3.19996738
REMARK minimizedRMSD -1
REMARK  1 active torsions:
REMARK  status: ('A' for Active; 'I' for Inactive)
REMARK    1  A    between atoms: C3_4  and  O_7 
ROOT
ATOM      1  C   UNL d   1       1.544   0.365   1.246  0.00  0.00    -0.033 A 
ATOM      2  C1  UNL d   1       0.898   0.511   2.476  0.00  0.00     0.039 A 
ATOM      3  C2  UNL d   1      -0.485   0.695   2.523  0.00  0.00    -0.080 A 
ATOM      4  C3  UNL d   1      -1.210   0.728   1.335  0.00  0.00     0.150 A 
ATOM      5  C4  UNL d   1      -0.574   0.579   0.107  0.00  0.00    -0.007 A 
ATOM      6  C5  UNL d   1       0.807   0.398   0.062  0.00  0.00     0.039 A 
ENDROOT
BRANCH   4   7
ATOM      7  O   UNL d   1      -2.562   0.910   1.330  0.00  0.00    -0.526 OA
ATOM      8  H5  UNL d   1      -2.860   1.027   2.248  0.00  0.00     0.418 HD
ENDBRANCH   4   7
TORSDOF 1
ENDMDL
