MODEL 1
REMARK minimizedAffinity -0.668415129
REMARK minimizedRMSD -1
REMARK  1 active torsions:
REMARK  status: ('A' for Active; 'I' for Inactive)
REMARK    1  A    between atoms: C3_4  and  O_7 
ROOT
ATOM      1  C   UNL d   1      -1.780  -0.224   0.011  0.00  0.00    -0.033 A 
ATOM      2  C1  UNL d   1      -0.943   0.187  -1.029  0.00  0.00     0.039 A 
ATOM      3  C2  UNL d   1       0.417   0.396  -0.792  0.00  0.00    -0.080 A 
ATOM      4  C3  UNL d   1       0.927   0.189   0.487  0.00  0.00     0.150 A 
ATOM      5  C4  UNL d   1       0.100  -0.224   1.526  0.00  0.00    -0.007 A 
ATOM      6  C5  UNL d   1      -1.258  -0.431   1.288  0.00  0.00     0.039 A 
ENDROOT
BRANCH   4   7
ATOM      7  O   UNL d   1       2.247   0.384   0.768  0.00  0.00    -0.526 OA
ATOM      8  H5  UNL d   1       2.690   0.696  -0.039  0.00  0.00     0.418 HD
ENDBRANCH   4   7
TORSDOF 1
ENDMDL
