MODEL 1
REMARK minimizedAffinity -4.2341733
REMARK minimizedRMSD -1
REMARK  1 active torsions:
REMARK  status: ('A' for Active; 'I' for Inactive)
REMARK    1  A    between atoms: C3_4  and  O_7 
ROOT
ATOM      1  C   UNL d   1       0.717   0.148   0.276  0.00  0.00    -0.033 A 
ATOM      2  C1  UNL d   1       1.319   0.529   1.477  0.00  0.00     0.039 A 
ATOM      3  C2  UNL d   1       0.728   0.186   2.695  0.00  0.00    -0.080 A 
ATOM      4  C3  UNL d   1      -0.461  -0.537   2.698  0.00  0.00     0.150 A 
ATOM      5  C4  UNL d   1      -1.064  -0.923   1.506  0.00  0.00    -0.007 A 
ATOM      6  C5  UNL d   1      -0.474  -0.579   0.290  0.00  0.00     0.039 A 
ENDROOT
BRANCH   4   7
ATOM      7  O   UNL d   1      -1.078  -0.890   3.862  0.00  0.00    -0.526 OA
ATOM      8  H5  UNL d   1      -0.563  -0.531   4.604  0.00  0.00     0.418 HD
ENDBRANCH   4   7
TORSDOF 1
ENDMDL
