MODEL 1
REMARK minimizedAffinity -0.869116545
REMARK minimizedRMSD -1
REMARK  1 active torsions:
REMARK  status: ('A' for Active; 'I' for Inactive)
REMARK    1  A    between atoms: C3_4  and  O_7 
ROOT
ATOM      1  C   UNL d   1       1.747  -2.134  -3.885  0.00  0.00    -0.033 A 
ATOM      2  C1  UNL d   1       0.365  -1.981  -3.756  0.00  0.00     0.039 A 
ATOM      3  C2  UNL d   1      -0.154  -0.931  -2.996  0.00  0.00    -0.080 A 
ATOM      4  C3  UNL d   1       0.717  -0.042  -2.373  0.00  0.00     0.150 A 
ATOM      5  C4  UNL d   1       2.094  -0.186  -2.501  0.00  0.00    -0.007 A 
ATOM      6  C5  UNL d   1       2.612  -1.236  -3.259  0.00  0.00     0.039 A 
ENDROOT
BRANCH   4   7
ATOM      7  O   UNL d   1       0.257   0.995  -1.617  0.00  0.00    -0.526 OA
ATOM      8  H5  UNL d   1      -0.714   0.953  -1.595  0.00  0.00     0.418 HD
ENDBRANCH   4   7
TORSDOF 1
ENDMDL
