MODEL 1
REMARK minimizedAffinity -5.22945595
REMARK minimizedRMSD -1
REMARK  1 active torsions:
REMARK  status: ('A' for Active; 'I' for Inactive)
REMARK    1  A    between atoms: C3_4  and  O_7 
ROOT
ATOM      1  C   UNL d   1       1.076  -0.458   2.655  0.00  0.00    -0.033 A 
ATOM      2  C1  UNL d   1      -0.197  -0.913   2.305  0.00  0.00     0.039 A 
ATOM      3  C2  UNL d   1      -0.722  -0.622   1.045  0.00  0.00    -0.080 A 
ATOM      4  C3  UNL d   1       0.035   0.123   0.145  0.00  0.00     0.150 A 
ATOM      5  C4  UNL d   1       1.306   0.576   0.485  0.00  0.00    -0.007 A 
ATOM      6  C5  UNL d   1       1.828   0.285   1.745  0.00  0.00     0.039 A 
ENDROOT
BRANCH   4   7
ATOM      7  O   UNL d   1      -0.437   0.436  -1.095  0.00  0.00    -0.526 OA
ATOM      8  H5  UNL d   1      -1.338   0.082  -1.180  0.00  0.00     0.418 HD
ENDBRANCH   4   7
TORSDOF 1
ENDMDL
