MODEL 1
REMARK minimizedAffinity -3.51256442
REMARK minimizedRMSD -1
REMARK  1 active torsions:
REMARK  status: ('A' for Active; 'I' for Inactive)
REMARK    1  A    between atoms: C3_4  and  O_7 
ROOT
ATOM      1  C   UNL d   1      -2.851  -0.245   2.312  0.00  0.00    -0.033 A 
ATOM      2  C1  UNL d   1      -2.553  -0.443   0.963  0.00  0.00     0.039 A 
ATOM      3  C2  UNL d   1      -1.226  -0.418   0.528  0.00  0.00    -0.080 A 
ATOM      4  C3  UNL d   1      -0.209  -0.194   1.452  0.00  0.00     0.150 A 
ATOM      5  C4  UNL d   1      -0.498   0.001   2.798  0.00  0.00    -0.007 A 
ATOM      6  C5  UNL d   1      -1.824  -0.024   3.230  0.00  0.00     0.039 A 
ENDROOT
BRANCH   4   7
ATOM      7  O   UNL d   1       1.101  -0.155   1.074  0.00  0.00    -0.526 OA
ATOM      8  H5  UNL d   1       1.147  -0.277   0.111  0.00  0.00     0.418 HD
ENDBRANCH   4   7
TORSDOF 1
ENDMDL
