MODEL 1
REMARK minimizedAffinity -4.29689407
REMARK minimizedRMSD -1
REMARK  1 active torsions:
REMARK  status: ('A' for Active; 'I' for Inactive)
REMARK    1  A    between atoms: C3_4  and  O_7 
ROOT
ATOM      1  C   UNL d   1      -0.047  -0.194   3.044  0.00  0.00    -0.033 A 
ATOM      2  C1  UNL d   1       1.151   0.402   2.646  0.00  0.00     0.039 A 
ATOM      3  C2  UNL d   1       1.403   0.631   1.291  0.00  0.00    -0.080 A 
ATOM      4  C3  UNL d   1       0.450   0.260   0.347  0.00  0.00     0.150 A 
ATOM      5  C4  UNL d   1      -0.747  -0.331   0.736  0.00  0.00    -0.007 A 
ATOM      6  C5  UNL d   1      -0.997  -0.559   2.089  0.00  0.00     0.039 A 
ENDROOT
BRANCH   4   7
ATOM      7  O   UNL d   1       0.654   0.458  -0.986  0.00  0.00    -0.526 OA
ATOM      8  H5  UNL d   1       1.536   0.848  -1.109  0.00  0.00     0.418 HD
ENDBRANCH   4   7
TORSDOF 1
ENDMDL
