MODEL 1
REMARK minimizedAffinity -2.54552245
REMARK minimizedRMSD -1
REMARK  1 active torsions:
REMARK  status: ('A' for Active; 'I' for Inactive)
REMARK    1  A    between atoms: C3_4  and  O_7 
ROOT
ATOM      1  C   UNL d   1       0.224   0.780   2.826  0.00  0.00    -0.033 A 
ATOM      2  C1  UNL d   1      -0.912   0.395   2.111  0.00  0.00     0.039 A 
ATOM      3  C2  UNL d   1      -0.820   0.126   0.744  0.00  0.00    -0.080 A 
ATOM      4  C3  UNL d   1       0.411   0.245   0.105  0.00  0.00     0.150 A 
ATOM      5  C4  UNL d   1       1.547   0.624   0.811  0.00  0.00    -0.007 A 
ATOM      6  C5  UNL d   1       1.454   0.894   2.176  0.00  0.00     0.039 A 
ENDROOT
BRANCH   4   7
ATOM      7  O   UNL d   1       0.548  -0.003  -1.229  0.00  0.00    -0.526 OA
ATOM      8  H5  UNL d   1      -0.325  -0.227  -1.592  0.00  0.00     0.418 HD
ENDBRANCH   4   7
TORSDOF 1
ENDMDL
