MODEL 1
REMARK minimizedAffinity -3.47099757
REMARK minimizedRMSD -1
REMARK  1 active torsions:
REMARK  status: ('A' for Active; 'I' for Inactive)
REMARK    1  A    between atoms: C3_4  and  O_7 
ROOT
ATOM      1  C   UNL d   1       1.727  -1.087  -3.614  0.00  0.00    -0.033 A 
ATOM      2  C1  UNL d   1       0.724  -1.927  -3.126  0.00  0.00     0.039 A 
ATOM      3  C2  UNL d   1      -0.092  -1.505  -2.075  0.00  0.00    -0.080 A 
ATOM      4  C3  UNL d   1       0.104  -0.243  -1.522  0.00  0.00     0.150 A 
ATOM      5  C4  UNL d   1       1.098   0.601  -2.006  0.00  0.00    -0.007 A 
ATOM      6  C5  UNL d   1       1.913   0.178  -3.055  0.00  0.00     0.039 A 
ENDROOT
BRANCH   4   7
ATOM      7  O   UNL d   1      -0.665   0.211  -0.491  0.00  0.00    -0.526 OA
ATOM      8  H5  UNL d   1      -1.291  -0.490  -0.242  0.00  0.00     0.418 HD
ENDBRANCH   4   7
TORSDOF 1
ENDMDL
