MODEL 1
REMARK minimizedAffinity -1.65010953
REMARK minimizedRMSD -1
REMARK  0 active torsions:
REMARK  status: ('A' for Active; 'I' for Inactive)
ROOT
ATOM      1  C1  BNZ d   1       0.732   5.002  -3.184  0.00  0.00     0.000 A 
ATOM      2  C2  BNZ d   1       0.253   4.356  -2.076  0.00  0.00     0.000 A 
ATOM      3  C3  BNZ d   1       0.132   2.995  -2.056  0.00  0.00     0.000 A 
ATOM      4  C4  BNZ d   1       0.452   2.285  -3.157  0.00  0.00     0.000 A 
ATOM      5  C5  BNZ d   1       0.928   2.922  -4.286  0.00  0.00     0.000 A 
ATOM      6  C6  BNZ d   1       1.085   4.289  -4.288  0.00  0.00     0.000 A 
ENDROOT
TORSDOF 0
ENDMDL
