MODEL 1
REMARK minimizedAffinity -0.0104428213
REMARK minimizedRMSD -1
REMARK  0 active torsions:
REMARK  status: ('A' for Active; 'I' for Inactive)
ROOT
ATOM      1  C1  BNZ d   1      -3.035   3.078  -4.310  0.00  0.00     0.000 A 
ATOM      2  C2  BNZ d   1      -3.230   1.791  -4.734  0.00  0.00     0.000 A 
ATOM      3  C3  BNZ d   1      -4.451   1.384  -5.195  0.00  0.00     0.000 A 
ATOM      4  C4  BNZ d   1      -5.483   2.251  -5.194  0.00  0.00     0.000 A 
ATOM      5  C5  BNZ d   1      -5.304   3.550  -4.761  0.00  0.00     0.000 A 
ATOM      6  C6  BNZ d   1      -4.064   3.967  -4.334  0.00  0.00     0.000 A 
ENDROOT
TORSDOF 0
ENDMDL
