MODEL 1
REMARK minimizedAffinity 2.29222298
REMARK minimizedRMSD -1
REMARK  0 active torsions:
REMARK  status: ('A' for Active; 'I' for Inactive)
ROOT
ATOM      1  C1  BNZ d   1       2.598   1.530  -0.568  0.00  0.00     0.000 A 
ATOM      2  C2  BNZ d   1       2.277   2.719  -1.165  0.00  0.00     0.000 A 
ATOM      3  C3  BNZ d   1       1.531   2.748  -2.310  0.00  0.00     0.000 A 
ATOM      4  C4  BNZ d   1       1.141   1.588  -2.877  0.00  0.00     0.000 A 
ATOM      5  C5  BNZ d   1       1.465   0.381  -2.292  0.00  0.00     0.000 A 
ATOM      6  C6  BNZ d   1       2.183   0.357  -1.118  0.00  0.00     0.000 A 
ENDROOT
TORSDOF 0
ENDMDL
