MODEL 1
REMARK minimizedAffinity -0.515520275
REMARK minimizedRMSD -1
REMARK  0 active torsions:
REMARK  status: ('A' for Active; 'I' for Inactive)
ROOT
ATOM      1  C1  BNZ d   1       2.361   2.656  -1.177  0.00  0.00     0.000 A 
ATOM      2  C2  BNZ d   1       1.856   3.439  -2.181  0.00  0.00     0.000 A 
ATOM      3  C3  BNZ d   1       1.426   2.883  -3.353  0.00  0.00     0.000 A 
ATOM      4  C4  BNZ d   1       1.539   1.552  -3.536  0.00  0.00     0.000 A 
ATOM      5  C5  BNZ d   1       2.055   0.750  -2.538  0.00  0.00     0.000 A 
ATOM      6  C6  BNZ d   1       2.450   1.308  -1.344  0.00  0.00     0.000 A 
ENDROOT
TORSDOF 0
ENDMDL
