MODEL 1
REMARK minimizedAffinity -0.689476848
REMARK minimizedRMSD -1
REMARK  0 active torsions:
REMARK  status: ('A' for Active; 'I' for Inactive)
ROOT
ATOM      1  C1  BNZ d   1       2.601  -1.181   1.879  0.00  0.00     0.000 A 
ATOM      2  C2  BNZ d   1       1.835  -1.135   3.013  0.00  0.00     0.000 A 
ATOM      3  C3  BNZ d   1       0.492  -1.381   2.961  0.00  0.00     0.000 A 
ATOM      4  C4  BNZ d   1      -0.090  -1.633   1.771  0.00  0.00     0.000 A 
ATOM      5  C5  BNZ d   1       0.667  -1.674   0.617  0.00  0.00     0.000 A 
ATOM      6  C6  BNZ d   1       2.025  -1.464   0.679  0.00  0.00     0.000 A 
ENDROOT
TORSDOF 0
ENDMDL
