MODEL 1
REMARK minimizedAffinity 5.52409935
REMARK minimizedRMSD -1
REMARK  0 active torsions:
REMARK  status: ('A' for Active; 'I' for Inactive)
ROOT
ATOM      1  C1  BNZ d   1       1.628   2.253  -2.550  0.00  0.00     0.000 A 
ATOM      2  C2  BNZ d   1       1.587   0.948  -2.963  0.00  0.00     0.000 A 
ATOM      3  C3  BNZ d   1       1.938  -0.066  -2.116  0.00  0.00     0.000 A 
ATOM      4  C4  BNZ d   1       2.367   0.229  -0.872  0.00  0.00     0.000 A 
ATOM      5  C5  BNZ d   1       2.423   1.540  -0.444  0.00  0.00     0.000 A 
ATOM      6  C6  BNZ d   1       2.032   2.555  -1.286  0.00  0.00     0.000 A 
ENDROOT
TORSDOF 0
ENDMDL
