MODEL 1
REMARK minimizedAffinity 2.18570733
REMARK minimizedRMSD -1
REMARK  0 active torsions:
REMARK  status: ('A' for Active; 'I' for Inactive)
ROOT
ATOM      1  C1  BNZ d   1       0.827  -1.868   2.054  0.00  0.00     0.000 A 
ATOM      2  C2  BNZ d   1       2.046  -1.488   2.548  0.00  0.00     0.000 A 
ATOM      3  C3  BNZ d   1       2.156  -0.424   3.400  0.00  0.00     0.000 A 
ATOM      4  C4  BNZ d   1       1.053   0.282   3.724  0.00  0.00     0.000 A 
ATOM      5  C5  BNZ d   1      -0.182  -0.083   3.227  0.00  0.00     0.000 A 
ATOM      6  C6  BNZ d   1      -0.294  -1.178   2.401  0.00  0.00     0.000 A 
ENDROOT
TORSDOF 0
ENDMDL
