MODEL 1
REMARK minimizedAffinity -0.757906735
REMARK minimizedRMSD -1
REMARK  0 active torsions:
REMARK  status: ('A' for Active; 'I' for Inactive)
ROOT
ATOM      1  C1  BNZ d   1       0.421   0.886  -0.609  0.00  0.00     0.000 A 
ATOM      2  C2  BNZ d   1       0.204  -0.419  -0.257  0.00  0.00     0.000 A 
ATOM      3  C3  BNZ d   1       1.170  -1.367  -0.452  0.00  0.00     0.000 A 
ATOM      4  C4  BNZ d   1       2.335  -1.016  -1.034  0.00  0.00     0.000 A 
ATOM      5  C5  BNZ d   1       2.565   0.294  -1.404  0.00  0.00     0.000 A 
ATOM      6  C6  BNZ d   1       1.605   1.253  -1.170  0.00  0.00     0.000 A 
ENDROOT
TORSDOF 0
ENDMDL
