MODEL 1
REMARK minimizedAffinity 2.4518168
REMARK minimizedRMSD -1
REMARK  0 active torsions:
REMARK  status: ('A' for Active; 'I' for Inactive)
ROOT
ATOM      1  C1  BNZ d   1      -3.464  -0.368  -2.437  0.00  0.00     0.000 A 
ATOM      2  C2  BNZ d   1      -4.448   0.163  -3.228  0.00  0.00     0.000 A 
ATOM      3  C3  BNZ d   1      -5.119  -0.617  -4.128  0.00  0.00     0.000 A 
ATOM      4  C4  BNZ d   1      -4.779  -1.915  -4.264  0.00  0.00     0.000 A 
ATOM      5  C5  BNZ d   1      -3.782  -2.462  -3.481  0.00  0.00     0.000 A 
ATOM      6  C6  BNZ d   1      -3.136  -1.684  -2.549  0.00  0.00     0.000 A 
ENDROOT
TORSDOF 0
ENDMDL
