MODEL 1
REMARK minimizedAffinity -5.98383093
REMARK minimizedRMSD -1
REMARK  0 active torsions:
REMARK  status: ('A' for Active; 'I' for Inactive)
ROOT
ATOM      1  O1  BZF d   1      -3.433  -0.213  -0.357  0.00  0.00    -0.204 OA
ATOM      2  C2  BZF d   1      -3.632  -0.617   0.949  0.00  0.00     0.174 A 
ATOM      3  C3  BZF d   1      -2.475  -1.037   1.502  0.00  0.00    -0.012 A 
ATOM      4  C3A BZF d   1      -1.475  -0.799   0.507  0.00  0.00    -0.107 A 
ATOM      5  C4  BZF d   1      -0.124  -0.994   0.469  0.00  0.00     0.055 A 
ATOM      6  C5  BZF d   1       0.550  -0.726  -0.680  0.00  0.00    -0.016 A 
ATOM      7  C6  BZF d   1      -0.095  -0.267  -1.810  0.00  0.00     0.022 A 
ATOM      8  C7  BZF d   1      -1.433  -0.053  -1.819  0.00  0.00     0.029 A 
ATOM      9  C7A BZF d   1      -2.112  -0.292  -0.649  0.00  0.00     0.058 A 
ENDROOT
TORSDOF 0
ENDMDL
