MODEL 1
REMARK minimizedAffinity -4.48772955
REMARK minimizedRMSD -1
REMARK  0 active torsions:
REMARK  status: ('A' for Active; 'I' for Inactive)
ROOT
ATOM      1  O1  BZF d   1       1.181   0.636  -0.476  0.00  0.00    -0.204 OA
ATOM      2  C2  BZF d   1       1.705   0.380   0.777  0.00  0.00     0.174 A 
ATOM      3  C3  BZF d   1       0.769  -0.158   1.586  0.00  0.00    -0.012 A 
ATOM      4  C3A BZF d   1      -0.388  -0.328   0.762  0.00  0.00    -0.107 A 
ATOM      5  C4  BZF d   1      -1.637  -0.831   0.989  0.00  0.00     0.055 A 
ATOM      6  C5  BZF d   1      -2.559  -0.788  -0.008  0.00  0.00    -0.016 A 
ATOM      7  C6  BZF d   1      -2.267  -0.245  -1.243  0.00  0.00     0.022 A 
ATOM      8  C7  BZF d   1      -1.040   0.262  -1.517  0.00  0.00     0.029 A 
ATOM      9  C7A BZF d   1      -0.097   0.189  -0.522  0.00  0.00     0.058 A 
ENDROOT
TORSDOF 0
ENDMDL
