MODEL 1
REMARK minimizedAffinity 2.59227014
REMARK minimizedRMSD -1
REMARK  0 active torsions:
REMARK  status: ('A' for Active; 'I' for Inactive)
ROOT
ATOM      1  O1  BZF d   1       0.376   0.595   0.999  0.00  0.00    -0.204 OA
ATOM      2  C2  BZF d   1       0.565  -0.525   1.785  0.00  0.00     0.174 A 
ATOM      3  C3  BZF d   1      -0.173  -1.558   1.331  0.00  0.00    -0.012 A 
ATOM      4  C3A BZF d   1      -0.795  -1.079   0.135  0.00  0.00    -0.107 A 
ATOM      5  C4  BZF d   1      -1.637  -1.647  -0.778  0.00  0.00     0.055 A 
ATOM      6  C5  BZF d   1      -2.121  -0.885  -1.794  0.00  0.00    -0.016 A 
ATOM      7  C6  BZF d   1      -1.789   0.447  -1.924  0.00  0.00     0.022 A 
ATOM      8  C7  BZF d   1      -0.954   1.054  -1.046  0.00  0.00     0.029 A 
ATOM      9  C7A BZF d   1      -0.437   0.278  -0.037  0.00  0.00     0.058 A 
ENDROOT
TORSDOF 0
ENDMDL
