MODEL 1
REMARK minimizedAffinity 1.72337103
REMARK minimizedRMSD -1
REMARK  0 active torsions:
REMARK  status: ('A' for Active; 'I' for Inactive)
ROOT
ATOM      1  O1  BZF d   1       0.225  -0.532   1.825  0.00  0.00    -0.204 OA
ATOM      2  C2  BZF d   1       0.164  -1.041   0.543  0.00  0.00     0.174 A 
ATOM      3  C3  BZF d   1       0.825  -0.243  -0.321  0.00  0.00    -0.012 A 
ATOM      4  C3A BZF d   1       1.409   0.784   0.487  0.00  0.00    -0.107 A 
ATOM      5  C4  BZF d   1       2.197   1.864   0.209  0.00  0.00     0.055 A 
ATOM      6  C5  BZF d   1       2.536   2.712   1.215  0.00  0.00    -0.016 A 
ATOM      7  C6  BZF d   1       2.100   2.514   2.509  0.00  0.00     0.022 A 
ATOM      8  C7  BZF d   1       1.320   1.454   2.835  0.00  0.00     0.029 A 
ATOM      9  C7A BZF d   1       1.004   0.577   1.826  0.00  0.00     0.058 A 
ENDROOT
TORSDOF 0
ENDMDL
