MODEL 1
REMARK minimizedAffinity 2.22784233
REMARK minimizedRMSD -1
REMARK  0 active torsions:
REMARK  status: ('A' for Active; 'I' for Inactive)
ROOT
ATOM      1  O1  BZF d   1       1.224   0.315   0.348  0.00  0.00    -0.204 OA
ATOM      2  C2  BZF d   1       1.071  -0.695   1.279  0.00  0.00     0.174 A 
ATOM      3  C3  BZF d   1      -0.027  -1.430   1.012  0.00  0.00    -0.012 A 
ATOM      4  C3A BZF d   1      -0.546  -0.900  -0.212  0.00  0.00    -0.107 A 
ATOM      5  C4  BZF d   1      -1.618  -1.222  -0.995  0.00  0.00     0.055 A 
ATOM      6  C5  BZF d   1      -1.890  -0.461  -2.087  0.00  0.00    -0.016 A 
ATOM      7  C6  BZF d   1      -1.116   0.631  -2.423  0.00  0.00     0.022 A 
ATOM      8  C7  BZF d   1      -0.040   0.986  -1.680  0.00  0.00     0.029 A 
ATOM      9  C7A BZF d   1       0.257   0.199  -0.594  0.00  0.00     0.058 A 
ENDROOT
TORSDOF 0
ENDMDL
