MODEL 1
REMARK minimizedAffinity -0.656810164
REMARK minimizedRMSD -1
REMARK  0 active torsions:
REMARK  status: ('A' for Active; 'I' for Inactive)
ROOT
ATOM      1  O1  BZF d   1       0.863  -1.275   0.799  0.00  0.00    -0.204 OA
ATOM      2  C2  BZF d   1       1.556  -0.237   1.392  0.00  0.00     0.174 A 
ATOM      3  C3  BZF d   1       1.201   0.946   0.852  0.00  0.00    -0.012 A 
ATOM      4  C3A BZF d   1       0.158   0.637  -0.077  0.00  0.00    -0.107 A 
ATOM      5  C4  BZF d   1      -0.611   1.397  -0.913  0.00  0.00     0.055 A 
ATOM      6  C5  BZF d   1      -1.491   0.779  -1.744  0.00  0.00    -0.016 A 
ATOM      7  C6  BZF d   1      -1.624  -0.593  -1.770  0.00  0.00     0.022 A 
ATOM      8  C7  BZF d   1      -0.888  -1.388  -0.956  0.00  0.00     0.029 A 
ATOM      9  C7A BZF d   1      -0.021  -0.765  -0.092  0.00  0.00     0.058 A 
ENDROOT
TORSDOF 0
ENDMDL
