MODEL 1
REMARK minimizedAffinity 0.514901459
REMARK minimizedRMSD -1
REMARK  0 active torsions:
REMARK  status: ('A' for Active; 'I' for Inactive)
ROOT
ATOM      1  O1  BZF d   1       1.647   1.885   2.293  0.00  0.00    -0.204 OA
ATOM      2  C2  BZF d   1       2.621   2.676   1.716  0.00  0.00     0.174 A 
ATOM      3  C3  BZF d   1       2.727   2.418   0.396  0.00  0.00    -0.012 A 
ATOM      4  C3A BZF d   1       1.695   1.468   0.115  0.00  0.00    -0.107 A 
ATOM      5  C4  BZF d   1       1.284   0.839  -1.025  0.00  0.00     0.055 A 
ATOM      6  C5  BZF d   1       0.294  -0.088  -0.948  0.00  0.00    -0.016 A 
ATOM      7  C6  BZF d   1      -0.304  -0.414   0.253  0.00  0.00     0.022 A 
ATOM      8  C7  BZF d   1       0.067   0.188   1.409  0.00  0.00     0.029 A 
ATOM      9  C7A BZF d   1       1.045   1.149   1.329  0.00  0.00     0.058 A 
ENDROOT
TORSDOF 0
ENDMDL
