MODEL 1
REMARK minimizedAffinity 5.6983223
REMARK minimizedRMSD -1
REMARK  0 active torsions:
REMARK  status: ('A' for Active; 'I' for Inactive)
ROOT
ATOM      1  O1  BZF d   1       0.541  -1.742   0.590  0.00  0.00    -0.204 OA
ATOM      2  C2  BZF d   1       0.708  -1.756   1.961  0.00  0.00     0.174 A 
ATOM      3  C3  BZF d   1      -0.453  -1.475   2.588  0.00  0.00    -0.012 A 
ATOM      4  C3A BZF d   1      -1.426  -1.364   1.545  0.00  0.00    -0.107 A 
ATOM      5  C4  BZF d   1      -2.768  -1.112   1.536  0.00  0.00     0.055 A 
ATOM      6  C5  BZF d   1      -3.411  -0.996   0.344  0.00  0.00    -0.016 A 
ATOM      7  C6  BZF d   1      -2.742  -1.121  -0.856  0.00  0.00     0.022 A 
ATOM      8  C7  BZF d   1      -1.412  -1.376  -0.898  0.00  0.00     0.029 A 
ATOM      9  C7A BZF d   1      -0.766  -1.526   0.305  0.00  0.00     0.058 A 
ENDROOT
TORSDOF 0
ENDMDL
