MODEL 1
REMARK minimizedAffinity 2.83529615
REMARK minimizedRMSD -1
REMARK  0 active torsions:
REMARK  status: ('A' for Active; 'I' for Inactive)
ROOT
ATOM      1  O1  BZF d   1       2.094   3.034   1.398  0.00  0.00    -0.204 OA
ATOM      2  C2  BZF d   1       2.841   3.076   0.236  0.00  0.00     0.174 A 
ATOM      3  C3  BZF d   1       2.797   1.891  -0.405  0.00  0.00    -0.012 A 
ATOM      4  C3A BZF d   1       1.896   1.083   0.359  0.00  0.00    -0.107 A 
ATOM      5  C4  BZF d   1       1.430  -0.193   0.219  0.00  0.00     0.055 A 
ATOM      6  C5  BZF d   1       0.617  -0.708   1.179  0.00  0.00    -0.016 A 
ATOM      7  C6  BZF d   1       0.255   0.022   2.292  0.00  0.00     0.022 A 
ATOM      8  C7  BZF d   1       0.688   1.294   2.472  0.00  0.00     0.029 A 
ATOM      9  C7A BZF d   1       1.483   1.828   1.488  0.00  0.00     0.058 A 
ENDROOT
TORSDOF 0
ENDMDL
