MODEL 1
REMARK minimizedAffinity 3.03007793
REMARK minimizedRMSD -1
REMARK  0 active torsions:
REMARK  status: ('A' for Active; 'I' for Inactive)
ROOT
ATOM      1  O1  BZF d   1       4.126   2.601   2.350  0.00  0.00    -0.204 OA
ATOM      2  C2  BZF d   1       2.810   3.010   2.252  0.00  0.00     0.174 A 
ATOM      3  C3  BZF d   1       2.417   3.055   0.963  0.00  0.00    -0.012 A 
ATOM      4  C3A BZF d   1       3.530   2.559   0.213  0.00  0.00    -0.107 A 
ATOM      5  C4  BZF d   1       3.745   2.348  -1.119  0.00  0.00     0.055 A 
ATOM      6  C5  BZF d   1       4.969   1.923  -1.531  0.00  0.00    -0.016 A 
ATOM      7  C6  BZF d   1       6.000   1.705  -0.641  0.00  0.00     0.022 A 
ATOM      8  C7  BZF d   1       5.832   1.896   0.691  0.00  0.00     0.029 A 
ATOM      9  C7A BZF d   1       4.588   2.294   1.114  0.00  0.00     0.058 A 
ENDROOT
TORSDOF 0
ENDMDL
