MODEL 1
REMARK minimizedAffinity 1.26927114
REMARK minimizedRMSD -1
REMARK  0 active torsions:
REMARK  status: ('A' for Active; 'I' for Inactive)
ROOT
ATOM      1  O1  BZF d   1      -5.061  -0.315  -0.120  0.00  0.00    -0.204 OA
ATOM      2  C2  BZF d   1      -5.268  -1.420   0.684  0.00  0.00     0.174 A 
ATOM      3  C3  BZF d   1      -4.165  -2.194   0.727  0.00  0.00    -0.012 A 
ATOM      4  C3A BZF d   1      -3.177  -1.484  -0.026  0.00  0.00    -0.107 A 
ATOM      5  C4  BZF d   1      -1.871  -1.736  -0.333  0.00  0.00     0.055 A 
ATOM      6  C5  BZF d   1      -1.207  -0.877  -1.151  0.00  0.00    -0.016 A 
ATOM      7  C6  BZF d   1      -1.820   0.238  -1.683  0.00  0.00     0.022 A 
ATOM      8  C7  BZF d   1      -3.113   0.532  -1.404  0.00  0.00     0.029 A 
ATOM      9  C7A BZF d   1      -3.777  -0.316  -0.551  0.00  0.00     0.058 A 
ENDROOT
TORSDOF 0
ENDMDL
