MODEL 1
REMARK minimizedAffinity 1.73821938
REMARK minimizedRMSD -1
REMARK  0 active torsions:
REMARK  status: ('A' for Active; 'I' for Inactive)
ROOT
ATOM      1  O1  BZF d   1       1.655  -1.511   1.962  0.00  0.00    -0.204 OA
ATOM      2  C2  BZF d   1       0.499  -2.261   1.867  0.00  0.00     0.174 A 
ATOM      3  C3  BZF d   1      -0.584  -1.509   2.151  0.00  0.00    -0.012 A 
ATOM      4  C3A BZF d   1      -0.080  -0.185   2.352  0.00  0.00    -0.107 A 
ATOM      5  C4  BZF d   1      -0.671   1.010   2.648  0.00  0.00     0.055 A 
ATOM      6  C5  BZF d   1       0.112   2.103   2.849  0.00  0.00    -0.016 A 
ATOM      7  C6  BZF d   1       1.488   2.035   2.768  0.00  0.00     0.022 A 
ATOM      8  C7  BZF d   1       2.119   0.873   2.472  0.00  0.00     0.029 A 
ATOM      9  C7A BZF d   1       1.329  -0.225   2.235  0.00  0.00     0.058 A 
ENDROOT
TORSDOF 0
ENDMDL
