MODEL 1
REMARK minimizedAffinity 3.11818337
REMARK minimizedRMSD -1
REMARK  0 active torsions:
REMARK  status: ('A' for Active; 'I' for Inactive)
ROOT
ATOM      1  O1  BZF d   1       1.355  -1.157   0.723  0.00  0.00    -0.204 OA
ATOM      2  C2  BZF d   1       0.916  -1.645   1.938  0.00  0.00     0.174 A 
ATOM      3  C3  BZF d   1      -0.431  -1.704   1.971  0.00  0.00    -0.012 A 
ATOM      4  C3A BZF d   1      -0.857  -1.310   0.663  0.00  0.00    -0.107 A 
ATOM      5  C4  BZF d   1      -2.082  -1.185   0.072  0.00  0.00     0.055 A 
ATOM      6  C5  BZF d   1      -2.157  -0.707  -1.198  0.00  0.00    -0.016 A 
ATOM      7  C6  BZF d   1      -1.030  -0.340  -1.903  0.00  0.00     0.022 A 
ATOM      8  C7  BZF d   1       0.207  -0.451  -1.361  0.00  0.00     0.029 A 
ATOM      9  C7A BZF d   1       0.289  -0.965  -0.090  0.00  0.00     0.058 A 
ENDROOT
TORSDOF 0
ENDMDL
