MODEL 1
REMARK minimizedAffinity 4.73717165
REMARK minimizedRMSD -1
REMARK  0 active torsions:
REMARK  status: ('A' for Active; 'I' for Inactive)
ROOT
ATOM      1  O1  BZF d   1      -3.136   0.329  -1.144  0.00  0.00    -0.204 OA
ATOM      2  C2  BZF d   1      -2.940  -0.856  -0.461  0.00  0.00     0.174 A 
ATOM      3  C3  BZF d   1      -1.735  -1.385  -0.758  0.00  0.00    -0.012 A 
ATOM      4  C3A BZF d   1      -1.103  -0.427  -1.613  0.00  0.00    -0.107 A 
ATOM      5  C4  BZF d   1       0.115  -0.376  -2.226  0.00  0.00     0.055 A 
ATOM      6  C5  BZF d   1       0.395   0.665  -3.054  0.00  0.00    -0.016 A 
ATOM      7  C6  BZF d   1      -0.521   1.668  -3.294  0.00  0.00     0.022 A 
ATOM      8  C7  BZF d   1      -1.741   1.664  -2.704  0.00  0.00     0.029 A 
ATOM      9  C7A BZF d   1      -2.015   0.630  -1.842  0.00  0.00     0.058 A 
ENDROOT
TORSDOF 0
ENDMDL
