MODEL 1
REMARK minimizedAffinity 8.69665909
REMARK minimizedRMSD -1
REMARK  0 active torsions:
REMARK  status: ('A' for Active; 'I' for Inactive)
ROOT
ATOM      1  O1  BZF d   1       1.360  -1.010   0.351  0.00  0.00    -0.204 OA
ATOM      2  C2  BZF d   1       1.132  -1.126   1.708  0.00  0.00     0.174 A 
ATOM      3  C3  BZF d   1      -0.190  -1.119   1.974  0.00  0.00    -0.012 A 
ATOM      4  C3A BZF d   1      -0.830  -1.082   0.695  0.00  0.00    -0.107 A 
ATOM      5  C4  BZF d   1      -2.137  -1.073   0.300  0.00  0.00     0.055 A 
ATOM      6  C5  BZF d   1      -2.427  -0.960  -1.023  0.00  0.00    -0.016 A 
ATOM      7  C6  BZF d   1      -1.435  -0.847  -1.976  0.00  0.00     0.022 A 
ATOM      8  C7  BZF d   1      -0.124  -0.856  -1.633  0.00  0.00     0.029 A 
ATOM      9  C7A BZF d   1       0.172  -1.004  -0.300  0.00  0.00     0.058 A 
ENDROOT
TORSDOF 0
ENDMDL
