MODEL 1
REMARK minimizedAffinity 6.32553053
REMARK minimizedRMSD -1
REMARK  0 active torsions:
REMARK  status: ('A' for Active; 'I' for Inactive)
ROOT
ATOM      1  O1  BZF d   1      -3.691  -0.408  -0.973  0.00  0.00    -0.204 OA
ATOM      2  C2  BZF d   1      -3.110  -1.455  -0.284  0.00  0.00     0.174 A 
ATOM      3  C3  BZF d   1      -1.814  -1.596  -0.631  0.00  0.00    -0.012 A 
ATOM      4  C3A BZF d   1      -1.546  -0.514  -1.529  0.00  0.00    -0.107 A 
ATOM      5  C4  BZF d   1      -0.429  -0.107  -2.201  0.00  0.00     0.055 A 
ATOM      6  C5  BZF d   1      -0.519   0.946  -3.055  0.00  0.00    -0.016 A 
ATOM      7  C6  BZF d   1      -1.710   1.611  -3.264  0.00  0.00     0.022 A 
ATOM      8  C7  BZF d   1      -2.843   1.247  -2.616  0.00  0.00     0.029 A 
ATOM      9  C7A BZF d   1      -2.747   0.204  -1.728  0.00  0.00     0.058 A 
ENDROOT
TORSDOF 0
ENDMDL
