MODEL 1
REMARK minimizedAffinity 8.04548168
REMARK minimizedRMSD -1
REMARK  0 active torsions:
REMARK  status: ('A' for Active; 'I' for Inactive)
ROOT
ATOM      1  O1  BZF d   1      -3.759  -1.133  -0.716  0.00  0.00    -0.204 OA
ATOM      2  C2  BZF d   1      -3.608  -0.154   0.247  0.00  0.00     0.174 A 
ATOM      3  C3  BZF d   1      -2.428   0.483   0.101  0.00  0.00    -0.012 A 
ATOM      4  C3A BZF d   1      -1.843  -0.075  -1.080  0.00  0.00    -0.107 A 
ATOM      5  C4  BZF d   1      -0.677   0.161  -1.751  0.00  0.00     0.055 A 
ATOM      6  C5  BZF d   1      -0.369  -0.606  -2.830  0.00  0.00    -0.016 A 
ATOM      7  C6  BZF d   1      -1.201  -1.619  -3.261  0.00  0.00     0.022 A 
ATOM      8  C7  BZF d   1      -2.371  -1.886  -2.631  0.00  0.00     0.029 A 
ATOM      9  C7A BZF d   1      -2.700  -1.092  -1.560  0.00  0.00     0.058 A 
ENDROOT
TORSDOF 0
ENDMDL
