MODEL 1
REMARK minimizedAffinity 2.79677057
REMARK minimizedRMSD -1
REMARK  0 active torsions:
REMARK  status: ('A' for Active; 'I' for Inactive)
ROOT
ATOM      1  O1  BZF d   1      -1.698   2.714  -3.931  0.00  0.00    -0.204 OA
ATOM      2  C2  BZF d   1      -0.396   2.693  -4.392  0.00  0.00     0.174 A 
ATOM      3  C3  BZF d   1       0.287   1.662  -3.852  0.00  0.00    -0.012 A 
ATOM      4  C3A BZF d   1      -0.673   0.944  -3.071  0.00  0.00    -0.107 A 
ATOM      5  C4  BZF d   1      -0.604  -0.185  -2.306  0.00  0.00     0.055 A 
ATOM      6  C5  BZF d   1      -1.704  -0.582  -1.614  0.00  0.00    -0.016 A 
ATOM      7  C6  BZF d   1      -2.886   0.128  -1.660  0.00  0.00     0.022 A 
ATOM      8  C7  BZF d   1      -3.004   1.252  -2.408  0.00  0.00     0.029 A 
ATOM      9  C7A BZF d   1      -1.904   1.637  -3.135  0.00  0.00     0.058 A 
ENDROOT
TORSDOF 0
ENDMDL
