MODEL 1
REMARK minimizedAffinity -1.04936254
REMARK minimizedRMSD -1
REMARK  0 active torsions:
REMARK  status: ('A' for Active; 'I' for Inactive)
ROOT
ATOM      1  O1  BZF d   1       3.390   4.835  -0.670  0.00  0.00    -0.204 OA
ATOM      2  C2  BZF d   1       3.091   3.618  -0.088  0.00  0.00     0.174 A 
ATOM      3  C3  BZF d   1       3.727   2.614  -0.725  0.00  0.00    -0.012 A 
ATOM      4  C3A BZF d   1       4.543   3.251  -1.713  0.00  0.00    -0.107 A 
ATOM      5  C4  BZF d   1       5.420   2.784  -2.650  0.00  0.00     0.055 A 
ATOM      6  C5  BZF d   1       5.998   3.664  -3.509  0.00  0.00    -0.016 A 
ATOM      7  C6  BZF d   1       5.719   5.014  -3.463  0.00  0.00     0.022 A 
ATOM      8  C7  BZF d   1       4.860   5.525  -2.548  0.00  0.00     0.029 A 
ATOM      9  C7A BZF d   1       4.299   4.643  -1.657  0.00  0.00     0.058 A 
ENDROOT
TORSDOF 0
ENDMDL
