MODEL 1
REMARK minimizedAffinity -4.75078869
REMARK minimizedRMSD -1
REMARK  0 active torsions:
REMARK  status: ('A' for Active; 'I' for Inactive)
ROOT
ATOM      1  C   UNL d   1       2.958   2.753   4.576  0.00  0.00     0.078 C 
ATOM      2  C1  UNL d   1       2.476   1.604   3.743  0.00  0.00    -0.077 A 
ATOM      3  C2  UNL d   1       3.085   0.346   3.827  0.00  0.00    -0.001 A 
ATOM      4  C3  UNL d   1       2.633  -0.713   3.038  0.00  0.00     0.003 A 
ATOM      5  C4  UNL d   1       1.570  -0.524   2.157  0.00  0.00    -0.005 A 
ATOM      6  C5  UNL d   1       0.958   0.725   2.064  0.00  0.00     0.003 A 
ATOM      7  C6  UNL d   1       1.409   1.784   2.853  0.00  0.00    -0.001 A 
ENDROOT
TORSDOF 0
ENDMDL
