MODEL 1
REMARK minimizedAffinity 0.193765804
REMARK minimizedRMSD -1
REMARK  0 active torsions:
REMARK  status: ('A' for Active; 'I' for Inactive)
ROOT
ATOM      1  C   UNL d   1       0.975   3.361   1.796  0.00  0.00     0.078 C 
ATOM      2  C1  UNL d   1       0.682   3.757   0.380  0.00  0.00    -0.077 A 
ATOM      3  C2  UNL d   1       0.693   5.102  -0.010  0.00  0.00    -0.001 A 
ATOM      4  C3  UNL d   1       0.409   5.456  -1.330  0.00  0.00     0.003 A 
ATOM      5  C4  UNL d   1       0.111   4.472  -2.270  0.00  0.00    -0.005 A 
ATOM      6  C5  UNL d   1       0.096   3.132  -1.891  0.00  0.00     0.003 A 
ATOM      7  C6  UNL d   1       0.379   2.775  -0.572  0.00  0.00    -0.001 A 
ENDROOT
TORSDOF 0
ENDMDL
