MODEL 1
REMARK minimizedAffinity 2.94917512
REMARK minimizedRMSD -1
REMARK  0 active torsions:
REMARK  status: ('A' for Active; 'I' for Inactive)
ROOT
ATOM      1  C   UNL d   1       1.854  -1.210   3.297  0.00  0.00     0.078 C 
ATOM      2  C1  UNL d   1       1.343  -0.258   2.257  0.00  0.00    -0.077 A 
ATOM      3  C2  UNL d   1       1.455  -0.553   0.893  0.00  0.00    -0.001 A 
ATOM      4  C3  UNL d   1       0.984   0.347  -0.065  0.00  0.00     0.003 A 
ATOM      5  C4  UNL d   1       0.399   1.548   0.332  0.00  0.00    -0.005 A 
ATOM      6  C5  UNL d   1       0.285   1.851   1.687  0.00  0.00     0.003 A 
ATOM      7  C6  UNL d   1       0.755   0.952   2.646  0.00  0.00    -0.001 A 
ENDROOT
TORSDOF 0
ENDMDL
