MODEL 1
REMARK minimizedAffinity -3.1106894
REMARK minimizedRMSD -1
REMARK  0 active torsions:
REMARK  status: ('A' for Active; 'I' for Inactive)
ROOT
ATOM      1  C   UNL d   1      -5.996  -3.356   5.998  0.00  0.00     0.078 C 
ATOM      2  C1  UNL d   1      -5.893  -2.043   5.281  0.00  0.00    -0.077 A 
ATOM      3  C2  UNL d   1      -5.678  -1.990   3.899  0.00  0.00    -0.001 A 
ATOM      4  C3  UNL d   1      -5.575  -0.760   3.247  0.00  0.00     0.003 A 
ATOM      5  C4  UNL d   1      -5.683   0.426   3.970  0.00  0.00    -0.005 A 
ATOM      6  C5  UNL d   1      -5.895   0.384   5.346  0.00  0.00     0.003 A 
ATOM      7  C6  UNL d   1      -5.998  -0.845   6.000  0.00  0.00    -0.001 A 
ENDROOT
TORSDOF 0
ENDMDL
