MODEL 1
REMARK minimizedAffinity -3.81176829
REMARK minimizedRMSD -1
REMARK  0 active torsions:
REMARK  status: ('A' for Active; 'I' for Inactive)
ROOT
ATOM      1  C   UNL d   1      -0.391   1.244  -1.067  0.00  0.00     0.078 C 
ATOM      2  C1  UNL d   1      -0.565   2.671  -1.496  0.00  0.00    -0.077 A 
ATOM      3  C2  UNL d   1      -1.590   3.039  -2.376  0.00  0.00    -0.001 A 
ATOM      4  C3  UNL d   1      -1.735   4.369  -2.774  0.00  0.00     0.003 A 
ATOM      5  C4  UNL d   1      -0.858   5.341  -2.298  0.00  0.00    -0.005 A 
ATOM      6  C5  UNL d   1       0.167   4.984  -1.423  0.00  0.00     0.003 A 
ATOM      7  C6  UNL d   1       0.313   3.654  -1.024  0.00  0.00    -0.001 A 
ENDROOT
TORSDOF 0
ENDMDL
