MODEL 1
REMARK minimizedAffinity -5.52886581
REMARK minimizedRMSD -1
REMARK  0 active torsions:
REMARK  status: ('A' for Active; 'I' for Inactive)
ROOT
ATOM      1  C   UNL d   1      -0.311   2.323   1.684  0.00  0.00     0.078 C 
ATOM      2  C1  UNL d   1      -0.388   2.833   0.276  0.00  0.00    -0.077 A 
ATOM      3  C2  UNL d   1      -0.215   4.192  -0.010  0.00  0.00    -0.001 A 
ATOM      4  C3  UNL d   1      -0.299   4.654  -1.324  0.00  0.00     0.003 A 
ATOM      5  C4  UNL d   1      -0.558   3.762  -2.364  0.00  0.00    -0.005 A 
ATOM      6  C5  UNL d   1      -0.734   2.408  -2.089  0.00  0.00     0.003 A 
ATOM      7  C6  UNL d   1      -0.650   1.944  -0.775  0.00  0.00    -0.001 A 
ENDROOT
TORSDOF 0
ENDMDL
