MODEL 1
REMARK minimizedAffinity 0.565792441
REMARK minimizedRMSD -1
REMARK  0 active torsions:
REMARK  status: ('A' for Active; 'I' for Inactive)
ROOT
ATOM      1  C   UNL d   1       0.721   4.714  -0.656  0.00  0.00     0.078 C 
ATOM      2  C1  UNL d   1       0.593   3.420   0.091  0.00  0.00    -0.077 A 
ATOM      3  C2  UNL d   1       0.730   3.375   1.484  0.00  0.00    -0.001 A 
ATOM      4  C3  UNL d   1       0.617   2.163   2.166  0.00  0.00     0.003 A 
ATOM      5  C4  UNL d   1       0.368   0.985   1.463  0.00  0.00    -0.005 A 
ATOM      6  C5  UNL d   1       0.233   1.020   0.076  0.00  0.00     0.003 A 
ATOM      7  C6  UNL d   1       0.345   2.232  -0.607  0.00  0.00    -0.001 A 
ENDROOT
TORSDOF 0
ENDMDL
