MODEL 1
REMARK minimizedAffinity 1.30738246
REMARK minimizedRMSD -1
REMARK  0 active torsions:
REMARK  status: ('A' for Active; 'I' for Inactive)
ROOT
ATOM      1  C   UNL d   1       0.709   2.842   1.489  0.00  0.00     0.078 C 
ATOM      2  C1  UNL d   1       0.626   3.509   0.149  0.00  0.00    -0.077 A 
ATOM      3  C2  UNL d   1       0.129   2.825  -0.967  0.00  0.00    -0.001 A 
ATOM      4  C3  UNL d   1       0.067   3.456  -2.211  0.00  0.00     0.003 A 
ATOM      5  C4  UNL d   1       0.500   4.773  -2.350  0.00  0.00    -0.005 A 
ATOM      6  C5  UNL d   1       0.998   5.460  -1.246  0.00  0.00     0.003 A 
ATOM      7  C6  UNL d   1       1.062   4.832  -0.001  0.00  0.00    -0.001 A 
ENDROOT
TORSDOF 0
ENDMDL
