MODEL 1
REMARK minimizedAffinity 1.59417999
REMARK minimizedRMSD -1
REMARK  0 active torsions:
REMARK  status: ('A' for Active; 'I' for Inactive)
ROOT
ATOM      1  C   UNL d   1       0.530   4.103  -0.488  0.00  0.00     0.078 C 
ATOM      2  C1  UNL d   1       0.433   2.808   0.262  0.00  0.00    -0.077 A 
ATOM      3  C2  UNL d   1       0.291   2.789   1.654  0.00  0.00    -0.001 A 
ATOM      4  C3  UNL d   1       0.212   1.576   2.340  0.00  0.00     0.003 A 
ATOM      5  C4  UNL d   1       0.274   0.372   1.641  0.00  0.00    -0.005 A 
ATOM      6  C5  UNL d   1       0.418   0.381   0.255  0.00  0.00     0.003 A 
ATOM      7  C6  UNL d   1       0.498   1.593  -0.432  0.00  0.00    -0.001 A 
ENDROOT
TORSDOF 0
ENDMDL
