MODEL 1
REMARK minimizedAffinity 6.65458918
REMARK minimizedRMSD -1
REMARK  0 active torsions:
REMARK  status: ('A' for Active; 'I' for Inactive)
ROOT
ATOM      1  C   UNL d   1      -0.396  -4.400  -1.061  0.00  0.00     0.078 C 
ATOM      2  C1  UNL d   1       0.995  -4.793  -0.660  0.00  0.00    -0.077 A 
ATOM      3  C2  UNL d   1       1.217  -5.649   0.425  0.00  0.00    -0.001 A 
ATOM      4  C3  UNL d   1       2.517  -5.999   0.793  0.00  0.00     0.003 A 
ATOM      5  C4  UNL d   1       3.605  -5.496   0.082  0.00  0.00    -0.005 A 
ATOM      6  C5  UNL d   1       3.394  -4.641  -0.998  0.00  0.00     0.003 A 
ATOM      7  C6  UNL d   1       2.094  -4.290  -1.367  0.00  0.00    -0.001 A 
ENDROOT
TORSDOF 0
ENDMDL
