MODEL 1
REMARK minimizedAffinity -3.88482499
REMARK minimizedRMSD -1
REMARK  0 active torsions:
REMARK  status: ('A' for Active; 'I' for Inactive)
ROOT
ATOM      1  C   UNL d   1      -1.386   1.185   1.653  0.00  0.00     0.020 A 
ATOM      2  C1  UNL d   1      -1.870   0.919   0.373  0.00  0.00     0.020 A 
ATOM      3  C2  UNL d   1      -1.066   0.252  -0.553  0.00  0.00     0.034 A 
ATOM      4  C3  UNL d   1       0.227  -0.152  -0.201  0.00  0.00     0.017 A 
ATOM      5  C4  UNL d   1       0.712   0.115   1.084  0.00  0.00     0.017 A 
ATOM      6  C5  UNL d   1      -0.098   0.783   2.008  0.00  0.00     0.034 A 
ATOM      7 Cl   UNL d   1       2.296  -0.353   1.592  0.00  0.00    -0.070 Cl
ATOM      8 Cl1  UNL d   1       1.166  -0.973  -1.397  0.00  0.00    -0.070 Cl
ENDROOT
TORSDOF 0
ENDMDL
