MODEL 1
REMARK minimizedAffinity -3.81756163
REMARK minimizedRMSD -1
REMARK  0 active torsions:
REMARK  status: ('A' for Active; 'I' for Inactive)
ROOT
ATOM      1  C   UNL d   1      -1.034  -0.270  -0.731  0.00  0.00     0.020 A 
ATOM      2  C1  UNL d   1       0.266  -0.655  -1.055  0.00  0.00     0.020 A 
ATOM      3  C2  UNL d   1       1.310  -0.411  -0.160  0.00  0.00     0.034 A 
ATOM      4  C3  UNL d   1       1.056   0.220   1.063  0.00  0.00     0.017 A 
ATOM      5  C4  UNL d   1      -0.250   0.606   1.388  0.00  0.00     0.017 A 
ATOM      6  C5  UNL d   1      -1.291   0.359   0.488  0.00  0.00     0.034 A 
ATOM      7 Cl   UNL d   1      -0.641   1.388   2.878  0.00  0.00    -0.070 Cl
ATOM      8 Cl1  UNL d   1       2.395   0.490   2.121  0.00  0.00    -0.070 Cl
ENDROOT
TORSDOF 0
ENDMDL
