MODEL 1
REMARK minimizedAffinity -2.15695953
REMARK minimizedRMSD -1
REMARK  0 active torsions:
REMARK  status: ('A' for Active; 'I' for Inactive)
ROOT
ATOM      1  C   UNL d   1       1.158  -1.070  -0.265  0.00  0.00     0.020 A 
ATOM      2  C1  UNL d   1       1.811  -0.562   0.858  0.00  0.00     0.020 A 
ATOM      3  C2  UNL d   1       1.089   0.131   1.832  0.00  0.00     0.034 A 
ATOM      4  C3  UNL d   1      -0.290   0.319   1.685  0.00  0.00     0.017 A 
ATOM      5  C4  UNL d   1      -0.945  -0.192   0.559  0.00  0.00     0.017 A 
ATOM      6  C5  UNL d   1      -0.217  -0.885  -0.413  0.00  0.00     0.034 A 
ATOM      7 Cl   UNL d   1      -2.644  -0.001   0.309  0.00  0.00    -0.070 Cl
ATOM      8 Cl1  UNL d   1      -1.119   1.185   2.929  0.00  0.00    -0.070 Cl
ENDROOT
TORSDOF 0
ENDMDL
