MODEL 1
REMARK minimizedAffinity -4.0030427
REMARK minimizedRMSD -1
REMARK  0 active torsions:
REMARK  status: ('A' for Active; 'I' for Inactive)
ROOT
ATOM      1  C   UNL d   1      -1.721  -0.289  -0.192  0.00  0.00     0.020 A 
ATOM      2  C1  UNL d   1      -0.447  -0.513  -0.710  0.00  0.00     0.020 A 
ATOM      3  C2  UNL d   1       0.681  -0.155   0.031  0.00  0.00     0.034 A 
ATOM      4  C3  UNL d   1       0.537   0.428   1.295  0.00  0.00     0.017 A 
ATOM      5  C4  UNL d   1      -0.743   0.653   1.815  0.00  0.00     0.017 A 
ATOM      6  C5  UNL d   1      -1.869   0.292   1.068  0.00  0.00     0.034 A 
ATOM      7 Cl   UNL d   1      -1.002   1.368   3.367  0.00  0.00    -0.070 Cl
ATOM      8 Cl1  UNL d   1       1.975   0.846   2.157  0.00  0.00    -0.070 Cl
ENDROOT
TORSDOF 0
ENDMDL
