MODEL 1
REMARK minimizedAffinity -4.04998636
REMARK minimizedRMSD -1
REMARK  0 active torsions:
REMARK  status: ('A' for Active; 'I' for Inactive)
ROOT
ATOM      1  C   UNL d   1      -1.519   1.482   1.819  0.00  0.00     0.020 A 
ATOM      2  C1  UNL d   1      -1.984   1.311   0.515  0.00  0.00     0.020 A 
ATOM      3  C2  UNL d   1      -1.177   0.687  -0.438  0.00  0.00     0.034 A 
ATOM      4  C3  UNL d   1       0.100   0.230  -0.089  0.00  0.00     0.017 A 
ATOM      5  C4  UNL d   1       0.565   0.401   1.220  0.00  0.00     0.017 A 
ATOM      6  C5  UNL d   1      -0.247   1.028   2.170  0.00  0.00     0.034 A 
ATOM      7 Cl   UNL d   1       2.129  -0.136   1.725  0.00  0.00    -0.070 Cl
ATOM      8 Cl1  UNL d   1       1.043  -0.534  -1.318  0.00  0.00    -0.070 Cl
ENDROOT
TORSDOF 0
ENDMDL
