MODEL 1
REMARK minimizedAffinity -2.12279654
REMARK minimizedRMSD -1
REMARK  0 active torsions:
REMARK  status: ('A' for Active; 'I' for Inactive)
ROOT
ATOM      1  C   UNL d   1      -1.033  -0.078  -1.245  0.00  0.00     0.020 A 
ATOM      2  C1  UNL d   1       0.243  -0.595  -1.466  0.00  0.00     0.020 A 
ATOM      3  C2  UNL d   1       1.185  -0.593  -0.436  0.00  0.00     0.034 A 
ATOM      4  C3  UNL d   1       0.854  -0.073   0.821  0.00  0.00     0.017 A 
ATOM      5  C4  UNL d   1      -0.427   0.446   1.042  0.00  0.00     0.017 A 
ATOM      6  C5  UNL d   1      -1.367   0.441   0.006  0.00  0.00     0.034 A 
ATOM      7 Cl   UNL d   1      -0.911   1.105   2.565  0.00  0.00    -0.070 Cl
ATOM      8 Cl1  UNL d   1       2.068  -0.103   2.049  0.00  0.00    -0.070 Cl
ENDROOT
TORSDOF 0
ENDMDL
