MODEL 1
REMARK minimizedAffinity -1.04634988
REMARK minimizedRMSD -1
REMARK  0 active torsions:
REMARK  status: ('A' for Active; 'I' for Inactive)
ROOT
ATOM      1  C   UNL d   1      -0.886  -0.717  -1.147  0.00  0.00     0.020 A 
ATOM      2  C1  UNL d   1       0.410  -0.285  -1.427  0.00  0.00     0.020 A 
ATOM      3  C2  UNL d   1       1.218   0.210  -0.402  0.00  0.00     0.034 A 
ATOM      4  C3  UNL d   1       0.732   0.275   0.909  0.00  0.00     0.017 A 
ATOM      5  C4  UNL d   1      -0.569  -0.159   1.189  0.00  0.00     0.017 A 
ATOM      6  C5  UNL d   1      -1.374  -0.654   0.159  0.00  0.00     0.034 A 
ATOM      7 Cl   UNL d   1      -1.239  -0.109   2.782  0.00  0.00    -0.070 Cl
ATOM      8 Cl1  UNL d   1       1.786   0.899   2.127  0.00  0.00    -0.070 Cl
ENDROOT
TORSDOF 0
ENDMDL
