MODEL 1
REMARK minimizedAffinity -3.89721084
REMARK minimizedRMSD -1
REMARK  0 active torsions:
REMARK  status: ('A' for Active; 'I' for Inactive)
ROOT
ATOM      1  C   UNL d   1       1.187  -1.009  -0.449  0.00  0.00     0.020 A 
ATOM      2  C1  UNL d   1       1.660  -0.566   0.785  0.00  0.00     0.020 A 
ATOM      3  C2  UNL d   1       0.793   0.065   1.680  0.00  0.00     0.034 A 
ATOM      4  C3  UNL d   1      -0.552   0.255   1.341  0.00  0.00     0.017 A 
ATOM      5  C4  UNL d   1      -1.026  -0.189   0.101  0.00  0.00     0.017 A 
ATOM      6  C5  UNL d   1      -0.153  -0.821  -0.791  0.00  0.00     0.034 A 
ATOM      7 Cl   UNL d   1      -2.671   0.010  -0.388  0.00  0.00    -0.070 Cl
ATOM      8 Cl1  UNL d   1      -1.568   1.043   2.495  0.00  0.00    -0.070 Cl
ENDROOT
TORSDOF 0
ENDMDL
