MODEL 1
REMARK minimizedAffinity 2.4030118
REMARK minimizedRMSD -1
REMARK  0 active torsions:
REMARK  status: ('A' for Active; 'I' for Inactive)
ROOT
ATOM      1  C   UNL d   1      -0.525  -0.380  -1.405  0.00  0.00     0.020 A 
ATOM      2  C1  UNL d   1       0.811  -0.775  -1.445  0.00  0.00     0.020 A 
ATOM      3  C2  UNL d   1       1.585  -0.740  -0.283  0.00  0.00     0.034 A 
ATOM      4  C3  UNL d   1       1.024  -0.308   0.924  0.00  0.00     0.017 A 
ATOM      5  C4  UNL d   1      -0.318   0.088   0.963  0.00  0.00     0.017 A 
ATOM      6  C5  UNL d   1      -1.089   0.050  -0.203  0.00  0.00     0.034 A 
ATOM      7 Cl   UNL d   1      -1.081   0.632   2.415  0.00  0.00    -0.070 Cl
ATOM      8 Cl1  UNL d   1       2.039  -0.290   2.321  0.00  0.00    -0.070 Cl
ENDROOT
TORSDOF 0
ENDMDL
