MODEL 1
REMARK minimizedAffinity -3.44617891
REMARK minimizedRMSD -1
REMARK  1 active torsions:
REMARK  status: ('A' for Active; 'I' for Inactive)
REMARK    1  A    between atoms: C1_2  and  C2_3 
ROOT
ATOM      1  C2  UNL d   1       0.402   0.239  -0.814  0.00  0.00    -0.077 A 
ATOM      2  C3  UNL d   1       1.765   0.292  -1.136  0.00  0.00     0.002 A 
ATOM      3  C4  UNL d   1       2.202  -0.050  -2.417  0.00  0.00     0.002 A 
ATOM      4  C5  UNL d   1       1.282  -0.442  -3.387  0.00  0.00    -0.004 A 
ATOM      5  C6  UNL d   1      -0.076  -0.499  -3.076  0.00  0.00     0.002 A 
ATOM      6  C7  UNL d   1      -0.514  -0.159  -1.796  0.00  0.00     0.002 A 
ENDROOT
BRANCH   1   7
ATOM      7  C1  UNL d   1      -0.076   0.655   0.553  0.00  0.00     0.055 C 
ATOM      8  C   UNL d   1      -1.451   0.078   0.857  0.00  0.00     0.019 C 
ENDBRANCH   1   7
TORSDOF 1
ENDMDL
