MODEL 1
REMARK minimizedAffinity -4.96885824
REMARK minimizedRMSD -1
REMARK  1 active torsions:
REMARK  status: ('A' for Active; 'I' for Inactive)
REMARK    1  A    between atoms: C1_2  and  C2_3 
ROOT
ATOM      1  C2  UNL d   1      -0.041   0.562  -0.108  0.00  0.00    -0.077 A 
ATOM      2  C3  UNL d   1      -0.048  -0.750  -0.601  0.00  0.00     0.002 A 
ATOM      3  C4  UNL d   1       0.679  -1.078  -1.747  0.00  0.00     0.002 A 
ATOM      4  C5  UNL d   1       1.422  -0.101  -2.407  0.00  0.00    -0.004 A 
ATOM      5  C6  UNL d   1       1.433   1.208  -1.926  0.00  0.00     0.002 A 
ATOM      6  C7  UNL d   1       0.706   1.538  -0.781  0.00  0.00     0.002 A 
ENDROOT
BRANCH   1   7
ATOM      7  C1  UNL d   1      -0.785   0.907   1.155  0.00  0.00     0.055 C 
ATOM      8  C   UNL d   1      -2.290   0.891   0.933  0.00  0.00     0.019 C 
ENDBRANCH   1   7
TORSDOF 1
ENDMDL
