MODEL 1
REMARK minimizedAffinity -5.8831358
REMARK minimizedRMSD -1
REMARK  1 active torsions:
REMARK  status: ('A' for Active; 'I' for Inactive)
REMARK    1  A    between atoms: C1_2  and  C2_3 
ROOT
ATOM      1  C2  UNL d   1      -0.013  -0.202  -0.138  0.00  0.00    -0.077 A 
ATOM      2  C3  UNL d   1       0.363  -1.123  -1.126  0.00  0.00     0.002 A 
ATOM      3  C4  UNL d   1       1.094  -0.705  -2.240  0.00  0.00     0.002 A 
ATOM      4  C5  UNL d   1       1.459   0.633  -2.373  0.00  0.00    -0.004 A 
ATOM      5  C6  UNL d   1       1.089   1.557  -1.397  0.00  0.00     0.002 A 
ATOM      6  C7  UNL d   1       0.357   1.141  -0.284  0.00  0.00     0.002 A 
ENDROOT
BRANCH   1   7
ATOM      7  C1  UNL d   1      -0.759  -0.659   1.088  0.00  0.00     0.055 C 
ATOM      8  C   UNL d   1      -1.960   0.232   1.370  0.00  0.00     0.019 C 
ENDBRANCH   1   7
TORSDOF 1
ENDMDL
