MODEL 1
REMARK minimizedAffinity -3.35713243
REMARK minimizedRMSD -1
REMARK  1 active torsions:
REMARK  status: ('A' for Active; 'I' for Inactive)
REMARK    1  A    between atoms: C1_2  and  C2_3 
ROOT
ATOM      1  C2  UNL d   1       0.702   0.264  -0.673  0.00  0.00    -0.077 A 
ATOM      2  C3  UNL d   1       0.207   0.998   0.414  0.00  0.00     0.002 A 
ATOM      3  C4  UNL d   1      -0.375   0.343   1.502  0.00  0.00     0.002 A 
ATOM      4  C5  UNL d   1      -0.463  -1.047   1.514  0.00  0.00    -0.004 A 
ATOM      5  C6  UNL d   1       0.024  -1.786   0.436  0.00  0.00     0.002 A 
ATOM      6  C7  UNL d   1       0.605  -1.133  -0.652  0.00  0.00     0.002 A 
ENDROOT
BRANCH   1   7
ATOM      7  C1  UNL d   1       1.375   0.965  -1.824  0.00  0.00     0.055 C 
ATOM      8  C   UNL d   1       2.003  -0.031  -2.788  0.00  0.00     0.019 C 
ENDBRANCH   1   7
TORSDOF 1
ENDMDL
