MODEL 1
REMARK minimizedAffinity -5.1391263
REMARK minimizedRMSD -1
REMARK  1 active torsions:
REMARK  status: ('A' for Active; 'I' for Inactive)
REMARK    1  A    between atoms: C1_2  and  C2_3 
ROOT
ATOM      1  C2  UNL d   1       0.121  -0.232  -0.570  0.00  0.00    -0.077 A 
ATOM      2  C3  UNL d   1      -0.385  -0.574  -1.832  0.00  0.00     0.002 A 
ATOM      3  C4  UNL d   1       0.260  -0.142  -2.993  0.00  0.00     0.002 A 
ATOM      4  C5  UNL d   1       1.416   0.631  -2.902  0.00  0.00    -0.004 A 
ATOM      5  C6  UNL d   1       1.926   0.978  -1.652  0.00  0.00     0.002 A 
ATOM      6  C7  UNL d   1       1.282   0.547  -0.491  0.00  0.00     0.002 A 
ENDROOT
BRANCH   1   7
ATOM      7  C1  UNL d   1      -0.545  -0.739   0.682  0.00  0.00     0.055 C 
ATOM      8  C   UNL d   1      -0.222  -2.206   0.926  0.00  0.00     0.019 C 
ENDBRANCH   1   7
TORSDOF 1
ENDMDL
