MODEL 1
REMARK minimizedAffinity -5.05944872
REMARK minimizedRMSD -1
REMARK  1 active torsions:
REMARK  status: ('A' for Active; 'I' for Inactive)
REMARK    1  A    between atoms: C1_2  and  C2_3 
ROOT
ATOM      1  C2  UNL d   1       0.049  -0.239   0.344  0.00  0.00    -0.077 A 
ATOM      2  C3  UNL d   1      -0.047  -1.063  -0.786  0.00  0.00     0.002 A 
ATOM      3  C4  UNL d   1       0.636  -0.735  -1.958  0.00  0.00     0.002 A 
ATOM      4  C5  UNL d   1       1.423   0.414  -2.011  0.00  0.00    -0.004 A 
ATOM      5  C6  UNL d   1       1.522   1.241  -0.893  0.00  0.00     0.002 A 
ATOM      6  C7  UNL d   1       0.839   0.916   0.280  0.00  0.00     0.002 A 
ENDROOT
BRANCH   1   7
ATOM      7  C1  UNL d   1      -0.648  -0.616   1.626  0.00  0.00     0.055 C 
ATOM      8  C   UNL d   1      -2.003   0.067   1.741  0.00  0.00     0.019 C 
ENDBRANCH   1   7
TORSDOF 1
ENDMDL
