MODEL 1
REMARK minimizedAffinity -1.95854783
REMARK minimizedRMSD -1
REMARK  1 active torsions:
REMARK  status: ('A' for Active; 'I' for Inactive)
REMARK    1  A    between atoms: C1_2  and  C2_3 
ROOT
ATOM      1  C2  UNL d   1      -4.930   2.939  -5.992  0.00  0.00    -0.077 A 
ATOM      2  C3  UNL d   1      -5.325   1.594  -5.995  0.00  0.00     0.002 A 
ATOM      3  C4  UNL d   1      -4.368   0.577  -6.000  0.00  0.00     0.002 A 
ATOM      4  C5  UNL d   1      -3.011   0.895  -5.998  0.00  0.00    -0.004 A 
ATOM      5  C6  UNL d   1      -2.609   2.230  -5.998  0.00  0.00     0.002 A 
ATOM      6  C7  UNL d   1      -3.564   3.247  -5.994  0.00  0.00     0.002 A 
ENDROOT
BRANCH   1   7
ATOM      7  C1  UNL d   1      -5.961   4.036  -5.937  0.00  0.00     0.055 C 
ATOM      8  C   UNL d   1      -5.313   5.392  -5.697  0.00  0.00     0.019 C 
ENDBRANCH   1   7
TORSDOF 1
ENDMDL
