MODEL 1
REMARK minimizedAffinity -5.20430994
REMARK minimizedRMSD -1
REMARK  1 active torsions:
REMARK  status: ('A' for Active; 'I' for Inactive)
REMARK    1  A    between atoms: C1_2  and  C2_3 
ROOT
ATOM      1  C2  UNL d   1       0.690   0.268  -0.804  0.00  0.00    -0.077 A 
ATOM      2  C3  UNL d   1       0.718  -1.058  -1.260  0.00  0.00     0.002 A 
ATOM      3  C4  UNL d   1       1.480  -1.405  -2.377  0.00  0.00     0.002 A 
ATOM      4  C5  UNL d   1       2.223  -0.433  -3.044  0.00  0.00    -0.004 A 
ATOM      5  C6  UNL d   1       2.200   0.888  -2.600  0.00  0.00     0.002 A 
ATOM      6  C7  UNL d   1       1.438   1.237  -1.484  0.00  0.00     0.002 A 
ENDROOT
BRANCH   1   7
ATOM      7  C1  UNL d   1      -0.092   0.634   0.430  0.00  0.00     0.055 C 
ATOM      8  C   UNL d   1      -0.826  -0.571   0.999  0.00  0.00     0.019 C 
ENDBRANCH   1   7
TORSDOF 1
ENDMDL
