MODEL 1
REMARK minimizedAffinity 9.19711494
REMARK minimizedRMSD -1
REMARK  0 active torsions:
REMARK  status: ('A' for Active; 'I' for Inactive)
ROOT
ATOM      1  O1  BZF d   1       0.592  -1.144   3.389  0.00  0.00    -0.204 OA
ATOM      2  C2  BZF d   1       1.874  -0.842   2.973  0.00  0.00     0.174 A 
ATOM      3  C3  BZF d   1       1.904   0.347   2.338  0.00  0.00    -0.012 A 
ATOM      4  C3A BZF d   1       0.572   0.861   2.439  0.00  0.00    -0.107 A 
ATOM      5  C4  BZF d   1      -0.024   2.014   2.016  0.00  0.00     0.055 A 
ATOM      6  C5  BZF d   1      -1.359   2.178   2.210  0.00  0.00    -0.016 A 
ATOM      7  C6  BZF d   1      -2.128   1.208   2.819  0.00  0.00     0.022 A 
ATOM      8  C7  BZF d   1      -1.581   0.049   3.261  0.00  0.00     0.029 A 
ATOM      9  C7A BZF d   1      -0.226  -0.105   3.095  0.00  0.00     0.058 A 
ENDROOT
TORSDOF 0
ENDMDL
