MODEL 1
REMARK minimizedAffinity 6.65434933
REMARK minimizedRMSD -1
REMARK  0 active torsions:
REMARK  status: ('A' for Active; 'I' for Inactive)
ROOT
ATOM      1  O1  BZF d   1      -2.640   0.197  -0.552  0.00  0.00    -0.204 OA
ATOM      2  C2  BZF d   1      -3.666   1.119  -0.631  0.00  0.00     0.174 A 
ATOM      3  C3  BZF d   1      -3.717   1.874   0.485  0.00  0.00    -0.012 A 
ATOM      4  C3A BZF d   1      -2.599   1.456   1.274  0.00  0.00    -0.107 A 
ATOM      5  C4  BZF d   1      -2.107   1.846   2.487  0.00  0.00     0.055 A 
ATOM      6  C5  BZF d   1      -1.040   1.187   3.010  0.00  0.00    -0.016 A 
ATOM      7  C6  BZF d   1      -0.445   0.130   2.352  0.00  0.00     0.022 A 
ATOM      8  C7  BZF d   1      -0.895  -0.290   1.144  0.00  0.00     0.029 A 
ATOM      9  C7A BZF d   1      -1.952   0.396   0.597  0.00  0.00     0.058 A 
ENDROOT
TORSDOF 0
ENDMDL
