MODEL 1
REMARK minimizedAffinity 1.35345614
REMARK minimizedRMSD -1
REMARK  0 active torsions:
REMARK  status: ('A' for Active; 'I' for Inactive)
ROOT
ATOM      1  O1  BZF d   1      -1.190   1.618   2.604  0.00  0.00    -0.204 OA
ATOM      2  C2  BZF d   1      -1.653   0.477   1.978  0.00  0.00     0.174 A 
ATOM      3  C3  BZF d   1      -0.632  -0.349   1.672  0.00  0.00    -0.012 A 
ATOM      4  C3A BZF d   1       0.534   0.276   2.218  0.00  0.00    -0.107 A 
ATOM      5  C4  BZF d   1       1.855  -0.069   2.252  0.00  0.00     0.055 A 
ATOM      6  C5  BZF d   1       2.749   0.796   2.799  0.00  0.00    -0.016 A 
ATOM      7  C6  BZF d   1       2.359   2.014   3.315  0.00  0.00     0.022 A 
ATOM      8  C7  BZF d   1       1.059   2.398   3.308  0.00  0.00     0.029 A 
ATOM      9  C7A BZF d   1       0.148   1.512   2.786  0.00  0.00     0.058 A 
ENDROOT
TORSDOF 0
ENDMDL
