MODEL 1
REMARK minimizedAffinity 4.84596348
REMARK minimizedRMSD -1
REMARK  0 active torsions:
REMARK  status: ('A' for Active; 'I' for Inactive)
ROOT
ATOM      1  O1  BZF d   1       1.371  -0.256   0.610  0.00  0.00    -0.204 OA
ATOM      2  C2  BZF d   1       2.423  -0.438   1.486  0.00  0.00     0.174 A 
ATOM      3  C3  BZF d   1       2.004  -0.341   2.765  0.00  0.00    -0.012 A 
ATOM      4  C3A BZF d   1       0.585  -0.174   2.683  0.00  0.00    -0.107 A 
ATOM      5  C4  BZF d   1      -0.399  -0.036   3.620  0.00  0.00     0.055 A 
ATOM      6  C5  BZF d   1      -1.676   0.182   3.209  0.00  0.00    -0.016 A 
ATOM      7  C6  BZF d   1      -2.003   0.274   1.872  0.00  0.00     0.022 A 
ATOM      8  C7  BZF d   1      -1.062   0.139   0.906  0.00  0.00     0.029 A 
ATOM      9  C7A BZF d   1       0.224  -0.115   1.317  0.00  0.00     0.058 A 
ENDROOT
TORSDOF 0
ENDMDL
