MODEL 1
REMARK minimizedAffinity 15.0773239
REMARK minimizedRMSD -1
REMARK  0 active torsions:
REMARK  status: ('A' for Active; 'I' for Inactive)
ROOT
ATOM      1  O1  BZF d   1      -3.194   2.256   0.888  0.00  0.00    -0.204 OA
ATOM      2  C2  BZF d   1      -4.126   1.915  -0.073  0.00  0.00     0.174 A 
ATOM      3  C3  BZF d   1      -4.063   0.597  -0.354  0.00  0.00    -0.012 A 
ATOM      4  C3A BZF d   1      -3.090   0.066   0.551  0.00  0.00    -0.107 A 
ATOM      5  C4  BZF d   1      -2.599  -1.189   0.770  0.00  0.00     0.055 A 
ATOM      6  C5  BZF d   1      -1.602  -1.359   1.678  0.00  0.00    -0.016 A 
ATOM      7  C6  BZF d   1      -1.070  -0.297   2.380  0.00  0.00     0.022 A 
ATOM      8  C7  BZF d   1      -1.529   0.965   2.200  0.00  0.00     0.029 A 
ATOM      9  C7A BZF d   1      -2.559   1.136   1.308  0.00  0.00     0.058 A 
ENDROOT
TORSDOF 0
ENDMDL
