MODEL 1
REMARK minimizedAffinity 4.49616051
REMARK minimizedRMSD -1
REMARK  0 active torsions:
REMARK  status: ('A' for Active; 'I' for Inactive)
ROOT
ATOM      1  O1  BZF d   1       0.537   0.624   3.780  0.00  0.00    -0.204 OA
ATOM      2  C2  BZF d   1      -0.600   1.110   3.163  0.00  0.00     0.174 A 
ATOM      3  C3  BZF d   1      -0.465   1.082   1.821  0.00  0.00    -0.012 A 
ATOM      4  C3A BZF d   1       0.801   0.459   1.583  0.00  0.00    -0.107 A 
ATOM      5  C4  BZF d   1       1.488   0.133   0.449  0.00  0.00     0.055 A 
ATOM      6  C5  BZF d   1       2.733  -0.400   0.561  0.00  0.00    -0.016 A 
ATOM      7  C6  BZF d   1       3.322  -0.617   1.790  0.00  0.00     0.022 A 
ATOM      8  C7  BZF d   1       2.677  -0.314   2.943  0.00  0.00     0.029 A 
ATOM      9  C7A BZF d   1       1.406   0.194   2.833  0.00  0.00     0.058 A 
ENDROOT
TORSDOF 0
ENDMDL
