MODEL 1
REMARK minimizedAffinity 12.4798069
REMARK minimizedRMSD -1
REMARK  0 active torsions:
REMARK  status: ('A' for Active; 'I' for Inactive)
ROOT
ATOM      1  O1  BZF d   1      -3.675   2.235   0.757  0.00  0.00    -0.204 OA
ATOM      2  C2  BZF d   1      -4.311   1.629  -0.309  0.00  0.00     0.174 A 
ATOM      3  C3  BZF d   1      -3.823   0.388  -0.514  0.00  0.00    -0.012 A 
ATOM      4  C3A BZF d   1      -2.885   0.173   0.545  0.00  0.00    -0.107 A 
ATOM      5  C4  BZF d   1      -2.085  -0.878   0.892  0.00  0.00     0.055 A 
ATOM      6  C5  BZF d   1      -1.231  -0.740   1.939  0.00  0.00    -0.016 A 
ATOM      7  C6  BZF d   1      -1.146   0.435   2.657  0.00  0.00     0.022 A 
ATOM      8  C7  BZF d   1      -1.922   1.503   2.354  0.00  0.00     0.029 A 
ATOM      9  C7A BZF d   1      -2.810   1.356   1.317  0.00  0.00     0.058 A 
ENDROOT
TORSDOF 0
ENDMDL
