MODEL 1
REMARK minimizedAffinity 3.85035467
REMARK minimizedRMSD -1
REMARK  0 active torsions:
REMARK  status: ('A' for Active; 'I' for Inactive)
ROOT
ATOM      1  O1  BZF d   1       1.167  -0.039   2.445  0.00  0.00    -0.204 OA
ATOM      2  C2  BZF d   1      -0.008   0.354   3.057  0.00  0.00     0.174 A 
ATOM      3  C3  BZF d   1      -1.077  -0.012   2.321  0.00  0.00    -0.012 A 
ATOM      4  C3A BZF d   1      -0.541  -0.757   1.223  0.00  0.00    -0.107 A 
ATOM      5  C4  BZF d   1      -1.106  -1.397   0.157  0.00  0.00     0.055 A 
ATOM      6  C5  BZF d   1      -0.298  -1.968  -0.775  0.00  0.00    -0.016 A 
ATOM      7  C6  BZF d   1       1.077  -1.914  -0.675  0.00  0.00     0.022 A 
ATOM      8  C7  BZF d   1       1.683  -1.295   0.367  0.00  0.00     0.029 A 
ATOM      9  C7A BZF d   1       0.870  -0.745   1.327  0.00  0.00     0.058 A 
ENDROOT
TORSDOF 0
ENDMDL
