MODEL 1
REMARK minimizedAffinity 12.9121256
REMARK minimizedRMSD -1
REMARK  0 active torsions:
REMARK  status: ('A' for Active; 'I' for Inactive)
ROOT
ATOM      1  C1  BNZ d   1       1.270  -3.161   2.667  0.00  0.00     0.000 A 
ATOM      2  C2  BNZ d   1       0.151  -2.765   1.986  0.00  0.00     0.000 A 
ATOM      3  C3  BNZ d   1      -0.507  -1.616   2.328  0.00  0.00     0.000 A 
ATOM      4  C4  BNZ d   1      -0.068  -0.888   3.375  0.00  0.00     0.000 A 
ATOM      5  C5  BNZ d   1       1.054  -1.280   4.078  0.00  0.00     0.000 A 
ATOM      6  C6  BNZ d   1       1.736  -2.415   3.706  0.00  0.00     0.000 A 
ENDROOT
TORSDOF 0
ENDMDL
