MODEL 1
REMARK minimizedAffinity 1.61689758
REMARK minimizedRMSD -1
REMARK  0 active torsions:
REMARK  status: ('A' for Active; 'I' for Inactive)
ROOT
ATOM      1  C1  BNZ d   1       3.914   3.493   1.874  0.00  0.00     0.000 A 
ATOM      2  C2  BNZ d   1       4.967   4.354   2.036  0.00  0.00     0.000 A 
ATOM      3  C3  BNZ d   1       6.000   4.372   1.141  0.00  0.00     0.000 A 
ATOM      4  C4  BNZ d   1       5.998   3.504   0.108  0.00  0.00     0.000 A 
ATOM      5  C5  BNZ d   1       4.948   2.624  -0.063  0.00  0.00     0.000 A 
ATOM      6  C6  BNZ d   1       3.892   2.635   0.818  0.00  0.00     0.000 A 
ENDROOT
TORSDOF 0
ENDMDL
