MODEL 1
REMARK minimizedAffinity 3.22270226
REMARK minimizedRMSD -1
REMARK  0 active torsions:
REMARK  status: ('A' for Active; 'I' for Inactive)
ROOT
ATOM      1  C1  BNZ d   1      -3.068  -5.265  -4.700  0.00  0.00     0.000 A 
ATOM      2  C2  BNZ d   1      -2.558  -5.994  -5.740  0.00  0.00     0.000 A 
ATOM      3  C3  BNZ d   1      -1.216  -6.000  -6.000  0.00  0.00     0.000 A 
ATOM      4  C4  BNZ d   1      -0.392  -5.246  -5.244  0.00  0.00     0.000 A 
ATOM      5  C5  BNZ d   1      -0.892  -4.498  -4.197  0.00  0.00     0.000 A 
ATOM      6  C6  BNZ d   1      -2.239  -4.526  -3.915  0.00  0.00     0.000 A 
ENDROOT
TORSDOF 0
ENDMDL
