MODEL 1
REMARK minimizedAffinity 8.92353439
REMARK minimizedRMSD -1
REMARK  0 active torsions:
REMARK  status: ('A' for Active; 'I' for Inactive)
ROOT
ATOM      1  C1  BNZ d   1      -1.876  -1.960   1.433  0.00  0.00     0.000 A 
ATOM      2  C2  BNZ d   1      -2.668  -1.099   2.145  0.00  0.00     0.000 A 
ATOM      3  C3  BNZ d   1      -2.115  -0.131   2.937  0.00  0.00     0.000 A 
ATOM      4  C4  BNZ d   1      -0.773  -0.052   3.047  0.00  0.00     0.000 A 
ATOM      5  C5  BNZ d   1       0.039  -0.918   2.342  0.00  0.00     0.000 A 
ATOM      6  C6  BNZ d   1      -0.521  -1.866   1.516  0.00  0.00     0.000 A 
ENDROOT
TORSDOF 0
ENDMDL
