MODEL 1
REMARK minimizedAffinity 8.76130295
REMARK minimizedRMSD -1
REMARK  0 active torsions:
REMARK  status: ('A' for Active; 'I' for Inactive)
ROOT
ATOM      1  C1  BNZ d   1       2.337  -2.406   2.103  0.00  0.00     0.000 A 
ATOM      2  C2  BNZ d   1       1.599  -1.343   2.550  0.00  0.00     0.000 A 
ATOM      3  C3  BNZ d   1       0.244  -1.305   2.369  0.00  0.00     0.000 A 
ATOM      4  C4  BNZ d   1      -0.364  -2.310   1.706  0.00  0.00     0.000 A 
ATOM      5  C5  BNZ d   1       0.368  -3.384   1.240  0.00  0.00     0.000 A 
ATOM      6  C6  BNZ d   1       1.725  -3.437   1.460  0.00  0.00     0.000 A 
ENDROOT
TORSDOF 0
ENDMDL
