MODEL 1
REMARK minimizedAffinity 8.84112167
REMARK minimizedRMSD -1
REMARK  0 active torsions:
REMARK  status: ('A' for Active; 'I' for Inactive)
ROOT
ATOM      1  C1  BNZ d   1      -1.173  -1.802   1.249  0.00  0.00     0.000 A 
ATOM      2  C2  BNZ d   1      -2.458  -1.330   1.242  0.00  0.00     0.000 A 
ATOM      3  C3  BNZ d   1      -2.838  -0.319   2.079  0.00  0.00     0.000 A 
ATOM      4  C4  BNZ d   1      -1.943   0.191   2.950  0.00  0.00     0.000 A 
ATOM      5  C5  BNZ d   1      -0.646  -0.281   2.977  0.00  0.00     0.000 A 
ATOM      6  C6  BNZ d   1      -0.258  -1.272   2.105  0.00  0.00     0.000 A 
ENDROOT
TORSDOF 0
ENDMDL
