MODEL 1
REMARK minimizedAffinity 6.8777256
REMARK minimizedRMSD -1
REMARK  0 active torsions:
REMARK  status: ('A' for Active; 'I' for Inactive)
ROOT
ATOM      1  C1  BNZ d   1       2.234   2.963  -3.036  0.00  0.00     0.000 A 
ATOM      2  C2  BNZ d   1       2.351   4.129  -2.326  0.00  0.00     0.000 A 
ATOM      3  C3  BNZ d   1       1.369   5.078  -2.373  0.00  0.00     0.000 A 
ATOM      4  C4  BNZ d   1       0.291   4.880  -3.160  0.00  0.00     0.000 A 
ATOM      5  C5  BNZ d   1       0.164   3.714  -3.889  0.00  0.00     0.000 A 
ATOM      6  C6  BNZ d   1       1.136   2.743  -3.809  0.00  0.00     0.000 A 
ENDROOT
TORSDOF 0
ENDMDL
