MODEL 1
REMARK minimizedAffinity 6.81839085
REMARK minimizedRMSD -1
REMARK  0 active torsions:
REMARK  status: ('A' for Active; 'I' for Inactive)
ROOT
ATOM      1  C1  BNZ d   1      -1.897  -1.463   2.224  0.00  0.00     0.000 A 
ATOM      2  C2  BNZ d   1      -3.155  -1.716   1.746  0.00  0.00     0.000 A 
ATOM      3  C3  BNZ d   1      -4.058  -0.703   1.581  0.00  0.00     0.000 A 
ATOM      4  C4  BNZ d   1      -3.716   0.553   1.931  0.00  0.00     0.000 A 
ATOM      5  C5  BNZ d   1      -2.454   0.823   2.424  0.00  0.00     0.000 A 
ATOM      6  C6  BNZ d   1      -1.535  -0.193   2.552  0.00  0.00     0.000 A 
ENDROOT
TORSDOF 0
ENDMDL
