MODEL 1
REMARK minimizedAffinity 4.4728837
REMARK minimizedRMSD -1
REMARK  0 active torsions:
REMARK  status: ('A' for Active; 'I' for Inactive)
ROOT
ATOM      1  C1  BNZ d   1       5.022   4.756  -3.905  0.00  0.00     0.000 A 
ATOM      2  C2  BNZ d   1       4.081   4.723  -2.910  0.00  0.00     0.000 A 
ATOM      3  C3  BNZ d   1       2.915   4.028  -3.073  0.00  0.00     0.000 A 
ATOM      4  C4  BNZ d   1       2.674   3.402  -4.242  0.00  0.00     0.000 A 
ATOM      5  C5  BNZ d   1       3.609   3.433  -5.258  0.00  0.00     0.000 A 
ATOM      6  C6  BNZ d   1       4.798   4.101  -5.076  0.00  0.00     0.000 A 
ENDROOT
TORSDOF 0
ENDMDL
