MODEL 1
REMARK minimizedAffinity 10.6482496
REMARK minimizedRMSD -1
REMARK  0 active torsions:
REMARK  status: ('A' for Active; 'I' for Inactive)
ROOT
ATOM      1  C1  BNZ d   1      -4.886   2.920   5.162  0.00  0.00     0.000 A 
ATOM      2  C2  BNZ d   1      -5.866   3.553   4.444  0.00  0.00     0.000 A 
ATOM      3  C3  BNZ d   1      -5.991   4.914   4.479  0.00  0.00     0.000 A 
ATOM      4  C4  BNZ d   1      -5.165   5.636   5.262  0.00  0.00     0.000 A 
ATOM      5  C5  BNZ d   1      -4.178   5.012   6.000  0.00  0.00     0.000 A 
ATOM      6  C6  BNZ d   1      -4.030   3.646   5.932  0.00  0.00     0.000 A 
ENDROOT
TORSDOF 0
ENDMDL
