MODEL 1
REMARK minimizedAffinity 8.58142471
REMARK minimizedRMSD -1
REMARK  0 active torsions:
REMARK  status: ('A' for Active; 'I' for Inactive)
ROOT
ATOM      1  C1  BNZ d   1      -0.384  -4.124  -4.495  0.00  0.00     0.000 A 
ATOM      2  C2  BNZ d   1      -0.240  -5.073  -5.472  0.00  0.00     0.000 A 
ATOM      3  C3  BNZ d   1      -1.219  -5.998  -5.699  0.00  0.00     0.000 A 
ATOM      4  C4  BNZ d   1      -2.322  -6.000  -4.923  0.00  0.00     0.000 A 
ATOM      5  C5  BNZ d   1      -2.478  -5.056  -3.927  0.00  0.00     0.000 A 
ATOM      6  C6  BNZ d   1      -1.507  -4.102  -3.728  0.00  0.00     0.000 A 
ENDROOT
TORSDOF 0
ENDMDL
