MODEL 1
REMARK minimizedAffinity 12.9308376
REMARK minimizedRMSD -1
REMARK  0 active torsions:
REMARK  status: ('A' for Active; 'I' for Inactive)
ROOT
ATOM      1  C1  BNZ d   1       3.011   2.762  -3.301  0.00  0.00     0.000 A 
ATOM      2  C2  BNZ d   1       3.842   2.801  -4.389  0.00  0.00     0.000 A 
ATOM      3  C3  BNZ d   1       3.387   3.237  -5.602  0.00  0.00     0.000 A 
ATOM      4  C4  BNZ d   1       2.094   3.595  -5.736  0.00  0.00     0.000 A 
ATOM      5  C5  BNZ d   1       1.241   3.552  -4.651  0.00  0.00     0.000 A 
ATOM      6  C6  BNZ d   1       1.712   3.149  -3.422  0.00  0.00     0.000 A 
ENDROOT
TORSDOF 0
ENDMDL
