MODEL 1
REMARK minimizedAffinity 7.86449289
REMARK minimizedRMSD -1
REMARK  0 active torsions:
REMARK  status: ('A' for Active; 'I' for Inactive)
ROOT
ATOM      1  C1  BNZ d   1      -1.107  -1.566   1.579  0.00  0.00     0.000 A 
ATOM      2  C2  BNZ d   1      -2.167  -0.738   1.321  0.00  0.00     0.000 A 
ATOM      3  C3  BNZ d   1      -2.383   0.379   2.077  0.00  0.00     0.000 A 
ATOM      4  C4  BNZ d   1      -1.564   0.646   3.115  0.00  0.00     0.000 A 
ATOM      5  C5  BNZ d   1      -0.497  -0.184   3.395  0.00  0.00     0.000 A 
ATOM      6  C6  BNZ d   1      -0.259  -1.287   2.607  0.00  0.00     0.000 A 
ENDROOT
TORSDOF 0
ENDMDL
