MODEL 1
REMARK minimizedAffinity 5.26990509
REMARK minimizedRMSD -1
REMARK  0 active torsions:
REMARK  status: ('A' for Active; 'I' for Inactive)
ROOT
ATOM      1  C1  BNZ d   1      -0.781  -1.647   1.886  0.00  0.00     0.000 A 
ATOM      2  C2  BNZ d   1      -1.707  -0.643   1.983  0.00  0.00     0.000 A 
ATOM      3  C3  BNZ d   1      -1.730   0.186   3.070  0.00  0.00     0.000 A 
ATOM      4  C4  BNZ d   1      -0.854  -0.014   4.075  0.00  0.00     0.000 A 
ATOM      5  C5  BNZ d   1       0.080  -1.028   3.997  0.00  0.00     0.000 A 
ATOM      6  C6  BNZ d   1       0.125  -1.836   2.884  0.00  0.00     0.000 A 
ENDROOT
TORSDOF 0
ENDMDL
