MODEL 1
REMARK minimizedAffinity 4.62970257
REMARK minimizedRMSD -1
REMARK  0 active torsions:
REMARK  status: ('A' for Active; 'I' for Inactive)
ROOT
ATOM      1  C1  BNZ d   1       0.245  -0.530   1.725  0.00  0.00     0.000 A 
ATOM      2  C2  BNZ d   1       0.110   0.559   2.545  0.00  0.00     0.000 A 
ATOM      3  C3  BNZ d   1      -1.125   0.979   2.953  0.00  0.00     0.000 A 
ATOM      4  C4  BNZ d   1      -2.224   0.336   2.510  0.00  0.00     0.000 A 
ATOM      5  C5  BNZ d   1      -2.105  -0.758   1.676  0.00  0.00     0.000 A 
ATOM      6  C6  BNZ d   1      -0.859  -1.202   1.298  0.00  0.00     0.000 A 
ENDROOT
TORSDOF 0
ENDMDL
