MODEL 1
REMARK minimizedAffinity 6.51649761
REMARK minimizedRMSD -1
REMARK  0 active torsions:
REMARK  status: ('A' for Active; 'I' for Inactive)
ROOT
ATOM      1  C1  BNZ d   1      -2.708   1.285   2.613  0.00  0.00     0.000 A 
ATOM      2  C2  BNZ d   1      -1.646   0.436   2.773  0.00  0.00     0.000 A 
ATOM      3  C3  BNZ d   1      -1.590  -0.751   2.097  0.00  0.00     0.000 A 
ATOM      4  C4  BNZ d   1      -2.615  -1.105   1.295  0.00  0.00     0.000 A 
ATOM      5  C5  BNZ d   1      -3.698  -0.264   1.131  0.00  0.00     0.000 A 
ATOM      6  C6  BNZ d   1      -3.732   0.947   1.782  0.00  0.00     0.000 A 
ENDROOT
TORSDOF 0
ENDMDL
