MODEL 1
REMARK minimizedAffinity 10.6042137
REMARK minimizedRMSD -1
REMARK  0 active torsions:
REMARK  status: ('A' for Active; 'I' for Inactive)
ROOT
ATOM      1  C1  BNZ d   1      -4.571   0.031   1.144  0.00  0.00     0.000 A 
ATOM      2  C2  BNZ d   1      -3.667  -0.996   1.087  0.00  0.00     0.000 A 
ATOM      3  C3  BNZ d   1      -2.465  -0.907   1.732  0.00  0.00     0.000 A 
ATOM      4  C4  BNZ d   1      -2.152   0.223   2.398  0.00  0.00     0.000 A 
ATOM      5  C5  BNZ d   1      -3.049   1.271   2.456  0.00  0.00     0.000 A 
ATOM      6  C6  BNZ d   1      -4.274   1.163   1.839  0.00  0.00     0.000 A 
ENDROOT
TORSDOF 0
ENDMDL
