MODEL 1
REMARK minimizedAffinity 7.28123474
REMARK minimizedRMSD -1
REMARK  0 active torsions:
REMARK  status: ('A' for Active; 'I' for Inactive)
ROOT
ATOM      1  C1  BNZ d   1       4.166   3.097  -4.578  0.00  0.00     0.000 A 
ATOM      2  C2  BNZ d   1       3.042   3.003  -3.801  0.00  0.00     0.000 A 
ATOM      3  C3  BNZ d   1       2.989   3.599  -2.572  0.00  0.00     0.000 A 
ATOM      4  C4  BNZ d   1       4.072   4.255  -2.106  0.00  0.00     0.000 A 
ATOM      5  C5  BNZ d   1       5.215   4.351  -2.874  0.00  0.00     0.000 A 
ATOM      6  C6  BNZ d   1       5.251   3.783  -4.127  0.00  0.00     0.000 A 
ENDROOT
TORSDOF 0
ENDMDL
