MODEL 1
REMARK minimizedAffinity 8.30335045
REMARK minimizedRMSD -1
REMARK  1 active torsions:
REMARK  status: ('A' for Active; 'I' for Inactive)
REMARK    1  A    between atoms: N_2  and  C1_3 
ROOT
ATOM      1  C1  UNL d   1      -0.008  -3.557  -0.663  0.00  0.00     0.143 A 
ATOM      2  C2  UNL d   1       0.820  -3.464   0.461  0.00  0.00    -0.057 A 
ATOM      3  C3  UNL d   1       1.926  -2.606   0.480  0.00  0.00     0.033 A 
ATOM      4  C4  UNL d   1       2.242  -1.845  -0.640  0.00  0.00    -0.042 A 
ATOM      5  C5  UNL d   1       1.448  -1.939  -1.778  0.00  0.00     0.033 A 
ATOM      6  C6  UNL d   1       0.341  -2.793  -1.788  0.00  0.00    -0.057 A 
ENDROOT
BRANCH   1   7
ATOM      7  N   UNL d   1      -1.064  -4.464  -0.779  0.00  0.00    -0.732 N 
ATOM      8  C   UNL d   1      -2.006  -4.363  -1.873  0.00  0.00     0.284 C 
ATOM      9  H3  UNL d   1      -0.784  -5.417  -0.558  0.00  0.00     0.395 HD
ENDBRANCH   1   7
TORSDOF 1
ENDMDL
