MODEL 1
REMARK minimizedAffinity 4.10252285
REMARK minimizedRMSD -1
REMARK  1 active torsions:
REMARK  status: ('A' for Active; 'I' for Inactive)
REMARK    1  A    between atoms: N_2  and  C1_3 
ROOT
ATOM      1  C1  UNL d   1      -5.196   4.280   4.054  0.00  0.00     0.143 A 
ATOM      2  C2  UNL d   1      -5.991   4.870   5.042  0.00  0.00    -0.057 A 
ATOM      3  C3  UNL d   1      -5.442   5.733   5.998  0.00  0.00     0.033 A 
ATOM      4  C4  UNL d   1      -4.077   6.000   6.000  0.00  0.00    -0.042 A 
ATOM      5  C5  UNL d   1      -3.263   5.406   5.042  0.00  0.00     0.033 A 
ATOM      6  C6  UNL d   1      -3.818   4.550   4.086  0.00  0.00    -0.057 A 
ENDROOT
BRANCH   1   7
ATOM      7  N   UNL d   1      -5.666   3.337   3.137  0.00  0.00    -0.732 N 
ATOM      8  C   UNL d   1      -4.952   3.089   1.903  0.00  0.00     0.284 C 
ATOM      9  H3  UNL d   1      -6.016   2.496   3.591  0.00  0.00     0.395 HD
ENDBRANCH   1   7
TORSDOF 1
ENDMDL
