MODEL 1
REMARK minimizedAffinity 14.2333155
REMARK minimizedRMSD -1
REMARK  1 active torsions:
REMARK  status: ('A' for Active; 'I' for Inactive)
REMARK    1  A    between atoms: N_2  and  C1_3 
ROOT
ATOM      1  C1  UNL d   1       0.213  -3.823  -0.982  0.00  0.00     0.143 A 
ATOM      2  C2  UNL d   1       0.530  -3.105  -2.140  0.00  0.00    -0.057 A 
ATOM      3  C3  UNL d   1       1.658  -2.277  -2.196  0.00  0.00     0.033 A 
ATOM      4  C4  UNL d   1       2.476  -2.130  -1.081  0.00  0.00    -0.042 A 
ATOM      5  C5  UNL d   1       2.166  -2.815   0.090  0.00  0.00     0.033 A 
ATOM      6  C6  UNL d   1       1.042  -3.645   0.137  0.00  0.00    -0.057 A 
ENDROOT
BRANCH   1   7
ATOM      7  N   UNL d   1      -0.948  -4.585  -0.832  0.00  0.00    -0.732 N 
ATOM      8  C   UNL d   1      -0.869  -5.999  -0.537  0.00  0.00     0.284 C 
ATOM      9  H3  UNL d   1      -1.672  -4.092  -0.313  0.00  0.00     0.395 HD
ENDBRANCH   1   7
TORSDOF 1
ENDMDL
