MODEL 1
REMARK minimizedAffinity 7.01358795
REMARK minimizedRMSD -1
REMARK  0 active torsions:
REMARK  status: ('A' for Active; 'I' for Inactive)
ROOT
ATOM      1  C   UNL d   1      -2.325   0.258   2.546  0.00  0.00     0.077 C 
ATOM      2  C1  UNL d   1      -2.453   1.753   2.570  0.00  0.00    -0.074 A 
ATOM      3  C2  UNL d   1      -1.601   2.534   3.358  0.00  0.00    -0.005 A 
ATOM      4  C3  UNL d   1      -1.725   3.923   3.362  0.00  0.00     0.006 A 
ATOM      5  C4  UNL d   1      -2.701   4.544   2.582  0.00  0.00    -0.005 A 
ATOM      6  C5  UNL d   1      -3.561   3.779   1.788  0.00  0.00    -0.074 A 
ATOM      7  C6  UNL d   1      -4.609   4.431   0.935  0.00  0.00     0.077 C 
ATOM      8  C7  UNL d   1      -3.425   2.384   1.783  0.00  0.00    -0.001 A 
ENDROOT
TORSDOF 0
ENDMDL
