MODEL 1
REMARK minimizedAffinity 0.0975742713
REMARK minimizedRMSD -1
REMARK  0 active torsions:
REMARK  status: ('A' for Active; 'I' for Inactive)
ROOT
ATOM      1  C   UNL d   1       4.287   6.000   0.006  0.00  0.00     0.077 C 
ATOM      2  C1  UNL d   1       4.837   5.321   1.225  0.00  0.00    -0.074 A 
ATOM      3  C2  UNL d   1       5.484   4.085   1.129  0.00  0.00    -0.005 A 
ATOM      4  C3  UNL d   1       6.000   3.470   2.271  0.00  0.00     0.006 A 
ATOM      5  C4  UNL d   1       5.873   4.085   3.517  0.00  0.00    -0.005 A 
ATOM      6  C5  UNL d   1       5.230   5.321   3.633  0.00  0.00    -0.074 A 
ATOM      7  C6  UNL d   1       5.095   6.000   4.963  0.00  0.00     0.077 C 
ATOM      8  C7  UNL d   1       4.721   5.936   2.480  0.00  0.00    -0.001 A 
ENDROOT
TORSDOF 0
ENDMDL
