MODEL 1
REMARK minimizedAffinity 7.46681309
REMARK minimizedRMSD -1
REMARK  0 active torsions:
REMARK  status: ('A' for Active; 'I' for Inactive)
ROOT
ATOM      1  C   UNL d   1      -0.901   0.949  -0.556  0.00  0.00     0.077 C 
ATOM      2  C1  UNL d   1      -1.438   0.880   0.843  0.00  0.00    -0.074 A 
ATOM      3  C2  UNL d   1      -2.189  -0.220   1.271  0.00  0.00    -0.005 A 
ATOM      4  C3  UNL d   1      -2.675  -0.274   2.577  0.00  0.00     0.006 A 
ATOM      5  C4  UNL d   1      -2.415   0.769   3.467  0.00  0.00    -0.005 A 
ATOM      6  C5  UNL d   1      -1.665   1.876   3.058  0.00  0.00    -0.074 A 
ATOM      7  C6  UNL d   1      -1.368   3.000   4.005  0.00  0.00     0.077 C 
ATOM      8  C7  UNL d   1      -1.175   1.920   1.745  0.00  0.00    -0.001 A 
ENDROOT
TORSDOF 0
ENDMDL
