MODEL 1
REMARK minimizedAffinity 10.1259279
REMARK minimizedRMSD -1
REMARK  0 active torsions:
REMARK  status: ('A' for Active; 'I' for Inactive)
ROOT
ATOM      1  C   UNL d   1       0.944  -3.096  -3.740  0.00  0.00     0.077 C 
ATOM      2  C1  UNL d   1       1.376  -1.916  -2.921  0.00  0.00    -0.074 A 
ATOM      3  C2  UNL d   1       2.243  -2.074  -1.835  0.00  0.00    -0.005 A 
ATOM      4  C3  UNL d   1       2.643  -0.966  -1.088  0.00  0.00     0.006 A 
ATOM      5  C4  UNL d   1       2.181   0.309  -1.419  0.00  0.00    -0.005 A 
ATOM      6  C5  UNL d   1       1.313   0.486  -2.502  0.00  0.00    -0.074 A 
ATOM      7  C6  UNL d   1       0.815   1.849  -2.877  0.00  0.00     0.077 C 
ATOM      8  C7  UNL d   1       0.922  -0.632  -3.252  0.00  0.00    -0.001 A 
ENDROOT
TORSDOF 0
ENDMDL
