MODEL 1
REMARK minimizedAffinity 0.546491742
REMARK minimizedRMSD -1
REMARK  0 active torsions:
REMARK  status: ('A' for Active; 'I' for Inactive)
ROOT
ATOM      1  C   UNL d   1       5.200   5.953   4.810  0.00  0.00     0.077 C 
ATOM      2  C1  UNL d   1       5.199   5.371   3.428  0.00  0.00    -0.074 A 
ATOM      3  C2  UNL d   1       6.000   4.270   3.111  0.00  0.00    -0.005 A 
ATOM      4  C3  UNL d   1       5.981   3.733   1.823  0.00  0.00     0.006 A 
ATOM      5  C4  UNL d   1       5.161   4.292   0.842  0.00  0.00    -0.005 A 
ATOM      6  C5  UNL d   1       4.353   5.393   1.141  0.00  0.00    -0.074 A 
ATOM      7  C6  UNL d   1       3.459   6.000   0.100  0.00  0.00     0.077 C 
ATOM      8  C7  UNL d   1       4.372   5.922   2.438  0.00  0.00    -0.001 A 
ENDROOT
TORSDOF 0
ENDMDL
