MODEL 1
REMARK minimizedAffinity 6.67757797
REMARK minimizedRMSD -1
REMARK  0 active torsions:
REMARK  status: ('A' for Active; 'I' for Inactive)
ROOT
ATOM      1  C   UNL d   1       2.247  -0.913  -2.002  0.00  0.00     0.077 C 
ATOM      2  C1  UNL d   1       1.463   0.354  -2.178  0.00  0.00    -0.074 A 
ATOM      3  C2  UNL d   1       0.114   0.419  -1.816  0.00  0.00    -0.005 A 
ATOM      4  C3  UNL d   1      -0.601   1.607  -1.977  0.00  0.00     0.006 A 
ATOM      5  C4  UNL d   1       0.026   2.738  -2.501  0.00  0.00    -0.005 A 
ATOM      6  C5  UNL d   1       1.375   2.692  -2.867  0.00  0.00    -0.074 A 
ATOM      7  C6  UNL d   1       2.066   3.901  -3.422  0.00  0.00     0.077 C 
ATOM      8  C7  UNL d   1       2.088   1.497  -2.696  0.00  0.00    -0.001 A 
ENDROOT
TORSDOF 0
ENDMDL
