MODEL 1
REMARK minimizedAffinity 8.79723263
REMARK minimizedRMSD -1
REMARK  0 active torsions:
REMARK  status: ('A' for Active; 'I' for Inactive)
ROOT
ATOM      1  C   UNL d   1      -3.770  -0.906   5.435  0.00  0.00     0.077 C 
ATOM      2  C1  UNL d   1      -2.905  -0.202   4.432  0.00  0.00    -0.074 A 
ATOM      3  C2  UNL d   1      -2.573  -0.810   3.217  0.00  0.00    -0.005 A 
ATOM      4  C3  UNL d   1      -1.775  -0.139   2.290  0.00  0.00     0.006 A 
ATOM      5  C4  UNL d   1      -1.301   1.143   2.568  0.00  0.00    -0.005 A 
ATOM      6  C5  UNL d   1      -1.623   1.767   3.778  0.00  0.00    -0.074 A 
ATOM      7  C6  UNL d   1      -1.130   3.149   4.089  0.00  0.00     0.077 C 
ATOM      8  C7  UNL d   1      -2.431   1.090   4.701  0.00  0.00    -0.001 A 
ENDROOT
TORSDOF 0
ENDMDL
