MODEL 1
REMARK minimizedAffinity 12.2885447
REMARK minimizedRMSD -1
REMARK  0 active torsions:
REMARK  status: ('A' for Active; 'I' for Inactive)
ROOT
ATOM      1  C   UNL d   1      -1.317   2.829   4.043  0.00  0.00     0.077 C 
ATOM      2  C1  UNL d   1      -1.663   1.646   3.187  0.00  0.00    -0.074 A 
ATOM      3  C2  UNL d   1      -2.405   0.578   3.703  0.00  0.00    -0.005 A 
ATOM      4  C3  UNL d   1      -2.727  -0.510   2.893  0.00  0.00     0.006 A 
ATOM      5  C4  UNL d   1      -2.312  -0.542   1.561  0.00  0.00    -0.005 A 
ATOM      6  C5  UNL d   1      -1.571   0.517   1.028  0.00  0.00    -0.074 A 
ATOM      7  C6  UNL d   1      -1.126   0.503  -0.404  0.00  0.00     0.077 C 
ATOM      8  C7  UNL d   1      -1.257   1.610   1.846  0.00  0.00    -0.001 A 
ENDROOT
TORSDOF 0
ENDMDL
