MODEL 1
REMARK minimizedAffinity 5.03741646
REMARK minimizedRMSD -1
REMARK  0 active torsions:
REMARK  status: ('A' for Active; 'I' for Inactive)
ROOT
ATOM      1  C   UNL d   1       1.514  -1.675  -1.569  0.00  0.00     0.077 C 
ATOM      2  C1  UNL d   1       1.549  -0.312  -2.193  0.00  0.00    -0.074 A 
ATOM      3  C2  UNL d   1       2.136   0.769  -1.527  0.00  0.00    -0.005 A 
ATOM      4  C3  UNL d   1       2.169   2.029  -2.125  0.00  0.00     0.006 A 
ATOM      5  C4  UNL d   1       1.616   2.221  -3.392  0.00  0.00    -0.005 A 
ATOM      6  C5  UNL d   1       1.025   1.152  -4.073  0.00  0.00    -0.074 A 
ATOM      7  C6  UNL d   1       0.436   1.338  -5.439  0.00  0.00     0.077 C 
ATOM      8  C7  UNL d   1       1.002  -0.113  -3.469  0.00  0.00    -0.001 A 
ENDROOT
TORSDOF 0
ENDMDL
