MODEL 1
REMARK minimizedAffinity 7.22046328
REMARK minimizedRMSD -1
REMARK  0 active torsions:
REMARK  status: ('A' for Active; 'I' for Inactive)
ROOT
ATOM      1  C   UNL d   1       0.641   1.390  -3.388  0.00  0.00     0.077 C 
ATOM      2  C1  UNL d   1       1.466   0.451  -2.559  0.00  0.00    -0.074 A 
ATOM      3  C2  UNL d   1       2.694   0.854  -2.025  0.00  0.00    -0.005 A 
ATOM      4  C3  UNL d   1       3.445  -0.028  -1.248  0.00  0.00     0.006 A 
ATOM      5  C4  UNL d   1       2.977  -1.318  -0.998  0.00  0.00    -0.005 A 
ATOM      6  C5  UNL d   1       1.751  -1.738  -1.524  0.00  0.00    -0.074 A 
ATOM      7  C6  UNL d   1       1.229  -3.119  -1.257  0.00  0.00     0.077 C 
ATOM      8  C7  UNL d   1       0.999  -0.845  -2.297  0.00  0.00    -0.001 A 
ENDROOT
TORSDOF 0
ENDMDL
