MODEL 1
REMARK minimizedAffinity 7.86570358
REMARK minimizedRMSD -1
REMARK  0 active torsions:
REMARK  status: ('A' for Active; 'I' for Inactive)
ROOT
ATOM      1  C   UNL d   1      -1.372   1.634   3.326  0.00  0.00     0.077 C 
ATOM      2  C1  UNL d   1      -1.658   0.712   2.178  0.00  0.00    -0.074 A 
ATOM      3  C2  UNL d   1      -2.571  -0.339   2.311  0.00  0.00    -0.005 A 
ATOM      4  C3  UNL d   1      -2.834  -1.182   1.231  0.00  0.00     0.006 A 
ATOM      5  C4  UNL d   1      -2.187  -0.984   0.011  0.00  0.00    -0.005 A 
ATOM      6  C5  UNL d   1      -1.272   0.062  -0.141  0.00  0.00    -0.074 A 
ATOM      7  C6  UNL d   1      -0.575   0.295  -1.449  0.00  0.00     0.077 C 
ATOM      8  C7  UNL d   1      -1.018   0.910   0.946  0.00  0.00    -0.001 A 
ENDROOT
TORSDOF 0
ENDMDL
