MODEL 1
REMARK minimizedAffinity 8.37325573
REMARK minimizedRMSD -1
REMARK  0 active torsions:
REMARK  status: ('A' for Active; 'I' for Inactive)
ROOT
ATOM      1  C   UNL d   1       0.383  -3.670  -3.351  0.00  0.00     0.077 C 
ATOM      2  C1  UNL d   1       1.103  -2.607  -2.576  0.00  0.00    -0.074 A 
ATOM      3  C2  UNL d   1       2.030  -2.944  -1.584  0.00  0.00    -0.005 A 
ATOM      4  C3  UNL d   1       2.699  -1.945  -0.878  0.00  0.00     0.006 A 
ATOM      5  C4  UNL d   1       2.449  -0.601  -1.156  0.00  0.00    -0.005 A 
ATOM      6  C5  UNL d   1       1.527  -0.244  -2.145  0.00  0.00    -0.074 A 
ATOM      7  C6  UNL d   1       1.254   1.196  -2.463  0.00  0.00     0.077 C 
ATOM      8  C7  UNL d   1       0.864  -1.255  -2.855  0.00  0.00    -0.001 A 
ENDROOT
TORSDOF 0
ENDMDL
