MODEL 1
REMARK minimizedAffinity 11.6031551
REMARK minimizedRMSD -1
REMARK  0 active torsions:
REMARK  status: ('A' for Active; 'I' for Inactive)
ROOT
ATOM      1  C   UNL d   1      -2.100   0.882   2.487  0.00  0.00     0.077 C 
ATOM      2  C1  UNL d   1      -2.390   2.338   2.699  0.00  0.00    -0.074 A 
ATOM      3  C2  UNL d   1      -1.707   3.072   3.675  0.00  0.00    -0.005 A 
ATOM      4  C3  UNL d   1      -1.981   4.428   3.854  0.00  0.00     0.006 A 
ATOM      5  C4  UNL d   1      -2.938   5.062   3.061  0.00  0.00    -0.005 A 
ATOM      6  C5  UNL d   1      -3.630   4.345   2.080  0.00  0.00    -0.074 A 
ATOM      7  C6  UNL d   1      -4.655   5.013   1.213  0.00  0.00     0.077 C 
ATOM      8  C7  UNL d   1      -3.344   2.984   1.902  0.00  0.00    -0.001 A 
ENDROOT
TORSDOF 0
ENDMDL
