MODEL 1
REMARK minimizedAffinity 1.88461399
REMARK minimizedRMSD -1
REMARK  0 active torsions:
REMARK  status: ('A' for Active; 'I' for Inactive)
ROOT
ATOM      1  C   UNL d   1      -3.802   3.055   1.120  0.00  0.00     0.077 C 
ATOM      2  C1  UNL d   1      -3.682   1.909   2.081  0.00  0.00    -0.074 A 
ATOM      3  C2  UNL d   1      -2.429   1.432   2.478  0.00  0.00    -0.005 A 
ATOM      4  C3  UNL d   1      -2.333   0.372   3.379  0.00  0.00     0.006 A 
ATOM      5  C4  UNL d   1      -3.487  -0.220   3.892  0.00  0.00    -0.005 A 
ATOM      6  C5  UNL d   1      -4.749   0.244   3.507  0.00  0.00    -0.074 A 
ATOM      7  C6  UNL d   1      -6.000  -0.375   4.057  0.00  0.00     0.077 C 
ATOM      8  C7  UNL d   1      -4.837   1.314   2.606  0.00  0.00    -0.001 A 
ENDROOT
TORSDOF 0
ENDMDL
