MODEL 1
REMARK minimizedAffinity 1.62372577
REMARK minimizedRMSD -1
REMARK  0 active torsions:
REMARK  status: ('A' for Active; 'I' for Inactive)
ROOT
ATOM      1  C   UNL d   1       2.256   5.919   1.003  0.00  0.00     0.077 C 
ATOM      2  C1  UNL d   1       3.566   5.936   1.732  0.00  0.00    -0.074 A 
ATOM      3  C2  UNL d   1       4.777   5.967   1.034  0.00  0.00    -0.005 A 
ATOM      4  C3  UNL d   1       5.988   5.992   1.726  0.00  0.00     0.006 A 
ATOM      5  C4  UNL d   1       6.000   5.986   3.121  0.00  0.00    -0.005 A 
ATOM      6  C5  UNL d   1       4.799   5.956   3.837  0.00  0.00    -0.074 A 
ATOM      7  C6  UNL d   1       4.794   5.958   5.337  0.00  0.00     0.077 C 
ATOM      8  C7  UNL d   1       3.586   5.938   3.134  0.00  0.00    -0.001 A 
ENDROOT
TORSDOF 0
ENDMDL
