MODEL 1
REMARK minimizedAffinity 11.0063839
REMARK minimizedRMSD -1
REMARK  0 active torsions:
REMARK  status: ('A' for Active; 'I' for Inactive)
ROOT
ATOM      1  C   UNL d   1      -0.192   0.426  -1.437  0.00  0.00     0.077 C 
ATOM      2  C1  UNL d   1      -1.058  -0.054  -0.310  0.00  0.00    -0.074 A 
ATOM      3  C2  UNL d   1      -1.818  -1.222  -0.434  0.00  0.00    -0.005 A 
ATOM      4  C3  UNL d   1      -2.611  -1.661   0.626  0.00  0.00     0.006 A 
ATOM      5  C4  UNL d   1      -2.652  -0.938   1.819  0.00  0.00    -0.005 A 
ATOM      6  C5  UNL d   1      -1.898   0.231   1.962  0.00  0.00    -0.074 A 
ATOM      7  C6  UNL d   1      -1.923   1.014   3.241  0.00  0.00     0.077 C 
ATOM      8  C7  UNL d   1      -1.098   0.662   0.895  0.00  0.00    -0.001 A 
ENDROOT
TORSDOF 0
ENDMDL
