MODEL 1
REMARK minimizedAffinity -3.50033498
REMARK minimizedRMSD -1
REMARK  1 active torsions:
REMARK  status: ('A' for Active; 'I' for Inactive)
REMARK    1  A    between atoms: C1_2  and  C2_3 
ROOT
ATOM      1  C2  UNL d   1      -0.176   5.992  -4.836  0.00  0.00    -0.077 A 
ATOM      2  C3  UNL d   1      -0.041   5.996  -3.441  0.00  0.00     0.002 A 
ATOM      3  C4  UNL d   1      -1.173   6.000  -2.622  0.00  0.00     0.002 A 
ATOM      4  C5  UNL d   1      -2.445   5.995  -3.189  0.00  0.00    -0.004 A 
ATOM      5  C6  UNL d   1      -2.589   5.993  -4.576  0.00  0.00     0.002 A 
ATOM      6  C7  UNL d   1      -1.460   5.991  -5.396  0.00  0.00     0.002 A 
ENDROOT
BRANCH   1   7
ATOM      7  C1  UNL d   1       1.043   5.939  -5.720  0.00  0.00     0.055 C 
ATOM      8  C   UNL d   1       2.324   5.949  -4.899  0.00  0.00     0.019 C 
ENDBRANCH   1   7
TORSDOF 1
ENDMDL
