MODEL 1
REMARK minimizedAffinity -0.26451242
REMARK minimizedRMSD -1
REMARK  1 active torsions:
REMARK  status: ('A' for Active; 'I' for Inactive)
REMARK    1  A    between atoms: C1_2  and  C2_3 
ROOT
ATOM      1  C2  UNL d   1      -0.022   5.965  -3.710  0.00  0.00    -0.077 A 
ATOM      2  C3  UNL d   1      -1.093   5.980  -4.615  0.00  0.00     0.002 A 
ATOM      3  C4  UNL d   1      -2.410   5.994  -4.151  0.00  0.00     0.002 A 
ATOM      4  C5  UNL d   1      -2.668   5.996  -2.782  0.00  0.00    -0.004 A 
ATOM      5  C6  UNL d   1      -1.610   5.979  -1.874  0.00  0.00     0.002 A 
ATOM      6  C7  UNL d   1      -0.293   5.964  -2.336  0.00  0.00     0.002 A 
ENDROOT
BRANCH   1   7
ATOM      7  C1  UNL d   1       1.399   6.000  -4.209  0.00  0.00     0.055 C 
ATOM      8  C   UNL d   1       1.455   5.916  -5.727  0.00  0.00     0.019 C 
ENDBRANCH   1   7
TORSDOF 1
ENDMDL
