MODEL 1
REMARK minimizedAffinity 8.72510624
REMARK minimizedRMSD -1
REMARK  1 active torsions:
REMARK  status: ('A' for Active; 'I' for Inactive)
REMARK    1  A    between atoms: C1_2  and  C2_3 
ROOT
ATOM      1  C2  UNL d   1       1.212   0.085  -4.170  0.00  0.00    -0.077 A 
ATOM      2  C3  UNL d   1       0.754  -1.178  -3.767  0.00  0.00     0.002 A 
ATOM      3  C4  UNL d   1      -0.264  -1.818  -4.475  0.00  0.00     0.002 A 
ATOM      4  C5  UNL d   1      -0.830  -1.207  -5.592  0.00  0.00    -0.004 A 
ATOM      5  C6  UNL d   1      -0.383   0.050  -5.999  0.00  0.00     0.002 A 
ATOM      6  C7  UNL d   1       0.634   0.692  -5.292  0.00  0.00     0.002 A 
ENDROOT
BRANCH   1   7
ATOM      7  C1  UNL d   1       2.345   0.755  -3.437  0.00  0.00     0.055 C 
ATOM      8  C   UNL d   1       1.994   2.190  -3.069  0.00  0.00     0.019 C 
ENDBRANCH   1   7
TORSDOF 1
ENDMDL
