MODEL 1
REMARK minimizedAffinity -0.47994405
REMARK minimizedRMSD -1
REMARK  1 active torsions:
REMARK  status: ('A' for Active; 'I' for Inactive)
REMARK    1  A    between atoms: C1_2  and  C2_3 
ROOT
ATOM      1  C2  UNL d   1      -1.176   5.573  -4.736  0.00  0.00    -0.077 A 
ATOM      2  C3  UNL d   1      -2.531   5.880  -4.922  0.00  0.00     0.002 A 
ATOM      3  C4  UNL d   1      -3.386   5.999  -3.824  0.00  0.00     0.002 A 
ATOM      4  C5  UNL d   1      -2.894   5.817  -2.534  0.00  0.00    -0.004 A 
ATOM      5  C6  UNL d   1      -1.548   5.509  -2.338  0.00  0.00     0.002 A 
ATOM      6  C7  UNL d   1      -0.693   5.388  -3.434  0.00  0.00     0.002 A 
ENDROOT
BRANCH   1   7
ATOM      7  C1  UNL d   1      -0.242   5.492  -5.916  0.00  0.00     0.055 C 
ATOM      8  C   UNL d   1       1.149   5.993  -5.555  0.00  0.00     0.019 C 
ENDBRANCH   1   7
TORSDOF 1
ENDMDL
