MODEL 1
REMARK minimizedAffinity -3.05386996
REMARK minimizedRMSD -1
REMARK  1 active torsions:
REMARK  status: ('A' for Active; 'I' for Inactive)
REMARK    1  A    between atoms: C1_2  and  C2_3 
ROOT
ATOM      1  C2  UNL d   1       3.229   5.998  -4.905  0.00  0.00    -0.077 A 
ATOM      2  C3  UNL d   1       4.115   5.999  -5.991  0.00  0.00     0.002 A 
ATOM      3  C4  UNL d   1       5.495   5.998  -5.776  0.00  0.00     0.002 A 
ATOM      4  C5  UNL d   1       6.000   5.992  -4.478  0.00  0.00    -0.004 A 
ATOM      5  C6  UNL d   1       5.127   5.993  -3.391  0.00  0.00     0.002 A 
ATOM      6  C7  UNL d   1       3.747   5.995  -3.603  0.00  0.00     0.002 A 
ENDROOT
BRANCH   1   7
ATOM      7  C1  UNL d   1       1.741   5.949  -5.134  0.00  0.00     0.055 C 
ATOM      8  C   UNL d   1       0.977   5.992  -3.819  0.00  0.00     0.019 C 
ENDBRANCH   1   7
TORSDOF 1
ENDMDL
