MODEL 1
REMARK minimizedAffinity 3.21122861
REMARK minimizedRMSD -1
REMARK  1 active torsions:
REMARK  status: ('A' for Active; 'I' for Inactive)
REMARK    1  A    between atoms: C1_2  and  C2_3 
ROOT
ATOM      1  C2  UNL d   1       0.270   0.999   1.109  0.00  0.00    -0.077 A 
ATOM      2  C3  UNL d   1      -0.164   0.369  -0.065  0.00  0.00     0.002 A 
ATOM      3  C4  UNL d   1      -0.049   1.016  -1.298  0.00  0.00     0.002 A 
ATOM      4  C5  UNL d   1       0.505   2.292  -1.367  0.00  0.00    -0.004 A 
ATOM      5  C6  UNL d   1       0.938   2.928  -0.204  0.00  0.00     0.002 A 
ATOM      6  C7  UNL d   1       0.822   2.284   1.028  0.00  0.00     0.002 A 
ENDROOT
BRANCH   1   7
ATOM      7  C1  UNL d   1       0.191   0.284   2.433  0.00  0.00     0.055 C 
ATOM      8  C   UNL d   1      -1.254   0.060   2.856  0.00  0.00     0.019 C 
ENDBRANCH   1   7
TORSDOF 1
ENDMDL
