MODEL 1
REMARK minimizedAffinity 11.0545368
REMARK minimizedRMSD -1
REMARK  1 active torsions:
REMARK  status: ('A' for Active; 'I' for Inactive)
REMARK    1  A    between atoms: C1_2  and  C2_3 
ROOT
ATOM      1  C2  UNL d   1       0.022   5.823  -4.678  0.00  0.00    -0.077 A 
ATOM      2  C3  UNL d   1      -1.357   5.947  -4.896  0.00  0.00     0.002 A 
ATOM      3  C4  UNL d   1      -2.241   6.000  -3.817  0.00  0.00     0.002 A 
ATOM      4  C5  UNL d   1      -1.756   5.933  -2.513  0.00  0.00    -0.004 A 
ATOM      5  C6  UNL d   1      -0.386   5.808  -2.285  0.00  0.00     0.002 A 
ATOM      6  C7  UNL d   1       0.499   5.754  -3.363  0.00  0.00     0.002 A 
ENDROOT
BRANCH   1   7
ATOM      7  C1  UNL d   1       0.982   5.816  -5.839  0.00  0.00     0.055 C 
ATOM      8  C   UNL d   1       2.427   5.790  -5.364  0.00  0.00     0.019 C 
ENDBRANCH   1   7
TORSDOF 1
ENDMDL
