MODEL 1
REMARK minimizedAffinity -2.06013393
REMARK minimizedRMSD -1
REMARK  1 active torsions:
REMARK  status: ('A' for Active; 'I' for Inactive)
REMARK    1  A    between atoms: C1_2  and  C2_3 
ROOT
ATOM      1  C2  UNL d   1      -0.708   5.965  -4.112  0.00  0.00    -0.077 A 
ATOM      2  C3  UNL d   1      -1.932   5.975  -4.795  0.00  0.00     0.002 A 
ATOM      3  C4  UNL d   1      -3.136   5.990  -4.088  0.00  0.00     0.002 A 
ATOM      4  C5  UNL d   1      -3.127   5.999  -2.694  0.00  0.00    -0.004 A 
ATOM      5  C6  UNL d   1      -1.915   5.988  -2.006  0.00  0.00     0.002 A 
ATOM      6  C7  UNL d   1      -0.711   5.972  -2.711  0.00  0.00     0.002 A 
ENDROOT
BRANCH   1   7
ATOM      7  C1  UNL d   1       0.591   5.999  -4.873  0.00  0.00     0.055 C 
ATOM      8  C   UNL d   1       0.829   4.695  -5.622  0.00  0.00     0.019 C 
ENDBRANCH   1   7
TORSDOF 1
ENDMDL
