MODEL 1
REMARK minimizedAffinity -2.74756908
REMARK minimizedRMSD -1
REMARK  1 active torsions:
REMARK  status: ('A' for Active; 'I' for Inactive)
REMARK    1  A    between atoms: C1_2  and  C2_3 
ROOT
ATOM      1  C2  UNL d   1      -0.354   5.941  -5.072  0.00  0.00    -0.077 A 
ATOM      2  C3  UNL d   1      -1.618   5.943  -5.679  0.00  0.00     0.002 A 
ATOM      3  C4  UNL d   1      -2.775   5.970  -4.898  0.00  0.00     0.002 A 
ATOM      4  C5  UNL d   1      -2.680   6.000  -3.508  0.00  0.00    -0.004 A 
ATOM      5  C6  UNL d   1      -1.427   5.997  -2.896  0.00  0.00     0.002 A 
ATOM      6  C7  UNL d   1      -0.269   5.968  -3.674  0.00  0.00     0.002 A 
ENDROOT
BRANCH   1   7
ATOM      7  C1  UNL d   1       0.896   5.962  -5.913  0.00  0.00     0.055 C 
ATOM      8  C   UNL d   1       2.146   5.999  -5.046  0.00  0.00     0.019 C 
ENDBRANCH   1   7
TORSDOF 1
ENDMDL
