MODEL 1
REMARK minimizedAffinity 5.86411858
REMARK minimizedRMSD -1
REMARK  1 active torsions:
REMARK  status: ('A' for Active; 'I' for Inactive)
REMARK    1  A    between atoms: C1_2  and  C2_3 
ROOT
ATOM      1  C2  UNL d   1      -2.700   5.999  -2.294  0.00  0.00    -0.077 A 
ATOM      2  C3  UNL d   1      -4.009   6.000  -2.797  0.00  0.00     0.002 A 
ATOM      3  C4  UNL d   1      -4.236   5.998  -4.175  0.00  0.00     0.002 A 
ATOM      4  C5  UNL d   1      -3.160   5.991  -5.060  0.00  0.00    -0.004 A 
ATOM      5  C6  UNL d   1      -1.855   5.993  -4.570  0.00  0.00     0.002 A 
ATOM      6  C7  UNL d   1      -1.626   5.995  -3.193  0.00  0.00     0.002 A 
ENDROOT
BRANCH   1   7
ATOM      7  C1  UNL d   1      -2.453   5.951  -0.809  0.00  0.00     0.055 C 
ATOM      8  C   UNL d   1      -3.759   5.979  -0.029  0.00  0.00     0.019 C 
ENDBRANCH   1   7
TORSDOF 1
ENDMDL
