MODEL 1
REMARK minimizedAffinity -0.502173245
REMARK minimizedRMSD -1
REMARK  1 active torsions:
REMARK  status: ('A' for Active; 'I' for Inactive)
REMARK    1  A    between atoms: C1_2  and  C2_3 
ROOT
ATOM      1  C2  UNL d   1      -1.214   5.642  -4.071  0.00  0.00    -0.077 A 
ATOM      2  C3  UNL d   1      -2.543   5.284  -3.806  0.00  0.00     0.002 A 
ATOM      3  C4  UNL d   1      -3.027   5.284  -2.497  0.00  0.00     0.002 A 
ATOM      4  C5  UNL d   1      -2.190   5.644  -1.443  0.00  0.00    -0.004 A 
ATOM      5  C6  UNL d   1      -0.866   5.999  -1.695  0.00  0.00     0.002 A 
ATOM      6  C7  UNL d   1      -0.380   5.999  -3.003  0.00  0.00     0.002 A 
ENDROOT
BRANCH   1   7
ATOM      7  C1  UNL d   1      -0.704   5.691  -5.487  0.00  0.00     0.055 C 
ATOM      8  C   UNL d   1       0.787   5.996  -5.529  0.00  0.00     0.019 C 
ENDBRANCH   1   7
TORSDOF 1
ENDMDL
