MODEL 1
REMARK minimizedAffinity 2.8922677
REMARK minimizedRMSD -1
REMARK  1 active torsions:
REMARK  status: ('A' for Active; 'I' for Inactive)
REMARK    1  A    between atoms: C1_2  and  C2_3 
ROOT
ATOM      1  C2  UNL d   1       3.473   3.607  -4.043  0.00  0.00    -0.077 A 
ATOM      2  C3  UNL d   1       4.456   4.048  -4.940  0.00  0.00     0.002 A 
ATOM      3  C4  UNL d   1       5.713   4.439  -4.474  0.00  0.00     0.002 A 
ATOM      4  C5  UNL d   1       5.998   4.390  -3.112  0.00  0.00    -0.004 A 
ATOM      5  C6  UNL d   1       5.026   3.956  -2.211  0.00  0.00     0.002 A 
ATOM      6  C7  UNL d   1       3.770   3.565  -2.675  0.00  0.00     0.002 A 
ENDROOT
BRANCH   1   7
ATOM      7  C1  UNL d   1       2.133   3.138  -4.549  0.00  0.00     0.055 C 
ATOM      8  C   UNL d   1       1.917   3.542  -6.000  0.00  0.00     0.019 C 
ENDBRANCH   1   7
TORSDOF 1
ENDMDL
