MODEL 1
REMARK minimizedAffinity 4.73492098
REMARK minimizedRMSD -1
REMARK  0 active torsions:
REMARK  status: ('A' for Active; 'I' for Inactive)
ROOT
ATOM      1  C   UNL d   1       0.201  -2.682  -0.110  0.00  0.00    -0.002 A 
ATOM      2  C1  UNL d   1      -0.382  -1.893   0.871  0.00  0.00     0.010 A 
ATOM      3  C2  UNL d   1       0.400  -1.047   1.661  0.00  0.00     0.041 A 
ATOM      4  C3  UNL d   1       1.792  -1.006   1.444  0.00  0.00    -0.075 A 
ATOM      5  S   UNL d   1       2.947  -0.046   2.290  0.00  0.00     0.015 SA
ATOM      6  C4  UNL d   1       4.243  -0.660   1.367  0.00  0.00     0.022 A 
ATOM      7  C5  UNL d   1       3.822  -1.577   0.433  0.00  0.00     0.026 A 
ATOM      8  C6  UNL d   1       2.402  -1.791   0.462  0.00  0.00    -0.082 A 
ATOM      9  C7  UNL d   1       1.582  -2.638  -0.322  0.00  0.00     0.045 A 
ENDROOT
TORSDOF 0
ENDMDL
