MODEL 1
REMARK minimizedAffinity 17.6637745
REMARK minimizedRMSD -1
REMARK  0 active torsions:
REMARK  status: ('A' for Active; 'I' for Inactive)
ROOT
ATOM      1  C   UNL d   1      -1.022   0.034   1.528  0.00  0.00    -0.002 A 
ATOM      2  C1  UNL d   1       0.198   0.528   1.968  0.00  0.00     0.010 A 
ATOM      3  C2  UNL d   1       1.392  -0.089   1.590  0.00  0.00     0.041 A 
ATOM      4  C3  UNL d   1       1.339  -1.220   0.752  0.00  0.00    -0.075 A 
ATOM      5  S   UNL d   1       2.673  -2.138   0.160  0.00  0.00     0.015 SA
ATOM      6  C4  UNL d   1       1.655  -3.207  -0.693  0.00  0.00     0.022 A 
ATOM      7  C5  UNL d   1       0.327  -2.886  -0.540  0.00  0.00     0.026 A 
ATOM      8  C6  UNL d   1       0.123  -1.735   0.295  0.00  0.00    -0.082 A 
ATOM      9  C7  UNL d   1      -1.070  -1.088   0.696  0.00  0.00     0.045 A 
ENDROOT
TORSDOF 0
ENDMDL
