MODEL 1
REMARK minimizedAffinity 12.7078791
REMARK minimizedRMSD -1
REMARK  0 active torsions:
REMARK  status: ('A' for Active; 'I' for Inactive)
ROOT
ATOM      1  C   UNL d   1      -0.559  -0.280   1.099  0.00  0.00    -0.002 A 
ATOM      2  C1  UNL d   1       0.746   0.142   1.315  0.00  0.00     0.010 A 
ATOM      3  C2  UNL d   1       1.823  -0.645   0.904  0.00  0.00     0.041 A 
ATOM      4  C3  UNL d   1       1.565  -1.873   0.263  0.00  0.00    -0.075 A 
ATOM      5  S   UNL d   1       2.727  -3.001  -0.328  0.00  0.00     0.015 SA
ATOM      6  C4  UNL d   1       1.520  -4.068  -0.882  0.00  0.00     0.022 A 
ATOM      7  C5  UNL d   1       0.255  -3.591  -0.630  0.00  0.00     0.026 A 
ATOM      8  C6  UNL d   1       0.261  -2.318   0.034  0.00  0.00    -0.082 A 
ATOM      9  C7  UNL d   1      -0.811  -1.498   0.464  0.00  0.00     0.045 A 
ENDROOT
TORSDOF 0
ENDMDL
