MODEL 1
REMARK minimizedAffinity 0.578536749
REMARK minimizedRMSD -1
REMARK  0 active torsions:
REMARK  status: ('A' for Active; 'I' for Inactive)
ROOT
ATOM      1  C   UNL d   1      -0.758  -2.304   0.240  0.00  0.00    -0.002 A 
ATOM      2  C1  UNL d   1       0.057  -3.132  -0.520  0.00  0.00     0.010 A 
ATOM      3  C2  UNL d   1       1.429  -2.889  -0.610  0.00  0.00     0.041 A 
ATOM      4  C3  UNL d   1       1.974  -1.791   0.085  0.00  0.00    -0.075 A 
ATOM      5  S   UNL d   1       3.627  -1.302   0.121  0.00  0.00     0.015 SA
ATOM      6  C4  UNL d   1       3.290   0.017   1.148  0.00  0.00     0.022 A 
ATOM      7  C5  UNL d   1       1.955   0.097   1.464  0.00  0.00     0.026 A 
ATOM      8  C6  UNL d   1       1.174  -0.945   0.857  0.00  0.00    -0.082 A 
ATOM      9  C7  UNL d   1      -0.213  -1.216   0.928  0.00  0.00     0.045 A 
ENDROOT
TORSDOF 0
ENDMDL
