MODEL 1
REMARK minimizedAffinity 5.71888924
REMARK minimizedRMSD -1
REMARK  0 active torsions:
REMARK  status: ('A' for Active; 'I' for Inactive)
ROOT
ATOM      1  C   UNL d   1      -0.196  -0.778   2.072  0.00  0.00    -0.002 A 
ATOM      2  C1  UNL d   1      -1.424  -1.091   1.507  0.00  0.00     0.010 A 
ATOM      3  C2  UNL d   1      -1.509  -1.999   0.449  0.00  0.00     0.041 A 
ATOM      4  C3  UNL d   1      -0.327  -2.593  -0.035  0.00  0.00    -0.075 A 
ATOM      5  S   UNL d   1      -0.187  -3.733  -1.321  0.00  0.00     0.015 SA
ATOM      6  C4  UNL d   1       1.506  -3.831  -1.150  0.00  0.00     0.022 A 
ATOM      7  C5  UNL d   1       1.970  -3.021  -0.142  0.00  0.00     0.026 A 
ATOM      8  C6  UNL d   1       0.922  -2.294   0.518  0.00  0.00    -0.082 A 
ATOM      9  C7  UNL d   1       0.974  -1.370   1.589  0.00  0.00     0.045 A 
ENDROOT
TORSDOF 0
ENDMDL
