MODEL 1
REMARK minimizedAffinity -2.66556716
REMARK minimizedRMSD -1
REMARK  0 active torsions:
REMARK  status: ('A' for Active; 'I' for Inactive)
ROOT
ATOM      1  C   UNL d   1       2.051  -0.328   0.382  0.00  0.00    -0.002 A 
ATOM      2  C1  UNL d   1       2.549  -1.531  -0.097  0.00  0.00     0.010 A 
ATOM      3  C2  UNL d   1       1.714  -2.642  -0.233  0.00  0.00     0.041 A 
ATOM      4  C3  UNL d   1       0.356  -2.521   0.121  0.00  0.00    -0.075 A 
ATOM      5  S   UNL d   1      -0.853  -3.747   0.037  0.00  0.00     0.015 SA
ATOM      6  C4  UNL d   1      -2.060  -2.702   0.633  0.00  0.00     0.022 A 
ATOM      7  C5  UNL d   1      -1.570  -1.445   0.896  0.00  0.00     0.026 A 
ATOM      8  C6  UNL d   1      -0.169  -1.320   0.604  0.00  0.00    -0.082 A 
ATOM      9  C7  UNL d   1       0.703  -0.212   0.732  0.00  0.00     0.045 A 
ENDROOT
TORSDOF 0
ENDMDL
