MODEL 1
REMARK minimizedAffinity 1.87704301
REMARK minimizedRMSD -1
REMARK  0 active torsions:
REMARK  status: ('A' for Active; 'I' for Inactive)
ROOT
ATOM      1  C   UNL d   1      -5.318  -3.219   1.240  0.00  0.00    -0.002 A 
ATOM      2  C1  UNL d   1      -4.694  -2.330   2.104  0.00  0.00     0.010 A 
ATOM      3  C2  UNL d   1      -4.520  -2.653   3.451  0.00  0.00     0.041 A 
ATOM      4  C3  UNL d   1      -4.986  -3.897   3.919  0.00  0.00    -0.075 A 
ATOM      5  S   UNL d   1      -4.881  -4.507   5.528  0.00  0.00     0.015 SA
ATOM      6  C4  UNL d   1      -5.660  -5.963   5.107  0.00  0.00     0.022 A 
ATOM      7  C5  UNL d   1      -6.000  -6.000   3.775  0.00  0.00     0.026 A 
ATOM      8  C6  UNL d   1      -5.616  -4.810   3.069  0.00  0.00    -0.082 A 
ATOM      9  C7  UNL d   1      -5.778  -4.453   1.708  0.00  0.00     0.045 A 
ENDROOT
TORSDOF 0
ENDMDL
