MODEL 1
REMARK minimizedAffinity 8.93219566
REMARK minimizedRMSD -1
REMARK  0 active torsions:
REMARK  status: ('A' for Active; 'I' for Inactive)
ROOT
ATOM      1  C   UNL d   1       3.747  -2.291  -0.014  0.00  0.00    -0.002 A 
ATOM      2  C1  UNL d   1       3.664  -3.610  -0.436  0.00  0.00     0.010 A 
ATOM      3  C2  UNL d   1       2.427  -4.253  -0.520  0.00  0.00     0.041 A 
ATOM      4  C3  UNL d   1       1.263  -3.540  -0.170  0.00  0.00    -0.075 A 
ATOM      5  S   UNL d   1      -0.359  -4.122  -0.196  0.00  0.00     0.015 SA
ATOM      6  C4  UNL d   1      -0.981  -2.632   0.353  0.00  0.00     0.022 A 
ATOM      7  C5  UNL d   1       0.011  -1.703   0.555  0.00  0.00     0.026 A 
ATOM      8  C6  UNL d   1       1.321  -2.210   0.257  0.00  0.00    -0.082 A 
ATOM      9  C7  UNL d   1       2.590  -1.587   0.332  0.00  0.00     0.045 A 
ENDROOT
TORSDOF 0
ENDMDL
