MODEL 1
REMARK minimizedAffinity 9.96805859
REMARK minimizedRMSD -1
REMARK  0 active torsions:
REMARK  status: ('A' for Active; 'I' for Inactive)
ROOT
ATOM      1  C   UNL d   1       0.005  -0.607   1.657  0.00  0.00    -0.002 A 
ATOM      2  C1  UNL d   1      -1.080  -0.896   0.842  0.00  0.00     0.010 A 
ATOM      3  C2  UNL d   1      -0.994  -1.899  -0.126  0.00  0.00     0.041 A 
ATOM      4  C3  UNL d   1       0.213  -2.614  -0.261  0.00  0.00    -0.075 A 
ATOM      5  S   UNL d   1       0.549  -3.885  -1.376  0.00  0.00     0.015 SA
ATOM      6  C4  UNL d   1       2.140  -4.074  -0.796  0.00  0.00     0.022 A 
ATOM      7  C5  UNL d   1       2.425  -3.197   0.223  0.00  0.00     0.026 A 
ATOM      8  C6  UNL d   1       1.319  -2.341   0.549  0.00  0.00    -0.082 A 
ATOM      9  C7  UNL d   1       1.200  -1.318   1.521  0.00  0.00     0.045 A 
ENDROOT
TORSDOF 0
ENDMDL
