MODEL 1
REMARK minimizedAffinity 5.42988682
REMARK minimizedRMSD -1
REMARK  0 active torsions:
REMARK  status: ('A' for Active; 'I' for Inactive)
ROOT
ATOM      1  C   UNL d   1      -1.150  -0.342   1.072  0.00  0.00    -0.002 A 
ATOM      2  C1  UNL d   1      -0.013   0.418   1.309  0.00  0.00     0.010 A 
ATOM      3  C2  UNL d   1       1.256  -0.100   1.043  0.00  0.00     0.041 A 
ATOM      4  C3  UNL d   1       1.364  -1.408   0.530  0.00  0.00    -0.075 A 
ATOM      5  S   UNL d   1       2.814  -2.250   0.128  0.00  0.00     0.015 SA
ATOM      6  C4  UNL d   1       1.958  -3.639  -0.367  0.00  0.00     0.022 A 
ATOM      7  C5  UNL d   1       0.599  -3.481  -0.236  0.00  0.00     0.026 A 
ATOM      8  C6  UNL d   1       0.234  -2.192   0.283  0.00  0.00    -0.082 A 
ATOM      9  C7  UNL d   1      -1.038  -1.638   0.563  0.00  0.00     0.045 A 
ENDROOT
TORSDOF 0
ENDMDL
