MODEL 1
REMARK minimizedAffinity 14.7095814
REMARK minimizedRMSD -1
REMARK  0 active torsions:
REMARK  status: ('A' for Active; 'I' for Inactive)
ROOT
ATOM      1  C   UNL d   1       1.349  -4.820  -1.540  0.00  0.00    -0.002 A 
ATOM      2  C1  UNL d   1       2.573  -4.469  -0.989  0.00  0.00     0.010 A 
ATOM      3  C2  UNL d   1       2.658  -3.450  -0.038  0.00  0.00     0.041 A 
ATOM      4  C3  UNL d   1       1.480  -2.785   0.355  0.00  0.00    -0.075 A 
ATOM      5  S   UNL d   1       1.342  -1.507   1.504  0.00  0.00     0.015 SA
ATOM      6  C4  UNL d   1      -0.345  -1.397   1.292  0.00  0.00     0.022 A 
ATOM      7  C5  UNL d   1      -0.809  -2.306   0.370  0.00  0.00     0.026 A 
ATOM      8  C6  UNL d   1       0.235  -3.121  -0.185  0.00  0.00    -0.082 A 
ATOM      9  C7  UNL d   1       0.182  -4.157  -1.148  0.00  0.00     0.045 A 
ENDROOT
TORSDOF 0
ENDMDL
