MODEL 1
REMARK minimizedAffinity -1.92948306
REMARK minimizedRMSD -1
REMARK  0 active torsions:
REMARK  status: ('A' for Active; 'I' for Inactive)
ROOT
ATOM      1  C   UNL d   1      -0.165  -3.057  -0.021  0.00  0.00    -0.002 A 
ATOM      2  C1  UNL d   1       0.694  -2.548   0.943  0.00  0.00     0.010 A 
ATOM      3  C2  UNL d   1       0.320  -1.450   1.720  0.00  0.00     0.041 A 
ATOM      4  C3  UNL d   1      -0.945  -0.867   1.512  0.00  0.00    -0.075 A 
ATOM      5  S   UNL d   1      -1.617   0.483   2.347  0.00  0.00     0.015 SA
ATOM      6  C4  UNL d   1      -3.061   0.417   1.445  0.00  0.00     0.022 A 
ATOM      7  C5  UNL d   1      -3.048  -0.604   0.525  0.00  0.00     0.026 A 
ATOM      8  C6  UNL d   1      -1.829  -1.362   0.549  0.00  0.00    -0.082 A 
ATOM      9  C7  UNL d   1      -1.420  -2.476  -0.224  0.00  0.00     0.045 A 
ENDROOT
TORSDOF 0
ENDMDL
