MODEL 1
REMARK minimizedAffinity 10.3253736
REMARK minimizedRMSD -1
REMARK  0 active torsions:
REMARK  status: ('A' for Active; 'I' for Inactive)
ROOT
ATOM      1  C   UNL d   1      -0.984  -2.513   0.509  0.00  0.00    -0.002 A 
ATOM      2  C1  UNL d   1      -0.112  -3.264  -0.265  0.00  0.00     0.010 A 
ATOM      3  C2  UNL d   1       1.263  -3.023  -0.223  0.00  0.00     0.041 A 
ATOM      4  C3  UNL d   1       1.751  -2.006   0.621  0.00  0.00    -0.075 A 
ATOM      5  S   UNL d   1       3.395  -1.533   0.836  0.00  0.00     0.015 SA
ATOM      6  C4  UNL d   1       2.977  -0.323   1.962  0.00  0.00     0.022 A 
ATOM      7  C5  UNL d   1       1.621  -0.267   2.179  0.00  0.00     0.026 A 
ATOM      8  C6  UNL d   1       0.892  -1.236   1.410  0.00  0.00    -0.082 A 
ATOM      9  C7  UNL d   1      -0.497  -1.504   1.344  0.00  0.00     0.045 A 
ENDROOT
TORSDOF 0
ENDMDL
