MODEL 1
REMARK minimizedAffinity -5.83825541
REMARK minimizedRMSD -1
REMARK  3 active torsions:
REMARK  status: ('A' for Active; 'I' for Inactive)
REMARK    1  A    between atoms: C3'_2  and  C2'_3 
REMARK    2  A    between atoms: C2'_3  and  C1'_4 
REMARK    3  A    between atoms: C1'_4  and  C1_5 
ROOT
ATOM      1  C1  N4B d   1       0.251  -0.107   0.253  0.00  0.00    -0.075 A 
ATOM      2  C2  N4B d   1       0.329  -1.479  -0.075  0.00  0.00     0.002 A 
ATOM      3  C3  N4B d   1       1.407  -1.956  -0.779  0.00  0.00     0.002 A 
ATOM      4  C4  N4B d   1       2.406  -1.082  -1.180  0.00  0.00    -0.004 A 
ATOM      5  C5  N4B d   1       2.336   0.237  -0.837  0.00  0.00     0.002 A 
ATOM      6  C6  N4B d   1       1.260   0.730  -0.127  0.00  0.00     0.002 A 
ENDROOT
BRANCH   1   7
ATOM      7  C1' N4B d   1      -0.949   0.476   0.946  0.00  0.00     0.057 C 
BRANCH   7   8
ATOM      8  C2' N4B d   1      -0.912   0.091   2.422  0.00  0.00     0.009 C 
BRANCH   8   9
ATOM      9  C3' N4B d   1      -1.925   0.873   3.240  0.00  0.00     0.004 C 
ATOM     10  C4' N4B d   1      -2.751   1.805   2.404  0.00  0.00     0.003 C 
ENDBRANCH   8   9
ENDBRANCH   7   8
ENDBRANCH   1   7
TORSDOF 3
ENDMDL
