MODEL 1
REMARK minimizedAffinity -3.30249023
REMARK minimizedRMSD -1
REMARK  3 active torsions:
REMARK  status: ('A' for Active; 'I' for Inactive)
REMARK    1  A    between atoms: C3'_2  and  C2'_3 
REMARK    2  A    between atoms: C2'_3  and  C1'_4 
REMARK    3  A    between atoms: C1'_4  and  C1_5 
ROOT
ATOM      1  C1  N4B d   1      -0.730   0.085   0.103  0.00  0.00    -0.075 A 
ATOM      2  C2  N4B d   1      -0.571   1.189  -0.763  0.00  0.00     0.002 A 
ATOM      3  C3  N4B d   1       0.438   1.192  -1.694  0.00  0.00     0.002 A 
ATOM      4  C4  N4B d   1       1.308   0.114  -1.765  0.00  0.00    -0.004 A 
ATOM      5  C5  N4B d   1       1.132  -0.960  -0.943  0.00  0.00     0.002 A 
ATOM      6  C6  N4B d   1       0.120  -0.978  -0.005  0.00  0.00     0.002 A 
ENDROOT
BRANCH   1   7
ATOM      7  C1' N4B d   1      -1.766   0.073   1.194  0.00  0.00     0.057 C 
BRANCH   7   8
ATOM      8  C2' N4B d   1      -1.546   1.278   2.105  0.00  0.00     0.009 C 
BRANCH   8   9
ATOM      9  C3' N4B d   1      -2.411   1.212   3.352  0.00  0.00     0.004 C 
ATOM     10  C4' N4B d   1      -2.254  -0.078   4.100  0.00  0.00     0.003 C 
ENDBRANCH   8   9
ENDBRANCH   7   8
ENDBRANCH   1   7
TORSDOF 3
ENDMDL
