MODEL 1
REMARK minimizedAffinity 1.42732179
REMARK minimizedRMSD -1
REMARK  3 active torsions:
REMARK  status: ('A' for Active; 'I' for Inactive)
REMARK    1  A    between atoms: C3'_2  and  C2'_3 
REMARK    2  A    between atoms: C2'_3  and  C1'_4 
REMARK    3  A    between atoms: C1'_4  and  C1_5 
ROOT
ATOM      1  C1  N4B d   1       0.623  -0.462  -0.480  0.00  0.00    -0.075 A 
ATOM      2  C2  N4B d   1       1.587   0.430   0.039  0.00  0.00     0.002 A 
ATOM      3  C3  N4B d   1       2.901   0.322  -0.346  0.00  0.00     0.002 A 
ATOM      4  C4  N4B d   1       3.276  -0.679  -1.230  0.00  0.00    -0.004 A 
ATOM      5  C5  N4B d   1       2.335  -1.521  -1.746  0.00  0.00     0.002 A 
ATOM      6  C6  N4B d   1       1.010  -1.421  -1.371  0.00  0.00     0.002 A 
ENDROOT
BRANCH   1   7
ATOM      7  C1' N4B d   1      -0.810  -0.436  -0.023  0.00  0.00     0.057 C 
BRANCH   7   8
ATOM      8  C2' N4B d   1      -0.924   0.442   1.219  0.00  0.00     0.009 C 
BRANCH   8   9
ATOM      9  C3' N4B d   1      -1.934  -0.107   2.212  0.00  0.00     0.004 C 
ATOM     10  C4' N4B d   1      -1.886   0.595   3.537  0.00  0.00     0.003 C 
ENDBRANCH   8   9
ENDBRANCH   7   8
ENDBRANCH   1   7
TORSDOF 3
ENDMDL
