MODEL 1
REMARK minimizedAffinity -6.56189394
REMARK minimizedRMSD -1
REMARK  3 active torsions:
REMARK  status: ('A' for Active; 'I' for Inactive)
REMARK    1  A    between atoms: C3'_2  and  C2'_3 
REMARK    2  A    between atoms: C2'_3  and  C1'_4 
REMARK    3  A    between atoms: C1'_4  and  C1_5 
ROOT
ATOM      1  C1  N4B d   1       0.726   0.172  -0.610  0.00  0.00    -0.075 A 
ATOM      2  C2  N4B d   1       1.530  -0.956  -0.336  0.00  0.00     0.002 A 
ATOM      3  C3  N4B d   1       2.710  -1.139  -1.013  0.00  0.00     0.002 A 
ATOM      4  C4  N4B d   1       3.097  -0.221  -1.978  0.00  0.00    -0.004 A 
ATOM      5  C5  N4B d   1       2.328   0.880  -2.218  0.00  0.00     0.002 A 
ATOM      6  C6  N4B d   1       1.141   1.079  -1.542  0.00  0.00     0.002 A 
ENDROOT
BRANCH   1   7
ATOM      7  C1' N4B d   1      -0.614   0.370   0.044  0.00  0.00     0.057 C 
BRANCH   7   8
ATOM      8  C2' N4B d   1      -0.426   0.462   1.555  0.00  0.00     0.009 C 
BRANCH   8   9
ATOM      9  C3' N4B d   1      -1.724   0.792   2.271  0.00  0.00     0.004 C 
ATOM     10  C4' N4B d   1      -1.557   1.852   3.318  0.00  0.00     0.003 C 
ENDBRANCH   8   9
ENDBRANCH   7   8
ENDBRANCH   1   7
TORSDOF 3
ENDMDL
