MODEL 1
REMARK minimizedAffinity -4.94705009
REMARK minimizedRMSD -1
REMARK  3 active torsions:
REMARK  status: ('A' for Active; 'I' for Inactive)
REMARK    1  A    between atoms: C3'_2  and  C2'_3 
REMARK    2  A    between atoms: C2'_3  and  C1'_4 
REMARK    3  A    between atoms: C1'_4  and  C1_5 
ROOT
ATOM      1  C1  N4B d   1       0.226   0.471  -0.843  0.00  0.00    -0.075 A 
ATOM      2  C2  N4B d   1       1.195  -0.553  -0.921  0.00  0.00     0.002 A 
ATOM      3  C3  N4B d   1       2.254  -0.432  -1.787  0.00  0.00     0.002 A 
ATOM      4  C4  N4B d   1       2.354   0.691  -2.596  0.00  0.00    -0.004 A 
ATOM      5  C5  N4B d   1       1.428   1.687  -2.496  0.00  0.00     0.002 A 
ATOM      6  C6  N4B d   1       0.360   1.580  -1.627  0.00  0.00     0.002 A 
ENDROOT
BRANCH   1   7
ATOM      7  C1' N4B d   1      -0.995   0.344   0.026  0.00  0.00     0.057 C 
BRANCH   7   8
ATOM      8  C2' N4B d   1      -0.633   0.733   1.457  0.00  0.00     0.009 C 
BRANCH   8   9
ATOM      9  C3' N4B d   1      -1.790   0.509   2.416  0.00  0.00     0.004 C 
ATOM     10  C4' N4B d   1      -1.689   1.350   3.654  0.00  0.00     0.003 C 
ENDBRANCH   8   9
ENDBRANCH   7   8
ENDBRANCH   1   7
TORSDOF 3
ENDMDL
