MODEL 1
REMARK minimizedAffinity -2.12361932
REMARK minimizedRMSD -1
REMARK  3 active torsions:
REMARK  status: ('A' for Active; 'I' for Inactive)
REMARK    1  A    between atoms: C3'_2  and  C2'_3 
REMARK    2  A    between atoms: C2'_3  and  C1'_4 
REMARK    3  A    between atoms: C1'_4  and  C1_5 
ROOT
ATOM      1  C1  N4B d   1       0.107   0.282  -0.131  0.00  0.00    -0.075 A 
ATOM      2  C2  N4B d   1       1.479  -0.052  -0.130  0.00  0.00     0.002 A 
ATOM      3  C3  N4B d   1       2.362   0.670  -0.895  0.00  0.00     0.002 A 
ATOM      4  C4  N4B d   1       1.895   1.714  -1.679  0.00  0.00    -0.004 A 
ATOM      5  C5  N4B d   1       0.572   2.046  -1.655  0.00  0.00     0.002 A 
ATOM      6  C6  N4B d   1      -0.326   1.332  -0.888  0.00  0.00     0.002 A 
ENDROOT
BRANCH   1   7
ATOM      7  C1' N4B d   1      -0.910  -0.532   0.623  0.00  0.00     0.057 C 
BRANCH   7   8
ATOM      8  C2' N4B d   1      -1.822   0.406   1.407  0.00  0.00     0.009 C 
BRANCH   8   9
ATOM      9  C3' N4B d   1      -2.448  -0.282   2.608  0.00  0.00     0.004 C 
ATOM     10  C4' N4B d   1      -1.992   0.299   3.913  0.00  0.00     0.003 C 
ENDBRANCH   8   9
ENDBRANCH   7   8
ENDBRANCH   1   7
TORSDOF 3
ENDMDL
