MODEL 1
REMARK minimizedAffinity 0.475527763
REMARK minimizedRMSD -1
REMARK  3 active torsions:
REMARK  status: ('A' for Active; 'I' for Inactive)
REMARK    1  A    between atoms: C3'_2  and  C2'_3 
REMARK    2  A    between atoms: C2'_3  and  C1'_4 
REMARK    3  A    between atoms: C1'_4  and  C1_5 
ROOT
ATOM      1  C1  N4B d   1      -1.421  -0.472   0.410  0.00  0.00    -0.075 A 
ATOM      2  C2  N4B d   1      -1.234   0.850  -0.051  0.00  0.00     0.002 A 
ATOM      3  C3  N4B d   1      -0.083   1.189  -0.718  0.00  0.00     0.002 A 
ATOM      4  C4  N4B d   1       0.900   0.232  -0.919  0.00  0.00    -0.004 A 
ATOM      5  C5  N4B d   1       0.702  -1.049  -0.493  0.00  0.00     0.002 A 
ATOM      6  C6  N4B d   1      -0.453  -1.405   0.175  0.00  0.00     0.002 A 
ENDROOT
BRANCH   1   7
ATOM      7  C1' N4B d   1      -2.625  -0.869   1.219  0.00  0.00     0.057 C 
BRANCH   7   8
ATOM      8  C2' N4B d   1      -2.953   0.246   2.208  0.00  0.00     0.009 C 
BRANCH   8   9
ATOM      9  C3' N4B d   1      -2.273   0.033   3.550  0.00  0.00     0.004 C 
ATOM     10  C4' N4B d   1      -1.916   1.321   4.230  0.00  0.00     0.003 C 
ENDBRANCH   8   9
ENDBRANCH   7   8
ENDBRANCH   1   7
TORSDOF 3
ENDMDL
