MODEL 1
REMARK minimizedAffinity 1.34145415
REMARK minimizedRMSD -1
REMARK  3 active torsions:
REMARK  status: ('A' for Active; 'I' for Inactive)
REMARK    1  A    between atoms: C3'_2  and  C2'_3 
REMARK    2  A    between atoms: C2'_3  and  C1'_4 
REMARK    3  A    between atoms: C1'_4  and  C1_5 
ROOT
ATOM      1  C1  N4B d   1      -0.010  -0.416  -0.719  0.00  0.00    -0.075 A 
ATOM      2  C2  N4B d   1       1.183  -1.021  -1.170  0.00  0.00     0.002 A 
ATOM      3  C3  N4B d   1       1.452  -2.330  -0.853  0.00  0.00     0.002 A 
ATOM      4  C4  N4B d   1       0.555  -3.045  -0.073  0.00  0.00    -0.004 A 
ATOM      5  C5  N4B d   1      -0.607  -2.461   0.337  0.00  0.00     0.002 A 
ATOM      6  C6  N4B d   1      -0.892  -1.147   0.022  0.00  0.00     0.002 A 
ENDROOT
BRANCH   1   7
ATOM      7  C1' N4B d   1      -0.307   1.038  -0.969  0.00  0.00     0.057 C 
BRANCH   7   8
ATOM      8  C2' N4B d   1      -0.113   1.818   0.328  0.00  0.00     0.009 C 
BRANCH   8   9
ATOM      9  C3' N4B d   1       1.123   2.701   0.280  0.00  0.00     0.004 C 
ATOM     10  C4' N4B d   1       1.221   3.627   1.455  0.00  0.00     0.003 C 
ENDBRANCH   8   9
ENDBRANCH   7   8
ENDBRANCH   1   7
TORSDOF 3
ENDMDL
