MODEL 1
REMARK minimizedAffinity 8.88412857
REMARK minimizedRMSD -1
REMARK  0 active torsions:
REMARK  status: ('A' for Active; 'I' for Inactive)
ROOT
ATOM      1  C   UNL d   1       5.640  -5.152  -1.026  0.00  0.00     0.020 A 
ATOM      2  C1  UNL d   1       4.555  -5.999  -0.805  0.00  0.00     0.020 A 
ATOM      3  C2  UNL d   1       3.465  -5.979  -1.678  0.00  0.00     0.034 A 
ATOM      4  C3  UNL d   1       3.457  -5.110  -2.775  0.00  0.00     0.017 A 
ATOM      5  C4  UNL d   1       4.547  -4.261  -2.996  0.00  0.00     0.017 A 
ATOM      6  C5  UNL d   1       5.637  -4.285  -2.120  0.00  0.00     0.034 A 
ATOM      7 Cl   UNL d   1       4.611  -3.162  -4.329  0.00  0.00    -0.070 Cl
ATOM      8 Cl1  UNL d   1       2.076  -5.139  -3.813  0.00  0.00    -0.070 Cl
ENDROOT
TORSDOF 0
ENDMDL
