MODEL 1
REMARK minimizedAffinity 12.668293
REMARK minimizedRMSD -1
REMARK  0 active torsions:
REMARK  status: ('A' for Active; 'I' for Inactive)
ROOT
ATOM      1  C   UNL d   1       5.628  -4.826  -1.474  0.00  0.00     0.020 A 
ATOM      2  C1  UNL d   1       4.826  -5.946  -1.261  0.00  0.00     0.020 A 
ATOM      3  C2  UNL d   1       3.492  -5.788  -0.882  0.00  0.00     0.034 A 
ATOM      4  C3  UNL d   1       2.954  -4.506  -0.715  0.00  0.00     0.017 A 
ATOM      5  C4  UNL d   1       3.760  -3.382  -0.930  0.00  0.00     0.017 A 
ATOM      6  C5  UNL d   1       5.096  -3.546  -1.309  0.00  0.00     0.034 A 
ATOM      7 Cl   UNL d   1       3.168  -1.769  -0.744  0.00  0.00    -0.070 Cl
ATOM      8 Cl1  UNL d   1       1.296  -4.385  -0.245  0.00  0.00    -0.070 Cl
ENDROOT
TORSDOF 0
ENDMDL
