MODEL 1
REMARK minimizedAffinity 6.65885353
REMARK minimizedRMSD -1
REMARK  0 active torsions:
REMARK  status: ('A' for Active; 'I' for Inactive)
ROOT
ATOM      1  C   UNL d   1       0.019   5.347  -1.112  0.00  0.00     0.020 A 
ATOM      2  C1  UNL d   1       0.531   5.998   0.010  0.00  0.00     0.020 A 
ATOM      3  C2  UNL d   1       0.822   5.273   1.167  0.00  0.00     0.034 A 
ATOM      4  C3  UNL d   1       0.601   3.891   1.205  0.00  0.00     0.017 A 
ATOM      5  C4  UNL d   1       0.087   3.238   0.079  0.00  0.00     0.017 A 
ATOM      6  C5  UNL d   1      -0.203   3.969  -1.077  0.00  0.00     0.034 A 
ATOM      7 Cl   UNL d   1      -0.212   1.536   0.050  0.00  0.00    -0.070 Cl
ATOM      8 Cl1  UNL d   1       0.984   3.056   2.669  0.00  0.00    -0.070 Cl
ENDROOT
TORSDOF 0
ENDMDL
