MODEL 1
REMARK minimizedAffinity 10.4592218
REMARK minimizedRMSD -1
REMARK  0 active torsions:
REMARK  status: ('A' for Active; 'I' for Inactive)
ROOT
ATOM      1  C   UNL d   1       0.627   4.127  -0.703  0.00  0.00     0.020 A 
ATOM      2  C1  UNL d   1       0.191   5.442  -0.859  0.00  0.00     0.020 A 
ATOM      3  C2  UNL d   1      -0.691   6.000   0.069  0.00  0.00     0.034 A 
ATOM      4  C3  UNL d   1      -1.140   5.242   1.157  0.00  0.00     0.017 A 
ATOM      5  C4  UNL d   1      -0.702   3.922   1.312  0.00  0.00     0.017 A 
ATOM      6  C5  UNL d   1       0.181   3.369   0.380  0.00  0.00     0.034 A 
ATOM      7 Cl   UNL d   1      -1.212   2.925   2.628  0.00  0.00    -0.070 Cl
ATOM      8 Cl1  UNL d   1      -2.230   5.996   2.266  0.00  0.00    -0.070 Cl
ENDROOT
TORSDOF 0
ENDMDL
