MODEL 1
REMARK minimizedAffinity 4.41932631
REMARK minimizedRMSD -1
REMARK  0 active torsions:
REMARK  status: ('A' for Active; 'I' for Inactive)
ROOT
ATOM      1  C   UNL d   1      -1.943  -5.973  -5.745  0.00  0.00     0.020 A 
ATOM      2  C1  UNL d   1      -1.479  -5.973  -4.430  0.00  0.00     0.020 A 
ATOM      3  C2  UNL d   1      -2.387  -5.980  -3.369  0.00  0.00     0.034 A 
ATOM      4  C3  UNL d   1      -3.764  -5.987  -3.621  0.00  0.00     0.017 A 
ATOM      5  C4  UNL d   1      -4.229  -5.987  -4.941  0.00  0.00     0.017 A 
ATOM      6  C5  UNL d   1      -3.315  -5.980  -6.000  0.00  0.00     0.034 A 
ATOM      7 Cl   UNL d   1      -5.913  -5.995  -5.331  0.00  0.00    -0.070 Cl
ATOM      8 Cl1  UNL d   1      -4.830  -5.995  -2.261  0.00  0.00    -0.070 Cl
ENDROOT
TORSDOF 0
ENDMDL
