MODEL 1
REMARK minimizedAffinity 10.6601448
REMARK minimizedRMSD -1
REMARK  0 active torsions:
REMARK  status: ('A' for Active; 'I' for Inactive)
ROOT
ATOM      1  C   UNL d   1      -5.997   4.488  -5.648  0.00  0.00     0.020 A 
ATOM      2  C1  UNL d   1      -5.178   5.576  -5.948  0.00  0.00     0.020 A 
ATOM      3  C2  UNL d   1      -4.216   6.000  -5.029  0.00  0.00     0.034 A 
ATOM      4  C3  UNL d   1      -4.072   5.336  -3.805  0.00  0.00     0.017 A 
ATOM      5  C4  UNL d   1      -4.895   4.245  -3.505  0.00  0.00     0.017 A 
ATOM      6  C5  UNL d   1      -5.856   3.824  -4.429  0.00  0.00     0.034 A 
ATOM      7 Cl   UNL d   1      -4.775   3.376  -2.015  0.00  0.00    -0.070 Cl
ATOM      8 Cl1  UNL d   1      -2.861   5.915  -2.715  0.00  0.00    -0.070 Cl
ENDROOT
TORSDOF 0
ENDMDL
