MODEL 1
REMARK minimizedAffinity 9.90252972
REMARK minimizedRMSD -1
REMARK  0 active torsions:
REMARK  status: ('A' for Active; 'I' for Inactive)
ROOT
ATOM      1  C   UNL d   1       0.638   4.169  -0.742  0.00  0.00     0.020 A 
ATOM      2  C1  UNL d   1       0.140   5.457  -0.932  0.00  0.00     0.020 A 
ATOM      3  C2  UNL d   1      -0.767   5.997  -0.018  0.00  0.00     0.034 A 
ATOM      4  C3  UNL d   1      -1.178   5.249   1.091  0.00  0.00     0.017 A 
ATOM      5  C4  UNL d   1      -0.677   3.956   1.282  0.00  0.00     0.017 A 
ATOM      6  C5  UNL d   1       0.230   3.420   0.363  0.00  0.00     0.034 A 
ATOM      7 Cl   UNL d   1      -1.138   2.973   2.626  0.00  0.00    -0.070 Cl
ATOM      8 Cl1  UNL d   1      -2.301   5.981   2.182  0.00  0.00    -0.070 Cl
ENDROOT
TORSDOF 0
ENDMDL
