MODEL 1
REMARK minimizedAffinity 12.823143
REMARK minimizedRMSD -1
REMARK  0 active torsions:
REMARK  status: ('A' for Active; 'I' for Inactive)
ROOT
ATOM      1  C   UNL d   1      -2.384   0.005  -1.575  0.00  0.00     0.020 A 
ATOM      2  C1  UNL d   1      -1.516  -0.998  -2.005  0.00  0.00     0.020 A 
ATOM      3  C2  UNL d   1      -0.155  -0.921  -1.704  0.00  0.00     0.034 A 
ATOM      4  C3  UNL d   1       0.343   0.161  -0.969  0.00  0.00     0.017 A 
ATOM      5  C4  UNL d   1      -0.528   1.167  -0.537  0.00  0.00     0.017 A 
ATOM      6  C5  UNL d   1      -1.891   1.085  -0.842  0.00  0.00     0.034 A 
ATOM      7 Cl   UNL d   1       0.012   2.534   0.373  0.00  0.00    -0.070 Cl
ATOM      8 Cl1  UNL d   1       2.037   0.192  -0.632  0.00  0.00    -0.070 Cl
ENDROOT
TORSDOF 0
ENDMDL
