MODEL 1
REMARK minimizedAffinity 10.8882885
REMARK minimizedRMSD -1
REMARK  0 active torsions:
REMARK  status: ('A' for Active; 'I' for Inactive)
ROOT
ATOM      1  C   UNL d   1      -0.166   0.370  -0.255  0.00  0.00     0.020 A 
ATOM      2  C1  UNL d   1       0.350  -0.910  -0.054  0.00  0.00     0.020 A 
ATOM      3  C2  UNL d   1       1.093  -1.191   1.094  0.00  0.00     0.034 A 
ATOM      4  C3  UNL d   1       1.324  -0.190   2.046  0.00  0.00     0.017 A 
ATOM      5  C4  UNL d   1       0.806   1.094   1.843  0.00  0.00     0.017 A 
ATOM      6  C5  UNL d   1       0.062   1.370   0.692  0.00  0.00     0.034 A 
ATOM      7 Cl   UNL d   1       1.048   2.380   2.973  0.00  0.00    -0.070 Cl
ATOM      8 Cl1  UNL d   1       2.251  -0.609   3.442  0.00  0.00    -0.070 Cl
ENDROOT
TORSDOF 0
ENDMDL
