MODEL 1
REMARK minimizedAffinity 11.0200434
REMARK minimizedRMSD -1
REMARK  1 active torsions:
REMARK  status: ('A' for Active; 'I' for Inactive)
REMARK    1  A    between atoms: C1_2  and  C2_3 
ROOT
ATOM      1  C2  UNL d   1       2.959  -1.293  -0.152  0.00  0.00    -0.081 A 
ATOM      2  C3  UNL d   1       2.766  -1.730  -1.468  0.00  0.00     0.006 A 
ATOM      3  C4  UNL d   1       1.927  -2.813  -1.740  0.00  0.00     0.002 A 
ATOM      4  C5  UNL d   1       1.260  -3.472  -0.701  0.00  0.00    -0.080 A 
ATOM      5  C6  UNL d   1       0.333  -4.617  -0.982  0.00  0.00     0.076 C 
ATOM      6  C7  UNL d   1       1.467  -3.047   0.616  0.00  0.00     0.002 A 
ATOM      7  C8  UNL d   1       2.306  -1.965   0.888  0.00  0.00     0.006 A 
ENDROOT
BRANCH   1   8
ATOM      8  C1  UNL d   1       3.813  -0.085   0.138  0.00  0.00     0.054 C 
ATOM      9  C   UNL d   1       4.542   0.389  -1.111  0.00  0.00     0.018 C 
ENDBRANCH   1   8
TORSDOF 1
ENDMDL
