MODEL 1
REMARK minimizedAffinity 9.56722736
REMARK minimizedRMSD -1
REMARK  1 active torsions:
REMARK  status: ('A' for Active; 'I' for Inactive)
REMARK    1  A    between atoms: C1_2  and  C2_3 
ROOT
ATOM      1  C2  UNL d   1      -1.471  -0.795   0.688  0.00  0.00    -0.081 A 
ATOM      2  C3  UNL d   1      -0.734  -0.295   1.769  0.00  0.00     0.006 A 
ATOM      3  C4  UNL d   1       0.591   0.111   1.595  0.00  0.00     0.002 A 
ATOM      4  C5  UNL d   1       1.199   0.031   0.338  0.00  0.00    -0.080 A 
ATOM      5  C6  UNL d   1       2.611   0.492   0.131  0.00  0.00     0.076 C 
ATOM      6  C7  UNL d   1       0.469  -0.484  -0.739  0.00  0.00     0.002 A 
ATOM      7  C8  UNL d   1      -0.856  -0.891  -0.566  0.00  0.00     0.006 A 
ENDROOT
BRANCH   1   8
ATOM      8  C1  UNL d   1      -2.920  -1.173   0.857  0.00  0.00     0.054 C 
ATOM      9  C   UNL d   1      -3.717  -0.042   1.492  0.00  0.00     0.018 C 
ENDBRANCH   1   8
TORSDOF 1
ENDMDL
