MODEL 1
REMARK minimizedAffinity 19.9974422
REMARK minimizedRMSD -1
REMARK  1 active torsions:
REMARK  status: ('A' for Active; 'I' for Inactive)
REMARK    1  A    between atoms: C1_2  and  C2_3 
ROOT
ATOM      1  C2  UNL d   1      -0.042  -0.201  -0.439  0.00  0.00    -0.081 A 
ATOM      2  C3  UNL d   1       0.468  -1.000   0.592  0.00  0.00     0.006 A 
ATOM      3  C4  UNL d   1       0.565  -0.500   1.893  0.00  0.00     0.002 A 
ATOM      4  C5  UNL d   1       0.146   0.802   2.187  0.00  0.00    -0.080 A 
ATOM      5  C6  UNL d   1       0.216   1.340   3.585  0.00  0.00     0.076 C 
ATOM      6  C7  UNL d   1      -0.348   1.605   1.153  0.00  0.00     0.002 A 
ATOM      7  C8  UNL d   1      -0.444   1.107  -0.148  0.00  0.00     0.006 A 
ENDROOT
BRANCH   1   8
ATOM      8  C1  UNL d   1      -0.207  -0.759  -1.829  0.00  0.00     0.054 C 
ATOM      9  C   UNL d   1      -0.120  -2.278  -1.831  0.00  0.00     0.018 C 
ENDBRANCH   1   8
TORSDOF 1
ENDMDL
