MODEL 1
REMARK minimizedAffinity 3.53096938
REMARK minimizedRMSD -1
REMARK  1 active torsions:
REMARK  status: ('A' for Active; 'I' for Inactive)
REMARK    1  A    between atoms: C1_2  and  C2_3 
ROOT
ATOM      1  C2  UNL d   1      -2.572  -0.652   0.654  0.00  0.00    -0.081 A 
ATOM      2  C3  UNL d   1      -1.837  -0.366   1.811  0.00  0.00     0.006 A 
ATOM      3  C4  UNL d   1      -0.444  -0.280   1.763  0.00  0.00     0.002 A 
ATOM      4  C5  UNL d   1       0.237  -0.471   0.556  0.00  0.00    -0.080 A 
ATOM      5  C6  UNL d   1       1.730  -0.351   0.483  0.00  0.00     0.076 C 
ATOM      6  C7  UNL d   1      -0.496  -0.773  -0.597  0.00  0.00     0.002 A 
ATOM      7  C8  UNL d   1      -1.889  -0.860  -0.549  0.00  0.00     0.006 A 
ENDROOT
BRANCH   1   8
ATOM      8  C1  UNL d   1      -4.079  -0.681   0.690  0.00  0.00     0.054 C 
ATOM      9  C   UNL d   1      -4.631   0.406   1.602  0.00  0.00     0.018 C 
ENDBRANCH   1   8
TORSDOF 1
ENDMDL
