MODEL 1
REMARK minimizedAffinity 8.51683998
REMARK minimizedRMSD -1
REMARK  1 active torsions:
REMARK  status: ('A' for Active; 'I' for Inactive)
REMARK    1  A    between atoms: C1_2  and  C2_3 
ROOT
ATOM      1  C2  UNL d   1      -1.273  -5.142   4.985  0.00  0.00    -0.081 A 
ATOM      2  C3  UNL d   1      -0.655  -4.028   4.401  0.00  0.00     0.006 A 
ATOM      3  C4  UNL d   1       0.703  -3.780   4.611  0.00  0.00     0.002 A 
ATOM      4  C5  UNL d   1       1.468  -4.645   5.401  0.00  0.00    -0.080 A 
ATOM      5  C6  UNL d   1       2.934  -4.407   5.610  0.00  0.00     0.076 C 
ATOM      6  C7  UNL d   1       0.848  -5.748   5.998  0.00  0.00     0.002 A 
ATOM      7  C8  UNL d   1      -0.510  -5.996   5.789  0.00  0.00     0.006 A 
ENDROOT
BRANCH   1   8
ATOM      8  C1  UNL d   1      -2.722  -5.447   4.707  0.00  0.00     0.054 C 
ATOM      9  C   UNL d   1      -3.573  -5.278   5.958  0.00  0.00     0.018 C 
ENDBRANCH   1   8
TORSDOF 1
ENDMDL
