MODEL 1
REMARK minimizedAffinity 13.5346832
REMARK minimizedRMSD -1
REMARK  1 active torsions:
REMARK  status: ('A' for Active; 'I' for Inactive)
REMARK    1  A    between atoms: C1_2  and  C2_3 
ROOT
ATOM      1  C2  UNL d   1       0.778  -1.960  -0.987  0.00  0.00    -0.081 A 
ATOM      2  C3  UNL d   1      -0.495  -1.409  -1.184  0.00  0.00     0.006 A 
ATOM      3  C4  UNL d   1      -0.831  -0.180  -0.612  0.00  0.00     0.002 A 
ATOM      4  C5  UNL d   1       0.102   0.523   0.159  0.00  0.00    -0.080 A 
ATOM      5  C6  UNL d   1      -0.236   1.857   0.754  0.00  0.00     0.076 C 
ATOM      6  C7  UNL d   1       1.367  -0.036   0.370  0.00  0.00     0.002 A 
ATOM      7  C8  UNL d   1       1.703  -1.265  -0.201  0.00  0.00     0.006 A 
ENDROOT
BRANCH   1   8
ATOM      8  C1  UNL d   1       1.165  -3.254  -1.656  0.00  0.00     0.054 C 
ATOM      9  C   UNL d   1       2.595  -3.203  -2.174  0.00  0.00     0.018 C 
ENDBRANCH   1   8
TORSDOF 1
ENDMDL
