MODEL 1
REMARK minimizedAffinity 3.79478192
REMARK minimizedRMSD -1
REMARK  0 active torsions:
REMARK  status: ('A' for Active; 'I' for Inactive)
ROOT
ATOM      1  C4' PXY d   1       0.134   3.011   1.278  0.00  0.00     0.077 C 
ATOM      2  C1' PXY d   1       1.455  -0.975   5.250  0.00  0.00     0.077 C 
ATOM      3  C1  PXY d   1       1.096   0.069   4.211  0.00  0.00    -0.082 A 
ATOM      4  C2  PXY d   1       1.922   0.300   3.204  0.00  0.00     0.003 A 
ATOM      5  C3  PXY d   1       1.628   1.263   2.273  0.00  0.00     0.003 A 
ATOM      6  C4  PXY d   1       0.451   1.960   2.345  0.00  0.00    -0.082 A 
ATOM      7  C5  PXY d   1      -0.401   1.722   3.364  0.00  0.00     0.003 A 
ATOM      8  C6  PXY d   1      -0.065   0.769   4.322  0.00  0.00     0.003 A 
ENDROOT
TORSDOF 0
ENDMDL
