MODEL 1
REMARK minimizedAffinity 0.093064636
REMARK minimizedRMSD -1
REMARK  0 active torsions:
REMARK  status: ('A' for Active; 'I' for Inactive)
ROOT
ATOM      1  C4' PXY d   1      -1.908  -6.000  -4.490  0.00  0.00     0.077 C 
ATOM      2  C1' PXY d   1      -3.822  -0.971  -2.379  0.00  0.00     0.077 C 
ATOM      3  C1  PXY d   1      -3.311  -2.290  -2.923  0.00  0.00    -0.082 A 
ATOM      4  C2  PXY d   1      -3.533  -2.605  -4.189  0.00  0.00     0.003 A 
ATOM      5  C3  PXY d   1      -3.106  -3.808  -4.689  0.00  0.00     0.003 A 
ATOM      6  C4  PXY d   1      -2.397  -4.675  -3.900  0.00  0.00    -0.082 A 
ATOM      7  C5  PXY d   1      -2.157  -4.355  -2.611  0.00  0.00     0.003 A 
ATOM      8  C6  PXY d   1      -2.635  -3.147  -2.111  0.00  0.00     0.003 A 
ENDROOT
TORSDOF 0
ENDMDL
