MODEL 1
REMARK minimizedAffinity 8.9361124
REMARK minimizedRMSD -1
REMARK  0 active torsions:
REMARK  status: ('A' for Active; 'I' for Inactive)
ROOT
ATOM      1  C4' PXY d   1       0.377  -4.533  -0.231  0.00  0.00     0.077 C 
ATOM      2  C1' PXY d   1      -3.574  -1.216  -2.840  0.00  0.00     0.077 C 
ATOM      3  C1  PXY d   1      -2.545  -2.096  -2.158  0.00  0.00    -0.082 A 
ATOM      4  C2  PXY d   1      -1.697  -1.563  -1.293  0.00  0.00     0.003 A 
ATOM      5  C3  PXY d   1      -0.740  -2.338  -0.691  0.00  0.00     0.003 A 
ATOM      6  C4  PXY d   1      -0.684  -3.684  -0.937  0.00  0.00    -0.082 A 
ATOM      7  C5  PXY d   1      -1.553  -4.238  -1.809  0.00  0.00     0.003 A 
ATOM      8  C6  PXY d   1      -2.490  -3.426  -2.441  0.00  0.00     0.003 A 
ENDROOT
TORSDOF 0
ENDMDL
