MODEL 1
REMARK minimizedAffinity 1.83875334
REMARK minimizedRMSD -1
REMARK  0 active torsions:
REMARK  status: ('A' for Active; 'I' for Inactive)
ROOT
ATOM      1  C4' PXY d   1       2.136  -1.075   1.726  0.00  0.00     0.077 C 
ATOM      2  C1' PXY d   1      -2.745   0.809  -0.732  0.00  0.00     0.077 C 
ATOM      3  C1  PXY d   1      -1.458   0.325  -0.092  0.00  0.00    -0.082 A 
ATOM      4  C2  PXY d   1      -1.316  -0.957   0.202  0.00  0.00     0.003 A 
ATOM      5  C3  PXY d   1      -0.172  -1.407   0.810  0.00  0.00     0.003 A 
ATOM      6  C4  PXY d   1       0.858  -0.544   1.071  0.00  0.00    -0.082 A 
ATOM      7  C5  PXY d   1       0.725   0.764   0.764  0.00  0.00     0.003 A 
ATOM      8  C6  PXY d   1      -0.460   1.207   0.185  0.00  0.00     0.003 A 
ENDROOT
TORSDOF 0
ENDMDL
