MODEL 1
REMARK minimizedAffinity -1.06992388
REMARK minimizedRMSD -1
REMARK  0 active torsions:
REMARK  status: ('A' for Active; 'I' for Inactive)
ROOT
ATOM      1  C4' PXY d   1      -4.533   2.116  -1.114  0.00  0.00     0.077 C 
ATOM      2  C1' PXY d   1      -5.760   6.000  -5.215  0.00  0.00     0.077 C 
ATOM      3  C1  PXY d   1      -5.427   4.987  -4.137  0.00  0.00    -0.082 A 
ATOM      4  C2  PXY d   1      -6.000   3.795  -4.160  0.00  0.00     0.003 A 
ATOM      5  C3  PXY d   1      -5.734   2.879  -3.176  0.00  0.00     0.003 A 
ATOM      6  C4  PXY d   1      -4.832   3.166  -2.187  0.00  0.00    -0.082 A 
ATOM      7  C5  PXY d   1      -4.235   4.377  -2.162  0.00  0.00     0.003 A 
ATOM      8  C6  PXY d   1      -4.550   5.308  -3.148  0.00  0.00     0.003 A 
ENDROOT
TORSDOF 0
ENDMDL
