MODEL 1
REMARK minimizedAffinity 0.175675139
REMARK minimizedRMSD -1
REMARK  0 active torsions:
REMARK  status: ('A' for Active; 'I' for Inactive)
ROOT
ATOM      1  C4' PXY d   1      -1.501  -2.706  -0.575  0.00  0.00     0.077 C 
ATOM      2  C1' PXY d   1       1.540   0.667   3.002  0.00  0.00     0.077 C 
ATOM      3  C1  PXY d   1       0.740  -0.226   2.074  0.00  0.00    -0.082 A 
ATOM      4  C2  PXY d   1       0.999  -0.221   0.776  0.00  0.00     0.003 A 
ATOM      5  C3  PXY d   1       0.264  -0.998  -0.081  0.00  0.00     0.003 A 
ATOM      6  C4  PXY d   1      -0.712  -1.829   0.400  0.00  0.00    -0.082 A 
ATOM      7  C5  PXY d   1      -0.976  -1.847   1.724  0.00  0.00     0.003 A 
ATOM      8  C6  PXY d   1      -0.246  -1.020   2.573  0.00  0.00     0.003 A 
ENDROOT
TORSDOF 0
ENDMDL
