MODEL 1
REMARK minimizedAffinity 3.25231814
REMARK minimizedRMSD -1
REMARK  0 active torsions:
REMARK  status: ('A' for Active; 'I' for Inactive)
ROOT
ATOM      1  C4' PXY d   1      -1.956  -4.318  -3.242  0.00  0.00     0.077 C 
ATOM      2  C1' PXY d   1      -0.090   0.092  -0.004  0.00  0.00     0.077 C 
ATOM      3  C1  PXY d   1      -0.570  -1.072  -0.848  0.00  0.00    -0.082 A 
ATOM      4  C2  PXY d   1      -1.174  -0.839  -2.002  0.00  0.00     0.003 A 
ATOM      5  C3  PXY d   1      -1.643  -1.879  -2.762  0.00  0.00     0.003 A 
ATOM      6  C4  PXY d   1      -1.446  -3.174  -2.362  0.00  0.00    -0.082 A 
ATOM      7  C5  PXY d   1      -0.822  -3.420  -1.191  0.00  0.00     0.003 A 
ATOM      8  C6  PXY d   1      -0.389  -2.349  -0.414  0.00  0.00     0.003 A 
ENDROOT
TORSDOF 0
ENDMDL
