MODEL 1
REMARK minimizedAffinity 4.68625212
REMARK minimizedRMSD -1
REMARK  0 active torsions:
REMARK  status: ('A' for Active; 'I' for Inactive)
ROOT
ATOM      1  C4' PXY d   1      -0.013   1.518   0.034  0.00  0.00     0.077 C 
ATOM      2  C1' PXY d   1      -2.662  -3.602  -0.397  0.00  0.00     0.077 C 
ATOM      3  C1  PXY d   1      -1.962  -2.263  -0.272  0.00  0.00    -0.082 A 
ATOM      4  C2  PXY d   1      -2.432  -1.216  -0.931  0.00  0.00     0.003 A 
ATOM      5  C3  PXY d   1      -1.793  -0.005  -0.855  0.00  0.00     0.003 A 
ATOM      6  C4  PXY d   1      -0.692   0.149  -0.054  0.00  0.00    -0.082 A 
ATOM      7  C5  PXY d   1      -0.214  -0.912   0.629  0.00  0.00     0.003 A 
ATOM      8  C6  PXY d   1      -0.853  -2.143   0.506  0.00  0.00     0.003 A 
ENDROOT
TORSDOF 0
ENDMDL
