MODEL 1
REMARK minimizedAffinity 2.07013702
REMARK minimizedRMSD -1
REMARK  0 active torsions:
REMARK  status: ('A' for Active; 'I' for Inactive)
ROOT
ATOM      1  C4' PXY d   1      -5.852   5.956  -5.999  0.00  0.00     0.077 C 
ATOM      2  C1' PXY d   1      -6.000   1.870  -1.913  0.00  0.00     0.077 C 
ATOM      3  C1  PXY d   1      -5.955   2.933  -2.992  0.00  0.00    -0.082 A 
ATOM      4  C2  PXY d   1      -5.998   4.211  -2.654  0.00  0.00     0.003 A 
ATOM      5  C3  PXY d   1      -5.991   5.185  -3.619  0.00  0.00     0.003 A 
ATOM      6  C4  PXY d   1      -5.885   4.849  -4.942  0.00  0.00    -0.082 A 
ATOM      7  C5  PXY d   1      -5.830   3.547  -5.295  0.00  0.00     0.003 A 
ATOM      8  C6  PXY d   1      -5.880   2.572  -4.302  0.00  0.00     0.003 A 
ENDROOT
TORSDOF 0
ENDMDL
