MODEL 1
REMARK minimizedAffinity 5.22753096
REMARK minimizedRMSD -1
REMARK  0 active torsions:
REMARK  status: ('A' for Active; 'I' for Inactive)
ROOT
ATOM      1  C4' PXY d   1      -2.935   1.286   0.686  0.00  0.00     0.077 C 
ATOM      2  C1' PXY d   1       2.368  -0.548  -0.703  0.00  0.00     0.077 C 
ATOM      3  C1  PXY d   1       0.980  -0.070  -0.326  0.00  0.00    -0.082 A 
ATOM      4  C2  PXY d   1       0.034  -0.015  -1.250  0.00  0.00     0.003 A 
ATOM      5  C3  PXY d   1      -1.218   0.445  -0.933  0.00  0.00     0.003 A 
ATOM      6  C4  PXY d   1      -1.521   0.802   0.353  0.00  0.00    -0.082 A 
ATOM      7  C5  PXY d   1      -0.564   0.738   1.304  0.00  0.00     0.003 A 
ATOM      8  C6  PXY d   1       0.712   0.308   0.953  0.00  0.00     0.003 A 
ENDROOT
TORSDOF 0
ENDMDL
