MODEL 1
REMARK minimizedAffinity 3.40764761
REMARK minimizedRMSD -1
REMARK  0 active torsions:
REMARK  status: ('A' for Active; 'I' for Inactive)
ROOT
ATOM      1  C4' PXY d   1       0.665  -0.027  -0.296  0.00  0.00     0.077 C 
ATOM      2  C1' PXY d   1      -5.043  -0.346   0.562  0.00  0.00     0.077 C 
ATOM      3  C1  PXY d   1      -3.544  -0.273   0.345  0.00  0.00    -0.082 A 
ATOM      4  C2  PXY d   1      -2.986   0.882   0.021  0.00  0.00     0.003 A 
ATOM      5  C3  PXY d   1      -1.637   0.960  -0.211  0.00  0.00     0.003 A 
ATOM      6  C4  PXY d   1      -0.843  -0.146  -0.058  0.00  0.00    -0.082 A 
ATOM      7  C5  PXY d   1      -1.404  -1.325   0.282  0.00  0.00     0.003 A 
ATOM      8  C6  PXY d   1      -2.781  -1.392   0.473  0.00  0.00     0.003 A 
ENDROOT
TORSDOF 0
ENDMDL
