MODEL 1
REMARK minimizedAffinity 6.10774183
REMARK minimizedRMSD -1
REMARK  0 active torsions:
REMARK  status: ('A' for Active; 'I' for Inactive)
ROOT
ATOM      1  C4' PXY d   1       3.458  -2.190   3.610  0.00  0.00     0.077 C 
ATOM      2  C1' PXY d   1       2.446   3.500   3.493  0.00  0.00     0.077 C 
ATOM      3  C1  PXY d   1       2.699   2.006   3.519  0.00  0.00    -0.082 A 
ATOM      4  C2  PXY d   1       3.618   1.513   4.333  0.00  0.00     0.003 A 
ATOM      5  C3  PXY d   1       3.882   0.167   4.346  0.00  0.00     0.003 A 
ATOM      6  C4  PXY d   1       3.161  -0.688   3.557  0.00  0.00    -0.082 A 
ATOM      7  C5  PXY d   1       2.215  -0.194   2.731  0.00  0.00     0.003 A 
ATOM      8  C6  PXY d   1       1.990   1.180   2.703  0.00  0.00     0.003 A 
ENDROOT
TORSDOF 0
ENDMDL
