MODEL 1
REMARK minimizedAffinity 4.76406622
REMARK minimizedRMSD -1
REMARK  0 active torsions:
REMARK  status: ('A' for Active; 'I' for Inactive)
ROOT
ATOM      1  C4' PXY d   1      -1.066  -3.092   0.745  0.00  0.00     0.077 C 
ATOM      2  C1' PXY d   1      -0.287   2.474  -0.605  0.00  0.00     0.077 C 
ATOM      3  C1  PXY d   1      -0.479   1.012  -0.255  0.00  0.00    -0.082 A 
ATOM      4  C2  PXY d   1      -1.695   0.490  -0.266  0.00  0.00     0.003 A 
ATOM      5  C3  PXY d   1      -1.890  -0.822   0.079  0.00  0.00     0.003 A 
ATOM      6  C4  PXY d   1      -0.824  -1.623   0.388  0.00  0.00    -0.082 A 
ATOM      7  C5  PXY d   1       0.421  -1.101   0.392  0.00  0.00     0.003 A 
ATOM      8  C6  PXY d   1       0.594   0.244   0.079  0.00  0.00     0.003 A 
ENDROOT
TORSDOF 0
ENDMDL
