MODEL 1
REMARK minimizedAffinity 5.59204435
REMARK minimizedRMSD -1
REMARK  0 active torsions:
REMARK  status: ('A' for Active; 'I' for Inactive)
ROOT
ATOM      1  C4' PXY d   1       2.129  -0.570   2.706  0.00  0.00     0.077 C 
ATOM      2  C1' PXY d   1      -2.398   1.040  -0.507  0.00  0.00     0.077 C 
ATOM      3  C1  PXY d   1      -1.205   0.629   0.333  0.00  0.00    -0.082 A 
ATOM      4  C2  PXY d   1      -0.929  -0.655   0.493  0.00  0.00     0.003 A 
ATOM      5  C3  PXY d   1       0.127  -1.044   1.276  0.00  0.00     0.003 A 
ATOM      6  C4  PXY d   1       0.940  -0.109   1.858  0.00  0.00    -0.082 A 
ATOM      7  C5  PXY d   1       0.671   1.203   1.691  0.00  0.00     0.003 A 
ATOM      8  C6  PXY d   1      -0.430   1.577   0.926  0.00  0.00     0.003 A 
ENDROOT
TORSDOF 0
ENDMDL
