MODEL 1
REMARK minimizedAffinity 0.304593265
REMARK minimizedRMSD -1
REMARK  0 active torsions:
REMARK  status: ('A' for Active; 'I' for Inactive)
ROOT
ATOM      1  C   UNL d   1      -3.512   5.992  -2.056  0.00  0.00     0.124 A 
ATOM      2  C1  UNL d   1      -2.131   5.990  -1.911  0.00  0.00     0.062 A 
ATOM      3  C2  UNL d   1      -1.309   5.991  -3.034  0.00  0.00     0.162 A 
ATOM      4  C3  UNL d   1      -1.865   5.995  -4.313  0.00  0.00    -0.034 A 
ATOM      5  C4  UNL d   1      -3.254   5.995  -4.452  0.00  0.00     0.162 A 
ATOM      6  C5  UNL d   1      -4.071   5.994  -3.326  0.00  0.00     0.062 A 
ATOM      7  F   UNL d   1      -5.405   5.996  -3.469  0.00  0.00    -0.097 F 
ATOM      8  F1  UNL d   1      -3.822   5.999  -5.667  0.00  0.00    -0.096 F 
ATOM      9  I   UNL d   1      -0.639   5.996  -5.995  0.00  0.00    -0.060 I 
ATOM     10  F2  UNL d   1       0.022   5.990  -2.863  0.00  0.00    -0.096 F 
ATOM     11  F3  UNL d   1      -1.588   5.987  -0.685  0.00  0.00    -0.097 F 
ATOM     12  F4  UNL d   1      -4.301   5.990  -0.974  0.00  0.00    -0.092 F 
ENDROOT
TORSDOF 0
ENDMDL
