MODEL 1
REMARK minimizedAffinity 7.58879519
REMARK minimizedRMSD -1
REMARK  0 active torsions:
REMARK  status: ('A' for Active; 'I' for Inactive)
ROOT
ATOM      1  C   UNL d   1      -2.733   5.986  -0.908  0.00  0.00     0.124 A 
ATOM      2  C1  UNL d   1      -3.716   5.989  -1.887  0.00  0.00     0.062 A 
ATOM      3  C2  UNL d   1      -3.363   5.989  -3.234  0.00  0.00     0.162 A 
ATOM      4  C3  UNL d   1      -2.020   5.986  -3.609  0.00  0.00    -0.034 A 
ATOM      5  C4  UNL d   1      -1.036   5.984  -2.618  0.00  0.00     0.162 A 
ATOM      6  C5  UNL d   1      -1.394   5.984  -1.274  0.00  0.00     0.062 A 
ATOM      7  F   UNL d   1      -0.443   5.981  -0.329  0.00  0.00    -0.097 F 
ATOM      8  F1  UNL d   1       0.265   5.981  -2.944  0.00  0.00    -0.096 F 
ATOM      9  I   UNL d   1      -1.487   5.987  -5.621  0.00  0.00    -0.060 I 
ATOM     10  F2  UNL d   1      -4.334   5.992  -4.159  0.00  0.00    -0.096 F 
ATOM     11  F3  UNL d   1      -5.010   5.992  -1.536  0.00  0.00    -0.097 F 
ATOM     12  F4  UNL d   1      -3.075   5.986   0.387  0.00  0.00    -0.092 F 
ENDROOT
TORSDOF 0
ENDMDL
