MODEL 1
REMARK minimizedAffinity 4.70042515
REMARK minimizedRMSD -1
REMARK  0 active torsions:
REMARK  status: ('A' for Active; 'I' for Inactive)
ROOT
ATOM      1  C   UNL d   1      -0.134   0.238   0.098  0.00  0.00     0.124 A 
ATOM      2  C1  UNL d   1       0.716   0.651  -0.918  0.00  0.00     0.062 A 
ATOM      3  C2  UNL d   1       1.993   1.115  -0.617  0.00  0.00     0.162 A 
ATOM      4  C3  UNL d   1       2.429   1.168   0.707  0.00  0.00    -0.034 A 
ATOM      5  C4  UNL d   1       1.567   0.751   1.724  0.00  0.00     0.162 A 
ATOM      6  C5  UNL d   1       0.292   0.288   1.418  0.00  0.00     0.062 A 
ATOM      7  F   UNL d   1      -0.528  -0.111   2.401  0.00  0.00    -0.097 F 
ATOM      8  F1  UNL d   1       1.954   0.788   3.008  0.00  0.00    -0.096 F 
ATOM      9  I   UNL d   1       4.337   1.861   1.162  0.00  0.00    -0.060 I 
ATOM     10  F2  UNL d   1       2.793   1.509  -1.619  0.00  0.00    -0.096 F 
ATOM     11  F3  UNL d   1       0.306   0.604  -2.194  0.00  0.00    -0.097 F 
ATOM     12  F4  UNL d   1      -1.363  -0.208  -0.195  0.00  0.00    -0.092 F 
ENDROOT
TORSDOF 0
ENDMDL
