MODEL 1
REMARK minimizedAffinity 20.3869362
REMARK minimizedRMSD -1
REMARK  0 active torsions:
REMARK  status: ('A' for Active; 'I' for Inactive)
ROOT
ATOM      1  C   UNL d   1      -1.124  -1.086  -4.739  0.00  0.00     0.124 A 
ATOM      2  C1  UNL d   1      -2.077  -1.082  -3.730  0.00  0.00     0.062 A 
ATOM      3  C2  UNL d   1      -1.748  -0.627  -2.457  0.00  0.00     0.162 A 
ATOM      4  C3  UNL d   1      -0.458  -0.170  -2.185  0.00  0.00    -0.034 A 
ATOM      5  C4  UNL d   1       0.496  -0.178  -3.204  0.00  0.00     0.162 A 
ATOM      6  C5  UNL d   1       0.161  -0.634  -4.475  0.00  0.00     0.062 A 
ATOM      7  F   UNL d   1       1.084  -0.638  -5.448  0.00  0.00    -0.097 F 
ATOM      8  F1  UNL d   1       1.745   0.254  -2.977  0.00  0.00    -0.096 F 
ATOM      9  I   UNL d   1       0.039   0.511  -0.282  0.00  0.00    -0.060 I 
ATOM     10  F2  UNL d   1      -2.689  -0.634  -1.502  0.00  0.00    -0.096 F 
ATOM     11  F3  UNL d   1      -3.320  -1.519  -3.982  0.00  0.00    -0.097 F 
ATOM     12  F4  UNL d   1      -1.444  -1.526  -5.963  0.00  0.00    -0.092 F 
ENDROOT
TORSDOF 0
ENDMDL
