MODEL 1
REMARK minimizedAffinity 13.5311737
REMARK minimizedRMSD -1
REMARK  0 active torsions:
REMARK  status: ('A' for Active; 'I' for Inactive)
ROOT
ATOM      1  C   UNL d   1       0.618   2.144   1.008  0.00  0.00     0.124 A 
ATOM      2  C1  UNL d   1       0.688   2.470  -0.340  0.00  0.00     0.062 A 
ATOM      3  C2  UNL d   1       0.300   1.546  -1.305  0.00  0.00     0.162 A 
ATOM      4  C3  UNL d   1      -0.163   0.285  -0.926  0.00  0.00    -0.034 A 
ATOM      5  C4  UNL d   1      -0.230  -0.036   0.431  0.00  0.00     0.162 A 
ATOM      6  C5  UNL d   1       0.160   0.892   1.392  0.00  0.00     0.062 A 
ATOM      7  F   UNL d   1       0.092   0.575   2.693  0.00  0.00    -0.097 F 
ATOM      8  F1  UNL d   1      -0.670  -1.238   0.830  0.00  0.00    -0.096 F 
ATOM      9  I   UNL d   1      -0.745  -1.100  -2.366  0.00  0.00    -0.060 I 
ATOM     10  F2  UNL d   1       0.378   1.888  -2.599  0.00  0.00    -0.096 F 
ATOM     11  F3  UNL d   1       1.132   3.679  -0.713  0.00  0.00    -0.097 F 
ATOM     12  F4  UNL d   1       0.994   3.035   1.934  0.00  0.00    -0.092 F 
ENDROOT
TORSDOF 0
ENDMDL
