MODEL 1
REMARK minimizedAffinity 8.11297989
REMARK minimizedRMSD -1
REMARK  0 active torsions:
REMARK  status: ('A' for Active; 'I' for Inactive)
ROOT
ATOM      1  C   UNL d   1      -2.383   6.000  -1.648  0.00  0.00     0.124 A 
ATOM      2  C1  UNL d   1      -1.001   6.000  -1.523  0.00  0.00     0.062 A 
ATOM      3  C2  UNL d   1      -0.195   5.999  -2.658  0.00  0.00     0.162 A 
ATOM      4  C3  UNL d   1      -0.770   6.000  -3.929  0.00  0.00    -0.034 A 
ATOM      5  C4  UNL d   1      -2.161   5.999  -4.047  0.00  0.00     0.162 A 
ATOM      6  C5  UNL d   1      -2.962   6.000  -2.910  0.00  0.00     0.062 A 
ATOM      7  F   UNL d   1      -4.297   6.000  -3.032  0.00  0.00    -0.097 F 
ATOM      8  F1  UNL d   1      -2.747   6.000  -5.254  0.00  0.00    -0.096 F 
ATOM      9  I   UNL d   1       0.431   5.998  -5.629  0.00  0.00    -0.060 I 
ATOM     10  F2  UNL d   1       1.138   5.998  -2.508  0.00  0.00    -0.096 F 
ATOM     11  F3  UNL d   1      -0.439   5.999  -0.306  0.00  0.00    -0.097 F 
ATOM     12  F4  UNL d   1      -3.156   6.000  -0.554  0.00  0.00    -0.092 F 
ENDROOT
TORSDOF 0
ENDMDL
