MODEL 1
REMARK minimizedAffinity 4.76850653
REMARK minimizedRMSD -1
REMARK  0 active torsions:
REMARK  status: ('A' for Active; 'I' for Inactive)
ROOT
ATOM      1  C   UNL d   1       4.227   3.634  -3.162  0.00  0.00     0.124 A 
ATOM      2  C1  UNL d   1       2.864   3.448  -2.983  0.00  0.00     0.062 A 
ATOM      3  C2  UNL d   1       1.953   4.123  -3.791  0.00  0.00     0.162 A 
ATOM      4  C3  UNL d   1       2.404   4.989  -4.787  0.00  0.00    -0.034 A 
ATOM      5  C4  UNL d   1       3.777   5.172  -4.960  0.00  0.00     0.162 A 
ATOM      6  C5  UNL d   1       4.683   4.496  -4.150  0.00  0.00     0.062 A 
ATOM      7  F   UNL d   1       6.000   4.677  -4.324  0.00  0.00    -0.097 F 
ATOM      8  F1  UNL d   1       4.244   5.998  -5.908  0.00  0.00    -0.096 F 
ATOM      9  I   UNL d   1       1.045   6.000  -5.998  0.00  0.00    -0.060 I 
ATOM     10  F2  UNL d   1       0.641   3.924  -3.596  0.00  0.00    -0.096 F 
ATOM     11  F3  UNL d   1       2.421   2.617  -2.028  0.00  0.00    -0.097 F 
ATOM     12  F4  UNL d   1       5.101   2.985  -2.382  0.00  0.00    -0.092 F 
ENDROOT
TORSDOF 0
ENDMDL
