MODEL 1
REMARK minimizedAffinity 22.2518997
REMARK minimizedRMSD -1
REMARK  0 active torsions:
REMARK  status: ('A' for Active; 'I' for Inactive)
ROOT
ATOM      1  C   UNL d   1       0.884  -0.583  -4.867  0.00  0.00     0.124 A 
ATOM      2  C1  UNL d   1      -0.393  -1.112  -4.737  0.00  0.00     0.062 A 
ATOM      3  C2  UNL d   1      -1.112  -0.924  -3.560  0.00  0.00     0.162 A 
ATOM      4  C3  UNL d   1      -0.556  -0.204  -2.503  0.00  0.00    -0.034 A 
ATOM      5  C4  UNL d   1       0.729   0.324  -2.640  0.00  0.00     0.162 A 
ATOM      6  C5  UNL d   1       1.444   0.134  -3.819  0.00  0.00     0.062 A 
ATOM      7  F   UNL d   1       2.677   0.645  -3.942  0.00  0.00    -0.097 F 
ATOM      8  F1  UNL d   1       1.294   1.021  -1.644  0.00  0.00    -0.096 F 
ATOM      9  I   UNL d   1      -1.627   0.079  -0.741  0.00  0.00    -0.060 I 
ATOM     10  F2  UNL d   1      -2.344  -1.446  -3.462  0.00  0.00    -0.096 F 
ATOM     11  F3  UNL d   1      -0.936  -1.805  -5.748  0.00  0.00    -0.097 F 
ATOM     12  F4  UNL d   1       1.574  -0.766  -6.000  0.00  0.00    -0.092 F 
ENDROOT
TORSDOF 0
ENDMDL
