MODEL 1
REMARK minimizedAffinity 9.97674942
REMARK minimizedRMSD -1
REMARK  0 active torsions:
REMARK  status: ('A' for Active; 'I' for Inactive)
ROOT
ATOM      1  C   UNL d   1       0.523   5.991  -3.538  0.00  0.00     0.124 A 
ATOM      2  C1  UNL d   1      -0.191   5.988  -2.348  0.00  0.00     0.062 A 
ATOM      3  C2  UNL d   1      -1.583   5.990  -2.366  0.00  0.00     0.162 A 
ATOM      4  C3  UNL d   1      -2.270   5.993  -3.580  0.00  0.00    -0.034 A 
ATOM      5  C4  UNL d   1      -1.546   5.997  -4.773  0.00  0.00     0.162 A 
ATOM      6  C5  UNL d   1      -0.155   5.995  -4.749  0.00  0.00     0.062 A 
ATOM      7  F   UNL d   1       0.533   5.998  -5.900  0.00  0.00    -0.097 F 
ATOM      8  F1  UNL d   1      -2.175   6.000  -5.957  0.00  0.00    -0.096 F 
ATOM      9  I   UNL d   1      -4.351   5.996  -3.611  0.00  0.00    -0.060 I 
ATOM     10  F2  UNL d   1      -2.246   5.988  -1.201  0.00  0.00    -0.096 F 
ATOM     11  F3  UNL d   1       0.462   5.985  -1.177  0.00  0.00    -0.097 F 
ATOM     12  F4  UNL d   1       1.862   5.990  -3.518  0.00  0.00    -0.092 F 
ENDROOT
TORSDOF 0
ENDMDL
