MODEL 1
REMARK minimizedAffinity 27.9627495
REMARK minimizedRMSD -1
REMARK  0 active torsions:
REMARK  status: ('A' for Active; 'I' for Inactive)
ROOT
ATOM      1  C   UNL d   1      -3.362  -1.393  -3.403  0.00  0.00     0.124 A 
ATOM      2  C1  UNL d   1      -2.294  -1.155  -4.258  0.00  0.00     0.062 A 
ATOM      3  C2  UNL d   1      -1.187  -0.440  -3.811  0.00  0.00     0.162 A 
ATOM      4  C3  UNL d   1      -1.140   0.042  -2.503  0.00  0.00    -0.034 A 
ATOM      5  C4  UNL d   1      -2.218  -0.201  -1.650  0.00  0.00     0.162 A 
ATOM      6  C5  UNL d   1      -3.323  -0.916  -2.101  0.00  0.00     0.062 A 
ATOM      7  F   UNL d   1      -4.353  -1.146  -1.274  0.00  0.00    -0.097 F 
ATOM      8  F1  UNL d   1      -2.206   0.248  -0.386  0.00  0.00    -0.096 F 
ATOM      9  I   UNL d   1       0.514   1.112  -1.832  0.00  0.00    -0.060 I 
ATOM     10  F2  UNL d   1      -0.169  -0.224  -4.659  0.00  0.00    -0.096 F 
ATOM     11  F3  UNL d   1      -2.330  -1.614  -5.517  0.00  0.00    -0.097 F 
ATOM     12  F4  UNL d   1      -4.426  -2.081  -3.835  0.00  0.00    -0.092 F 
ENDROOT
TORSDOF 0
ENDMDL
