MODEL 1
REMARK minimizedAffinity 14.2070475
REMARK minimizedRMSD -1
REMARK  0 active torsions:
REMARK  status: ('A' for Active; 'I' for Inactive)
ROOT
ATOM      1  C   UNL d   1       3.591   1.946   0.206  0.00  0.00     0.124 A 
ATOM      2  C1  UNL d   1       2.439   2.076  -0.557  0.00  0.00     0.062 A 
ATOM      3  C2  UNL d   1       1.238   1.533  -0.110  0.00  0.00     0.162 A 
ATOM      4  C3  UNL d   1       1.183   0.853   1.107  0.00  0.00    -0.034 A 
ATOM      5  C4  UNL d   1       2.346   0.725   1.868  0.00  0.00     0.162 A 
ATOM      6  C5  UNL d   1       3.544   1.270   1.417  0.00  0.00     0.062 A 
ATOM      7  F   UNL d   1       4.656   1.143   2.155  0.00  0.00    -0.097 F 
ATOM      8  F1  UNL d   1       2.329   0.078   3.043  0.00  0.00    -0.096 F 
ATOM      9  I   UNL d   1      -0.610   0.038   1.779  0.00  0.00    -0.060 I 
ATOM     10  F2  UNL d   1       0.140   1.674  -0.867  0.00  0.00    -0.096 F 
ATOM     11  F3  UNL d   1       2.482   2.728  -1.728  0.00  0.00    -0.097 F 
ATOM     12  F4  UNL d   1       4.745   2.469  -0.227  0.00  0.00    -0.092 F 
ENDROOT
TORSDOF 0
ENDMDL
