MODEL 1
REMARK minimizedAffinity 6.0730176
REMARK minimizedRMSD -1
REMARK  0 active torsions:
REMARK  status: ('A' for Active; 'I' for Inactive)
ROOT
ATOM      1  C   UNL d   1      -2.514   5.988  -2.367  0.00  0.00     0.124 A 
ATOM      2  C1  UNL d   1      -2.944   5.987  -3.686  0.00  0.00     0.062 A 
ATOM      3  C2  UNL d   1      -2.018   5.990  -4.725  0.00  0.00     0.162 A 
ATOM      4  C3  UNL d   1      -0.651   5.994  -4.449  0.00  0.00    -0.034 A 
ATOM      5  C4  UNL d   1      -0.225   5.996  -3.120  0.00  0.00     0.162 A 
ATOM      6  C5  UNL d   1      -1.155   5.992  -2.085  0.00  0.00     0.062 A 
ATOM      7  F   UNL d   1      -0.737   5.993  -0.811  0.00  0.00    -0.097 F 
ATOM      8  F1  UNL d   1       1.082   5.999  -2.818  0.00  0.00    -0.096 F 
ATOM      9  I   UNL d   1       0.737   6.000  -6.000  0.00  0.00    -0.060 I 
ATOM     10  F2  UNL d   1      -2.463   5.989  -5.991  0.00  0.00    -0.096 F 
ATOM     11  F3  UNL d   1      -4.257   5.983  -3.962  0.00  0.00    -0.097 F 
ATOM     12  F4  UNL d   1      -3.407   5.985  -1.369  0.00  0.00    -0.092 F 
ENDROOT
TORSDOF 0
ENDMDL
