MODEL 1
REMARK minimizedAffinity 7.90343332
REMARK minimizedRMSD -1
REMARK  0 active torsions:
REMARK  status: ('A' for Active; 'I' for Inactive)
ROOT
ATOM      1  C   UNL d   1       0.438   5.982  -3.164  0.00  0.00     0.124 A 
ATOM      2  C1  UNL d   1      -0.421   5.980  -4.254  0.00  0.00     0.062 A 
ATOM      3  C2  UNL d   1      -1.799   5.985  -4.060  0.00  0.00     0.162 A 
ATOM      4  C3  UNL d   1      -2.328   5.993  -2.769  0.00  0.00    -0.034 A 
ATOM      5  C4  UNL d   1      -1.458   5.993  -1.677  0.00  0.00     0.162 A 
ATOM      6  C5  UNL d   1      -0.081   5.988  -1.877  0.00  0.00     0.062 A 
ATOM      7  F   UNL d   1       0.747   5.989  -0.822  0.00  0.00    -0.097 F 
ATOM      8  F1  UNL d   1      -1.932   6.000  -0.423  0.00  0.00    -0.096 F 
ATOM      9  I   UNL d   1      -4.388   6.000  -2.474  0.00  0.00    -0.060 I 
ATOM     10  F2  UNL d   1      -2.605   5.984  -5.132  0.00  0.00    -0.096 F 
ATOM     11  F3  UNL d   1       0.078   5.974  -5.499  0.00  0.00    -0.097 F 
ATOM     12  F4  UNL d   1       1.763   5.976  -3.354  0.00  0.00    -0.092 F 
ENDROOT
TORSDOF 0
ENDMDL
