MODEL 1
REMARK minimizedAffinity 8.52291584
REMARK minimizedRMSD -1
REMARK  0 active torsions:
REMARK  status: ('A' for Active; 'I' for Inactive)
ROOT
ATOM      1  C   UNL d   1      -2.680  -2.027  -2.274  0.00  0.00     0.124 A 
ATOM      2  C1  UNL d   1      -2.556  -1.887  -3.649  0.00  0.00     0.062 A 
ATOM      3  C2  UNL d   1      -1.312  -1.629  -4.217  0.00  0.00     0.162 A 
ATOM      4  C3  UNL d   1      -0.181  -1.511  -3.409  0.00  0.00    -0.034 A 
ATOM      5  C4  UNL d   1      -0.314  -1.652  -2.027  0.00  0.00     0.162 A 
ATOM      6  C5  UNL d   1      -1.560  -1.910  -1.464  0.00  0.00     0.062 A 
ATOM      7  F   UNL d   1      -1.678  -2.045  -0.135  0.00  0.00    -0.097 F 
ATOM      8  F1  UNL d   1       0.753  -1.545  -1.221  0.00  0.00    -0.096 F 
ATOM      9  I   UNL d   1       1.682  -1.126  -4.254  0.00  0.00    -0.060 I 
ATOM     10  F2  UNL d   1      -1.221  -1.499  -5.549  0.00  0.00    -0.096 F 
ATOM     11  F3  UNL d   1      -3.638  -1.999  -4.434  0.00  0.00    -0.097 F 
ATOM     12  F4  UNL d   1      -3.879  -2.274  -1.730  0.00  0.00    -0.092 F 
ENDROOT
TORSDOF 0
ENDMDL
