MODEL 1
REMARK minimizedAffinity 23.4022961
REMARK minimizedRMSD -1
REMARK  0 active torsions:
REMARK  status: ('A' for Active; 'I' for Inactive)
ROOT
ATOM      1  C   UNL d   1      -2.289   5.333  -4.306  0.00  0.00     0.124 A 
ATOM      2  C1  UNL d   1      -2.661   5.333  -2.968  0.00  0.00     0.062 A 
ATOM      3  C2  UNL d   1      -1.900   4.641  -2.031  0.00  0.00     0.162 A 
ATOM      4  C3  UNL d   1      -0.758   3.944  -2.427  0.00  0.00    -0.034 A 
ATOM      5  C4  UNL d   1      -0.391   3.948  -3.774  0.00  0.00     0.162 A 
ATOM      6  C5  UNL d   1      -1.155   4.641  -4.707  0.00  0.00     0.062 A 
ATOM      7  F   UNL d   1      -0.795   4.641  -5.999  0.00  0.00    -0.097 F 
ATOM      8  F1  UNL d   1       0.700   3.288  -4.189  0.00  0.00    -0.096 F 
ATOM      9  I   UNL d   1       0.382   2.908  -1.028  0.00  0.00    -0.060 I 
ATOM     10  F2  UNL d   1      -2.282   4.657  -0.745  0.00  0.00    -0.096 F 
ATOM     11  F3  UNL d   1      -3.756   6.000  -2.578  0.00  0.00    -0.097 F 
ATOM     12  F4  UNL d   1      -3.024   5.999  -5.206  0.00  0.00    -0.092 F 
ENDROOT
TORSDOF 0
ENDMDL
