MODEL 1
REMARK minimizedAffinity 4.47761917
REMARK minimizedRMSD -1
REMARK  0 active torsions:
REMARK  status: ('A' for Active; 'I' for Inactive)
ROOT
ATOM      1  C4' PXY d   1      -3.576   1.883   3.062  0.00  0.00     0.077 C 
ATOM      2  C1' PXY d   1       1.551   1.918   0.392  0.00  0.00     0.077 C 
ATOM      3  C1  PXY d   1       0.206   1.922   1.092  0.00  0.00    -0.082 A 
ATOM      4  C2  PXY d   1      -0.145   0.888   1.839  0.00  0.00     0.003 A 
ATOM      5  C3  PXY d   1      -1.371   0.861   2.454  0.00  0.00     0.003 A 
ATOM      6  C4  PXY d   1      -2.224   1.926   2.344  0.00  0.00    -0.082 A 
ATOM      7  C5  PXY d   1      -1.868   2.989   1.592  0.00  0.00     0.003 A 
ATOM      8  C6  PXY d   1      -0.637   2.979   0.943  0.00  0.00     0.003 A 
ENDROOT
TORSDOF 0
ENDMDL
