MODEL 1
REMARK minimizedAffinity -3.91825628
REMARK minimizedRMSD -1
REMARK  0 active torsions:
REMARK  status: ('A' for Active; 'I' for Inactive)
ROOT
ATOM      1  C4' PXY d   1      -3.993   1.923   2.994  0.00  0.00     0.077 C 
ATOM      2  C1' PXY d   1       0.967   0.125   0.630  0.00  0.00     0.077 C 
ATOM      3  C1  PXY d   1      -0.340   0.585   1.246  0.00  0.00    -0.082 A 
ATOM      4  C2  PXY d   1      -0.548   1.876   1.449  0.00  0.00     0.003 A 
ATOM      5  C3  PXY d   1      -1.711   2.308   2.034  0.00  0.00     0.003 A 
ATOM      6  C4  PXY d   1      -2.692   1.413   2.367  0.00  0.00    -0.082 A 
ATOM      7  C5  PXY d   1      -2.492   0.095   2.153  0.00  0.00     0.003 A 
ATOM      8  C6  PXY d   1      -1.288  -0.326   1.596  0.00  0.00     0.003 A 
ENDROOT
TORSDOF 0
ENDMDL
