MODEL 1
REMARK minimizedAffinity 1.34038377
REMARK minimizedRMSD -1
REMARK  0 active torsions:
REMARK  status: ('A' for Active; 'I' for Inactive)
ROOT
ATOM      1  C4' PXY d   1       1.241   3.142   0.959  0.00  0.00     0.077 C 
ATOM      2  C1' PXY d   1      -1.869  -1.480   2.501  0.00  0.00     0.077 C 
ATOM      3  C1  PXY d   1      -1.064  -0.262   2.092  0.00  0.00    -0.082 A 
ATOM      4  C2  PXY d   1       0.226  -0.389   1.826  0.00  0.00     0.003 A 
ATOM      5  C3  PXY d   1       0.976   0.707   1.486  0.00  0.00     0.003 A 
ATOM      6  C4  PXY d   1       0.388   1.938   1.366  0.00  0.00    -0.082 A 
ATOM      7  C5  PXY d   1      -0.930   2.074   1.626  0.00  0.00     0.003 A 
ATOM      8  C6  PXY d   1      -1.665   0.956   2.009  0.00  0.00     0.003 A 
ENDROOT
TORSDOF 0
ENDMDL
