MODEL 1
REMARK minimizedAffinity -3.4486475
REMARK minimizedRMSD -1
REMARK  0 active torsions:
REMARK  status: ('A' for Active; 'I' for Inactive)
ROOT
ATOM      1  C4' PXY d   1      -4.013   1.538   3.385  0.00  0.00     0.077 C 
ATOM      2  C1' PXY d   1       1.153   0.415   1.047  0.00  0.00     0.077 C 
ATOM      3  C1  PXY d   1      -0.205   0.697   1.659  0.00  0.00    -0.082 A 
ATOM      4  C2  PXY d   1      -0.723   1.911   1.570  0.00  0.00     0.003 A 
ATOM      5  C3  PXY d   1      -1.936   2.191   2.146  0.00  0.00     0.003 A 
ATOM      6  C4  PXY d   1      -2.649   1.205   2.773  0.00  0.00    -0.082 A 
ATOM      7  C5  PXY d   1      -2.132  -0.039   2.859  0.00  0.00     0.003 A 
ATOM      8  C6  PXY d   1      -0.882  -0.293   2.304  0.00  0.00     0.003 A 
ENDROOT
TORSDOF 0
ENDMDL
