MODEL 1
REMARK minimizedAffinity 1.67030001
REMARK minimizedRMSD -1
REMARK  0 active torsions:
REMARK  status: ('A' for Active; 'I' for Inactive)
ROOT
ATOM      1  C4' PXY d   1       0.961   3.590   1.117  0.00  0.00     0.077 C 
ATOM      2  C1' PXY d   1      -1.809  -1.244   2.659  0.00  0.00     0.077 C 
ATOM      3  C1  PXY d   1      -1.073   0.020   2.263  0.00  0.00    -0.082 A 
ATOM      4  C2  PXY d   1      -1.753   1.055   1.797  0.00  0.00     0.003 A 
ATOM      5  C3  PXY d   1      -1.101   2.195   1.404  0.00  0.00     0.003 A 
ATOM      6  C4  PXY d   1       0.258   2.296   1.538  0.00  0.00    -0.082 A 
ATOM      7  C5  PXY d   1       0.959   1.249   2.023  0.00  0.00     0.003 A 
ATOM      8  C6  PXY d   1       0.282   0.086   2.378  0.00  0.00     0.003 A 
ENDROOT
TORSDOF 0
ENDMDL
