MODEL 1
REMARK minimizedAffinity -1.66419232
REMARK minimizedRMSD -1
REMARK  0 active torsions:
REMARK  status: ('A' for Active; 'I' for Inactive)
ROOT
ATOM      1  C4' PXY d   1       1.130   3.970   0.672  0.00  0.00     0.077 C 
ATOM      2  C1' PXY d   1      -2.775   0.079   2.412  0.00  0.00     0.077 C 
ATOM      3  C1  PXY d   1      -1.743   1.096   1.965  0.00  0.00    -0.082 A 
ATOM      4  C2  PXY d   1      -2.127   2.160   1.280  0.00  0.00     0.003 A 
ATOM      5  C3  PXY d   1      -1.204   3.073   0.841  0.00  0.00     0.003 A 
ATOM      6  C4  PXY d   1       0.121   2.923   1.151  0.00  0.00    -0.082 A 
ATOM      7  C5  PXY d   1       0.520   1.844   1.859  0.00  0.00     0.003 A 
ATOM      8  C6  PXY d   1      -0.428   0.908   2.260  0.00  0.00     0.003 A 
ENDROOT
TORSDOF 0
ENDMDL
