MODEL 1
REMARK minimizedAffinity 6.73459291
REMARK minimizedRMSD -1
REMARK  0 active torsions:
REMARK  status: ('A' for Active; 'I' for Inactive)
ROOT
ATOM      1  C4' PXY d   1      -2.205   2.298   2.935  0.00  0.00     0.077 C 
ATOM      2  C1' PXY d   1       2.296  -0.423   0.537  0.00  0.00     0.077 C 
ATOM      3  C1  PXY d   1       1.121   0.302   1.164  0.00  0.00    -0.082 A 
ATOM      4  C2  PXY d   1       0.342  -0.335   2.023  0.00  0.00     0.003 A 
ATOM      5  C3  PXY d   1      -0.743   0.296   2.575  0.00  0.00     0.003 A 
ATOM      6  C4  PXY d   1      -1.003   1.609   2.285  0.00  0.00    -0.082 A 
ATOM      7  C5  PXY d   1      -0.206   2.269   1.417  0.00  0.00     0.003 A 
ATOM      8  C6  PXY d   1       0.866   1.598   0.837  0.00  0.00     0.003 A 
ENDROOT
TORSDOF 0
ENDMDL
