MODEL 1
REMARK minimizedAffinity -1.19335139
REMARK minimizedRMSD -1
REMARK  0 active torsions:
REMARK  status: ('A' for Active; 'I' for Inactive)
ROOT
ATOM      1  C4' PXY d   1       2.298   2.508   0.372  0.00  0.00     0.077 C 
ATOM      2  C1' PXY d   1      -2.393  -0.633   1.612  0.00  0.00     0.077 C 
ATOM      3  C1  PXY d   1      -1.156   0.183   1.295  0.00  0.00    -0.082 A 
ATOM      4  C2  PXY d   1      -1.285   1.428   0.866  0.00  0.00     0.003 A 
ATOM      5  C3  PXY d   1      -0.178   2.170   0.544  0.00  0.00     0.003 A 
ATOM      6  C4  PXY d   1       1.077   1.650   0.713  0.00  0.00    -0.082 A 
ATOM      7  C5  PXY d   1       1.218   0.384   1.161  0.00  0.00     0.003 A 
ATOM      8  C6  PXY d   1       0.080  -0.366   1.443  0.00  0.00     0.003 A 
ENDROOT
TORSDOF 0
ENDMDL
