MODEL 1
REMARK minimizedAffinity 5.08811235
REMARK minimizedRMSD -1
REMARK  0 active torsions:
REMARK  status: ('A' for Active; 'I' for Inactive)
ROOT
ATOM      1  C4' PXY d   1      -4.511  -0.783   4.908  0.00  0.00     0.077 C 
ATOM      2  C1' PXY d   1      -5.999   4.803   4.917  0.00  0.00     0.077 C 
ATOM      3  C1  PXY d   1      -5.609   3.338   4.928  0.00  0.00    -0.082 A 
ATOM      4  C2  PXY d   1      -4.935   2.833   3.908  0.00  0.00     0.003 A 
ATOM      5  C3  PXY d   1      -4.602   1.503   3.886  0.00  0.00     0.003 A 
ATOM      6  C4  PXY d   1      -4.917   0.693   4.944  0.00  0.00    -0.082 A 
ATOM      7  C5  PXY d   1      -5.597   1.203   5.994  0.00  0.00     0.003 A 
ATOM      8  C6  PXY d   1      -5.961   2.547   5.977  0.00  0.00     0.003 A 
ENDROOT
TORSDOF 0
ENDMDL
