MODEL 1
REMARK minimizedAffinity 4.71708536
REMARK minimizedRMSD -1
REMARK  0 active torsions:
REMARK  status: ('A' for Active; 'I' for Inactive)
ROOT
ATOM      1  C4' PXY d   1       0.479  -4.876  -0.016  0.00  0.00     0.077 C 
ATOM      2  C1' PXY d   1      -4.253  -1.640  -0.760  0.00  0.00     0.077 C 
ATOM      3  C1  PXY d   1      -3.005  -2.478  -0.564  0.00  0.00    -0.082 A 
ATOM      4  C2  PXY d   1      -2.972  -3.719  -1.020  0.00  0.00     0.003 A 
ATOM      5  C3  PXY d   1      -1.863  -4.501  -0.823  0.00  0.00     0.003 A 
ATOM      6  C4  PXY d   1      -0.757  -3.990  -0.200  0.00  0.00    -0.082 A 
ATOM      7  C5  PXY d   1      -0.778  -2.721   0.259  0.00  0.00     0.003 A 
ATOM      8  C6  PXY d   1      -1.929  -1.957   0.086  0.00  0.00     0.003 A 
ENDROOT
TORSDOF 0
ENDMDL
