MODEL 1
REMARK minimizedAffinity 3.65591526
REMARK minimizedRMSD -1
REMARK  0 active torsions:
REMARK  status: ('A' for Active; 'I' for Inactive)
ROOT
ATOM      1  C4' PXY d   1      -1.891  -1.490   2.901  0.00  0.00     0.077 C 
ATOM      2  C1' PXY d   1       0.323   3.412   0.784  0.00  0.00     0.077 C 
ATOM      3  C1  PXY d   1      -0.267   2.133   1.345  0.00  0.00    -0.082 A 
ATOM      4  C2  PXY d   1       0.510   1.078   1.525  0.00  0.00     0.003 A 
ATOM      5  C3  PXY d   1      -0.014  -0.097   2.001  0.00  0.00     0.003 A 
ATOM      6  C4  PXY d   1      -1.336  -0.175   2.347  0.00  0.00    -0.082 A 
ATOM      7  C5  PXY d   1      -2.134   0.900   2.176  0.00  0.00     0.003 A 
ATOM      8  C6  PXY d   1      -1.591   2.070   1.653  0.00  0.00     0.003 A 
ENDROOT
TORSDOF 0
ENDMDL
