MODEL 1
REMARK minimizedAffinity 5.48389244
REMARK minimizedRMSD -1
REMARK  0 active torsions:
REMARK  status: ('A' for Active; 'I' for Inactive)
ROOT
ATOM      1  C4' PXY d   1       2.685  -0.513   1.102  0.00  0.00     0.077 C 
ATOM      2  C1' PXY d   1      -1.894   2.912   1.949  0.00  0.00     0.077 C 
ATOM      3  C1  PXY d   1      -0.696   2.007   1.738  0.00  0.00    -0.082 A 
ATOM      4  C2  PXY d   1       0.330   2.437   1.022  0.00  0.00     0.003 A 
ATOM      5  C3  PXY d   1       1.408   1.620   0.794  0.00  0.00     0.003 A 
ATOM      6  C4  PXY d   1       1.459   0.370   1.349  0.00  0.00    -0.082 A 
ATOM      7  C5  PXY d   1       0.421  -0.072   2.090  0.00  0.00     0.003 A 
ATOM      8  C6  PXY d   1      -0.682   0.757   2.275  0.00  0.00     0.003 A 
ENDROOT
TORSDOF 0
ENDMDL
