MODEL 1
REMARK minimizedAffinity 8.69715214
REMARK minimizedRMSD -1
REMARK  0 active torsions:
REMARK  status: ('A' for Active; 'I' for Inactive)
ROOT
ATOM      1  C4' PXY d   1      -0.182  -4.568   1.173  0.00  0.00     0.077 C 
ATOM      2  C1' PXY d   1      -3.269  -1.211  -2.380  0.00  0.00     0.077 C 
ATOM      3  C1  PXY d   1      -2.457  -2.100  -1.458  0.00  0.00    -0.082 A 
ATOM      4  C2  PXY d   1      -2.684  -2.071  -0.155  0.00  0.00     0.003 A 
ATOM      5  C3  PXY d   1      -1.937  -2.844   0.697  0.00  0.00     0.003 A 
ATOM      6  C4  PXY d   1      -0.984  -3.695   0.204  0.00  0.00    -0.082 A 
ATOM      7  C5  PXY d   1      -0.754  -3.738  -1.126  0.00  0.00     0.003 A 
ATOM      8  C6  PXY d   1      -1.495  -2.915  -1.969  0.00  0.00     0.003 A 
ENDROOT
TORSDOF 0
ENDMDL
