MODEL 1
REMARK minimizedAffinity 5.33430243
REMARK minimizedRMSD -1
REMARK  0 active torsions:
REMARK  status: ('A' for Active; 'I' for Inactive)
ROOT
ATOM      1  C4' PXY d   1       1.132   1.502   0.708  0.00  0.00     0.077 C 
ATOM      2  C1' PXY d   1      -4.077   1.798   3.197  0.00  0.00     0.077 C 
ATOM      3  C1  PXY d   1      -2.709   1.709   2.551  0.00  0.00    -0.082 A 
ATOM      4  C2  PXY d   1      -2.113   2.812   2.125  0.00  0.00     0.003 A 
ATOM      5  C3  PXY d   1      -0.890   2.746   1.509  0.00  0.00     0.003 A 
ATOM      6  C4  PXY d   1      -0.246   1.545   1.375  0.00  0.00    -0.082 A 
ATOM      7  C5  PXY d   1      -0.841   0.417   1.817  0.00  0.00     0.003 A 
ATOM      8  C6  PXY d   1      -2.101   0.501   2.402  0.00  0.00     0.003 A 
ENDROOT
TORSDOF 0
ENDMDL
