MODEL 1
REMARK minimizedAffinity 3.05102658
REMARK minimizedRMSD -1
REMARK  0 active torsions:
REMARK  status: ('A' for Active; 'I' for Inactive)
ROOT
ATOM      1  C4' PXY d   1       1.171   2.297   0.500  0.00  0.00     0.077 C 
ATOM      2  C1' PXY d   1      -3.814   1.559   3.331  0.00  0.00     0.077 C 
ATOM      3  C1  PXY d   1      -2.501   1.745   2.597  0.00  0.00    -0.082 A 
ATOM      4  C2  PXY d   1      -2.324   2.810   1.831  0.00  0.00     0.003 A 
ATOM      5  C3  PXY d   1      -1.155   2.978   1.135  0.00  0.00     0.003 A 
ATOM      6  C4  PXY d   1      -0.135   2.073   1.266  0.00  0.00    -0.082 A 
ATOM      7  C5  PXY d   1      -0.303   0.990   2.054  0.00  0.00     0.003 A 
ATOM      8  C6  PXY d   1      -1.513   0.817   2.720  0.00  0.00     0.003 A 
ENDROOT
TORSDOF 0
ENDMDL
