MODEL 1
REMARK minimizedAffinity 2.43509817
REMARK minimizedRMSD -1
REMARK  0 active torsions:
REMARK  status: ('A' for Active; 'I' for Inactive)
ROOT
ATOM      1  C4' PXY d   1      -3.692  -0.513  -2.387  0.00  0.00     0.077 C 
ATOM      2  C1' PXY d   1      -2.639  -5.768  -0.219  0.00  0.00     0.077 C 
ATOM      3  C1  PXY d   1      -2.907  -4.392  -0.798  0.00  0.00    -0.082 A 
ATOM      4  C2  PXY d   1      -3.284  -3.408   0.003  0.00  0.00     0.003 A 
ATOM      5  C3  PXY d   1      -3.562  -2.167  -0.508  0.00  0.00     0.003 A 
ATOM      6  C4  PXY d   1      -3.401  -1.916  -1.845  0.00  0.00    -0.082 A 
ATOM      7  C5  PXY d   1      -3.007  -2.912  -2.666  0.00  0.00     0.003 A 
ATOM      8  C6  PXY d   1      -2.770  -4.176  -2.134  0.00  0.00     0.003 A 
ENDROOT
TORSDOF 0
ENDMDL
