MODEL 1
REMARK minimizedAffinity 11.359828
REMARK minimizedRMSD -1
REMARK  0 active torsions:
REMARK  status: ('A' for Active; 'I' for Inactive)
ROOT
ATOM      1  C4' PXY d   1      -2.599  -5.276  -1.358  0.00  0.00     0.077 C 
ATOM      2  C1' PXY d   1      -3.586   0.366  -2.135  0.00  0.00     0.077 C 
ATOM      3  C1  PXY d   1      -3.326  -1.112  -1.918  0.00  0.00    -0.082 A 
ATOM      4  C2  PXY d   1      -2.857  -1.846  -2.914  0.00  0.00     0.003 A 
ATOM      5  C3  PXY d   1      -2.646  -3.190  -2.745  0.00  0.00     0.003 A 
ATOM      6  C4  PXY d   1      -2.868  -3.779  -1.528  0.00  0.00    -0.082 A 
ATOM      7  C5  PXY d   1      -3.336  -3.034  -0.505  0.00  0.00     0.003 A 
ATOM      8  C6  PXY d   1      -3.583  -1.679  -0.709  0.00  0.00     0.003 A 
ENDROOT
TORSDOF 0
ENDMDL
