MODEL 1
REMARK minimizedAffinity -2.09883809
REMARK minimizedRMSD -1
REMARK  0 active torsions:
REMARK  status: ('A' for Active; 'I' for Inactive)
ROOT
ATOM      1  C4' PXY d   1       1.598   3.742   0.799  0.00  0.00     0.077 C 
ATOM      2  C1' PXY d   1      -1.809  -0.910   1.213  0.00  0.00     0.077 C 
ATOM      3  C1  PXY d   1      -0.925   0.316   1.097  0.00  0.00    -0.082 A 
ATOM      4  C2  PXY d   1       0.380   0.201   1.282  0.00  0.00     0.003 A 
ATOM      5  C3  PXY d   1       1.191   1.304   1.212  0.00  0.00     0.003 A 
ATOM      6  C4  PXY d   1       0.667   2.530   0.897  0.00  0.00    -0.082 A 
ATOM      7  C5  PXY d   1      -0.662   2.653   0.696  0.00  0.00     0.003 A 
ATOM      8  C6  PXY d   1      -1.473   1.528   0.812  0.00  0.00     0.003 A 
ENDROOT
TORSDOF 0
ENDMDL
