MODEL 1
REMARK minimizedAffinity -1.08658683
REMARK minimizedRMSD -1
REMARK  0 active torsions:
REMARK  status: ('A' for Active; 'I' for Inactive)
ROOT
ATOM      1  C4' PXY d   1       1.514   1.925   0.905  0.00  0.00     0.077 C 
ATOM      2  C1' PXY d   1      -1.463  -1.929   4.021  0.00  0.00     0.077 C 
ATOM      3  C1  PXY d   1      -0.673  -0.918   3.212  0.00  0.00    -0.082 A 
ATOM      4  C2  PXY d   1      -1.304  -0.117   2.370  0.00  0.00     0.003 A 
ATOM      5  C3  PXY d   1      -0.602   0.781   1.608  0.00  0.00     0.003 A 
ATOM      6  C4  PXY d   1       0.755   0.896   1.749  0.00  0.00    -0.082 A 
ATOM      7  C5  PXY d   1       1.406   0.089   2.614  0.00  0.00     0.003 A 
ATOM      8  C6  PXY d   1       0.679  -0.843   3.348  0.00  0.00     0.003 A 
ENDROOT
TORSDOF 0
ENDMDL
