MODEL 1
REMARK minimizedAffinity 8.5167141
REMARK minimizedRMSD -1
REMARK  1 active torsions:
REMARK  status: ('A' for Active; 'I' for Inactive)
REMARK    1  A    between atoms: C1_2  and  C2_3 
ROOT
ATOM      1  C2  UNL d   1       1.467  -1.118   2.093  0.00  0.00    -0.081 A 
ATOM      2  C3  UNL d   1       2.052  -2.384   2.220  0.00  0.00     0.006 A 
ATOM      3  C4  UNL d   1       2.284  -2.934   3.482  0.00  0.00     0.002 A 
ATOM      4  C5  UNL d   1       1.927  -2.233   4.639  0.00  0.00    -0.080 A 
ATOM      5  C6  UNL d   1       2.142  -2.825   6.000  0.00  0.00     0.076 C 
ATOM      6  C7  UNL d   1       1.358  -0.961   4.513  0.00  0.00     0.002 A 
ATOM      7  C8  UNL d   1       1.127  -0.410   3.251  0.00  0.00     0.006 A 
ENDROOT
BRANCH   1   8
ATOM      8  C1  UNL d   1       1.157  -0.549   0.732  0.00  0.00     0.054 C 
ATOM      9  C   UNL d   1      -0.161   0.213   0.738  0.00  0.00     0.018 C 
ENDBRANCH   1   8
TORSDOF 1
ENDMDL
