MODEL 1
REMARK minimizedAffinity 19.2371883
REMARK minimizedRMSD -1
REMARK  1 active torsions:
REMARK  status: ('A' for Active; 'I' for Inactive)
REMARK    1  A    between atoms: C1_2  and  C2_3 
ROOT
ATOM      1  C2  UNL d   1      -2.201   0.466  -0.592  0.00  0.00    -0.081 A 
ATOM      2  C3  UNL d   1      -1.222   1.459  -0.463  0.00  0.00     0.006 A 
ATOM      3  C4  UNL d   1      -0.284   1.400   0.570  0.00  0.00     0.002 A 
ATOM      4  C5  UNL d   1      -0.304   0.344   1.487  0.00  0.00    -0.080 A 
ATOM      5  C6  UNL d   1       0.716   0.252   2.583  0.00  0.00     0.076 C 
ATOM      6  C7  UNL d   1      -1.292  -0.639   1.370  0.00  0.00     0.002 A 
ATOM      7  C8  UNL d   1      -2.231  -0.580   0.337  0.00  0.00     0.006 A 
ENDROOT
BRANCH   1   8
ATOM      8  C1  UNL d   1      -3.173   0.492  -1.743  0.00  0.00     0.054 C 
ATOM      9  C   UNL d   1      -2.548   1.118  -2.981  0.00  0.00     0.018 C 
ENDBRANCH   1   8
TORSDOF 1
ENDMDL
