MODEL 1
REMARK minimizedAffinity 9.44384575
REMARK minimizedRMSD -1
REMARK  1 active torsions:
REMARK  status: ('A' for Active; 'I' for Inactive)
REMARK    1  A    between atoms: C1_2  and  C2_3 
ROOT
ATOM      1  C2  UNL d   1      -2.305  -1.741   0.346  0.00  0.00    -0.081 A 
ATOM      2  C3  UNL d   1      -2.894  -0.822  -0.531  0.00  0.00     0.006 A 
ATOM      3  C4  UNL d   1      -2.412   0.487  -0.613  0.00  0.00     0.002 A 
ATOM      4  C5  UNL d   1      -1.330   0.896   0.174  0.00  0.00    -0.080 A 
ATOM      5  C6  UNL d   1      -0.784   2.289   0.074  0.00  0.00     0.076 C 
ATOM      6  C7  UNL d   1      -0.753  -0.017   1.063  0.00  0.00     0.002 A 
ATOM      7  C8  UNL d   1      -1.235  -1.326   1.146  0.00  0.00     0.006 A 
ENDROOT
BRANCH   1   8
ATOM      8  C1  UNL d   1      -2.780  -3.171   0.390  0.00  0.00     0.054 C 
ATOM      9  C   UNL d   1      -1.626  -4.144   0.195  0.00  0.00     0.018 C 
ENDBRANCH   1   8
TORSDOF 1
ENDMDL
