MODEL 1
REMARK minimizedAffinity 8.28928566
REMARK minimizedRMSD -1
REMARK  1 active torsions:
REMARK  status: ('A' for Active; 'I' for Inactive)
REMARK    1  A    between atoms: C1_2  and  C2_3 
ROOT
ATOM      1  C2  UNL d   1      -3.125  -0.750  -0.981  0.00  0.00    -0.081 A 
ATOM      2  C3  UNL d   1      -2.378  -0.948   0.186  0.00  0.00     0.006 A 
ATOM      3  C4  UNL d   1      -2.118  -2.239   0.651  0.00  0.00     0.002 A 
ATOM      4  C5  UNL d   1      -2.595  -3.354  -0.048  0.00  0.00    -0.080 A 
ATOM      5  C6  UNL d   1      -2.298  -4.746   0.423  0.00  0.00     0.076 C 
ATOM      6  C7  UNL d   1      -3.356  -3.156  -1.205  0.00  0.00     0.002 A 
ATOM      7  C8  UNL d   1      -3.616  -1.865  -1.669  0.00  0.00     0.006 A 
ENDROOT
BRANCH   1   8
ATOM      8  C1  UNL d   1      -3.351   0.640  -1.520  0.00  0.00     0.054 C 
ATOM      9  C   UNL d   1      -2.929   0.743  -2.979  0.00  0.00     0.018 C 
ENDBRANCH   1   8
TORSDOF 1
ENDMDL
