MODEL 1
REMARK minimizedAffinity 5.54869413
REMARK minimizedRMSD -1
REMARK  1 active torsions:
REMARK  status: ('A' for Active; 'I' for Inactive)
REMARK    1  A    between atoms: C1_2  and  C2_3 
ROOT
ATOM      1  C2  UNL d   1      -1.988   0.756   0.223  0.00  0.00    -0.081 A 
ATOM      2  C3  UNL d   1      -1.176   0.086   1.146  0.00  0.00     0.006 A 
ATOM      3  C4  UNL d   1      -1.207  -1.308   1.235  0.00  0.00     0.002 A 
ATOM      4  C5  UNL d   1      -2.043  -2.055   0.398  0.00  0.00    -0.080 A 
ATOM      5  C6  UNL d   1      -2.063  -3.553   0.463  0.00  0.00     0.076 C 
ATOM      6  C7  UNL d   1      -2.867  -1.384  -0.512  0.00  0.00     0.002 A 
ATOM      7  C8  UNL d   1      -2.837   0.009  -0.601  0.00  0.00     0.006 A 
ENDROOT
BRANCH   1   8
ATOM      8  C1  UNL d   1      -1.910   2.254   0.080  0.00  0.00     0.054 C 
ATOM      9  C   UNL d   1      -0.468   2.724  -0.047  0.00  0.00     0.018 C 
ENDBRANCH   1   8
TORSDOF 1
ENDMDL
