MODEL 1
REMARK minimizedAffinity 3.52969241
REMARK minimizedRMSD -1
REMARK  1 active torsions:
REMARK  status: ('A' for Active; 'I' for Inactive)
REMARK    1  A    between atoms: C1_2  and  C2_3 
ROOT
ATOM      1  C2  UNL d   1      -1.902  -3.278  -1.268  0.00  0.00    -0.081 A 
ATOM      2  C3  UNL d   1      -2.194  -1.925  -1.054  0.00  0.00     0.006 A 
ATOM      3  C4  UNL d   1      -3.519  -1.482  -1.030  0.00  0.00     0.002 A 
ATOM      4  C5  UNL d   1      -4.572  -2.385  -1.212  0.00  0.00    -0.080 A 
ATOM      5  C6  UNL d   1      -6.000  -1.927  -1.158  0.00  0.00     0.076 C 
ATOM      6  C7  UNL d   1      -4.280  -3.733  -1.443  0.00  0.00     0.002 A 
ATOM      7  C8  UNL d   1      -2.956  -4.177  -1.467  0.00  0.00     0.006 A 
ENDROOT
BRANCH   1   8
ATOM      8  C1  UNL d   1      -0.477  -3.770  -1.230  0.00  0.00     0.054 C 
ATOM      9  C   UNL d   1      -0.014  -4.230  -2.605  0.00  0.00     0.018 C 
ENDBRANCH   1   8
TORSDOF 1
ENDMDL
