MODEL 1
REMARK minimizedAffinity 4.20508909
REMARK minimizedRMSD -1
REMARK  1 active torsions:
REMARK  status: ('A' for Active; 'I' for Inactive)
REMARK    1  A    between atoms: C1_2  and  C2_3 
ROOT
ATOM      1  C2  UNL d   1       0.952  -2.622   1.320  0.00  0.00    -0.081 A 
ATOM      2  C3  UNL d   1      -0.398  -2.874   1.047  0.00  0.00     0.006 A 
ATOM      3  C4  UNL d   1      -1.315  -1.822   0.976  0.00  0.00     0.002 A 
ATOM      4  C5  UNL d   1      -0.896  -0.501   1.169  0.00  0.00    -0.080 A 
ATOM      5  C6  UNL d   1      -1.864   0.640   1.065  0.00  0.00     0.076 C 
ATOM      6  C7  UNL d   1       0.450  -0.251   1.458  0.00  0.00     0.002 A 
ATOM      7  C8  UNL d   1       1.366  -1.302   1.530  0.00  0.00     0.006 A 
ENDROOT
BRANCH   1   8
ATOM      8  C1  UNL d   1       1.954  -3.747   1.333  0.00  0.00     0.054 C 
ATOM      9  C   UNL d   1       1.936  -4.489   2.662  0.00  0.00     0.018 C 
ENDBRANCH   1   8
TORSDOF 1
ENDMDL
