MODEL 1
REMARK minimizedAffinity 6.86188745
REMARK minimizedRMSD -1
REMARK  0 active torsions:
REMARK  status: ('A' for Active; 'I' for Inactive)
ROOT
ATOM      1  N1  IND d   1       3.357   1.696   0.931  0.00  0.00    -0.196 N 
ATOM      2  C2  IND d   1       2.725   2.011  -0.239  0.00  0.00     0.054 A 
ATOM      3  C3  IND d   1       1.771   1.094  -0.520  0.00  0.00    -0.031 A 
ATOM      4  C4  IND d   1       1.010  -0.946   0.853  0.00  0.00     0.051 A 
ATOM      5  C5  IND d   1       1.314  -1.663   1.976  0.00  0.00    -0.031 A 
ATOM      6  C6  IND d   1       2.333  -1.288   2.827  0.00  0.00     0.015 A 
ATOM      7  C7  IND d   1       3.083  -0.170   2.591  0.00  0.00    -0.016 A 
ATOM      8  C8  IND d   1       2.781   0.556   1.448  0.00  0.00    -0.047 A 
ATOM      9  C9  IND d   1       1.776   0.157   0.558  0.00  0.00    -0.096 A 
ATOM     10  HN1 IND d   1       4.005   2.137   1.285  0.00  0.00     0.298 HD
ENDROOT
TORSDOF 0
ENDMDL
