MODEL 1
REMARK minimizedAffinity 6.81476784
REMARK minimizedRMSD -1
REMARK  0 active torsions:
REMARK  status: ('A' for Active; 'I' for Inactive)
ROOT
ATOM      1  N1  IND d   1      -5.995   3.298   2.215  0.00  0.00    -0.196 N 
ATOM      2  C2  IND d   1      -5.370   2.278   1.553  0.00  0.00     0.054 A 
ATOM      3  C3  IND d   1      -4.603   1.563   2.406  0.00  0.00    -0.031 A 
ATOM      4  C4  IND d   1      -4.306   1.826   4.950  0.00  0.00     0.051 A 
ATOM      5  C5  IND d   1      -4.645   2.637   5.996  0.00  0.00    -0.031 A 
ATOM      6  C6  IND d   1      -5.471   3.731   5.832  0.00  0.00     0.015 A 
ATOM      7  C7  IND d   1      -5.999   4.048   4.613  0.00  0.00    -0.016 A 
ATOM      8  C8  IND d   1      -5.651   3.231   3.547  0.00  0.00    -0.047 A 
ATOM      9  C9  IND d   1      -4.780   2.145   3.699  0.00  0.00    -0.096 A 
ATOM     10  HN1 IND d   1      -6.516   3.883   1.859  0.00  0.00     0.298 HD
ENDROOT
TORSDOF 0
ENDMDL
