MODEL 1
REMARK minimizedAffinity 1.45297694
REMARK minimizedRMSD -1
REMARK  0 active torsions:
REMARK  status: ('A' for Active; 'I' for Inactive)
ROOT
ATOM      1  N1  IND d   1      -5.515   1.873   5.710  0.00  0.00    -0.196 N 
ATOM      2  C2  IND d   1      -5.629   3.204   6.000  0.00  0.00     0.054 A 
ATOM      3  C3  IND d   1      -5.790   3.920   4.865  0.00  0.00    -0.031 A 
ATOM      4  C4  IND d   1      -5.998   3.105   2.432  0.00  0.00     0.051 A 
ATOM      5  C5  IND d   1      -5.920   1.977   1.663  0.00  0.00    -0.031 A 
ATOM      6  C6  IND d   1      -5.701   0.732   2.216  0.00  0.00     0.015 A 
ATOM      7  C7  IND d   1      -5.563   0.565   3.565  0.00  0.00    -0.016 A 
ATOM      8  C8  IND d   1      -5.635   1.709   4.348  0.00  0.00    -0.047 A 
ATOM      9  C9  IND d   1      -5.814   2.981   3.789  0.00  0.00    -0.096 A 
ATOM     10  HN1 IND d   1      -5.390   1.244   6.283  0.00  0.00     0.298 HD
ENDROOT
TORSDOF 0
ENDMDL
