MODEL 1
REMARK minimizedAffinity 12.0323353
REMARK minimizedRMSD -1
REMARK  0 active torsions:
REMARK  status: ('A' for Active; 'I' for Inactive)
ROOT
ATOM      1  N1  IND d   1       1.335   0.588   1.672  0.00  0.00    -0.196 N 
ATOM      2  C2  IND d   1       0.988  -0.605   1.101  0.00  0.00     0.054 A 
ATOM      3  C3  IND d   1      -0.353  -0.768   1.130  0.00  0.00    -0.031 A 
ATOM      4  C4  IND d   1      -2.179   0.840   1.972  0.00  0.00     0.051 A 
ATOM      5  C5  IND d   1      -2.350   2.036   2.611  0.00  0.00    -0.031 A 
ATOM      6  C6  IND d   1      -1.279   2.828   2.975  0.00  0.00     0.015 A 
ATOM      7  C7  IND d   1       0.007   2.457   2.701  0.00  0.00    -0.016 A 
ATOM      8  C8  IND d   1       0.184   1.239   2.059  0.00  0.00    -0.047 A 
ATOM      9  C9  IND d   1      -0.896   0.412   1.726  0.00  0.00    -0.096 A 
ATOM     10  HN1 IND d   1       2.136   0.882   1.772  0.00  0.00     0.298 HD
ENDROOT
TORSDOF 0
ENDMDL
