MODEL 1
REMARK minimizedAffinity 4.04489803
REMARK minimizedRMSD -1
REMARK  0 active torsions:
REMARK  status: ('A' for Active; 'I' for Inactive)
ROOT
ATOM      1  N1  IND d   1       0.550   0.583   2.586  0.00  0.00    -0.196 N 
ATOM      2  C2  IND d   1       0.491   1.608   3.490  0.00  0.00     0.054 A 
ATOM      3  C3  IND d   1      -0.697   2.247   3.399  0.00  0.00    -0.031 A 
ATOM      4  C4  IND d   1      -2.730   1.718   1.910  0.00  0.00     0.051 A 
ATOM      5  C5  IND d   1      -3.138   0.898   0.896  0.00  0.00    -0.031 A 
ATOM      6  C6  IND d   1      -2.322  -0.090   0.385  0.00  0.00     0.015 A 
ATOM      7  C7  IND d   1      -1.066  -0.304   0.879  0.00  0.00    -0.016 A 
ATOM      8  C8  IND d   1      -0.646   0.531   1.904  0.00  0.00    -0.047 A 
ATOM      9  C9  IND d   1      -1.453   1.564   2.398  0.00  0.00    -0.096 A 
ATOM     10  HN1 IND d   1       1.221   0.059   2.465  0.00  0.00     0.298 HD
ENDROOT
TORSDOF 0
ENDMDL
