MODEL 1
REMARK minimizedAffinity 19.1095047
REMARK minimizedRMSD -1
REMARK  0 active torsions:
REMARK  status: ('A' for Active; 'I' for Inactive)
ROOT
ATOM      1  N1  IND d   1       0.036   1.339   1.615  0.00  0.00    -0.196 N 
ATOM      2  C2  IND d   1      -0.517   0.466   2.509  0.00  0.00     0.054 A 
ATOM      3  C3  IND d   1       0.355  -0.525   2.801  0.00  0.00    -0.031 A 
ATOM      4  C4  IND d   1       2.781  -0.854   2.005  0.00  0.00     0.051 A 
ATOM      5  C5  IND d   1       3.715  -0.335   1.153  0.00  0.00    -0.031 A 
ATOM      6  C6  IND d   1       3.466   0.793   0.398  0.00  0.00     0.015 A 
ATOM      7  C7  IND d   1       2.273   1.453   0.476  0.00  0.00    -0.016 A 
ATOM      8  C8  IND d   1       1.320   0.925   1.335  0.00  0.00    -0.047 A 
ATOM      9  C9  IND d   1       1.551  -0.244   2.072  0.00  0.00    -0.096 A 
ATOM     10  HN1 IND d   1      -0.352   2.031   1.283  0.00  0.00     0.298 HD
ENDROOT
TORSDOF 0
ENDMDL
