MODEL 1
REMARK minimizedAffinity 3.63489199
REMARK minimizedRMSD -1
REMARK  0 active torsions:
REMARK  status: ('A' for Active; 'I' for Inactive)
ROOT
ATOM      1  N1  IND d   1      -4.258   2.254   2.653  0.00  0.00    -0.196 N 
ATOM      2  C2  IND d   1      -3.386   1.494   1.923  0.00  0.00     0.054 A 
ATOM      3  C3  IND d   1      -3.029   0.390   2.618  0.00  0.00    -0.031 A 
ATOM      4  C4  IND d   1      -3.830  -0.421   4.926  0.00  0.00     0.051 A 
ATOM      5  C5  IND d   1      -4.597  -0.046   5.993  0.00  0.00    -0.031 A 
ATOM      6  C6  IND d   1      -5.307   1.138   6.000  0.00  0.00     0.015 A 
ATOM      7  C7  IND d   1      -5.285   1.988   4.931  0.00  0.00    -0.016 A 
ATOM      8  C8  IND d   1      -4.501   1.614   3.849  0.00  0.00    -0.047 A 
ATOM      9  C9  IND d   1      -3.745   0.435   3.853  0.00  0.00    -0.096 A 
ATOM     10  HN1 IND d   1      -4.597   3.004   2.407  0.00  0.00     0.298 HD
ENDROOT
TORSDOF 0
ENDMDL
