MODEL 1
REMARK minimizedAffinity 8.30051708
REMARK minimizedRMSD -1
REMARK  0 active torsions:
REMARK  status: ('A' for Active; 'I' for Inactive)
ROOT
ATOM      1  N1  IND d   1       0.397   1.188   2.483  0.00  0.00    -0.196 N 
ATOM      2  C2  IND d   1       1.207   0.245   1.915  0.00  0.00     0.054 A 
ATOM      3  C3  IND d   1       0.495  -0.545   1.080  0.00  0.00    -0.031 A 
ATOM      4  C4  IND d   1      -1.989  -0.407   0.418  0.00  0.00     0.051 A 
ATOM      5  C5  IND d   1      -3.144   0.265   0.704  0.00  0.00    -0.031 A 
ATOM      6  C6  IND d   1      -3.178   1.302   1.613  0.00  0.00     0.015 A 
ATOM      7  C7  IND d   1      -2.051   1.715   2.266  0.00  0.00    -0.016 A 
ATOM      8  C8  IND d   1      -0.877   1.030   1.983  0.00  0.00    -0.047 A 
ATOM      9  C9  IND d   1      -0.845  -0.051   1.093  0.00  0.00    -0.096 A 
ATOM     10  HN1 IND d   1       0.641   1.781   3.056  0.00  0.00     0.298 HD
ENDROOT
TORSDOF 0
ENDMDL
