MODEL 1
REMARK minimizedAffinity 5.87837172
REMARK minimizedRMSD -1
REMARK  0 active torsions:
REMARK  status: ('A' for Active; 'I' for Inactive)
ROOT
ATOM      1  N1  IND d   1      -1.163  -0.813   0.372  0.00  0.00    -0.196 N 
ATOM      2  C2  IND d   1      -2.121  -1.480  -0.339  0.00  0.00     0.054 A 
ATOM      3  C3  IND d   1      -3.339  -0.941  -0.109  0.00  0.00    -0.031 A 
ATOM      4  C4  IND d   1      -3.979   1.104   1.318  0.00  0.00     0.051 A 
ATOM      5  C5  IND d   1      -3.452   2.020   2.185  0.00  0.00    -0.031 A 
ATOM      6  C6  IND d   1      -2.108   2.040   2.497  0.00  0.00     0.015 A 
ATOM      7  C7  IND d   1      -1.235   1.148   1.941  0.00  0.00    -0.016 A 
ATOM      8  C8  IND d   1      -1.767   0.213   1.065  0.00  0.00    -0.047 A 
ATOM      9  C9  IND d   1      -3.137   0.161   0.778  0.00  0.00    -0.096 A 
ATOM     10  HN1 IND d   1      -0.324  -1.002   0.384  0.00  0.00     0.298 HD
ENDROOT
TORSDOF 0
ENDMDL
