MODEL 1
REMARK minimizedAffinity 12.5095348
REMARK minimizedRMSD -1
REMARK  0 active torsions:
REMARK  status: ('A' for Active; 'I' for Inactive)
ROOT
ATOM      1  N1  IND d   1      -4.736   1.088   1.413  0.00  0.00    -0.196 N 
ATOM      2  C2  IND d   1      -4.390   1.862   2.485  0.00  0.00     0.054 A 
ATOM      3  C3  IND d   1      -3.068   1.744   2.743  0.00  0.00    -0.031 A 
ATOM      4  C4  IND d   1      -1.266   0.417   1.471  0.00  0.00     0.051 A 
ATOM      5  C5  IND d   1      -1.106  -0.473   0.445  0.00  0.00    -0.031 A 
ATOM      6  C6  IND d   1      -2.169  -0.893  -0.328  0.00  0.00     0.015 A 
ATOM      7  C7  IND d   1      -3.435  -0.430  -0.110  0.00  0.00    -0.016 A 
ATOM      8  C8  IND d   1      -3.603   0.468   0.935  0.00  0.00    -0.047 A 
ATOM      9  C9  IND d   1      -2.535   0.866   1.750  0.00  0.00    -0.096 A 
ATOM     10  HN1 IND d   1      -5.529   1.003   1.091  0.00  0.00     0.298 HD
ENDROOT
TORSDOF 0
ENDMDL
