MODEL 1
REMARK minimizedAffinity 5.9613266
REMARK minimizedRMSD -1
REMARK  0 active torsions:
REMARK  status: ('A' for Active; 'I' for Inactive)
ROOT
ATOM      1  N1  IND d   1      -2.280   0.715   0.980  0.00  0.00    -0.196 N 
ATOM      2  C2  IND d   1      -1.341   0.337   0.060  0.00  0.00     0.054 A 
ATOM      3  C3  IND d   1      -0.101   0.645   0.500  0.00  0.00    -0.031 A 
ATOM      4  C4  IND d   1       0.630   1.678   2.742  0.00  0.00     0.051 A 
ATOM      5  C5  IND d   1       0.129   2.225   3.890  0.00  0.00    -0.031 A 
ATOM      6  C6  IND d   1      -1.227   2.296   4.133  0.00  0.00     0.015 A 
ATOM      7  C7  IND d   1      -2.137   1.809   3.237  0.00  0.00    -0.016 A 
ATOM      8  C8  IND d   1      -1.633   1.260   2.067  0.00  0.00    -0.047 A 
ATOM      9  C9  IND d   1      -0.259   1.224   1.796  0.00  0.00    -0.096 A 
ATOM     10  HN1 IND d   1      -3.131   0.627   0.893  0.00  0.00     0.298 HD
ENDROOT
TORSDOF 0
ENDMDL
