MODEL 1
REMARK minimizedAffinity 2.87328219
REMARK minimizedRMSD -1
REMARK  0 active torsions:
REMARK  status: ('A' for Active; 'I' for Inactive)
ROOT
ATOM      1  N1  IND d   1       0.726   1.423   2.377  0.00  0.00    -0.196 N 
ATOM      2  C2  IND d   1       0.546   2.343   3.372  0.00  0.00     0.054 A 
ATOM      3  C3  IND d   1      -0.772   2.581   3.559  0.00  0.00    -0.031 A 
ATOM      4  C4  IND d   1      -2.808   1.499   2.414  0.00  0.00     0.051 A 
ATOM      5  C5  IND d   1      -3.147   0.631   1.414  0.00  0.00    -0.031 A 
ATOM      6  C6  IND d   1      -2.192  -0.033   0.671  0.00  0.00     0.015 A 
ATOM      7  C7  IND d   1      -0.858   0.139   0.909  0.00  0.00    -0.016 A 
ATOM      8  C8  IND d   1      -0.510   1.025   1.919  0.00  0.00    -0.047 A 
ATOM      9  C9  IND d   1      -1.474   1.734   2.648  0.00  0.00    -0.096 A 
ATOM     10  HN1 IND d   1       1.485   1.140   2.087  0.00  0.00     0.298 HD
ENDROOT
TORSDOF 0
ENDMDL
