MODEL 1
REMARK minimizedAffinity 4.64686728
REMARK minimizedRMSD -1
REMARK  0 active torsions:
REMARK  status: ('A' for Active; 'I' for Inactive)
ROOT
ATOM      1  N1  IND d   1       0.920   1.646   2.556  0.00  0.00    -0.196 N 
ATOM      2  C2  IND d   1       0.454   2.457   3.553  0.00  0.00     0.054 A 
ATOM      3  C3  IND d   1      -0.898   2.483   3.545  0.00  0.00    -0.031 A 
ATOM      4  C4  IND d   1      -2.549   1.193   2.050  0.00  0.00     0.051 A 
ATOM      5  C5  IND d   1      -2.598   0.357   0.970  0.00  0.00    -0.031 A 
ATOM      6  C6  IND d   1      -1.453  -0.103   0.352  0.00  0.00     0.015 A 
ATOM      7  C7  IND d   1      -0.211   0.248   0.801  0.00  0.00    -0.016 A 
ATOM      8  C8  IND d   1      -0.158   1.102   1.893  0.00  0.00    -0.047 A 
ATOM      9  C9  IND d   1      -1.317   1.606   2.498  0.00  0.00    -0.096 A 
ATOM     10  HN1 IND d   1       1.748   1.501   2.373  0.00  0.00     0.298 HD
ENDROOT
TORSDOF 0
ENDMDL
