MODEL 1
REMARK minimizedAffinity 7.29401445
REMARK minimizedRMSD -1
REMARK  0 active torsions:
REMARK  status: ('A' for Active; 'I' for Inactive)
ROOT
ATOM      1  N1  IND d   1      -2.544   1.884   2.641  0.00  0.00    -0.196 N 
ATOM      2  C2  IND d   1      -3.496   1.521   1.730  0.00  0.00     0.054 A 
ATOM      3  C3  IND d   1      -2.930   0.849   0.701  0.00  0.00    -0.031 A 
ATOM      4  C4  IND d   1      -0.478   0.147   0.359  0.00  0.00     0.051 A 
ATOM      5  C5  IND d   1       0.768   0.283   0.904  0.00  0.00    -0.031 A 
ATOM      6  C6  IND d   1       0.977   0.971   2.082  0.00  0.00     0.015 A 
ATOM      7  C7  IND d   1      -0.058   1.542   2.766  0.00  0.00    -0.016 A 
ATOM      8  C8  IND d   1      -1.323   1.412   2.212  0.00  0.00    -0.047 A 
ATOM      9  C9  IND d   1      -1.536   0.751   0.995  0.00  0.00    -0.096 A 
ATOM     10  HN1 IND d   1      -2.684   2.333   3.361  0.00  0.00     0.298 HD
ENDROOT
TORSDOF 0
ENDMDL
