MODEL 1
REMARK minimizedAffinity 9.19153214
REMARK minimizedRMSD -1
REMARK  0 active torsions:
REMARK  status: ('A' for Active; 'I' for Inactive)
ROOT
ATOM      1  N1  IND d   1      -3.130   1.440   1.590  0.00  0.00    -0.196 N 
ATOM      2  C2  IND d   1      -3.233   2.106   2.779  0.00  0.00     0.054 A 
ATOM      3  C3  IND d   1      -2.050   2.085   3.434  0.00  0.00    -0.031 A 
ATOM      4  C4  IND d   1       0.212   1.103   2.694  0.00  0.00     0.051 A 
ATOM      5  C5  IND d   1       0.793   0.366   1.701  0.00  0.00    -0.031 A 
ATOM      6  C6  IND d   1       0.083  -0.057   0.596  0.00  0.00     0.015 A 
ATOM      7  C7  IND d   1      -1.239   0.252   0.438  0.00  0.00    -0.016 A 
ATOM      8  C8  IND d   1      -1.834   0.995   1.448  0.00  0.00    -0.047 A 
ATOM      9  C9  IND d   1      -1.129   1.391   2.591  0.00  0.00    -0.096 A 
ATOM     10  HN1 IND d   1      -3.767   1.319   1.026  0.00  0.00     0.298 HD
ENDROOT
TORSDOF 0
ENDMDL
