MODEL 1
REMARK minimizedAffinity 12.9060831
REMARK minimizedRMSD -1
REMARK  0 active torsions:
REMARK  status: ('A' for Active; 'I' for Inactive)
ROOT
ATOM      1  N1  IND d   1      -1.862   2.285   1.881  0.00  0.00    -0.196 N 
ATOM      2  C2  IND d   1      -2.840   1.466   1.389  0.00  0.00     0.054 A 
ATOM      3  C3  IND d   1      -2.350   0.224   1.175  0.00  0.00    -0.031 A 
ATOM      4  C4  IND d   1      -0.002  -0.713   1.660  0.00  0.00     0.051 A 
ATOM      5  C5  IND d   1       1.244  -0.336   2.078  0.00  0.00    -0.031 A 
ATOM      6  C6  IND d   1       1.522   0.959   2.462  0.00  0.00     0.015 A 
ATOM      7  C7  IND d   1       0.559   1.928   2.453  0.00  0.00    -0.016 A 
ATOM      8  C8  IND d   1      -0.705   1.550   2.023  0.00  0.00    -0.047 A 
ATOM      9  C9  IND d   1      -0.983   0.247   1.591  0.00  0.00    -0.096 A 
ATOM     10  HN1 IND d   1      -1.954   3.119   2.071  0.00  0.00     0.298 HD
ENDROOT
TORSDOF 0
ENDMDL
