MODEL 1
REMARK minimizedAffinity 5.83362055
REMARK minimizedRMSD -1
REMARK  0 active torsions:
REMARK  status: ('A' for Active; 'I' for Inactive)
ROOT
ATOM      1  N1  IND d   1      -0.987   2.615   3.403  0.00  0.00    -0.196 N 
ATOM      2  C2  IND d   1       0.318   2.780   3.777  0.00  0.00     0.054 A 
ATOM      3  C3  IND d   1       1.122   1.978   3.045  0.00  0.00    -0.031 A 
ATOM      4  C4  IND d   1       0.523   0.389   1.110  0.00  0.00     0.051 A 
ATOM      5  C5  IND d   1      -0.545  -0.127   0.431  0.00  0.00    -0.031 A 
ATOM      6  C6  IND d   1      -1.841   0.255   0.711  0.00  0.00     0.015 A 
ATOM      7  C7  IND d   1      -2.117   1.179   1.679  0.00  0.00    -0.016 A 
ATOM      8  C8  IND d   1      -1.036   1.700   2.375  0.00  0.00    -0.047 A 
ATOM      9  C9  IND d   1       0.278   1.284   2.124  0.00  0.00    -0.096 A 
ATOM     10  HN1 IND d   1      -1.663   3.016   3.752  0.00  0.00     0.298 HD
ENDROOT
TORSDOF 0
ENDMDL
