MODEL 1
REMARK minimizedAffinity 9.29092216
REMARK minimizedRMSD -1
REMARK  0 active torsions:
REMARK  status: ('A' for Active; 'I' for Inactive)
ROOT
ATOM      1  N1  IND d   1      -1.473   2.850   3.279  0.00  0.00    -0.196 N 
ATOM      2  C2  IND d   1      -0.400   2.954   4.120  0.00  0.00     0.054 A 
ATOM      3  C3  IND d   1       0.521   2.009   3.825  0.00  0.00    -0.031 A 
ATOM      4  C4  IND d   1       0.521   0.256   1.940  0.00  0.00     0.051 A 
ATOM      5  C5  IND d   1      -0.261  -0.249   0.939  0.00  0.00    -0.031 A 
ATOM      6  C6  IND d   1      -1.510   0.265   0.659  0.00  0.00     0.015 A 
ATOM      7  C7  IND d   1      -2.022   1.316   1.366  0.00  0.00    -0.016 A 
ATOM      8  C8  IND d   1      -1.235   1.827   2.388  0.00  0.00    -0.047 A 
ATOM      9  C9  IND d   1       0.016   1.282   2.704  0.00  0.00    -0.096 A 
ATOM     10  HN1 IND d   1      -2.178   3.342   3.302  0.00  0.00     0.298 HD
ENDROOT
TORSDOF 0
ENDMDL
