MODEL 1
REMARK minimizedAffinity -1.26424646
REMARK minimizedRMSD -1
REMARK  0 active torsions:
REMARK  status: ('A' for Active; 'I' for Inactive)
ROOT
ATOM      1  C   UNL d   1       2.295   6.000   5.959  0.00  0.00     0.172 C 
ATOM      2  N   UNL d   1       3.581   5.341   5.967  0.00  0.00    -0.070 N 
ATOM      3  C1  UNL d   1       4.798   5.967   5.943  0.00  0.00    -0.004 A 
ATOM      4  C2  UNL d   1       5.774   4.994   5.962  0.00  0.00    -0.047 A 
ATOM      5  C3  UNL d   1       5.119   3.739   5.997  0.00  0.00    -0.047 A 
ATOM      6  C4  UNL d   1       3.762   3.984   5.999  0.00  0.00    -0.004 A 
ENDROOT
TORSDOF 0
ENDMDL
