MODEL 1
REMARK minimizedAffinity 1.24392402
REMARK minimizedRMSD -1
REMARK  0 active torsions:
REMARK  status: ('A' for Active; 'I' for Inactive)
ROOT
ATOM      1  C   UNL d   1       5.992   2.624   5.989  0.00  0.00     0.172 C 
ATOM      2  N   UNL d   1       5.177   3.817   5.975  0.00  0.00    -0.070 N 
ATOM      3  C1  UNL d   1       5.646   5.104   5.993  0.00  0.00    -0.004 A 
ATOM      4  C2  UNL d   1       4.558   5.949   5.970  0.00  0.00    -0.047 A 
ATOM      5  C3  UNL d   1       3.395   5.143   5.938  0.00  0.00    -0.047 A 
ATOM      6  C4  UNL d   1       3.808   3.827   5.942  0.00  0.00    -0.004 A 
ENDROOT
TORSDOF 0
ENDMDL
