MODEL 1
REMARK minimizedAffinity -1.84151375
REMARK minimizedRMSD -1
REMARK  0 active torsions:
REMARK  status: ('A' for Active; 'I' for Inactive)
ROOT
ATOM      1  C   UNL d   1       2.690   6.000   4.883  0.00  0.00     0.172 C 
ATOM      2  N   UNL d   1       3.896   5.344   5.331  0.00  0.00    -0.070 N 
ATOM      3  C1  UNL d   1       4.027   4.007   5.595  0.00  0.00    -0.004 A 
ATOM      4  C2  UNL d   1       5.326   3.781   5.995  0.00  0.00    -0.047 A 
ATOM      5  C3  UNL d   1       5.999   5.026   5.972  0.00  0.00    -0.047 A 
ATOM      6  C4  UNL d   1       5.090   5.976   5.557  0.00  0.00    -0.004 A 
ENDROOT
TORSDOF 0
ENDMDL
