MODEL 1
REMARK minimizedAffinity -1.98663032
REMARK minimizedRMSD -1
REMARK  0 active torsions:
REMARK  status: ('A' for Active; 'I' for Inactive)
ROOT
ATOM      1  C   UNL d   1       2.619   6.000   5.975  0.00  0.00     0.172 C 
ATOM      2  N   UNL d   1       3.844   5.235   5.973  0.00  0.00    -0.070 N 
ATOM      3  C1  UNL d   1       5.110   5.756   6.000  0.00  0.00    -0.004 A 
ATOM      4  C2  UNL d   1       6.000   4.703   5.989  0.00  0.00    -0.047 A 
ATOM      5  C3  UNL d   1       5.242   3.509   5.954  0.00  0.00    -0.047 A 
ATOM      6  C4  UNL d   1       3.911   3.867   5.945  0.00  0.00    -0.004 A 
ENDROOT
TORSDOF 0
ENDMDL
