MODEL 1
REMARK minimizedAffinity 3.31607318
REMARK minimizedRMSD -1
REMARK  0 active torsions:
REMARK  status: ('A' for Active; 'I' for Inactive)
ROOT
ATOM      1  C   UNL d   1       2.341   5.989   5.992  0.00  0.00     0.172 C 
ATOM      2  N   UNL d   1       3.637   5.372   5.841  0.00  0.00    -0.070 N 
ATOM      3  C1  UNL d   1       4.844   5.999   6.000  0.00  0.00    -0.004 A 
ATOM      4  C2  UNL d   1       5.836   5.070   5.771  0.00  0.00    -0.047 A 
ATOM      5  C3  UNL d   1       5.203   3.842   5.463  0.00  0.00    -0.047 A 
ATOM      6  C4  UNL d   1       3.842   4.057   5.513  0.00  0.00    -0.004 A 
ENDROOT
TORSDOF 0
ENDMDL
