MODEL 1
REMARK minimizedAffinity 5.04972792
REMARK minimizedRMSD -1
REMARK  0 active torsions:
REMARK  status: ('A' for Active; 'I' for Inactive)
ROOT
ATOM      1  C   UNL d   1       5.998   2.995   4.786  0.00  0.00     0.172 C 
ATOM      2  N   UNL d   1       5.112   4.077   5.144  0.00  0.00    -0.070 N 
ATOM      3  C1  UNL d   1       3.776   4.144   4.855  0.00  0.00    -0.004 A 
ATOM      4  C2  UNL d   1       3.292   5.329   5.366  0.00  0.00    -0.047 A 
ATOM      5  C3  UNL d   1       4.376   5.998   5.983  0.00  0.00    -0.047 A 
ATOM      6  C4  UNL d   1       5.490   5.201   5.831  0.00  0.00    -0.004 A 
ENDROOT
TORSDOF 0
ENDMDL
