MODEL 1
REMARK minimizedAffinity 2.33151841
REMARK minimizedRMSD -1
REMARK  0 active torsions:
REMARK  status: ('A' for Active; 'I' for Inactive)
ROOT
ATOM      1  C   UNL d   1       2.481   5.981   6.000  0.00  0.00     0.172 C 
ATOM      2  N   UNL d   1       3.509   4.973   5.885  0.00  0.00    -0.070 N 
ATOM      3  C1  UNL d   1       3.317   3.622   5.994  0.00  0.00    -0.004 A 
ATOM      4  C2  UNL d   1       4.539   3.007   5.824  0.00  0.00    -0.047 A 
ATOM      5  C3  UNL d   1       5.498   4.024   5.606  0.00  0.00    -0.047 A 
ATOM      6  C4  UNL d   1       4.833   5.231   5.648  0.00  0.00    -0.004 A 
ENDROOT
TORSDOF 0
ENDMDL
