MODEL 1
REMARK minimizedAffinity -1.04857075
REMARK minimizedRMSD -1
REMARK  0 active torsions:
REMARK  status: ('A' for Active; 'I' for Inactive)
ROOT
ATOM      1  C   UNL d   1       5.982   6.000   5.834  0.00  0.00     0.172 C 
ATOM      2  N   UNL d   1       4.996   4.946   5.886  0.00  0.00    -0.070 N 
ATOM      3  C1  UNL d   1       5.261   3.603   5.854  0.00  0.00    -0.004 A 
ATOM      4  C2  UNL d   1       4.058   2.934   5.924  0.00  0.00    -0.047 A 
ATOM      5  C3  UNL d   1       3.035   3.909   5.999  0.00  0.00    -0.047 A 
ATOM      6  C4  UNL d   1       3.643   5.146   5.973  0.00  0.00    -0.004 A 
ENDROOT
TORSDOF 0
ENDMDL
