MODEL 1
REMARK minimizedAffinity 1.12513614
REMARK minimizedRMSD -1
REMARK  0 active torsions:
REMARK  status: ('A' for Active; 'I' for Inactive)
ROOT
ATOM      1  C   UNL d   1       5.986   5.999   5.603  0.00  0.00     0.172 C 
ATOM      2  N   UNL d   1       4.872   5.090   5.729  0.00  0.00    -0.070 N 
ATOM      3  C1  UNL d   1       4.944   3.724   5.666  0.00  0.00    -0.004 A 
ATOM      4  C2  UNL d   1       3.670   3.226   5.832  0.00  0.00    -0.047 A 
ATOM      5  C3  UNL d   1       2.802   4.330   5.999  0.00  0.00    -0.047 A 
ATOM      6  C4  UNL d   1       3.572   5.472   5.931  0.00  0.00    -0.004 A 
ENDROOT
TORSDOF 0
ENDMDL
