MODEL 1
REMARK minimizedAffinity 4.81328773
REMARK minimizedRMSD -1
REMARK  0 active torsions:
REMARK  status: ('A' for Active; 'I' for Inactive)
ROOT
ATOM      1  C   UNL d   1       4.487   2.474   5.044  0.00  0.00     0.172 C 
ATOM      2  N   UNL d   1       4.754   3.850   5.390  0.00  0.00    -0.070 N 
ATOM      3  C1  UNL d   1       5.989   4.440   5.420  0.00  0.00    -0.004 A 
ATOM      4  C2  UNL d   1       5.820   5.755   5.796  0.00  0.00    -0.047 A 
ATOM      5  C3  UNL d   1       4.435   5.962   6.000  0.00  0.00    -0.047 A 
ATOM      6  C4  UNL d   1       3.799   4.767   5.742  0.00  0.00    -0.004 A 
ENDROOT
TORSDOF 0
ENDMDL
