MODEL 1
REMARK minimizedAffinity 4.01435947
REMARK minimizedRMSD -1
REMARK  0 active torsions:
REMARK  status: ('A' for Active; 'I' for Inactive)
ROOT
ATOM      1  C   UNL d   1      -5.999   6.000   2.821  0.00  0.00     0.172 C 
ATOM      2  N   UNL d   1      -5.314   5.430   1.685  0.00  0.00    -0.070 N 
ATOM      3  C1  UNL d   1      -5.216   5.999   0.444  0.00  0.00    -0.004 A 
ATOM      4  C2  UNL d   1      -4.486   5.146  -0.355  0.00  0.00    -0.047 A 
ATOM      5  C3  UNL d   1      -4.134   4.025   0.433  0.00  0.00    -0.047 A 
ATOM      6  C4  UNL d   1      -4.659   4.226   1.692  0.00  0.00    -0.004 A 
ENDROOT
TORSDOF 0
ENDMDL
