MODEL 1
REMARK minimizedAffinity 11.7683859
REMARK minimizedRMSD -1
REMARK  0 active torsions:
REMARK  status: ('A' for Active; 'I' for Inactive)
ROOT
ATOM      1  C   UNL d   1       4.110   3.591   0.510  0.00  0.00     0.172 C 
ATOM      2  N   UNL d   1       4.060   2.839  -0.721  0.00  0.00    -0.070 N 
ATOM      3  C1  UNL d   1       5.130   2.552  -1.526  0.00  0.00    -0.004 A 
ATOM      4  C2  UNL d   1       4.668   1.819  -2.598  0.00  0.00    -0.047 A 
ATOM      5  C3  UNL d   1       3.272   1.661  -2.432  0.00  0.00    -0.047 A 
ATOM      6  C4  UNL d   1       2.922   2.302  -1.262  0.00  0.00    -0.004 A 
ENDROOT
TORSDOF 0
ENDMDL
