MODEL 1
REMARK minimizedAffinity 0.0161608774
REMARK minimizedRMSD -1
REMARK  0 active torsions:
REMARK  status: ('A' for Active; 'I' for Inactive)
ROOT
ATOM      1  C   UNL d   1       5.702   5.946   5.999  0.00  0.00     0.172 C 
ATOM      2  N   UNL d   1       4.868   4.767   5.998  0.00  0.00    -0.070 N 
ATOM      3  C1  UNL d   1       5.316   3.473   5.995  0.00  0.00    -0.004 A 
ATOM      4  C2  UNL d   1       4.214   2.645   5.996  0.00  0.00    -0.047 A 
ATOM      5  C3  UNL d   1       3.064   3.471   5.999  0.00  0.00    -0.047 A 
ATOM      6  C4  UNL d   1       3.499   4.780   6.000  0.00  0.00    -0.004 A 
ENDROOT
TORSDOF 0
ENDMDL
