MODEL 1
REMARK minimizedAffinity 2.97684789
REMARK minimizedRMSD -1
REMARK  0 active torsions:
REMARK  status: ('A' for Active; 'I' for Inactive)
ROOT
ATOM      1  C   UNL d   1       2.434   5.994   5.997  0.00  0.00     0.172 C 
ATOM      2  N   UNL d   1       3.719   5.337   5.993  0.00  0.00    -0.070 N 
ATOM      3  C1  UNL d   1       3.924   3.983   5.986  0.00  0.00    -0.004 A 
ATOM      4  C2  UNL d   1       5.284   3.762   5.985  0.00  0.00    -0.047 A 
ATOM      5  C3  UNL d   1       5.919   5.027   5.991  0.00  0.00    -0.047 A 
ATOM      6  C4  UNL d   1       4.927   5.984   5.997  0.00  0.00    -0.004 A 
ENDROOT
TORSDOF 0
ENDMDL
