MODEL 1
REMARK minimizedAffinity 3.10324931
REMARK minimizedRMSD -1
REMARK  0 active torsions:
REMARK  status: ('A' for Active; 'I' for Inactive)
ROOT
ATOM      1  C   UNL d   1       2.193   5.973   5.965  0.00  0.00     0.172 C 
ATOM      2  N   UNL d   1       3.493   5.345   5.978  0.00  0.00    -0.070 N 
ATOM      3  C1  UNL d   1       4.696   6.000   5.979  0.00  0.00    -0.004 A 
ATOM      4  C2  UNL d   1       5.694   5.049   5.993  0.00  0.00    -0.047 A 
ATOM      5  C3  UNL d   1       5.069   3.779   5.999  0.00  0.00    -0.047 A 
ATOM      6  C4  UNL d   1       3.707   3.992   5.990  0.00  0.00    -0.004 A 
ENDROOT
TORSDOF 0
ENDMDL
