MODEL 1
REMARK minimizedAffinity 6.27040291
REMARK minimizedRMSD -1
REMARK  0 active torsions:
REMARK  status: ('A' for Active; 'I' for Inactive)
ROOT
ATOM      1  C   UNL d   1       2.551   5.999   5.994  0.00  0.00     0.172 C 
ATOM      2  N   UNL d   1       3.805   5.385   5.624  0.00  0.00    -0.070 N 
ATOM      3  C1  UNL d   1       5.029   6.000   5.636  0.00  0.00    -0.004 A 
ATOM      4  C2  UNL d   1       5.966   5.080   5.219  0.00  0.00    -0.047 A 
ATOM      5  C3  UNL d   1       5.283   3.871   4.946  0.00  0.00    -0.047 A 
ATOM      6  C4  UNL d   1       3.946   4.088   5.206  0.00  0.00    -0.004 A 
ENDROOT
TORSDOF 0
ENDMDL
