MODEL 1
REMARK minimizedAffinity -1.28316891
REMARK minimizedRMSD -1
REMARK  0 active torsions:
REMARK  status: ('A' for Active; 'I' for Inactive)
ROOT
ATOM      1  C   UNL d   1       2.525   6.000   5.997  0.00  0.00     0.172 C 
ATOM      2  N   UNL d   1       3.736   5.212   5.997  0.00  0.00    -0.070 N 
ATOM      3  C1  UNL d   1       5.012   5.709   5.994  0.00  0.00    -0.004 A 
ATOM      4  C2  UNL d   1       5.881   4.640   5.996  0.00  0.00    -0.047 A 
ATOM      5  C3  UNL d   1       5.101   3.459   5.999  0.00  0.00    -0.047 A 
ATOM      6  C4  UNL d   1       3.776   3.843   6.000  0.00  0.00    -0.004 A 
ENDROOT
TORSDOF 0
ENDMDL
