MODEL 1
REMARK minimizedAffinity -2.3837316
REMARK minimizedRMSD -1
REMARK  1 active torsions:
REMARK  status: ('A' for Active; 'I' for Inactive)
REMARK    1  A    between atoms: C1_2  and  C2_3 
ROOT
ATOM      1  C2  UNL d   1      -0.776   0.422  -0.371  0.00  0.00    -0.073 A 
ATOM      2  C3  UNL d   1      -1.163   0.449   0.974  0.00  0.00    -0.002 A 
ATOM      3  C4  UNL d   1      -0.321  -0.067   1.960  0.00  0.00     0.004 A 
ATOM      4  C5  UNL d   1       0.918  -0.606   1.613  0.00  0.00    -0.004 A 
ATOM      5  C6  UNL d   1       1.327  -0.631   0.276  0.00  0.00    -0.075 A 
ATOM      6  C7  UNL d   1       2.655  -1.210  -0.114  0.00  0.00     0.076 C 
ATOM      7  C8  UNL d   1       0.474  -0.114  -0.709  0.00  0.00     0.001 A 
ENDROOT
BRANCH   1   8
ATOM      8  C1  UNL d   1      -1.680   0.983  -1.438  0.00  0.00     0.053 C 
ATOM      9  C   UNL d   1      -1.120   2.260  -2.045  0.00  0.00     0.018 C 
ENDBRANCH   1   8
TORSDOF 1
ENDMDL
