MODEL 1
REMARK minimizedAffinity -4.50994921
REMARK minimizedRMSD -1
REMARK  1 active torsions:
REMARK  status: ('A' for Active; 'I' for Inactive)
REMARK    1  A    between atoms: C1_2  and  C2_3 
ROOT
ATOM      1  C2  UNL d   1      -0.126   0.466   0.221  0.00  0.00    -0.073 A 
ATOM      2  C3  UNL d   1       0.103  -0.548  -0.716  0.00  0.00    -0.002 A 
ATOM      3  C4  UNL d   1       0.072  -0.265  -2.082  0.00  0.00     0.004 A 
ATOM      4  C5  UNL d   1      -0.180   1.033  -2.525  0.00  0.00    -0.004 A 
ATOM      5  C6  UNL d   1      -0.399   2.063  -1.603  0.00  0.00    -0.075 A 
ATOM      6  C7  UNL d   1      -0.674   3.464  -2.063  0.00  0.00     0.076 C 
ATOM      7  C8  UNL d   1      -0.369   1.770  -0.233  0.00  0.00     0.001 A 
ENDROOT
BRANCH   1   8
ATOM      8  C1  UNL d   1      -0.088   0.167   1.698  0.00  0.00     0.053 C 
ATOM      9  C   UNL d   1       0.578  -1.168   1.992  0.00  0.00     0.018 C 
ENDBRANCH   1   8
TORSDOF 1
ENDMDL
