MODEL 1
REMARK minimizedAffinity -3.98776507
REMARK minimizedRMSD -1
REMARK  1 active torsions:
REMARK  status: ('A' for Active; 'I' for Inactive)
REMARK    1  A    between atoms: C1_2  and  C2_3 
ROOT
ATOM      1  C2  UNL d   1      -0.016  -0.223   0.050  0.00  0.00    -0.073 A 
ATOM      2  C3  UNL d   1      -1.243   0.096   0.641  0.00  0.00    -0.002 A 
ATOM      3  C4  UNL d   1      -1.392   0.047   2.028  0.00  0.00     0.004 A 
ATOM      4  C5  UNL d   1      -0.314  -0.313   2.837  0.00  0.00    -0.004 A 
ATOM      5  C6  UNL d   1       0.924  -0.623   2.265  0.00  0.00    -0.075 A 
ATOM      6  C7  UNL d   1       2.093  -1.015   3.121  0.00  0.00     0.076 C 
ATOM      7  C8  UNL d   1       1.065  -0.575   0.872  0.00  0.00     0.001 A 
ENDROOT
BRANCH   1   8
ATOM      8  C1  UNL d   1       0.151  -0.165  -1.447  0.00  0.00     0.053 C 
ATOM      9  C   UNL d   1      -0.646   0.972  -2.066  0.00  0.00     0.018 C 
ENDBRANCH   1   8
TORSDOF 1
ENDMDL
