MODEL 1
REMARK minimizedAffinity -3.15061879
REMARK minimizedRMSD -1
REMARK  0 active torsions:
REMARK  status: ('A' for Active; 'I' for Inactive)
ROOT
ATOM      1  C4' PXY d   1       1.794  -1.435  -1.323  0.00  0.00     0.077 C 
ATOM      2  C1' PXY d   1      -2.066   0.078   2.705  0.00  0.00     0.077 C 
ATOM      3  C1  PXY d   1      -1.062  -0.317   1.640  0.00  0.00    -0.082 A 
ATOM      4  C2  PXY d   1      -0.040  -1.094   1.959  0.00  0.00     0.003 A 
ATOM      5  C3  PXY d   1       0.894  -1.434   1.015  0.00  0.00     0.003 A 
ATOM      6  C4  PXY d   1       0.752  -1.019  -0.282  0.00  0.00    -0.082 A 
ATOM      7  C5  PXY d   1      -0.294  -0.234  -0.618  0.00  0.00     0.003 A 
ATOM      8  C6  PXY d   1      -1.209   0.134   0.364  0.00  0.00     0.003 A 
ENDROOT
TORSDOF 0
ENDMDL
