MODEL 1
REMARK minimizedAffinity -2.95617986
REMARK minimizedRMSD -1
REMARK  0 active torsions:
REMARK  status: ('A' for Active; 'I' for Inactive)
ROOT
ATOM      1  C4' PXY d   1      -2.309   0.877   2.350  0.00  0.00     0.077 C 
ATOM      2  C1' PXY d   1       1.465  -1.294  -1.452  0.00  0.00     0.077 C 
ATOM      3  C1  PXY d   1       0.468  -0.721  -0.465  0.00  0.00    -0.082 A 
ATOM      4  C2  PXY d   1       0.872  -0.372   0.746  0.00  0.00     0.003 A 
ATOM      5  C3  PXY d   1      -0.023   0.118   1.662  0.00  0.00     0.003 A 
ATOM      6  C4  PXY d   1      -1.335   0.303   1.318  0.00  0.00    -0.082 A 
ATOM      7  C5  PXY d   1      -1.753  -0.040   0.081  0.00  0.00     0.003 A 
ATOM      8  C6  PXY d   1      -0.838  -0.575  -0.820  0.00  0.00     0.003 A 
ENDROOT
TORSDOF 0
ENDMDL
