MODEL 1
REMARK minimizedAffinity -4.55174541
REMARK minimizedRMSD -1
REMARK  0 active torsions:
REMARK  status: ('A' for Active; 'I' for Inactive)
ROOT
ATOM      1  C4' PXY d   1       0.041  -1.611   1.072  0.00  0.00     0.077 C 
ATOM      2  C1' PXY d   1       2.177   1.382  -3.388  0.00  0.00     0.077 C 
ATOM      3  C1  PXY d   1       1.612   0.608  -2.213  0.00  0.00    -0.082 A 
ATOM      4  C2  PXY d   1       2.125  -0.571  -1.899  0.00  0.00     0.003 A 
ATOM      5  C3  PXY d   1       1.605  -1.298  -0.860  0.00  0.00     0.003 A 
ATOM      6  C4  PXY d   1       0.585  -0.790  -0.100  0.00  0.00    -0.082 A 
ATOM      7  C5  PXY d   1       0.064   0.416  -0.408  0.00  0.00     0.003 A 
ATOM      8  C6  PXY d   1       0.578   1.121  -1.492  0.00  0.00     0.003 A 
ENDROOT
TORSDOF 0
ENDMDL
