MODEL 1
REMARK minimizedAffinity -3.63731861
REMARK minimizedRMSD -1
REMARK  0 active torsions:
REMARK  status: ('A' for Active; 'I' for Inactive)
ROOT
ATOM      1  C4' PXY d   1      -2.222   0.932   2.123  0.00  0.00     0.077 C 
ATOM      2  C1' PXY d   1       2.037  -1.371  -1.036  0.00  0.00     0.077 C 
ATOM      3  C1  PXY d   1       0.919  -0.757  -0.216  0.00  0.00    -0.082 A 
ATOM      4  C2  PXY d   1       0.848  -1.005   1.082  0.00  0.00     0.003 A 
ATOM      5  C3  PXY d   1      -0.175  -0.484   1.832  0.00  0.00     0.003 A 
ATOM      6  C4  PXY d   1      -1.105   0.341   1.258  0.00  0.00    -0.082 A 
ATOM      7  C5  PXY d   1      -1.033   0.607  -0.064  0.00  0.00     0.003 A 
ATOM      8  C6  PXY d   1      -0.011   0.036  -0.816  0.00  0.00     0.003 A 
ENDROOT
TORSDOF 0
ENDMDL
