MODEL 1
REMARK minimizedAffinity -2.03778911
REMARK minimizedRMSD -1
REMARK  0 active torsions:
REMARK  status: ('A' for Active; 'I' for Inactive)
ROOT
ATOM      1  C4' PXY d   1       1.243  -1.097  -1.172  0.00  0.00     0.077 C 
ATOM      2  C1' PXY d   1      -1.802   1.206   3.167  0.00  0.00     0.077 C 
ATOM      3  C1  PXY d   1      -0.993   0.602   2.037  0.00  0.00    -0.082 A 
ATOM      4  C2  PXY d   1      -1.386   0.775   0.785  0.00  0.00     0.003 A 
ATOM      5  C3  PXY d   1      -0.684   0.209  -0.247  0.00  0.00     0.003 A 
ATOM      6  C4  PXY d   1       0.462  -0.498   0.000  0.00  0.00    -0.082 A 
ATOM      7  C5  PXY d   1       0.876  -0.670   1.273  0.00  0.00     0.003 A 
ATOM      8  C6  PXY d   1       0.127  -0.121   2.310  0.00  0.00     0.003 A 
ENDROOT
TORSDOF 0
ENDMDL
