MODEL 1
REMARK minimizedAffinity -0.98477
REMARK minimizedRMSD -1
REMARK  0 active torsions:
REMARK  status: ('A' for Active; 'I' for Inactive)
ROOT
ATOM      1  C4' PXY d   1      -2.216   0.582   1.263  0.00  0.00     0.077 C 
ATOM      2  C1' PXY d   1       2.357  -1.537  -1.568  0.00  0.00     0.077 C 
ATOM      3  C1  PXY d   1       1.164  -0.970  -0.823  0.00  0.00    -0.082 A 
ATOM      4  C2  PXY d   1       0.286  -1.792  -0.273  0.00  0.00     0.003 A 
ATOM      5  C3  PXY d   1      -0.815  -1.297   0.377  0.00  0.00     0.003 A 
ATOM      6  C4  PXY d   1      -0.991   0.055   0.510  0.00  0.00    -0.082 A 
ATOM      7  C5  PXY d   1      -0.094   0.900  -0.040  0.00  0.00     0.003 A 
ATOM      8  C6  PXY d   1       0.995   0.377  -0.730  0.00  0.00     0.003 A 
ENDROOT
TORSDOF 0
ENDMDL
