MODEL 1
REMARK minimizedAffinity -3.58979464
REMARK minimizedRMSD -1
REMARK  0 active torsions:
REMARK  status: ('A' for Active; 'I' for Inactive)
ROOT
ATOM      1  C4' PXY d   1      -1.527   1.391   2.366  0.00  0.00     0.077 C 
ATOM      2  C1' PXY d   1       1.485  -1.847  -1.357  0.00  0.00     0.077 C 
ATOM      3  C1  PXY d   1       0.687  -0.995  -0.390  0.00  0.00    -0.082 A 
ATOM      4  C2  PXY d   1       1.287  -0.460   0.661  0.00  0.00     0.003 A 
ATOM      5  C3  PXY d   1       0.573   0.287   1.562  0.00  0.00     0.003 A 
ATOM      6  C4  PXY d   1      -0.758   0.532   1.359  0.00  0.00    -0.082 A 
ATOM      7  C5  PXY d   1      -1.376  -0.002   0.284  0.00  0.00     0.003 A 
ATOM      8  C6  PXY d   1      -0.643  -0.791  -0.598  0.00  0.00     0.003 A 
ENDROOT
TORSDOF 0
ENDMDL
