MODEL 1
REMARK minimizedAffinity 2.29957128
REMARK minimizedRMSD -1
REMARK  0 active torsions:
REMARK  status: ('A' for Active; 'I' for Inactive)
ROOT
ATOM      1  C4' PXY d   1       0.796  -4.064   0.416  0.00  0.00     0.077 C 
ATOM      2  C1' PXY d   1       0.193   1.645   1.094  0.00  0.00     0.077 C 
ATOM      3  C1  PXY d   1       0.341   0.148   0.909  0.00  0.00    -0.082 A 
ATOM      4  C2  PXY d   1       0.955  -0.569   1.836  0.00  0.00     0.003 A 
ATOM      5  C3  PXY d   1       1.125  -1.919   1.669  0.00  0.00     0.003 A 
ATOM      6  C4  PXY d   1       0.616  -2.551   0.566  0.00  0.00    -0.082 A 
ATOM      7  C5  PXY d   1      -0.021  -1.828  -0.380  0.00  0.00     0.003 A 
ATOM      8  C6  PXY d   1      -0.147  -0.452  -0.211  0.00  0.00     0.003 A 
ENDROOT
TORSDOF 0
ENDMDL
