MODEL 1
REMARK minimizedAffinity -3.54173708
REMARK minimizedRMSD -1
REMARK  0 active torsions:
REMARK  status: ('A' for Active; 'I' for Inactive)
ROOT
ATOM      1  C4' PXY d   1       2.837  -0.148  -2.809  0.00  0.00     0.077 C 
ATOM      2  C1' PXY d   1      -1.333   0.290   1.171  0.00  0.00     0.077 C 
ATOM      3  C1  PXY d   1      -0.233   0.167   0.135  0.00  0.00    -0.082 A 
ATOM      4  C2  PXY d   1      -0.065   1.128  -0.758  0.00  0.00     0.003 A 
ATOM      5  C3  PXY d   1       0.904   1.018  -1.722  0.00  0.00     0.003 A 
ATOM      6  C4  PXY d   1       1.745  -0.062  -1.738  0.00  0.00    -0.082 A 
ATOM      7  C5  PXY d   1       1.588  -1.042  -0.823  0.00  0.00     0.003 A 
ATOM      8  C6  PXY d   1       0.571  -0.931   0.121  0.00  0.00     0.003 A 
ENDROOT
TORSDOF 0
ENDMDL
