MODEL 1
REMARK minimizedAffinity -0.823453248
REMARK minimizedRMSD -1
REMARK  0 active torsions:
REMARK  status: ('A' for Active; 'I' for Inactive)
ROOT
ATOM      1  C4' PXY d   1      -2.227   0.773   1.710  0.00  0.00     0.077 C 
ATOM      2  C1' PXY d   1       1.939  -1.935  -1.245  0.00  0.00     0.077 C 
ATOM      3  C1  PXY d   1       0.839  -1.225  -0.480  0.00  0.00    -0.082 A 
ATOM      4  C2  PXY d   1       1.149  -0.460   0.553  0.00  0.00     0.003 A 
ATOM      5  C3  PXY d   1       0.164   0.164   1.275  0.00  0.00     0.003 A 
ATOM      6  C4  PXY d   1      -1.148   0.045   0.903  0.00  0.00    -0.082 A 
ATOM      7  C5  PXY d   1      -1.472  -0.726  -0.157  0.00  0.00     0.003 A 
ATOM      8  C6  PXY d   1      -0.461  -1.383  -0.851  0.00  0.00     0.003 A 
ENDROOT
TORSDOF 0
ENDMDL
