MODEL 1
REMARK minimizedAffinity -4.92707872
REMARK minimizedRMSD -1
REMARK  0 active torsions:
REMARK  status: ('A' for Active; 'I' for Inactive)
ROOT
ATOM      1  C4' PXY d   1       0.895  -1.771  -0.613  0.00  0.00     0.077 C 
ATOM      2  C1' PXY d   1      -1.980   1.805   2.904  0.00  0.00     0.077 C 
ATOM      3  C1  PXY d   1      -1.237   0.866   1.974  0.00  0.00    -0.082 A 
ATOM      4  C2  PXY d   1      -0.211   0.168   2.433  0.00  0.00     0.003 A 
ATOM      5  C3  PXY d   1       0.493  -0.661   1.598  0.00  0.00     0.003 A 
ATOM      6  C4  PXY d   1       0.109  -0.818   0.293  0.00  0.00    -0.082 A 
ATOM      7  C5  PXY d   1      -0.943  -0.117  -0.180  0.00  0.00     0.003 A 
ATOM      8  C6  PXY d   1      -1.619   0.750   0.673  0.00  0.00     0.003 A 
ENDROOT
TORSDOF 0
ENDMDL
