MODEL 1
REMARK minimizedAffinity -3.67972779
REMARK minimizedRMSD -1
REMARK  0 active torsions:
REMARK  status: ('A' for Active; 'I' for Inactive)
ROOT
ATOM      1  C4' PXY d   1      -2.084   1.065   2.740  0.00  0.00     0.077 C 
ATOM      2  C1' PXY d   1       1.702  -1.083  -1.064  0.00  0.00     0.077 C 
ATOM      3  C1  PXY d   1       0.701  -0.517  -0.076  0.00  0.00    -0.082 A 
ATOM      4  C2  PXY d   1       1.123  -0.048   1.087  0.00  0.00     0.003 A 
ATOM      5  C3  PXY d   1       0.228   0.437   2.005  0.00  0.00     0.003 A 
ATOM      6  C4  PXY d   1      -1.108   0.493   1.708  0.00  0.00    -0.082 A 
ATOM      7  C5  PXY d   1      -1.545   0.027   0.519  0.00  0.00     0.003 A 
ATOM      8  C6  PXY d   1      -0.625  -0.501  -0.383  0.00  0.00     0.003 A 
ENDROOT
TORSDOF 0
ENDMDL
