MODEL 1
REMARK minimizedAffinity -3.98204994
REMARK minimizedRMSD -1
REMARK  0 active torsions:
REMARK  status: ('A' for Active; 'I' for Inactive)
ROOT
ATOM      1  C4' PXY d   1      -1.611   0.993   2.681  0.00  0.00     0.077 C 
ATOM      2  C1' PXY d   1       1.656  -1.461  -1.408  0.00  0.00     0.077 C 
ATOM      3  C1  PXY d   1       0.796  -0.808  -0.344  0.00  0.00    -0.082 A 
ATOM      4  C2  PXY d   1       1.063  -1.021   0.934  0.00  0.00     0.003 A 
ATOM      5  C3  PXY d   1       0.276  -0.464   1.909  0.00  0.00     0.003 A 
ATOM      6  C4  PXY d   1      -0.763   0.362   1.573  0.00  0.00    -0.082 A 
ATOM      7  C5  PXY d   1      -1.036   0.592   0.271  0.00  0.00     0.003 A 
ATOM      8  C6  PXY d   1      -0.250  -0.015  -0.704  0.00  0.00     0.003 A 
ENDROOT
TORSDOF 0
ENDMDL
