MODEL 1
REMARK minimizedAffinity -4.58762407
REMARK minimizedRMSD -1
REMARK  0 active torsions:
REMARK  status: ('A' for Active; 'I' for Inactive)
ROOT
ATOM      1  C4' PXY d   1      -1.842   1.472   2.897  0.00  0.00     0.077 C 
ATOM      2  C1' PXY d   1       1.354  -1.246  -1.079  0.00  0.00     0.077 C 
ATOM      3  C1  PXY d   1       0.510  -0.526  -0.045  0.00  0.00    -0.082 A 
ATOM      4  C2  PXY d   1       0.932  -0.451   1.207  0.00  0.00     0.003 A 
ATOM      5  C3  PXY d   1       0.166   0.168   2.160  0.00  0.00     0.003 A 
ATOM      6  C4  PXY d   1      -1.019   0.764   1.819  0.00  0.00    -0.082 A 
ATOM      7  C5  PXY d   1      -1.450   0.701   0.541  0.00  0.00     0.003 A 
ATOM      8  C6  PXY d   1      -0.678   0.032  -0.404  0.00  0.00     0.003 A 
ENDROOT
TORSDOF 0
ENDMDL
