MODEL 1
REMARK minimizedAffinity -4.89865065
REMARK minimizedRMSD -1
REMARK  0 active torsions:
REMARK  status: ('A' for Active; 'I' for Inactive)
ROOT
ATOM      1  C4' PXY d   1       1.692   1.350  -3.206  0.00  0.00     0.077 C 
ATOM      2  C1' PXY d   1      -1.021  -1.917   0.717  0.00  0.00     0.077 C 
ATOM      3  C1  PXY d   1      -0.299  -1.066  -0.309  0.00  0.00    -0.082 A 
ATOM      4  C2  PXY d   1      -0.820   0.091  -0.684  0.00  0.00     0.003 A 
ATOM      5  C3  PXY d   1      -0.196   0.858  -1.633  0.00  0.00     0.003 A 
ATOM      6  C4  PXY d   1       1.002   0.462  -2.166  0.00  0.00    -0.082 A 
ATOM      7  C5  PXY d   1       1.546  -0.712  -1.781  0.00  0.00     0.003 A 
ATOM      8  C6  PXY d   1       0.875  -1.495  -0.846  0.00  0.00     0.003 A 
ENDROOT
TORSDOF 0
ENDMDL
