MODEL 1
REMARK minimizedAffinity -2.8276751
REMARK minimizedRMSD -1
REMARK  0 active torsions:
REMARK  status: ('A' for Active; 'I' for Inactive)
ROOT
ATOM      1  C4' PXY d   1       0.873   0.129  -1.558  0.00  0.00     0.077 C 
ATOM      2  C1' PXY d   1      -2.836   0.509   2.860  0.00  0.00     0.077 C 
ATOM      3  C1  PXY d   1      -1.853   0.412   1.709  0.00  0.00    -0.082 A 
ATOM      4  C2  PXY d   1      -2.284   0.560   0.467  0.00  0.00     0.003 A 
ATOM      5  C3  PXY d   1      -1.415   0.445  -0.587  0.00  0.00     0.003 A 
ATOM      6  C4  PXY d   1      -0.081   0.227  -0.365  0.00  0.00    -0.082 A 
ATOM      7  C5  PXY d   1       0.368   0.086   0.900  0.00  0.00     0.003 A 
ATOM      8  C6  PXY d   1      -0.538   0.166   1.954  0.00  0.00     0.003 A 
ENDROOT
TORSDOF 0
ENDMDL
