MODEL 1
REMARK minimizedAffinity -1.72207665
REMARK minimizedRMSD -1
REMARK  0 active torsions:
REMARK  status: ('A' for Active; 'I' for Inactive)
ROOT
ATOM      1  C4' PXY d   1      -2.934  -0.180   2.156  0.00  0.00     0.077 C 
ATOM      2  C1' PXY d   1       0.761   1.630  -1.904  0.00  0.00     0.077 C 
ATOM      3  C1  PXY d   1      -0.199   1.147  -0.835  0.00  0.00    -0.082 A 
ATOM      4  C2  PXY d   1      -1.502   1.280  -1.018  0.00  0.00     0.003 A 
ATOM      5  C3  PXY d   1      -2.384   0.878  -0.048  0.00  0.00     0.003 A 
ATOM      6  C4  PXY d   1      -1.928   0.285   1.099  0.00  0.00    -0.082 A 
ATOM      7  C5  PXY d   1      -0.600   0.136   1.289  0.00  0.00     0.003 A 
ATOM      8  C6  PXY d   1       0.280   0.589   0.310  0.00  0.00     0.003 A 
ENDROOT
TORSDOF 0
ENDMDL
