MODEL 1
REMARK minimizedAffinity -2.45564318
REMARK minimizedRMSD -1
REMARK  0 active torsions:
REMARK  status: ('A' for Active; 'I' for Inactive)
ROOT
ATOM      1  C4' PXY d   1       1.717   1.148  -3.195  0.00  0.00     0.077 C 
ATOM      2  C1' PXY d   1       0.805  -1.914   1.623  0.00  0.00     0.077 C 
ATOM      3  C1  PXY d   1       1.057  -1.115   0.359  0.00  0.00    -0.082 A 
ATOM      4  C2  PXY d   1       0.275  -0.088   0.068  0.00  0.00     0.003 A 
ATOM      5  C3  PXY d   1       0.468   0.626  -1.086  0.00  0.00     0.003 A 
ATOM      6  C4  PXY d   1       1.506   0.318  -1.925  0.00  0.00    -0.082 A 
ATOM      7  C5  PXY d   1       2.315  -0.721  -1.630  0.00  0.00     0.003 A 
ATOM      8  C6  PXY d   1       2.076  -1.459  -0.474  0.00  0.00     0.003 A 
ENDROOT
TORSDOF 0
ENDMDL
