MODEL 1
REMARK minimizedAffinity -3.05480599
REMARK minimizedRMSD -1
REMARK  0 active torsions:
REMARK  status: ('A' for Active; 'I' for Inactive)
ROOT
ATOM      1  C4' PXY d   1      -1.753   0.752   2.122  0.00  0.00     0.077 C 
ATOM      2  C1' PXY d   1       1.575  -1.718  -1.908  0.00  0.00     0.077 C 
ATOM      3  C1  PXY d   1       0.703  -1.059  -0.857  0.00  0.00    -0.082 A 
ATOM      4  C2  PXY d   1       0.659  -1.562   0.366  0.00  0.00     0.003 A 
ATOM      5  C3  PXY d   1      -0.149  -0.997   1.319  0.00  0.00     0.003 A 
ATOM      6  C4  PXY d   1      -0.879   0.125   1.032  0.00  0.00    -0.082 A 
ATOM      7  C5  PXY d   1      -0.831   0.651  -0.210  0.00  0.00     0.003 A 
ATOM      8  C6  PXY d   1      -0.036   0.039  -1.175  0.00  0.00     0.003 A 
ENDROOT
TORSDOF 0
ENDMDL
