MODEL 1
REMARK minimizedAffinity 5.19330025
REMARK minimizedRMSD -1
REMARK  0 active torsions:
REMARK  status: ('A' for Active; 'I' for Inactive)
ROOT
ATOM      1  C4' PXY d   1       3.929  -0.945  -0.881  0.00  0.00     0.077 C 
ATOM      2  C1' PXY d   1      -0.438  -4.302   0.872  0.00  0.00     0.077 C 
ATOM      3  C1  PXY d   1       0.703  -3.423   0.400  0.00  0.00    -0.082 A 
ATOM      4  C2  PXY d   1       1.776  -3.279   1.161  0.00  0.00     0.003 A 
ATOM      5  C3  PXY d   1       2.804  -2.463   0.764  0.00  0.00     0.003 A 
ATOM      6  C4  PXY d   1       2.757  -1.830  -0.449  0.00  0.00    -0.082 A 
ATOM      7  C5  PXY d   1       1.671  -1.980  -1.237  0.00  0.00     0.003 A 
ATOM      8  C6  PXY d   1       0.620  -2.780  -0.797  0.00  0.00     0.003 A 
ENDROOT
TORSDOF 0
ENDMDL
