MODEL 1
REMARK minimizedAffinity -5.30845165
REMARK minimizedRMSD -1
REMARK  0 active torsions:
REMARK  status: ('A' for Active; 'I' for Inactive)
ROOT
ATOM      1  O1  BZF d   1      -4.182   2.810   4.273  0.00  0.00    -0.204 OA
ATOM      2  C2  BZF d   1      -3.067   3.339   4.893  0.00  0.00     0.174 A 
ATOM      3  C3  BZF d   1      -1.941   2.760   4.429  0.00  0.00    -0.012 A 
ATOM      4  C3A BZF d   1      -2.374   1.874   3.392  0.00  0.00    -0.107 A 
ATOM      5  C4  BZF d   1      -1.717   1.030   2.543  0.00  0.00     0.055 A 
ATOM      6  C5  BZF d   1      -2.439   0.250   1.697  0.00  0.00    -0.016 A 
ATOM      7  C6  BZF d   1      -3.818   0.286   1.675  0.00  0.00     0.022 A 
ATOM      8  C7  BZF d   1      -4.514   1.111   2.495  0.00  0.00     0.029 A 
ATOM      9  C7A BZF d   1      -3.786   1.924   3.328  0.00  0.00     0.058 A 
ENDROOT
TORSDOF 0
ENDMDL
