MODEL 1
REMARK minimizedAffinity -0.81208992
REMARK minimizedRMSD -1
REMARK  0 active torsions:
REMARK  status: ('A' for Active; 'I' for Inactive)
ROOT
ATOM      1  O1  BZF d   1      -3.245  -0.650   1.107  0.00  0.00    -0.204 OA
ATOM      2  C2  BZF d   1      -3.514   0.486   1.846  0.00  0.00     0.174 A 
ATOM      3  C3  BZF d   1      -2.440   1.301   1.877  0.00  0.00    -0.012 A 
ATOM      4  C3A BZF d   1      -1.469   0.677   1.033  0.00  0.00    -0.107 A 
ATOM      5  C4  BZF d   1      -0.202   1.014   0.650  0.00  0.00     0.055 A 
ATOM      6  C5  BZF d   1       0.506   0.151  -0.125  0.00  0.00    -0.016 A 
ATOM      7  C6  BZF d   1      -0.019  -1.058  -0.531  0.00  0.00     0.022 A 
ATOM      8  C7  BZF d   1      -1.274  -1.434  -0.181  0.00  0.00     0.029 A 
ATOM      9  C7A BZF d   1      -2.003  -0.550   0.575  0.00  0.00     0.058 A 
ENDROOT
TORSDOF 0
ENDMDL
