MODEL 1
REMARK minimizedAffinity -2.70252347
REMARK minimizedRMSD -1
REMARK  0 active torsions:
REMARK  status: ('A' for Active; 'I' for Inactive)
ROOT
ATOM      1  O1  BZF d   1       0.736  -1.320  -2.112  0.00  0.00    -0.204 OA
ATOM      2  C2  BZF d   1       1.365  -0.307  -2.810  0.00  0.00     0.174 A 
ATOM      3  C3  BZF d   1       1.327   0.848  -2.114  0.00  0.00    -0.012 A 
ATOM      4  C3A BZF d   1       0.712   0.515  -0.866  0.00  0.00    -0.107 A 
ATOM      5  C4  BZF d   1       0.410   1.237   0.253  0.00  0.00     0.055 A 
ATOM      6  C5  BZF d   1      -0.256   0.630   1.271  0.00  0.00    -0.016 A 
ATOM      7  C6  BZF d   1      -0.639  -0.694   1.200  0.00  0.00     0.022 A 
ATOM      8  C7  BZF d   1      -0.357  -1.452   0.112  0.00  0.00     0.029 A 
ATOM      9  C7A BZF d   1       0.345  -0.850  -0.903  0.00  0.00     0.058 A 
ENDROOT
TORSDOF 0
ENDMDL
