MODEL 1
REMARK minimizedAffinity -3.20072198
REMARK minimizedRMSD -1
REMARK  0 active torsions:
REMARK  status: ('A' for Active; 'I' for Inactive)
ROOT
ATOM      1  O1  BZF d   1      -4.265   1.070   2.640  0.00  0.00    -0.204 OA
ATOM      2  C2  BZF d   1      -3.706   2.084   3.394  0.00  0.00     0.174 A 
ATOM      3  C3  BZF d   1      -2.362   1.978   3.418  0.00  0.00    -0.012 A 
ATOM      4  C3A BZF d   1      -2.056   0.880   2.554  0.00  0.00    -0.107 A 
ATOM      5  C4  BZF d   1      -0.887   0.295   2.157  0.00  0.00     0.055 A 
ATOM      6  C5  BZF d   1      -0.937  -0.807   1.363  0.00  0.00    -0.016 A 
ATOM      7  C6  BZF d   1      -2.135  -1.353   0.952  0.00  0.00     0.022 A 
ATOM      8  C7  BZF d   1      -3.320  -0.805   1.316  0.00  0.00     0.029 A 
ATOM      9  C7A BZF d   1      -3.273   0.328   2.091  0.00  0.00     0.058 A 
ENDROOT
TORSDOF 0
ENDMDL
