MODEL 1
REMARK minimizedAffinity 0.21319671
REMARK minimizedRMSD -1
REMARK  0 active torsions:
REMARK  status: ('A' for Active; 'I' for Inactive)
ROOT
ATOM      1  O1  BZF d   1       1.596  -0.919  -1.383  0.00  0.00    -0.204 OA
ATOM      2  C2  BZF d   1       2.393  -0.038  -2.087  0.00  0.00     0.174 A 
ATOM      3  C3  BZF d   1       2.158   1.233  -1.703  0.00  0.00    -0.012 A 
ATOM      4  C3A BZF d   1       1.217   1.133  -0.629  0.00  0.00    -0.107 A 
ATOM      5  C4  BZF d   1       0.609   2.054   0.176  0.00  0.00     0.055 A 
ATOM      6  C5  BZF d   1      -0.314   1.634   1.079  0.00  0.00    -0.016 A 
ATOM      7  C6  BZF d   1      -0.658   0.304   1.202  0.00  0.00     0.022 A 
ATOM      8  C7  BZF d   1      -0.078  -0.647   0.429  0.00  0.00     0.029 A 
ATOM      9  C7A BZF d   1       0.880  -0.230  -0.462  0.00  0.00     0.058 A 
ENDROOT
TORSDOF 0
ENDMDL
