MODEL 1
REMARK minimizedAffinity -2.74345684
REMARK minimizedRMSD -1
REMARK  0 active torsions:
REMARK  status: ('A' for Active; 'I' for Inactive)
ROOT
ATOM      1  O1  BZF d   1      -0.718  -0.808  -0.197  0.00  0.00    -0.204 OA
ATOM      2  C2  BZF d   1       0.487  -0.225   0.144  0.00  0.00     0.174 A 
ATOM      3  C3  BZF d   1       0.368   0.490   1.282  0.00  0.00    -0.012 A 
ATOM      4  C3A BZF d   1      -0.974   0.268   1.726  0.00  0.00    -0.107 A 
ATOM      5  C4  BZF d   1      -1.687   0.698   2.809  0.00  0.00     0.055 A 
ATOM      6  C5  BZF d   1      -2.999   0.360   2.912  0.00  0.00    -0.016 A 
ATOM      7  C6  BZF d   1      -3.631  -0.400   1.949  0.00  0.00     0.022 A 
ATOM      8  C7  BZF d   1      -2.964  -0.854   0.860  0.00  0.00     0.029 A 
ATOM      9  C7A BZF d   1      -1.629  -0.542   0.770  0.00  0.00     0.058 A 
ENDROOT
TORSDOF 0
ENDMDL
