MODEL 1
REMARK minimizedAffinity -5.08699799
REMARK minimizedRMSD -1
REMARK  0 active torsions:
REMARK  status: ('A' for Active; 'I' for Inactive)
ROOT
ATOM      1  O1  BZF d   1       0.012   0.377   1.608  0.00  0.00    -0.204 OA
ATOM      2  C2  BZF d   1      -0.290  -0.784   2.294  0.00  0.00     0.174 A 
ATOM      3  C3  BZF d   1      -0.280  -1.846   1.462  0.00  0.00    -0.012 A 
ATOM      4  C3A BZF d   1       0.138  -1.328   0.196  0.00  0.00    -0.107 A 
ATOM      5  C4  BZF d   1       0.354  -1.899  -1.026  0.00  0.00     0.055 A 
ATOM      6  C5  BZF d   1       0.687  -1.103  -2.077  0.00  0.00    -0.016 A 
ATOM      7  C6  BZF d   1       0.806   0.264  -1.943  0.00  0.00     0.022 A 
ATOM      8  C7  BZF d   1       0.606   0.875  -0.749  0.00  0.00     0.029 A 
ATOM      9  C7A BZF d   1       0.302   0.070   0.321  0.00  0.00     0.058 A 
ENDROOT
TORSDOF 0
ENDMDL
