MODEL 1
REMARK minimizedAffinity -3.80285549
REMARK minimizedRMSD -1
REMARK  0 active torsions:
REMARK  status: ('A' for Active; 'I' for Inactive)
ROOT
ATOM      1  O1  BZF d   1      -3.750   1.475  -5.591  0.00  0.00    -0.204 OA
ATOM      2  C2  BZF d   1      -4.929   0.756  -5.635  0.00  0.00     0.174 A 
ATOM      3  C3  BZF d   1      -5.994   1.584  -5.630  0.00  0.00    -0.012 A 
ATOM      4  C3A BZF d   1      -5.444   2.904  -5.673  0.00  0.00    -0.107 A 
ATOM      5  C4  BZF d   1      -6.000   4.151  -5.704  0.00  0.00     0.055 A 
ATOM      6  C5  BZF d   1      -5.185   5.238  -5.667  0.00  0.00    -0.016 A 
ATOM      7  C6  BZF d   1      -3.813   5.115  -5.595  0.00  0.00     0.022 A 
ATOM      8  C7  BZF d   1      -3.215   3.898  -5.567  0.00  0.00     0.029 A 
ATOM      9  C7A BZF d   1      -4.035   2.798  -5.637  0.00  0.00     0.058 A 
ENDROOT
TORSDOF 0
ENDMDL
