MODEL 1
REMARK minimizedAffinity -3.43836474
REMARK minimizedRMSD -1
REMARK  0 active torsions:
REMARK  status: ('A' for Active; 'I' for Inactive)
ROOT
ATOM      1  O1  BZF d   1      -0.633  -0.617   0.152  0.00  0.00    -0.204 OA
ATOM      2  C2  BZF d   1      -0.433   0.545   0.872  0.00  0.00     0.174 A 
ATOM      3  C3  BZF d   1       0.587   1.259   0.353  0.00  0.00    -0.012 A 
ATOM      4  C3A BZF d   1       0.993   0.541  -0.816  0.00  0.00    -0.107 A 
ATOM      5  C4  BZF d   1       1.949   0.758  -1.766  0.00  0.00     0.055 A 
ATOM      6  C5  BZF d   1       2.138  -0.173  -2.738  0.00  0.00    -0.016 A 
ATOM      7  C6  BZF d   1       1.392  -1.333  -2.787  0.00  0.00     0.022 A 
ATOM      8  C7  BZF d   1       0.428  -1.589  -1.870  0.00  0.00     0.029 A 
ATOM      9  C7A BZF d   1       0.213  -0.635  -0.906  0.00  0.00     0.058 A 
ENDROOT
TORSDOF 0
ENDMDL
