MODEL 1
REMARK minimizedAffinity 3.20687079
REMARK minimizedRMSD -1
REMARK  0 active torsions:
REMARK  status: ('A' for Active; 'I' for Inactive)
ROOT
ATOM      1  O1  BZF d   1       2.223   1.979   1.412  0.00  0.00    -0.204 OA
ATOM      2  C2  BZF d   1       1.208   1.755   2.321  0.00  0.00     0.174 A 
ATOM      3  C3  BZF d   1       0.383   0.781   1.887  0.00  0.00    -0.012 A 
ATOM      4  C3A BZF d   1       0.968   0.307   0.670  0.00  0.00    -0.107 A 
ATOM      5  C4  BZF d   1       0.620  -0.666  -0.223  0.00  0.00     0.055 A 
ATOM      6  C5  BZF d   1       1.365  -0.828  -1.348  0.00  0.00    -0.016 A 
ATOM      7  C6  BZF d   1       2.460  -0.031  -1.614  0.00  0.00     0.022 A 
ATOM      8  C7  BZF d   1       2.846   0.944  -0.756  0.00  0.00     0.029 A 
ATOM      9  C7A BZF d   1       2.115   1.088   0.397  0.00  0.00     0.058 A 
ENDROOT
TORSDOF 0
ENDMDL
