MODEL 1
REMARK minimizedAffinity -0.743085444
REMARK minimizedRMSD -1
REMARK  0 active torsions:
REMARK  status: ('A' for Active; 'I' for Inactive)
ROOT
ATOM      1  O1  BZF d   1      -2.565   2.252  -5.881  0.00  0.00    -0.204 OA
ATOM      2  C2  BZF d   1      -1.493   3.123  -5.871  0.00  0.00     0.174 A 
ATOM      3  C3  BZF d   1      -1.914   4.401  -5.955  0.00  0.00    -0.012 A 
ATOM      4  C3A BZF d   1      -3.342   4.330  -5.929  0.00  0.00    -0.107 A 
ATOM      5  C4  BZF d   1      -4.331   5.271  -5.967  0.00  0.00     0.055 A 
ATOM      6  C5  BZF d   1      -5.628   4.867  -5.999  0.00  0.00    -0.016 A 
ATOM      7  C6  BZF d   1      -5.972   3.531  -6.000  0.00  0.00     0.022 A 
ATOM      8  C7  BZF d   1      -5.027   2.560  -5.958  0.00  0.00     0.029 A 
ATOM      9  C7A BZF d   1      -3.716   2.966  -5.892  0.00  0.00     0.058 A 
ENDROOT
TORSDOF 0
ENDMDL
