MODEL 1
REMARK minimizedAffinity -5.31155539
REMARK minimizedRMSD -1
REMARK  0 active torsions:
REMARK  status: ('A' for Active; 'I' for Inactive)
ROOT
ATOM      1  O1  BZF d   1       1.073  -1.176  -2.308  0.00  0.00    -0.204 OA
ATOM      2  C2  BZF d   1       1.802  -0.118  -2.815  0.00  0.00     0.174 A 
ATOM      3  C3  BZF d   1       1.698   0.962  -2.014  0.00  0.00    -0.012 A 
ATOM      4  C3A BZF d   1       0.927   0.525  -0.891  0.00  0.00    -0.107 A 
ATOM      5  C4  BZF d   1       0.499   1.139   0.252  0.00  0.00     0.055 A 
ATOM      6  C5  BZF d   1      -0.299   0.453   1.112  0.00  0.00    -0.016 A 
ATOM      7  C6  BZF d   1      -0.692  -0.844   0.859  0.00  0.00     0.022 A 
ATOM      8  C7  BZF d   1      -0.290  -1.497  -0.259  0.00  0.00     0.029 A 
ATOM      9  C7A BZF d   1       0.544  -0.818  -1.113  0.00  0.00     0.058 A 
ENDROOT
TORSDOF 0
ENDMDL
