MODEL 1
REMARK minimizedAffinity -3.14971256
REMARK minimizedRMSD -1
REMARK  0 active torsions:
REMARK  status: ('A' for Active; 'I' for Inactive)
ROOT
ATOM      1  O1  BZF d   1       0.016  -2.299   1.156  0.00  0.00    -0.204 OA
ATOM      2  C2  BZF d   1       0.507  -2.954   0.043  0.00  0.00     0.174 A 
ATOM      3  C3  BZF d   1       0.820  -2.074  -0.930  0.00  0.00    -0.012 A 
ATOM      4  C3A BZF d   1       0.592  -0.783  -0.358  0.00  0.00    -0.107 A 
ATOM      5  C4  BZF d   1       0.737   0.491  -0.828  0.00  0.00     0.055 A 
ATOM      6  C5  BZF d   1       0.357   1.533  -0.042  0.00  0.00    -0.016 A 
ATOM      7  C6  BZF d   1      -0.177   1.336   1.215  0.00  0.00     0.022 A 
ATOM      8  C7  BZF d   1      -0.336   0.091   1.726  0.00  0.00     0.029 A 
ATOM      9  C7A BZF d   1       0.078  -0.962   0.947  0.00  0.00     0.058 A 
ENDROOT
TORSDOF 0
ENDMDL
