MODEL 1
REMARK minimizedAffinity -5.43381691
REMARK minimizedRMSD -1
REMARK  0 active torsions:
REMARK  status: ('A' for Active; 'I' for Inactive)
ROOT
ATOM      1  O1  BZF d   1       0.777  -0.770  -2.625  0.00  0.00    -0.204 OA
ATOM      2  C2  BZF d   1       1.803   0.091  -2.960  0.00  0.00     0.174 A 
ATOM      3  C3  BZF d   1       1.951   1.048  -2.022  0.00  0.00    -0.012 A 
ATOM      4  C3A BZF d   1       1.015   0.713  -0.992  0.00  0.00    -0.107 A 
ATOM      5  C4  BZF d   1       0.701   1.278   0.211  0.00  0.00     0.055 A 
ATOM      6  C5  BZF d   1      -0.312   0.747   0.945  0.00  0.00    -0.016 A 
ATOM      7  C6  BZF d   1      -1.033  -0.343   0.505  0.00  0.00     0.022 A 
ATOM      8  C7  BZF d   1      -0.755  -0.941  -0.679  0.00  0.00     0.029 A 
ATOM      9  C7A BZF d   1       0.289  -0.427  -1.408  0.00  0.00     0.058 A 
ENDROOT
TORSDOF 0
ENDMDL
