MODEL 1
REMARK minimizedAffinity -2.75232172
REMARK minimizedRMSD -1
REMARK  0 active torsions:
REMARK  status: ('A' for Active; 'I' for Inactive)
ROOT
ATOM      1  O1  BZF d   1      -3.390   0.889  -5.634  0.00  0.00    -0.204 OA
ATOM      2  C2  BZF d   1      -4.630   0.329  -5.872  0.00  0.00     0.174 A 
ATOM      3  C3  BZF d   1      -5.571   1.287  -6.000  0.00  0.00    -0.012 A 
ATOM      4  C3A BZF d   1      -4.860   2.526  -5.923  0.00  0.00    -0.107 A 
ATOM      5  C4  BZF d   1      -5.242   3.834  -6.000  0.00  0.00     0.055 A 
ATOM      6  C5  BZF d   1      -4.311   4.807  -5.813  0.00  0.00    -0.016 A 
ATOM      7  C6  BZF d   1      -2.992   4.507  -5.542  0.00  0.00     0.022 A 
ATOM      8  C7  BZF d   1      -2.564   3.223  -5.462  0.00  0.00     0.029 A 
ATOM      9  C7A BZF d   1      -3.496   2.239  -5.683  0.00  0.00     0.058 A 
ENDROOT
TORSDOF 0
ENDMDL
