MODEL 1
REMARK minimizedAffinity -0.940494835
REMARK minimizedRMSD -1
REMARK  0 active torsions:
REMARK  status: ('A' for Active; 'I' for Inactive)
ROOT
ATOM      1  O1  BZF d   1       1.415   0.449  -1.315  0.00  0.00    -0.204 OA
ATOM      2  C2  BZF d   1       1.226  -0.772  -1.934  0.00  0.00     0.174 A 
ATOM      3  C3  BZF d   1       0.334  -1.519  -1.252  0.00  0.00    -0.012 A 
ATOM      4  C3A BZF d   1      -0.128  -0.679  -0.190  0.00  0.00    -0.107 A 
ATOM      5  C4  BZF d   1      -1.034  -0.852   0.817  0.00  0.00     0.055 A 
ATOM      6  C5  BZF d   1      -1.199   0.138   1.733  0.00  0.00    -0.016 A 
ATOM      7  C6  BZF d   1      -0.473   1.310   1.676  0.00  0.00     0.022 A 
ATOM      8  C7  BZF d   1       0.433   1.529   0.692  0.00  0.00     0.029 A 
ATOM      9  C7A BZF d   1       0.579   0.544  -0.254  0.00  0.00     0.058 A 
ENDROOT
TORSDOF 0
ENDMDL
