MODEL 1
REMARK minimizedAffinity -4.65990114
REMARK minimizedRMSD -1
REMARK  0 active torsions:
REMARK  status: ('A' for Active; 'I' for Inactive)
ROOT
ATOM      1  O1  BZF d   1      -0.526  -1.466   0.213  0.00  0.00    -0.204 OA
ATOM      2  C2  BZF d   1      -0.876  -0.714   1.318  0.00  0.00     0.174 A 
ATOM      3  C3  BZF d   1      -0.294   0.502   1.274  0.00  0.00    -0.012 A 
ATOM      4  C3A BZF d   1       0.394   0.544   0.020  0.00  0.00    -0.107 A 
ATOM      5  C4  BZF d   1       1.146   1.496  -0.606  0.00  0.00     0.055 A 
ATOM      6  C5  BZF d   1       1.738   1.196  -1.793  0.00  0.00    -0.016 A 
ATOM      7  C6  BZF d   1       1.602  -0.046  -2.378  0.00  0.00     0.022 A 
ATOM      8  C7  BZF d   1       0.861  -1.021  -1.797  0.00  0.00     0.029 A 
ATOM      9  C7A BZF d   1       0.235  -0.710  -0.614  0.00  0.00     0.058 A 
ENDROOT
TORSDOF 0
ENDMDL
