MODEL 1
REMARK minimizedAffinity -5.18222713
REMARK minimizedRMSD -1
REMARK  0 active torsions:
REMARK  status: ('A' for Active; 'I' for Inactive)
ROOT
ATOM      1  O1  BZF d   1      -0.317  -0.360   0.443  0.00  0.00    -0.204 OA
ATOM      2  C2  BZF d   1      -0.090   0.803   1.153  0.00  0.00     0.174 A 
ATOM      3  C3  BZF d   1       0.917   1.511   0.603  0.00  0.00    -0.012 A 
ATOM      4  C3A BZF d   1       1.285   0.788  -0.576  0.00  0.00    -0.107 A 
ATOM      5  C4  BZF d   1       2.215   0.998  -1.554  0.00  0.00     0.055 A 
ATOM      6  C5  BZF d   1       2.371   0.063  -2.528  0.00  0.00    -0.016 A 
ATOM      7  C6  BZF d   1       1.618  -1.093  -2.553  0.00  0.00     0.022 A 
ATOM      8  C7  BZF d   1       0.680  -1.342  -1.607  0.00  0.00     0.029 A 
ATOM      9  C7A BZF d   1       0.498  -0.385  -0.639  0.00  0.00     0.058 A 
ENDROOT
TORSDOF 0
ENDMDL
