MODEL 1
REMARK minimizedAffinity -3.50890446
REMARK minimizedRMSD -1
REMARK  3 active torsions:
REMARK  status: ('A' for Active; 'I' for Inactive)
REMARK    1  A    between atoms: C3'_2  and  C2'_3 
REMARK    2  A    between atoms: C2'_3  and  C1'_4 
REMARK    3  A    between atoms: C1'_4  and  C1_5 
ROOT
ATOM      1  C1  N4B d   1       0.486  -0.272  -0.574  0.00  0.00    -0.075 A 
ATOM      2  C2  N4B d   1       0.537  -1.668  -0.365  0.00  0.00     0.002 A 
ATOM      3  C3  N4B d   1       1.510  -2.418  -0.978  0.00  0.00     0.002 A 
ATOM      4  C4  N4B d   1       2.427  -1.800  -1.816  0.00  0.00    -0.004 A 
ATOM      5  C5  N4B d   1       2.386  -0.448  -1.992  0.00  0.00     0.002 A 
ATOM      6  C6  N4B d   1       1.416   0.319  -1.379  0.00  0.00     0.002 A 
ENDROOT
BRANCH   1   7
ATOM      7  C1' N4B d   1      -0.612   0.578   0.006  0.00  0.00     0.057 C 
BRANCH   7   8
ATOM      8  C2' N4B d   1      -1.575  -0.312   0.786  0.00  0.00     0.009 C 
BRANCH   8   9
ATOM      9  C3' N4B d   1      -2.866   0.412   1.129  0.00  0.00     0.004 C 
ATOM     10  C4' N4B d   1      -4.049  -0.507   1.188  0.00  0.00     0.003 C 
ENDBRANCH   8   9
ENDBRANCH   7   8
ENDBRANCH   1   7
TORSDOF 3
ENDMDL
