MODEL 1
REMARK minimizedAffinity 0.34826386
REMARK minimizedRMSD -1
REMARK  3 active torsions:
REMARK  status: ('A' for Active; 'I' for Inactive)
REMARK    1  A    between atoms: C3'_2  and  C2'_3 
REMARK    2  A    between atoms: C2'_3  and  C1'_4 
REMARK    3  A    between atoms: C1'_4  and  C1_5 
ROOT
ATOM      1  C1  N4B d   1       0.448  -0.095   0.054  0.00  0.00    -0.075 A 
ATOM      2  C2  N4B d   1       0.338  -1.490   0.242  0.00  0.00     0.002 A 
ATOM      3  C3  N4B d   1       1.218  -2.339  -0.383  0.00  0.00     0.002 A 
ATOM      4  C4  N4B d   1       2.201  -1.819  -1.212  0.00  0.00    -0.004 A 
ATOM      5  C5  N4B d   1       2.316  -0.468  -1.368  0.00  0.00     0.002 A 
ATOM      6  C6  N4B d   1       1.441   0.397  -0.743  0.00  0.00     0.002 A 
ENDROOT
BRANCH   1   7
ATOM      7  C1' N4B d   1      -0.545   0.867   0.648  0.00  0.00     0.057 C 
BRANCH   7   8
ATOM      8  C2' N4B d   1      -1.772   0.093   1.119  0.00  0.00     0.009 C 
BRANCH   8   9
ATOM      9  C3' N4B d   1      -2.548   0.851   2.183  0.00  0.00     0.004 C 
ATOM     10  C4' N4B d   1      -3.637   1.707   1.609  0.00  0.00     0.003 C 
ENDBRANCH   8   9
ENDBRANCH   7   8
ENDBRANCH   1   7
TORSDOF 3
ENDMDL
