MODEL 1
REMARK minimizedAffinity -4.80798197
REMARK minimizedRMSD -1
REMARK  3 active torsions:
REMARK  status: ('A' for Active; 'I' for Inactive)
REMARK    1  A    between atoms: C3'_2  and  C2'_3 
REMARK    2  A    between atoms: C2'_3  and  C1'_4 
REMARK    3  A    between atoms: C1'_4  and  C1_5 
ROOT
ATOM      1  C1  N4B d   1      -0.275   0.601   1.189  0.00  0.00    -0.075 A 
ATOM      2  C2  N4B d   1      -0.631   0.632  -0.177  0.00  0.00     0.002 A 
ATOM      3  C3  N4B d   1      -0.060   1.559  -1.014  0.00  0.00     0.002 A 
ATOM      4  C4  N4B d   1       0.851   2.473  -0.506  0.00  0.00    -0.004 A 
ATOM      5  C5  N4B d   1       1.208   2.420   0.809  0.00  0.00     0.002 A 
ATOM      6  C6  N4B d   1       0.645   1.491   1.661  0.00  0.00     0.002 A 
ENDROOT
BRANCH   1   7
ATOM      7  C1' N4B d   1      -0.937  -0.338   2.161  0.00  0.00     0.057 C 
BRANCH   7   8
ATOM      8  C2' N4B d   1      -2.226   0.298   2.673  0.00  0.00     0.009 C 
BRANCH   8   9
ATOM      9  C3' N4B d   1      -3.416  -0.044   1.794  0.00  0.00     0.004 C 
ATOM     10  C4' N4B d   1      -4.108   1.173   1.255  0.00  0.00     0.003 C 
ENDBRANCH   8   9
ENDBRANCH   7   8
ENDBRANCH   1   7
TORSDOF 3
ENDMDL
