MODEL 1
REMARK minimizedAffinity -3.828439
REMARK minimizedRMSD -1
REMARK  3 active torsions:
REMARK  status: ('A' for Active; 'I' for Inactive)
REMARK    1  A    between atoms: C3'_2  and  C2'_3 
REMARK    2  A    between atoms: C2'_3  and  C1'_4 
REMARK    3  A    between atoms: C1'_4  and  C1_5 
ROOT
ATOM      1  C1  N4B d   1       0.160   0.397   0.164  0.00  0.00    -0.075 A 
ATOM      2  C2  N4B d   1      -0.669   1.247  -0.601  0.00  0.00     0.002 A 
ATOM      3  C3  N4B d   1      -0.156   1.915  -1.685  0.00  0.00     0.002 A 
ATOM      4  C4  N4B d   1       1.184   1.764  -2.011  0.00  0.00    -0.004 A 
ATOM      5  C5  N4B d   1       1.973   0.922  -1.283  0.00  0.00     0.002 A 
ATOM      6  C6  N4B d   1       1.468   0.241  -0.193  0.00  0.00     0.002 A 
ENDROOT
BRANCH   1   7
ATOM      7  C1' N4B d   1      -0.335  -0.287   1.409  0.00  0.00     0.057 C 
BRANCH   7   8
ATOM      8  C2' N4B d   1      -1.846  -0.476   1.308  0.00  0.00     0.009 C 
BRANCH   8   9
ATOM      9  C3' N4B d   1      -2.593   0.373   2.322  0.00  0.00     0.004 C 
ATOM     10  C4' N4B d   1      -3.429   1.440   1.681  0.00  0.00     0.003 C 
ENDBRANCH   8   9
ENDBRANCH   7   8
ENDBRANCH   1   7
TORSDOF 3
ENDMDL
