MODEL 1
REMARK minimizedAffinity -1.07531869
REMARK minimizedRMSD -1
REMARK  3 active torsions:
REMARK  status: ('A' for Active; 'I' for Inactive)
REMARK    1  A    between atoms: C3'_2  and  C2'_3 
REMARK    2  A    between atoms: C2'_3  and  C1'_4 
REMARK    3  A    between atoms: C1'_4  and  C1_5 
ROOT
ATOM      1  C1  N4B d   1      -0.890   0.082   0.055  0.00  0.00    -0.075 A 
ATOM      2  C2  N4B d   1      -0.407  -0.982   0.848  0.00  0.00     0.002 A 
ATOM      3  C3  N4B d   1       0.132  -2.094   0.249  0.00  0.00     0.002 A 
ATOM      4  C4  N4B d   1       0.181  -2.173  -1.135  0.00  0.00    -0.004 A 
ATOM      5  C5  N4B d   1      -0.265  -1.130  -1.893  0.00  0.00     0.002 A 
ATOM      6  C6  N4B d   1      -0.805  -0.004  -1.305  0.00  0.00     0.002 A 
ENDROOT
BRANCH   1   7
ATOM      7  C1' N4B d   1      -1.566   1.281   0.662  0.00  0.00     0.057 C 
BRANCH   7   8
ATOM      8  C2' N4B d   1      -2.088   0.914   2.048  0.00  0.00     0.009 C 
BRANCH   8   9
ATOM      9  C3' N4B d   1      -3.603   0.980   2.120  0.00  0.00     0.004 C 
ATOM     10  C4' N4B d   1      -4.256  -0.341   1.841  0.00  0.00     0.003 C 
ENDBRANCH   8   9
ENDBRANCH   7   8
ENDBRANCH   1   7
TORSDOF 3
ENDMDL
