MODEL 1
REMARK minimizedAffinity -4.74351549
REMARK minimizedRMSD -1
REMARK  3 active torsions:
REMARK  status: ('A' for Active; 'I' for Inactive)
REMARK    1  A    between atoms: C3'_2  and  C2'_3 
REMARK    2  A    between atoms: C2'_3  and  C1'_4 
REMARK    3  A    between atoms: C1'_4  and  C1_5 
ROOT
ATOM      1  C1  N4B d   1       1.152  -0.589  -0.390  0.00  0.00    -0.075 A 
ATOM      2  C2  N4B d   1       0.879  -1.897   0.067  0.00  0.00     0.002 A 
ATOM      3  C3  N4B d   1       1.454  -2.977  -0.557  0.00  0.00     0.002 A 
ATOM      4  C4  N4B d   1       2.286  -2.775  -1.648  0.00  0.00    -0.004 A 
ATOM      5  C5  N4B d   1       2.565  -1.507  -2.068  0.00  0.00     0.002 A 
ATOM      6  C6  N4B d   1       1.997  -0.413  -1.447  0.00  0.00     0.002 A 
ENDROOT
BRANCH   1   7
ATOM      7  C1' N4B d   1       0.479   0.617   0.206  0.00  0.00     0.057 C 
BRANCH   7   8
ATOM      8  C2' N4B d   1      -1.031   0.399   0.207  0.00  0.00     0.009 C 
BRANCH   8   9
ATOM      9  C3' N4B d   1      -1.583   0.249   1.614  0.00  0.00     0.004 C 
ATOM     10  C4' N4B d   1      -3.052  -0.049   1.633  0.00  0.00     0.003 C 
ENDBRANCH   8   9
ENDBRANCH   7   8
ENDBRANCH   1   7
TORSDOF 3
ENDMDL
