MODEL 1
REMARK minimizedAffinity -2.07711267
REMARK minimizedRMSD -1
REMARK  3 active torsions:
REMARK  status: ('A' for Active; 'I' for Inactive)
REMARK    1  A    between atoms: C3'_2  and  C2'_3 
REMARK    2  A    between atoms: C2'_3  and  C1'_4 
REMARK    3  A    between atoms: C1'_4  and  C1_5 
ROOT
ATOM      1  C1  N4B d   1      -1.180   0.513   0.599  0.00  0.00    -0.075 A 
ATOM      2  C2  N4B d   1      -2.388   0.922  -0.007  0.00  0.00     0.002 A 
ATOM      3  C3  N4B d   1      -3.566   0.852   0.695  0.00  0.00     0.002 A 
ATOM      4  C4  N4B d   1      -3.564   0.361   1.992  0.00  0.00    -0.004 A 
ATOM      5  C5  N4B d   1      -2.389  -0.008   2.579  0.00  0.00     0.002 A 
ATOM      6  C6  N4B d   1      -1.197   0.060   1.886  0.00  0.00     0.002 A 
ENDROOT
BRANCH   1   7
ATOM      7  C1' N4B d   1       0.120   0.490  -0.158  0.00  0.00     0.057 C 
BRANCH   7   8
ATOM      8  C2' N4B d   1      -0.133  -0.025  -1.572  0.00  0.00     0.009 C 
BRANCH   8   9
ATOM      9  C3' N4B d   1       0.716  -1.243  -1.894  0.00  0.00     0.004 C 
ATOM     10  C4' N4B d   1       0.607  -2.318  -0.854  0.00  0.00     0.003 C 
ENDBRANCH   8   9
ENDBRANCH   7   8
ENDBRANCH   1   7
TORSDOF 3
ENDMDL
