MODEL 1
REMARK minimizedAffinity -2.26621747
REMARK minimizedRMSD -1
REMARK  3 active torsions:
REMARK  status: ('A' for Active; 'I' for Inactive)
REMARK    1  A    between atoms: C3'_2  and  C2'_3 
REMARK    2  A    between atoms: C2'_3  and  C1'_4 
REMARK    3  A    between atoms: C1'_4  and  C1_5 
ROOT
ATOM      1  C1  N4B d   1       0.381   0.121  -0.177  0.00  0.00    -0.075 A 
ATOM      2  C2  N4B d   1       0.996  -0.869  -0.974  0.00  0.00     0.002 A 
ATOM      3  C3  N4B d   1       1.985  -0.520  -1.860  0.00  0.00     0.002 A 
ATOM      4  C4  N4B d   1       2.361   0.810  -1.980  0.00  0.00    -0.004 A 
ATOM      5  C5  N4B d   1       1.780   1.756  -1.189  0.00  0.00     0.002 A 
ATOM      6  C6  N4B d   1       0.787   1.419  -0.291  0.00  0.00     0.002 A 
ENDROOT
BRANCH   1   7
ATOM      7  C1' N4B d   1      -0.765  -0.199   0.744  0.00  0.00     0.057 C 
BRANCH   7   8
ATOM      8  C2' N4B d   1      -2.069   0.259   0.099  0.00  0.00     0.009 C 
BRANCH   8   9
ATOM      9  C3' N4B d   1      -3.153   0.519   1.131  0.00  0.00     0.004 C 
ATOM     10  C4' N4B d   1      -2.616   1.112   2.399  0.00  0.00     0.003 C 
ENDBRANCH   8   9
ENDBRANCH   7   8
ENDBRANCH   1   7
TORSDOF 3
ENDMDL
