MODEL 1
REMARK minimizedAffinity -5.79037809
REMARK minimizedRMSD -1
REMARK  3 active torsions:
REMARK  status: ('A' for Active; 'I' for Inactive)
REMARK    1  A    between atoms: C3'_2  and  C2'_3 
REMARK    2  A    between atoms: C2'_3  and  C1'_4 
REMARK    3  A    between atoms: C1'_4  and  C1_5 
ROOT
ATOM      1  C1  N4B d   1       0.437   0.113  -0.958  0.00  0.00    -0.075 A 
ATOM      2  C2  N4B d   1       1.151   0.925  -1.867  0.00  0.00     0.002 A 
ATOM      3  C3  N4B d   1       2.093   0.364  -2.694  0.00  0.00     0.002 A 
ATOM      4  C4  N4B d   1       2.352  -0.996  -2.617  0.00  0.00    -0.004 A 
ATOM      5  C5  N4B d   1       1.640  -1.777  -1.754  0.00  0.00     0.002 A 
ATOM      6  C6  N4B d   1       0.687  -1.228  -0.920  0.00  0.00     0.002 A 
ENDROOT
BRANCH   1   7
ATOM      7  C1' N4B d   1      -0.542   0.694   0.025  0.00  0.00     0.057 C 
BRANCH   7   8
ATOM      8  C2' N4B d   1      -0.956  -0.389   1.018  0.00  0.00     0.009 C 
BRANCH   8   9
ATOM      9  C3' N4B d   1      -2.036   0.096   1.970  0.00  0.00     0.004 C 
ATOM     10  C4' N4B d   1      -3.366  -0.548   1.717  0.00  0.00     0.003 C 
ENDBRANCH   8   9
ENDBRANCH   7   8
ENDBRANCH   1   7
TORSDOF 3
ENDMDL
