MODEL 1
REMARK minimizedAffinity 9.71937656
REMARK minimizedRMSD -1
REMARK  0 active torsions:
REMARK  status: ('A' for Active; 'I' for Inactive)
ROOT
ATOM      1  C   UNL d   1       1.228  -0.618   1.834  0.00  0.00     0.124 A 
ATOM      2  C1  UNL d   1       0.054  -0.170   1.245  0.00  0.00     0.062 A 
ATOM      3  C2  UNL d   1      -0.848  -1.079   0.702  0.00  0.00     0.162 A 
ATOM      4  C3  UNL d   1      -0.581  -2.447   0.745  0.00  0.00    -0.034 A 
ATOM      5  C4  UNL d   1       0.602  -2.891   1.338  0.00  0.00     0.162 A 
ATOM      6  C5  UNL d   1       1.501  -1.978   1.880  0.00  0.00     0.062 A 
ATOM      7  F   UNL d   1       2.635  -2.414   2.448  0.00  0.00    -0.097 F 
ATOM      8  F1  UNL d   1       0.891  -4.200   1.396  0.00  0.00    -0.096 F 
ATOM      9  I   UNL d   1      -1.928  -3.810  -0.067  0.00  0.00    -0.060 I 
ATOM     10  F2  UNL d   1      -1.975  -0.617   0.139  0.00  0.00    -0.096 F 
ATOM     11  F3  UNL d   1      -0.212   1.144   1.199  0.00  0.00    -0.097 F 
ATOM     12  F4  UNL d   1       2.095   0.259   2.356  0.00  0.00    -0.092 F 
ENDROOT
TORSDOF 0
ENDMDL
