MODEL 1
REMARK minimizedAffinity 13.4183512
REMARK minimizedRMSD -1
REMARK  0 active torsions:
REMARK  status: ('A' for Active; 'I' for Inactive)
ROOT
ATOM      1  C   UNL d   1       0.488   1.177   1.805  0.00  0.00     0.124 A 
ATOM      2  C1  UNL d   1      -0.805   1.040   1.321  0.00  0.00     0.062 A 
ATOM      3  C2  UNL d   1      -1.332  -0.226   1.081  0.00  0.00     0.162 A 
ATOM      4  C3  UNL d   1      -0.566  -1.365   1.324  0.00  0.00    -0.034 A 
ATOM      5  C4  UNL d   1       0.735  -1.219   1.810  0.00  0.00     0.162 A 
ATOM      6  C5  UNL d   1       1.257   0.048   2.049  0.00  0.00     0.062 A 
ATOM      7  F   UNL d   1       2.507   0.178   2.516  0.00  0.00    -0.097 F 
ATOM      8  F1  UNL d   1       1.500  -2.294   2.055  0.00  0.00    -0.096 F 
ATOM      9  I   UNL d   1      -1.350  -3.259   0.965  0.00  0.00    -0.060 I 
ATOM     10  F2  UNL d   1      -2.585  -0.328   0.613  0.00  0.00    -0.096 F 
ATOM     11  F3  UNL d   1      -1.550   2.130   1.085  0.00  0.00    -0.097 F 
ATOM     12  F4  UNL d   1       0.993   2.396   2.035  0.00  0.00    -0.092 F 
ENDROOT
TORSDOF 0
ENDMDL
