MODEL 1
REMARK minimizedAffinity 13.8148766
REMARK minimizedRMSD -1
REMARK  0 active torsions:
REMARK  status: ('A' for Active; 'I' for Inactive)
ROOT
ATOM      1  C   UNL d   1      -2.826   0.748  -0.136  0.00  0.00     0.124 A 
ATOM      2  C1  UNL d   1      -2.623  -0.613   0.047  0.00  0.00     0.062 A 
ATOM      3  C2  UNL d   1      -1.524  -1.066   0.771  0.00  0.00     0.162 A 
ATOM      4  C3  UNL d   1      -0.620  -0.156   1.320  0.00  0.00    -0.034 A 
ATOM      5  C4  UNL d   1      -0.830   1.211   1.131  0.00  0.00     0.162 A 
ATOM      6  C5  UNL d   1      -1.930   1.658   0.406  0.00  0.00     0.062 A 
ATOM      7  F   UNL d   1      -2.124   2.973   0.230  0.00  0.00    -0.097 F 
ATOM      8  F1  UNL d   1       0.020   2.113   1.644  0.00  0.00    -0.096 F 
ATOM      9  I   UNL d   1       1.024  -0.829   2.404  0.00  0.00    -0.060 I 
ATOM     10  F2  UNL d   1      -1.353  -2.386   0.932  0.00  0.00    -0.096 F 
ATOM     11  F3  UNL d   1      -3.487  -1.495  -0.477  0.00  0.00    -0.097 F 
ATOM     12  F4  UNL d   1      -3.884   1.180  -0.835  0.00  0.00    -0.092 F 
ENDROOT
TORSDOF 0
ENDMDL
