MODEL 1
REMARK minimizedAffinity 20.9805546
REMARK minimizedRMSD -1
REMARK  0 active torsions:
REMARK  status: ('A' for Active; 'I' for Inactive)
ROOT
ATOM      1  C   UNL d   1      -3.105  -2.143  -3.550  0.00  0.00     0.124 A 
ATOM      2  C1  UNL d   1      -2.694  -3.158  -2.698  0.00  0.00     0.062 A 
ATOM      3  C2  UNL d   1      -2.287  -2.862  -1.401  0.00  0.00     0.162 A 
ATOM      4  C3  UNL d   1      -2.289  -1.543  -0.946  0.00  0.00    -0.034 A 
ATOM      5  C4  UNL d   1      -2.703  -0.527  -1.809  0.00  0.00     0.162 A 
ATOM      6  C5  UNL d   1      -3.109  -0.828  -3.105  0.00  0.00     0.062 A 
ATOM      7  F   UNL d   1      -3.506   0.154  -3.927  0.00  0.00    -0.097 F 
ATOM      8  F1  UNL d   1      -2.718   0.752  -1.405  0.00  0.00    -0.096 F 
ATOM      9  I   UNL d   1      -1.681  -1.095   0.993  0.00  0.00    -0.060 I 
ATOM     10  F2  UNL d   1      -1.895  -3.863  -0.599  0.00  0.00    -0.096 F 
ATOM     11  F3  UNL d   1      -2.688  -4.429  -3.126  0.00  0.00    -0.097 F 
ATOM     12  F4  UNL d   1      -3.496  -2.431  -4.798  0.00  0.00    -0.092 F 
ENDROOT
TORSDOF 0
ENDMDL
