MODEL 1
REMARK minimizedAffinity 8.2958889
REMARK minimizedRMSD -1
REMARK  0 active torsions:
REMARK  status: ('A' for Active; 'I' for Inactive)
ROOT
ATOM      1  C   UNL d   1       0.845  -0.458   2.130  0.00  0.00     0.124 A 
ATOM      2  C1  UNL d   1       1.014  -1.836   2.121  0.00  0.00     0.062 A 
ATOM      3  C2  UNL d   1       0.063  -2.654   1.516  0.00  0.00     0.162 A 
ATOM      4  C3  UNL d   1      -1.064  -2.096   0.914  0.00  0.00    -0.034 A 
ATOM      5  C4  UNL d   1      -1.228  -0.710   0.928  0.00  0.00     0.162 A 
ATOM      6  C5  UNL d   1      -0.275   0.103   1.533  0.00  0.00     0.062 A 
ATOM      7  F   UNL d   1      -0.440   1.434   1.541  0.00  0.00    -0.097 F 
ATOM      8  F1  UNL d   1      -2.300  -0.140   0.358  0.00  0.00    -0.096 F 
ATOM      9  I   UNL d   1      -2.488  -3.315   0.009  0.00  0.00    -0.060 I 
ATOM     10  F2  UNL d   1       0.252  -3.982   1.523  0.00  0.00    -0.096 F 
ATOM     11  F3  UNL d   1       2.094  -2.381   2.697  0.00  0.00    -0.097 F 
ATOM     12  F4  UNL d   1       1.760   0.326   2.713  0.00  0.00    -0.092 F 
ENDROOT
TORSDOF 0
ENDMDL
