MODEL 1
REMARK minimizedAffinity 18.5369568
REMARK minimizedRMSD -1
REMARK  0 active torsions:
REMARK  status: ('A' for Active; 'I' for Inactive)
ROOT
ATOM      1  C   UNL d   1       1.894  -1.563   1.854  0.00  0.00     0.124 A 
ATOM      2  C1  UNL d   1       2.195  -2.918   1.884  0.00  0.00     0.062 A 
ATOM      3  C2  UNL d   1       2.058  -3.639   3.067  0.00  0.00     0.162 A 
ATOM      4  C3  UNL d   1       1.618  -3.007   4.230  0.00  0.00    -0.034 A 
ATOM      5  C4  UNL d   1       1.318  -1.644   4.192  0.00  0.00     0.162 A 
ATOM      6  C5  UNL d   1       1.456  -0.928   3.008  0.00  0.00     0.062 A 
ATOM      7  F   UNL d   1       1.165   0.381   2.981  0.00  0.00    -0.097 F 
ATOM      8  F1  UNL d   1       0.893  -1.006   5.292  0.00  0.00    -0.096 F 
ATOM      9  I   UNL d   1       1.413  -4.083   6.000  0.00  0.00    -0.060 I 
ATOM     10  F2  UNL d   1       2.356  -4.947   3.066  0.00  0.00    -0.096 F 
ATOM     11  F3  UNL d   1       2.618  -3.534   0.771  0.00  0.00    -0.097 F 
ATOM     12  F4  UNL d   1       2.027  -0.871   0.716  0.00  0.00    -0.092 F 
ENDROOT
TORSDOF 0
ENDMDL
