MODEL 1
REMARK minimizedAffinity 13.4873028
REMARK minimizedRMSD -1
REMARK  0 active torsions:
REMARK  status: ('A' for Active; 'I' for Inactive)
ROOT
ATOM      1  C   UNL d   1      -1.426  -4.813  -1.559  0.00  0.00     0.124 A 
ATOM      2  C1  UNL d   1      -0.042  -4.885  -1.645  0.00  0.00     0.062 A 
ATOM      3  C2  UNL d   1       0.753  -4.136  -0.782  0.00  0.00     0.162 A 
ATOM      4  C3  UNL d   1       0.166  -3.308   0.175  0.00  0.00    -0.034 A 
ATOM      5  C4  UNL d   1      -1.227  -3.240   0.255  0.00  0.00     0.162 A 
ATOM      6  C5  UNL d   1      -2.016  -3.991  -0.609  0.00  0.00     0.062 A 
ATOM      7  F   UNL d   1      -3.353  -3.921  -0.525  0.00  0.00    -0.097 F 
ATOM      8  F1  UNL d   1      -1.824  -2.455   1.164  0.00  0.00    -0.096 F 
ATOM      9  I   UNL d   1       1.350  -2.186   1.467  0.00  0.00    -0.060 I 
ATOM     10  F2  UNL d   1       2.087  -4.224  -0.888  0.00  0.00    -0.096 F 
ATOM     11  F3  UNL d   1       0.531  -5.678  -2.562  0.00  0.00    -0.097 F 
ATOM     12  F4  UNL d   1      -2.188  -5.535  -2.391  0.00  0.00    -0.092 F 
ENDROOT
TORSDOF 0
ENDMDL
