MODEL 1
REMARK minimizedAffinity 22.209959
REMARK minimizedRMSD -1
REMARK  0 active torsions:
REMARK  status: ('A' for Active; 'I' for Inactive)
ROOT
ATOM      1  C   UNL d   1      -0.993  -0.650   1.224  0.00  0.00     0.124 A 
ATOM      2  C1  UNL d   1      -1.866   0.055   0.406  0.00  0.00     0.062 A 
ATOM      3  C2  UNL d   1      -1.732   1.433   0.263  0.00  0.00     0.162 A 
ATOM      4  C3  UNL d   1      -0.721   2.116   0.939  0.00  0.00    -0.034 A 
ATOM      5  C4  UNL d   1       0.153   1.401   1.760  0.00  0.00     0.162 A 
ATOM      6  C5  UNL d   1       0.015   0.024   1.900  0.00  0.00     0.062 A 
ATOM      7  F   UNL d   1       0.859  -0.656   2.690  0.00  0.00    -0.097 F 
ATOM      8  F1  UNL d   1       1.136   2.026   2.424  0.00  0.00    -0.096 F 
ATOM      9  I   UNL d   1      -0.518   4.177   0.727  0.00  0.00    -0.060 I 
ATOM     10  F2  UNL d   1      -2.589   2.088  -0.534  0.00  0.00    -0.096 F 
ATOM     11  F3  UNL d   1      -2.841  -0.593  -0.247  0.00  0.00    -0.097 F 
ATOM     12  F4  UNL d   1      -1.124  -1.975   1.361  0.00  0.00    -0.092 F 
ENDROOT
TORSDOF 0
ENDMDL
