MODEL 1
REMARK minimizedAffinity 9.25747967
REMARK minimizedRMSD -1
REMARK  0 active torsions:
REMARK  status: ('A' for Active; 'I' for Inactive)
ROOT
ATOM      1  C   UNL d   1       1.656  -1.570   0.571  0.00  0.00     0.124 A 
ATOM      2  C1  UNL d   1       1.611  -2.565  -0.395  0.00  0.00     0.062 A 
ATOM      3  C2  UNL d   1       0.433  -3.274  -0.615  0.00  0.00     0.162 A 
ATOM      4  C3  UNL d   1      -0.710  -2.990   0.132  0.00  0.00    -0.034 A 
ATOM      5  C4  UNL d   1      -0.656  -1.988   1.103  0.00  0.00     0.162 A 
ATOM      6  C5  UNL d   1       0.523  -1.282   1.319  0.00  0.00     0.062 A 
ATOM      7  F   UNL d   1       0.565  -0.321   2.253  0.00  0.00    -0.097 F 
ATOM      8  F1  UNL d   1      -1.736  -1.688   1.839  0.00  0.00    -0.096 F 
ATOM      9  I   UNL d   1      -2.472  -4.047  -0.194  0.00  0.00    -0.060 I 
ATOM     10  F2  UNL d   1       0.418  -4.231  -1.555  0.00  0.00    -0.096 F 
ATOM     11  F3  UNL d   1       2.704  -2.846  -1.118  0.00  0.00    -0.097 F 
ATOM     12  F4  UNL d   1       2.791  -0.890   0.782  0.00  0.00    -0.092 F 
ENDROOT
TORSDOF 0
ENDMDL
