MODEL 1
REMARK minimizedAffinity 14.1826963
REMARK minimizedRMSD -1
REMARK  0 active torsions:
REMARK  status: ('A' for Active; 'I' for Inactive)
ROOT
ATOM      1  C   UNL d   1       2.748   4.448  -1.810  0.00  0.00     0.124 A 
ATOM      2  C1  UNL d   1       2.491   4.584  -3.167  0.00  0.00     0.062 A 
ATOM      3  C2  UNL d   1       3.418   4.135  -4.104  0.00  0.00     0.162 A 
ATOM      4  C3  UNL d   1       4.611   3.545  -3.686  0.00  0.00    -0.034 A 
ATOM      5  C4  UNL d   1       4.863   3.413  -2.319  0.00  0.00     0.162 A 
ATOM      6  C5  UNL d   1       3.933   3.863  -1.387  0.00  0.00     0.062 A 
ATOM      7  F   UNL d   1       4.183   3.731  -0.076  0.00  0.00    -0.097 F 
ATOM      8  F1  UNL d   1       6.000   2.851  -1.883  0.00  0.00    -0.096 F 
ATOM      9  I   UNL d   1       6.000   2.874  -5.083  0.00  0.00    -0.060 I 
ATOM     10  F2  UNL d   1       3.143   4.279  -5.409  0.00  0.00    -0.096 F 
ATOM     11  F3  UNL d   1       1.347   5.149  -3.578  0.00  0.00    -0.097 F 
ATOM     12  F4  UNL d   1       1.854   4.881  -0.911  0.00  0.00    -0.092 F 
ENDROOT
TORSDOF 0
ENDMDL
