MODEL 1
REMARK minimizedAffinity 10.1174212
REMARK minimizedRMSD -1
REMARK  0 active torsions:
REMARK  status: ('A' for Active; 'I' for Inactive)
ROOT
ATOM      1  C   UNL d   1       2.264   0.143   4.564  0.00  0.00     0.124 A 
ATOM      2  C1  UNL d   1       1.855  -1.045   3.973  0.00  0.00     0.062 A 
ATOM      3  C2  UNL d   1       1.423  -1.057   2.650  0.00  0.00     0.162 A 
ATOM      4  C3  UNL d   1       1.399   0.124   1.907  0.00  0.00    -0.034 A 
ATOM      5  C4  UNL d   1       1.811   1.315   2.508  0.00  0.00     0.162 A 
ATOM      6  C5  UNL d   1       2.241   1.321   3.831  0.00  0.00     0.062 A 
ATOM      7  F   UNL d   1       2.636   2.470   4.399  0.00  0.00    -0.097 F 
ATOM      8  F1  UNL d   1       1.800   2.467   1.823  0.00  0.00    -0.096 F 
ATOM      9  I   UNL d   1       0.754   0.110  -0.071  0.00  0.00    -0.060 I 
ATOM     10  F2  UNL d   1       1.034  -2.219   2.105  0.00  0.00    -0.096 F 
ATOM     11  F3  UNL d   1       1.875  -2.185   4.679  0.00  0.00    -0.097 F 
ATOM     12  F4  UNL d   1       2.678   0.152   5.837  0.00  0.00    -0.092 F 
ENDROOT
TORSDOF 0
ENDMDL
