MODEL 1
REMARK minimizedAffinity 8.97840309
REMARK minimizedRMSD -1
REMARK  0 active torsions:
REMARK  status: ('A' for Active; 'I' for Inactive)
ROOT
ATOM      1  C   UNL d   1       1.032   0.055   1.046  0.00  0.00     0.124 A 
ATOM      2  C1  UNL d   1       1.453   0.333   2.339  0.00  0.00     0.062 A 
ATOM      3  C2  UNL d   1       1.627  -0.700   3.256  0.00  0.00     0.162 A 
ATOM      4  C3  UNL d   1       1.381  -2.021   2.883  0.00  0.00    -0.034 A 
ATOM      5  C4  UNL d   1       0.957  -2.293   1.581  0.00  0.00     0.162 A 
ATOM      6  C5  UNL d   1       0.784  -1.258   0.668  0.00  0.00     0.062 A 
ATOM      7  F   UNL d   1       0.378  -1.528  -0.581  0.00  0.00    -0.097 F 
ATOM      8  F1  UNL d   1       0.712  -3.552   1.189  0.00  0.00    -0.096 F 
ATOM      9  I   UNL d   1       1.641  -3.568   4.251  0.00  0.00    -0.060 I 
ATOM     10  F2  UNL d   1       2.035  -0.402   4.498  0.00  0.00    -0.096 F 
ATOM     11  F3  UNL d   1       1.692   1.600   2.706  0.00  0.00    -0.097 F 
ATOM     12  F4  UNL d   1       0.864   1.050   0.166  0.00  0.00    -0.092 F 
ENDROOT
TORSDOF 0
ENDMDL
