MODEL 1
REMARK minimizedAffinity 4.37888384
REMARK minimizedRMSD -1
REMARK  0 active torsions:
REMARK  status: ('A' for Active; 'I' for Inactive)
ROOT
ATOM      1  C   UNL d   1       3.468   4.484  -2.308  0.00  0.00     0.078 C 
ATOM      2  C1  UNL d   1       4.164   4.875  -3.577  0.00  0.00    -0.077 A 
ATOM      3  C2  UNL d   1       3.666   4.479  -4.824  0.00  0.00    -0.001 A 
ATOM      4  C3  UNL d   1       4.329   4.842  -5.997  0.00  0.00     0.003 A 
ATOM      5  C4  UNL d   1       5.495   5.602  -5.935  0.00  0.00    -0.005 A 
ATOM      6  C5  UNL d   1       6.000   5.999  -4.698  0.00  0.00     0.003 A 
ATOM      7  C6  UNL d   1       5.338   5.637  -3.524  0.00  0.00    -0.001 A 
ENDROOT
TORSDOF 0
ENDMDL
