MODEL 1
REMARK minimizedAffinity 3.03774381
REMARK minimizedRMSD -1
REMARK  0 active torsions:
REMARK  status: ('A' for Active; 'I' for Inactive)
ROOT
ATOM      1  C   UNL d   1       1.523  -1.338   2.051  0.00  0.00     0.078 C 
ATOM      2  C1  UNL d   1       1.954  -2.331   3.088  0.00  0.00    -0.077 A 
ATOM      3  C2  UNL d   1       2.182  -3.671   2.753  0.00  0.00    -0.001 A 
ATOM      4  C3  UNL d   1       2.573  -4.587   3.731  0.00  0.00     0.003 A 
ATOM      5  C4  UNL d   1       2.738  -4.174   5.051  0.00  0.00    -0.005 A 
ATOM      6  C5  UNL d   1       2.511  -2.842   5.395  0.00  0.00     0.003 A 
ATOM      7  C6  UNL d   1       2.120  -1.925   4.418  0.00  0.00    -0.001 A 
ENDROOT
TORSDOF 0
ENDMDL
