MODEL 1
REMARK minimizedAffinity 1.34487879
REMARK minimizedRMSD -1
REMARK  0 active torsions:
REMARK  status: ('A' for Active; 'I' for Inactive)
ROOT
ATOM      1  C   UNL d   1       2.383  -5.662  -2.288  0.00  0.00     0.078 C 
ATOM      2  C1  UNL d   1       3.132  -5.773  -3.582  0.00  0.00    -0.077 A 
ATOM      3  C2  UNL d   1       2.452  -5.877  -4.802  0.00  0.00    -0.001 A 
ATOM      4  C3  UNL d   1       3.161  -5.989  -5.999  0.00  0.00     0.003 A 
ATOM      5  C4  UNL d   1       4.555  -5.999  -5.987  0.00  0.00    -0.005 A 
ATOM      6  C5  UNL d   1       5.240  -5.898  -4.778  0.00  0.00     0.003 A 
ATOM      7  C6  UNL d   1       4.532  -5.786  -3.581  0.00  0.00    -0.001 A 
ENDROOT
TORSDOF 0
ENDMDL
