MODEL 1
REMARK minimizedAffinity 0.473204225
REMARK minimizedRMSD -1
REMARK  0 active torsions:
REMARK  status: ('A' for Active; 'I' for Inactive)
ROOT
ATOM      1  C   UNL d   1      -2.247   2.329   0.012  0.00  0.00     0.078 C 
ATOM      2  C1  UNL d   1      -3.550   2.956   0.408  0.00  0.00    -0.077 A 
ATOM      3  C2  UNL d   1      -4.066   2.792   1.700  0.00  0.00    -0.001 A 
ATOM      4  C3  UNL d   1      -5.285   3.373   2.052  0.00  0.00     0.003 A 
ATOM      5  C4  UNL d   1      -6.000   4.121   1.118  0.00  0.00    -0.005 A 
ATOM      6  C5  UNL d   1      -5.495   4.288  -0.170  0.00  0.00     0.003 A 
ATOM      7  C6  UNL d   1      -4.276   3.707  -0.524  0.00  0.00    -0.001 A 
ENDROOT
TORSDOF 0
ENDMDL
