MODEL 1
REMARK minimizedAffinity 6.11375809
REMARK minimizedRMSD -1
REMARK  0 active torsions:
REMARK  status: ('A' for Active; 'I' for Inactive)
ROOT
ATOM      1  C   UNL d   1       5.999  -5.814  -5.974  0.00  0.00     0.078 C 
ATOM      2  C1  UNL d   1       4.791  -5.800  -5.085  0.00  0.00    -0.077 A 
ATOM      3  C2  UNL d   1       4.914  -5.604  -3.704  0.00  0.00    -0.001 A 
ATOM      4  C3  UNL d   1       3.782  -5.603  -2.887  0.00  0.00     0.003 A 
ATOM      5  C4  UNL d   1       2.519  -5.798  -3.442  0.00  0.00    -0.005 A 
ATOM      6  C5  UNL d   1       2.387  -5.996  -4.815  0.00  0.00     0.003 A 
ATOM      7  C6  UNL d   1       3.517  -5.997  -5.633  0.00  0.00    -0.001 A 
ENDROOT
TORSDOF 0
ENDMDL
