MODEL 1
REMARK minimizedAffinity 1.59767497
REMARK minimizedRMSD -1
REMARK  0 active torsions:
REMARK  status: ('A' for Active; 'I' for Inactive)
ROOT
ATOM      1  C   UNL d   1       4.993  -2.071   2.289  0.00  0.00     0.078 C 
ATOM      2  C1  UNL d   1       3.669  -1.855   2.960  0.00  0.00    -0.077 A 
ATOM      3  C2  UNL d   1       3.501  -2.116   4.325  0.00  0.00    -0.001 A 
ATOM      4  C3  UNL d   1       2.261  -1.920   4.934  0.00  0.00     0.003 A 
ATOM      5  C4  UNL d   1       1.178  -1.463   4.186  0.00  0.00    -0.005 A 
ATOM      6  C5  UNL d   1       1.335  -1.203   2.826  0.00  0.00     0.003 A 
ATOM      7  C6  UNL d   1       2.575  -1.398   2.215  0.00  0.00    -0.001 A 
ENDROOT
TORSDOF 0
ENDMDL
