MODEL 1
REMARK minimizedAffinity 5.3077364
REMARK minimizedRMSD -1
REMARK  0 active torsions:
REMARK  status: ('A' for Active; 'I' for Inactive)
ROOT
ATOM      1  C   UNL d   1      -4.214  -5.287  -2.230  0.00  0.00     0.078 C 
ATOM      2  C1  UNL d   1      -4.822  -4.901  -3.546  0.00  0.00    -0.077 A 
ATOM      3  C2  UNL d   1      -4.813  -3.570  -3.982  0.00  0.00    -0.001 A 
ATOM      4  C3  UNL d   1      -5.392  -3.224  -5.204  0.00  0.00     0.003 A 
ATOM      5  C4  UNL d   1      -5.984  -4.203  -6.000  0.00  0.00    -0.005 A 
ATOM      6  C5  UNL d   1      -6.000  -5.529  -5.573  0.00  0.00     0.003 A 
ATOM      7  C6  UNL d   1      -5.422  -5.877  -4.351  0.00  0.00    -0.001 A 
ENDROOT
TORSDOF 0
ENDMDL
