MODEL 1
REMARK minimizedAffinity 5.96384239
REMARK minimizedRMSD -1
REMARK  1 active torsions:
REMARK  status: ('A' for Active; 'I' for Inactive)
REMARK    1  A    between atoms: N_2  and  C1_3 
ROOT
ATOM      1  C1  UNL d   1      -0.002   2.943   2.634  0.00  0.00     0.143 A 
ATOM      2  C2  UNL d   1      -0.207   2.682   1.275  0.00  0.00    -0.057 A 
ATOM      3  C3  UNL d   1      -1.498   2.560   0.746  0.00  0.00     0.033 A 
ATOM      4  C4  UNL d   1      -2.609   2.668   1.575  0.00  0.00    -0.042 A 
ATOM      5  C5  UNL d   1      -2.429   2.902   2.934  0.00  0.00     0.033 A 
ATOM      6  C6  UNL d   1      -1.138   3.029   3.455  0.00  0.00    -0.057 A 
ENDROOT
BRANCH   1   7
ATOM      7  N   UNL d   1       1.257   2.977   3.238  0.00  0.00    -0.732 N 
ATOM      8  C   UNL d   1       2.460   2.975   2.434  0.00  0.00     0.284 C 
ATOM      9  H3  UNL d   1       1.289   3.611   4.034  0.00  0.00     0.395 HD
ENDBRANCH   1   7
TORSDOF 1
ENDMDL
