MODEL 1
REMARK minimizedAffinity 0.58384788
REMARK minimizedRMSD -1
REMARK  1 active torsions:
REMARK  status: ('A' for Active; 'I' for Inactive)
REMARK    1  A    between atoms: N_2  and  C1_3 
ROOT
ATOM      1  C1  UNL d   1       1.339   2.462   1.620  0.00  0.00     0.143 A 
ATOM      2  C2  UNL d   1       1.374   1.189   1.041  0.00  0.00    -0.057 A 
ATOM      3  C3  UNL d   1       0.235   0.629   0.449  0.00  0.00     0.033 A 
ATOM      4  C4  UNL d   1      -0.970   1.323   0.451  0.00  0.00    -0.042 A 
ATOM      5  C5  UNL d   1      -1.035   2.580   1.043  0.00  0.00     0.033 A 
ATOM      6  C6  UNL d   1       0.107   3.136   1.627  0.00  0.00    -0.057 A 
ENDROOT
BRANCH   1   7
ATOM      7  N   UNL d   1       2.410   3.032   2.312  0.00  0.00    -0.732 N 
ATOM      8  C   UNL d   1       2.447   3.015   3.758  0.00  0.00     0.284 C 
ATOM      9  H3  UNL d   1       3.306   2.835   1.871  0.00  0.00     0.395 HD
ENDBRANCH   1   7
TORSDOF 1
ENDMDL
