MODEL 1
REMARK minimizedAffinity -0.871967018
REMARK minimizedRMSD -1
REMARK  1 active torsions:
REMARK  status: ('A' for Active; 'I' for Inactive)
REMARK    1  A    between atoms: N_2  and  C1_3 
ROOT
ATOM      1  C1  UNL d   1      -2.860   3.321  -5.907  0.00  0.00     0.143 A 
ATOM      2  C2  UNL d   1      -2.529   4.681  -5.887  0.00  0.00    -0.057 A 
ATOM      3  C3  UNL d   1      -3.521   5.669  -5.896  0.00  0.00     0.033 A 
ATOM      4  C4  UNL d   1      -4.865   5.315  -5.954  0.00  0.00    -0.042 A 
ATOM      5  C5  UNL d   1      -5.216   3.970  -6.000  0.00  0.00     0.033 A 
ATOM      6  C6  UNL d   1      -4.221   2.987  -5.984  0.00  0.00    -0.057 A 
ENDROOT
BRANCH   1   7
ATOM      7  N   UNL d   1      -1.919   2.293  -5.999  0.00  0.00    -0.732 N 
ATOM      8  C   UNL d   1      -0.502   2.589  -6.000  0.00  0.00     0.284 C 
ATOM      9  H3  UNL d   1      -2.174   1.482  -5.440  0.00  0.00     0.395 HD
ENDBRANCH   1   7
TORSDOF 1
ENDMDL
