MODEL 1
REMARK minimizedAffinity 0.482971251
REMARK minimizedRMSD -1
REMARK  1 active torsions:
REMARK  status: ('A' for Active; 'I' for Inactive)
REMARK    1  A    between atoms: N_2  and  C1_3 
ROOT
ATOM      1  C1  UNL d   1       0.915   1.717   0.882  0.00  0.00     0.143 A 
ATOM      2  C2  UNL d   1       0.548   0.422   0.500  0.00  0.00    -0.057 A 
ATOM      3  C3  UNL d   1      -0.782   0.102   0.202  0.00  0.00     0.033 A 
ATOM      4  C4  UNL d   1      -1.777   1.069   0.308  0.00  0.00    -0.042 A 
ATOM      5  C5  UNL d   1      -1.439   2.356   0.710  0.00  0.00     0.033 A 
ATOM      6  C6  UNL d   1      -0.108   2.671   1.000  0.00  0.00    -0.057 A 
ENDROOT
BRANCH   1   7
ATOM      7  N   UNL d   1       2.204   2.073   1.286  0.00  0.00    -0.732 N 
ATOM      8  C   UNL d   1       2.406   3.113   2.272  0.00  0.00     0.284 C 
ATOM      9  H3  UNL d   1       2.811   1.265   1.403  0.00  0.00     0.395 HD
ENDBRANCH   1   7
TORSDOF 1
ENDMDL
