MODEL 1
REMARK minimizedAffinity 3.17925453
REMARK minimizedRMSD -1
REMARK  1 active torsions:
REMARK  status: ('A' for Active; 'I' for Inactive)
REMARK    1  A    between atoms: N_2  and  C1_3 
ROOT
ATOM      1  C1  UNL d   1       0.220   0.835   0.447  0.00  0.00     0.143 A 
ATOM      2  C2  UNL d   1      -0.697  -0.218   0.533  0.00  0.00    -0.057 A 
ATOM      3  C3  UNL d   1      -2.023   0.003   0.923  0.00  0.00     0.033 A 
ATOM      4  C4  UNL d   1      -2.450   1.283   1.264  0.00  0.00    -0.042 A 
ATOM      5  C5  UNL d   1      -1.549   2.341   1.211  0.00  0.00     0.033 A 
ATOM      6  C6  UNL d   1      -0.228   2.114   0.814  0.00  0.00    -0.057 A 
ENDROOT
BRANCH   1   7
ATOM      7  N   UNL d   1       1.576   0.664   0.161  0.00  0.00    -0.732 N 
ATOM      8  C   UNL d   1       2.041   0.618  -1.209  0.00  0.00     0.284 C 
ATOM      9  H3  UNL d   1       2.176   1.199   0.785  0.00  0.00     0.395 HD
ENDBRANCH   1   7
TORSDOF 1
ENDMDL
