MODEL 1
REMARK minimizedAffinity 4.63275623
REMARK minimizedRMSD -1
REMARK  1 active torsions:
REMARK  status: ('A' for Active; 'I' for Inactive)
REMARK    1  A    between atoms: N_2  and  C1_3 
ROOT
ATOM      1  C1  UNL d   1      -0.914   2.528   0.611  0.00  0.00     0.143 A 
ATOM      2  C2  UNL d   1      -1.865   2.656   1.630  0.00  0.00    -0.057 A 
ATOM      3  C3  UNL d   1      -1.539   3.244   2.858  0.00  0.00     0.033 A 
ATOM      4  C4  UNL d   1      -0.243   3.690   3.100  0.00  0.00    -0.042 A 
ATOM      5  C5  UNL d   1       0.724   3.549   2.112  0.00  0.00     0.033 A 
ATOM      6  C6  UNL d   1       0.391   2.967   0.885  0.00  0.00    -0.057 A 
ENDROOT
BRANCH   1   7
ATOM      7  N   UNL d   1      -1.151   1.863  -0.595  0.00  0.00    -0.732 N 
ATOM      8  C   UNL d   1      -2.198   0.869  -0.695  0.00  0.00     0.284 C 
ATOM      9  H3  UNL d   1      -1.088   2.484  -1.399  0.00  0.00     0.395 HD
ENDBRANCH   1   7
TORSDOF 1
ENDMDL
