MODEL 1
REMARK minimizedAffinity 3.4851191
REMARK minimizedRMSD -1
REMARK  1 active torsions:
REMARK  status: ('A' for Active; 'I' for Inactive)
REMARK    1  A    between atoms: N_2  and  C1_3 
ROOT
ATOM      1  C1  UNL d   1      -2.795  -4.295  -0.696  0.00  0.00     0.143 A 
ATOM      2  C2  UNL d   1      -1.462  -4.603  -0.992  0.00  0.00    -0.057 A 
ATOM      3  C3  UNL d   1      -0.535  -3.599  -1.294  0.00  0.00     0.033 A 
ATOM      4  C4  UNL d   1      -0.932  -2.266  -1.333  0.00  0.00    -0.042 A 
ATOM      5  C5  UNL d   1      -2.257  -1.939  -1.066  0.00  0.00     0.033 A 
ATOM      6  C6  UNL d   1      -3.177  -2.946  -0.759  0.00  0.00    -0.057 A 
ENDROOT
BRANCH   1   7
ATOM      7  N   UNL d   1      -3.786  -5.256  -0.484  0.00  0.00    -0.732 N 
ATOM      8  C   UNL d   1      -4.797  -5.061   0.533  0.00  0.00     0.284 C 
ATOM      9  H3  UNL d   1      -4.143  -5.645  -1.355  0.00  0.00     0.395 HD
ENDBRANCH   1   7
TORSDOF 1
ENDMDL
