MODEL 1
REMARK minimizedAffinity 6.10448933
REMARK minimizedRMSD -1
REMARK  1 active torsions:
REMARK  status: ('A' for Active; 'I' for Inactive)
REMARK    1  A    between atoms: N_2  and  C1_3 
ROOT
ATOM      1  C1  UNL d   1      -0.620   3.262   3.089  0.00  0.00     0.143 A 
ATOM      2  C2  UNL d   1      -0.098   3.459   1.806  0.00  0.00    -0.057 A 
ATOM      3  C3  UNL d   1       1.277   3.622   1.599  0.00  0.00     0.033 A 
ATOM      4  C4  UNL d   1       2.154   3.619   2.678  0.00  0.00    -0.042 A 
ATOM      5  C5  UNL d   1       1.655   3.450   3.965  0.00  0.00     0.033 A 
ATOM      6  C6  UNL d   1       0.282   3.281   4.165  0.00  0.00    -0.057 A 
ENDROOT
BRANCH   1   7
ATOM      7  N   UNL d   1      -1.987   3.193   3.371  0.00  0.00    -0.732 N 
ATOM      8  C   UNL d   1      -2.619   4.193   4.205  0.00  0.00     0.284 C 
ATOM      9  H3  UNL d   1      -2.537   2.920   2.560  0.00  0.00     0.395 HD
ENDBRANCH   1   7
TORSDOF 1
ENDMDL
