MODEL 1
REMARK minimizedAffinity 6.43422747
REMARK minimizedRMSD -1
REMARK  1 active torsions:
REMARK  status: ('A' for Active; 'I' for Inactive)
REMARK    1  A    between atoms: N_2  and  C1_3 
ROOT
ATOM      1  C1  UNL d   1       1.479   1.020   0.303  0.00  0.00     0.143 A 
ATOM      2  C2  UNL d   1       1.880   2.005   1.211  0.00  0.00    -0.057 A 
ATOM      3  C3  UNL d   1       0.944   2.818   1.862  0.00  0.00     0.033 A 
ATOM      4  C4  UNL d   1      -0.414   2.677   1.593  0.00  0.00    -0.042 A 
ATOM      5  C5  UNL d   1      -0.834   1.721   0.676  0.00  0.00     0.033 A 
ATOM      6  C6  UNL d   1       0.106   0.908   0.034  0.00  0.00    -0.057 A 
ENDROOT
BRANCH   1   7
ATOM      7  N   UNL d   1       2.367   0.248  -0.450  0.00  0.00    -0.732 N 
ATOM      8  C   UNL d   1       2.654   0.587  -1.827  0.00  0.00     0.284 C 
ATOM      9  H3  UNL d   1       3.183  -0.039   0.086  0.00  0.00     0.395 HD
ENDBRANCH   1   7
TORSDOF 1
ENDMDL
