MODEL 1
REMARK minimizedAffinity 5.1180501
REMARK minimizedRMSD -1
REMARK  1 active torsions:
REMARK  status: ('A' for Active; 'I' for Inactive)
REMARK    1  A    between atoms: N_2  and  C1_3 
ROOT
ATOM      1  C1  UNL d   1       0.350   1.026   0.256  0.00  0.00     0.143 A 
ATOM      2  C2  UNL d   1      -0.059  -0.311   0.203  0.00  0.00    -0.057 A 
ATOM      3  C3  UNL d   1      -1.390  -0.673   0.445  0.00  0.00     0.033 A 
ATOM      4  C4  UNL d   1      -2.332   0.296   0.773  0.00  0.00    -0.042 A 
ATOM      5  C5  UNL d   1      -1.942   1.628   0.856  0.00  0.00     0.033 A 
ATOM      6  C6  UNL d   1      -0.613   1.984   0.607  0.00  0.00    -0.057 A 
ENDROOT
BRANCH   1   7
ATOM      7  N   UNL d   1       1.678   1.438   0.122  0.00  0.00    -0.732 N 
ATOM      8  C   UNL d   1       2.487   0.973  -0.984  0.00  0.00     0.284 C 
ATOM      9  H3  UNL d   1       1.803   2.424   0.342  0.00  0.00     0.395 HD
ENDBRANCH   1   7
TORSDOF 1
ENDMDL
