MODEL 1
REMARK minimizedAffinity 0.492646456
REMARK minimizedRMSD -1
REMARK  1 active torsions:
REMARK  status: ('A' for Active; 'I' for Inactive)
REMARK    1  A    between atoms: N_2  and  C1_3 
ROOT
ATOM      1  C1  UNL d   1      -0.414   0.750   0.822  0.00  0.00     0.143 A 
ATOM      2  C2  UNL d   1      -1.066   1.945   0.498  0.00  0.00    -0.057 A 
ATOM      3  C3  UNL d   1      -2.464   2.018   0.443  0.00  0.00     0.033 A 
ATOM      4  C4  UNL d   1      -3.235   0.886   0.683  0.00  0.00    -0.042 A 
ATOM      5  C5  UNL d   1      -2.608  -0.318   0.983  0.00  0.00     0.033 A 
ATOM      6  C6  UNL d   1      -1.212  -0.383   1.043  0.00  0.00    -0.057 A 
ENDROOT
BRANCH   1   7
ATOM      7  N   UNL d   1       0.973   0.590   0.796  0.00  0.00    -0.732 N 
ATOM      8  C   UNL d   1       1.846   1.645   1.264  0.00  0.00     0.284 C 
ATOM      9  H3  UNL d   1       1.261  -0.344   1.079  0.00  0.00     0.395 HD
ENDBRANCH   1   7
TORSDOF 1
ENDMDL
