MODEL 1
REMARK minimizedAffinity 2.11205196
REMARK minimizedRMSD -1
REMARK  1 active torsions:
REMARK  status: ('A' for Active; 'I' for Inactive)
REMARK    1  A    between atoms: N_2  and  C1_3 
ROOT
ATOM      1  C1  UNL d   1       0.362   0.934   0.471  0.00  0.00     0.143 A 
ATOM      2  C2  UNL d   1      -0.727   0.249  -0.077  0.00  0.00    -0.057 A 
ATOM      3  C3  UNL d   1      -2.035   0.729   0.068  0.00  0.00     0.033 A 
ATOM      4  C4  UNL d   1      -2.279   1.891   0.792  0.00  0.00    -0.042 A 
ATOM      5  C5  UNL d   1      -1.214   2.575   1.367  0.00  0.00     0.033 A 
ATOM      6  C6  UNL d   1       0.090   2.095   1.213  0.00  0.00    -0.057 A 
ENDROOT
BRANCH   1   7
ATOM      7  N   UNL d   1       1.675   0.457   0.445  0.00  0.00    -0.732 N 
ATOM      8  C   UNL d   1       2.419   0.413  -0.796  0.00  0.00     0.284 C 
ATOM      9  H3  UNL d   1       2.219   0.771   1.245  0.00  0.00     0.395 HD
ENDBRANCH   1   7
TORSDOF 1
ENDMDL
