MODEL 1
REMARK minimizedAffinity 3.05625916
REMARK minimizedRMSD -1
REMARK  1 active torsions:
REMARK  status: ('A' for Active; 'I' for Inactive)
REMARK    1  A    between atoms: N_2  and  C1_3 
ROOT
ATOM      1  C1  UNL d   1      -2.917  -4.929  -0.829  0.00  0.00     0.143 A 
ATOM      2  C2  UNL d   1      -2.098  -5.154  -1.941  0.00  0.00    -0.057 A 
ATOM      3  C3  UNL d   1      -1.314  -4.130  -2.485  0.00  0.00     0.033 A 
ATOM      4  C4  UNL d   1      -1.358  -2.850  -1.942  0.00  0.00    -0.042 A 
ATOM      5  C5  UNL d   1      -2.184  -2.597  -0.852  0.00  0.00     0.033 A 
ATOM      6  C6  UNL d   1      -2.959  -3.626  -0.310  0.00  0.00    -0.057 A 
ENDROOT
BRANCH   1   7
ATOM      7  N   UNL d   1      -3.795  -5.881  -0.304  0.00  0.00    -0.732 N 
ATOM      8  C   UNL d   1      -4.814  -5.498   0.649  0.00  0.00     0.284 C 
ATOM      9  H3  UNL d   1      -4.111  -6.547  -1.006  0.00  0.00     0.395 HD
ENDBRANCH   1   7
TORSDOF 1
ENDMDL
