MODEL 1
REMARK minimizedAffinity 2.16261601
REMARK minimizedRMSD -1
REMARK  1 active torsions:
REMARK  status: ('A' for Active; 'I' for Inactive)
REMARK    1  A    between atoms: N_2  and  C1_3 
ROOT
ATOM      1  C1  UNL d   1       0.215   0.562   0.854  0.00  0.00     0.143 A 
ATOM      2  C2  UNL d   1      -0.783  -0.412   0.962  0.00  0.00    -0.057 A 
ATOM      3  C3  UNL d   1      -2.114  -0.063   1.221  0.00  0.00     0.033 A 
ATOM      4  C4  UNL d   1      -2.466   1.270   1.407  0.00  0.00    -0.042 A 
ATOM      5  C5  UNL d   1      -1.486   2.253   1.329  0.00  0.00     0.033 A 
ATOM      6  C6  UNL d   1      -0.160   1.899   1.063  0.00  0.00    -0.057 A 
ENDROOT
BRANCH   1   7
ATOM      7  N   UNL d   1       1.572   0.272   0.696  0.00  0.00    -0.732 N 
ATOM      8  C   UNL d   1       2.135   0.076  -0.622  0.00  0.00     0.284 C 
ATOM      9  H3  UNL d   1       2.161   0.814   1.324  0.00  0.00     0.395 HD
ENDBRANCH   1   7
TORSDOF 1
ENDMDL
