MODEL 1
REMARK minimizedAffinity -5.9069376
REMARK minimizedRMSD -1
REMARK  0 active torsions:
REMARK  status: ('A' for Active; 'I' for Inactive)
ROOT
ATOM      1  O1  BZF d   1       0.746  -0.642   0.245  0.00  0.00    -0.204 OA
ATOM      2  C2  BZF d   1       0.794   0.694  -0.101  0.00  0.00     0.174 A 
ATOM      3  C3  BZF d   1      -0.413   1.274   0.058  0.00  0.00    -0.012 A 
ATOM      4  C3A BZF d   1      -1.247   0.257   0.621  0.00  0.00    -0.107 A 
ATOM      5  C4  BZF d   1      -2.553   0.228   1.019  0.00  0.00     0.055 A 
ATOM      6  C5  BZF d   1      -3.084  -0.943   1.459  0.00  0.00    -0.016 A 
ATOM      7  C6  BZF d   1      -2.340  -2.104   1.509  0.00  0.00     0.022 A 
ATOM      8  C7  BZF d   1      -1.039  -2.123   1.129  0.00  0.00     0.029 A 
ATOM      9  C7A BZF d   1      -0.491  -0.934   0.715  0.00  0.00     0.058 A 
ENDROOT
TORSDOF 0
ENDMDL
