MODEL 1
REMARK minimizedAffinity -4.33438301
REMARK minimizedRMSD -1
REMARK  0 active torsions:
REMARK  status: ('A' for Active; 'I' for Inactive)
ROOT
ATOM      1  O1  BZF d   1      -0.356   2.097   0.265  0.00  0.00    -0.204 OA
ATOM      2  C2  BZF d   1      -1.690   2.169   0.618  0.00  0.00     0.174 A 
ATOM      3  C3  BZF d   1      -2.200   0.936   0.812  0.00  0.00    -0.012 A 
ATOM      4  C3A BZF d   1      -1.095   0.041   0.654  0.00  0.00    -0.107 A 
ATOM      5  C4  BZF d   1      -0.964  -1.315   0.743  0.00  0.00     0.055 A 
ATOM      6  C5  BZF d   1       0.237  -1.883   0.461  0.00  0.00    -0.016 A 
ATOM      7  C6  BZF d   1       1.327  -1.126   0.082  0.00  0.00     0.022 A 
ATOM      8  C7  BZF d   1       1.248   0.223  -0.015  0.00  0.00     0.029 A 
ATOM      9  C7A BZF d   1       0.044   0.803   0.302  0.00  0.00     0.058 A 
ENDROOT
TORSDOF 0
ENDMDL
