MODEL 1
REMARK minimizedAffinity -5.65343571
REMARK minimizedRMSD -1
REMARK  0 active torsions:
REMARK  status: ('A' for Active; 'I' for Inactive)
ROOT
ATOM      1  O1  BZF d   1      -0.507   0.799   0.523  0.00  0.00    -0.204 OA
ATOM      2  C2  BZF d   1       0.536   0.145  -0.104  0.00  0.00     0.174 A 
ATOM      3  C3  BZF d   1       0.349  -1.191  -0.076  0.00  0.00    -0.012 A 
ATOM      4  C3A BZF d   1      -0.933  -1.379   0.529  0.00  0.00    -0.107 A 
ATOM      5  C4  BZF d   1      -1.682  -2.483   0.820  0.00  0.00     0.055 A 
ATOM      6  C5  BZF d   1      -2.860  -2.329   1.480  0.00  0.00    -0.016 A 
ATOM      7  C6  BZF d   1      -3.316  -1.086   1.868  0.00  0.00     0.022 A 
ATOM      8  C7  BZF d   1      -2.612   0.039   1.597  0.00  0.00     0.029 A 
ATOM      9  C7A BZF d   1      -1.437  -0.111   0.902  0.00  0.00     0.058 A 
ENDROOT
TORSDOF 0
ENDMDL
