MODEL 1
REMARK minimizedAffinity -0.646144032
REMARK minimizedRMSD -1
REMARK  0 active torsions:
REMARK  status: ('A' for Active; 'I' for Inactive)
ROOT
ATOM      1  O1  BZF d   1      -1.674  -1.329   1.211  0.00  0.00    -0.204 OA
ATOM      2  C2  BZF d   1      -0.655  -2.164   0.794  0.00  0.00     0.174 A 
ATOM      3  C3  BZF d   1       0.340  -1.455   0.222  0.00  0.00    -0.012 A 
ATOM      4  C3A BZF d   1      -0.041  -0.084   0.370  0.00  0.00    -0.107 A 
ATOM      5  C4  BZF d   1       0.546   1.097   0.016  0.00  0.00     0.055 A 
ATOM      6  C5  BZF d   1      -0.123   2.259   0.237  0.00  0.00    -0.016 A 
ATOM      7  C6  BZF d   1      -1.380   2.277   0.805  0.00  0.00     0.022 A 
ATOM      8  C7  BZF d   1      -2.001   1.131   1.177  0.00  0.00     0.029 A 
ATOM      9  C7A BZF d   1      -1.314  -0.043   0.984  0.00  0.00     0.058 A 
ENDROOT
TORSDOF 0
ENDMDL
