MODEL 1
REMARK minimizedAffinity 0.318884313
REMARK minimizedRMSD -1
REMARK  0 active torsions:
REMARK  status: ('A' for Active; 'I' for Inactive)
ROOT
ATOM      1  O1  BZF d   1      -1.173   1.905  -0.806  0.00  0.00    -0.204 OA
ATOM      2  C2  BZF d   1      -0.422   1.302   0.184  0.00  0.00     0.174 A 
ATOM      3  C3  BZF d   1       0.864   1.177  -0.201  0.00  0.00    -0.012 A 
ATOM      4  C3A BZF d   1       0.940   1.821  -1.476  0.00  0.00    -0.107 A 
ATOM      5  C4  BZF d   1       1.959   2.040  -2.359  0.00  0.00     0.055 A 
ATOM      6  C5  BZF d   1       1.686   2.636  -3.549  0.00  0.00    -0.016 A 
ATOM      7  C6  BZF d   1       0.406   3.021  -3.891  0.00  0.00     0.022 A 
ATOM      8  C7  BZF d   1      -0.637   2.829  -3.046  0.00  0.00     0.029 A 
ATOM      9  C7A BZF d   1      -0.358   2.257  -1.829  0.00  0.00     0.058 A 
ENDROOT
TORSDOF 0
ENDMDL
