MODEL 1
REMARK minimizedAffinity -4.8796711
REMARK minimizedRMSD -1
REMARK  0 active torsions:
REMARK  status: ('A' for Active; 'I' for Inactive)
ROOT
ATOM      1  O1  BZF d   1       0.922  -0.214  -0.561  0.00  0.00    -0.204 OA
ATOM      2  C2  BZF d   1       0.453   1.085  -0.610  0.00  0.00     0.174 A 
ATOM      3  C3  BZF d   1      -0.747   1.184  -0.003  0.00  0.00    -0.012 A 
ATOM      4  C3A BZF d   1      -1.005  -0.117   0.535  0.00  0.00    -0.107 A 
ATOM      5  C4  BZF d   1      -2.033  -0.645   1.261  0.00  0.00     0.055 A 
ATOM      6  C5  BZF d   1      -2.015  -1.969   1.566  0.00  0.00    -0.016 A 
ATOM      7  C6  BZF d   1      -0.988  -2.794   1.156  0.00  0.00     0.022 A 
ATOM      8  C7  BZF d   1       0.057  -2.315   0.438  0.00  0.00     0.029 A 
ATOM      9  C7A BZF d   1       0.057  -0.970   0.157  0.00  0.00     0.058 A 
ENDROOT
TORSDOF 0
ENDMDL
