MODEL 1
REMARK minimizedAffinity -2.65229058
REMARK minimizedRMSD -1
REMARK  0 active torsions:
REMARK  status: ('A' for Active; 'I' for Inactive)
ROOT
ATOM      1  O1  BZF d   1      -0.456  -3.067   0.913  0.00  0.00    -0.204 OA
ATOM      2  C2  BZF d   1      -1.782  -2.894   1.263  0.00  0.00     0.174 A 
ATOM      3  C3  BZF d   1      -2.173  -1.623   1.041  0.00  0.00    -0.012 A 
ATOM      4  C3A BZF d   1      -1.047  -0.983   0.434  0.00  0.00    -0.107 A 
ATOM      5  C4  BZF d   1      -0.824   0.282  -0.031  0.00  0.00     0.055 A 
ATOM      6  C5  BZF d   1       0.410   0.605  -0.499  0.00  0.00    -0.016 A 
ATOM      7  C6  BZF d   1       1.445  -0.308  -0.511  0.00  0.00     0.022 A 
ATOM      8  C7  BZF d   1       1.270  -1.575  -0.064  0.00  0.00     0.029 A 
ATOM      9  C7A BZF d   1       0.015  -1.915   0.379  0.00  0.00     0.058 A 
ENDROOT
TORSDOF 0
ENDMDL
