MODEL 1
REMARK minimizedAffinity 1.03736198
REMARK minimizedRMSD -1
REMARK  0 active torsions:
REMARK  status: ('A' for Active; 'I' for Inactive)
ROOT
ATOM      1  O1  BZF d   1      -0.404  -2.966   1.509  0.00  0.00    -0.204 OA
ATOM      2  C2  BZF d   1      -1.706  -3.425   1.556  0.00  0.00     0.174 A 
ATOM      3  C3  BZF d   1      -2.540  -2.560   0.943  0.00  0.00    -0.012 A 
ATOM      4  C3A BZF d   1      -1.694  -1.539   0.405  0.00  0.00    -0.107 A 
ATOM      5  C4  BZF d   1      -1.934  -0.410  -0.326  0.00  0.00     0.055 A 
ATOM      6  C5  BZF d   1      -0.895   0.412  -0.630  0.00  0.00    -0.016 A 
ATOM      7  C6  BZF d   1       0.392   0.140  -0.216  0.00  0.00     0.022 A 
ATOM      8  C7  BZF d   1       0.679  -0.970   0.507  0.00  0.00     0.029 A 
ATOM      9  C7A BZF d   1      -0.362  -1.820   0.788  0.00  0.00     0.058 A 
ENDROOT
TORSDOF 0
ENDMDL
