MODEL 1
REMARK minimizedAffinity -5.0595336
REMARK minimizedRMSD -1
REMARK  0 active torsions:
REMARK  status: ('A' for Active; 'I' for Inactive)
ROOT
ATOM      1  O1  BZF d   1       0.468   0.721   0.376  0.00  0.00    -0.204 OA
ATOM      2  C2  BZF d   1      -0.331  -0.379   0.626  0.00  0.00     0.174 A 
ATOM      3  C3  BZF d   1      -0.835  -0.875  -0.523  0.00  0.00    -0.012 A 
ATOM      4  C3A BZF d   1      -0.245  -0.089  -1.563  0.00  0.00    -0.107 A 
ATOM      5  C4  BZF d   1      -0.342  -0.109  -2.925  0.00  0.00     0.055 A 
ATOM      6  C5  BZF d   1       0.306   0.842  -3.648  0.00  0.00    -0.016 A 
ATOM      7  C6  BZF d   1       1.054   1.829  -3.042  0.00  0.00     0.022 A 
ATOM      8  C7  BZF d   1       1.185   1.888  -1.694  0.00  0.00     0.029 A 
ATOM      9  C7A BZF d   1       0.558   0.909  -0.963  0.00  0.00     0.058 A 
ENDROOT
TORSDOF 0
ENDMDL
