MODEL 1
REMARK minimizedAffinity -4.4211998
REMARK minimizedRMSD -1
REMARK  0 active torsions:
REMARK  status: ('A' for Active; 'I' for Inactive)
ROOT
ATOM      1  O1  BZF d   1      -0.135   2.292  -0.990  0.00  0.00    -0.204 OA
ATOM      2  C2  BZF d   1       0.807   2.252  -2.000  0.00  0.00     0.174 A 
ATOM      3  C3  BZF d   1       1.330   1.014  -2.118  0.00  0.00    -0.012 A 
ATOM      4  C3A BZF d   1       0.608   0.210  -1.180  0.00  0.00    -0.107 A 
ATOM      5  C4  BZF d   1       0.659  -1.112  -0.843  0.00  0.00     0.055 A 
ATOM      6  C5  BZF d   1      -0.131  -1.568   0.165  0.00  0.00    -0.016 A 
ATOM      7  C6  BZF d   1      -0.980  -0.729   0.858  0.00  0.00     0.022 A 
ATOM      8  C7  BZF d   1      -1.069   0.589   0.555  0.00  0.00     0.029 A 
ATOM      9  C7A BZF d   1      -0.296   1.045  -0.484  0.00  0.00     0.058 A 
ENDROOT
TORSDOF 0
ENDMDL
