MODEL 1
REMARK minimizedAffinity -4.49347734
REMARK minimizedRMSD -1
REMARK  0 active torsions:
REMARK  status: ('A' for Active; 'I' for Inactive)
ROOT
ATOM      1  O1  BZF d   1      -2.307  -1.831   1.126  0.00  0.00    -0.204 OA
ATOM      2  C2  BZF d   1      -1.727  -3.060   1.372  0.00  0.00     0.174 A 
ATOM      3  C3  BZF d   1      -0.469  -3.101   0.887  0.00  0.00    -0.012 A 
ATOM      4  C3A BZF d   1      -0.217  -1.786   0.384  0.00  0.00    -0.107 A 
ATOM      5  C4  BZF d   1       0.865  -1.198  -0.207  0.00  0.00     0.055 A 
ATOM      6  C5  BZF d   1       0.762   0.083  -0.648  0.00  0.00    -0.016 A 
ATOM      7  C6  BZF d   1      -0.408   0.803  -0.519  0.00  0.00     0.022 A 
ATOM      8  C7  BZF d   1      -1.506   0.265   0.065  0.00  0.00     0.029 A 
ATOM      9  C7A BZF d   1      -1.394  -1.019   0.541  0.00  0.00     0.058 A 
ENDROOT
TORSDOF 0
ENDMDL
