MODEL 1
REMARK minimizedAffinity -2.5383811
REMARK minimizedRMSD -1
REMARK  0 active torsions:
REMARK  status: ('A' for Active; 'I' for Inactive)
ROOT
ATOM      1  O1  BZF d   1       1.191  -0.478   0.861  0.00  0.00    -0.204 OA
ATOM      2  C2  BZF d   1       0.929   0.761   0.307  0.00  0.00     0.174 A 
ATOM      3  C3  BZF d   1      -0.369   0.862  -0.046  0.00  0.00    -0.012 A 
ATOM      4  C3A BZF d   1      -0.975  -0.357   0.393  0.00  0.00    -0.107 A 
ATOM      5  C4  BZF d   1      -2.250  -0.844   0.342  0.00  0.00     0.055 A 
ATOM      6  C5  BZF d   1      -2.496  -2.101   0.795  0.00  0.00    -0.016 A 
ATOM      7  C6  BZF d   1      -1.491  -2.901   1.299  0.00  0.00     0.022 A 
ATOM      8  C7  BZF d   1      -0.212  -2.460   1.375  0.00  0.00     0.029 A 
ATOM      9  C7A BZF d   1       0.034  -1.178   0.949  0.00  0.00     0.058 A 
ENDROOT
TORSDOF 0
ENDMDL
