MODEL 1
REMARK minimizedAffinity -5.23524523
REMARK minimizedRMSD -1
REMARK  0 active torsions:
REMARK  status: ('A' for Active; 'I' for Inactive)
ROOT
ATOM      1  O1  BZF d   1       0.008   1.674   0.719  0.00  0.00    -0.204 OA
ATOM      2  C2  BZF d   1      -1.279   1.989   1.109  0.00  0.00     0.174 A 
ATOM      3  C3  BZF d   1      -2.034   0.876   1.211  0.00  0.00    -0.012 A 
ATOM      4  C3A BZF d   1      -1.139  -0.210   0.952  0.00  0.00    -0.107 A 
ATOM      5  C4  BZF d   1      -1.293  -1.567   0.923  0.00  0.00     0.055 A 
ATOM      6  C5  BZF d   1      -0.237  -2.344   0.565  0.00  0.00    -0.016 A 
ATOM      7  C6  BZF d   1       0.983  -1.798   0.224  0.00  0.00     0.022 A 
ATOM      8  C7  BZF d   1       1.186  -0.458   0.243  0.00  0.00     0.029 A 
ATOM      9  C7A BZF d   1       0.130   0.328   0.637  0.00  0.00     0.058 A 
ENDROOT
TORSDOF 0
ENDMDL
