MODEL 1
REMARK minimizedAffinity -6.24844408
REMARK minimizedRMSD -1
REMARK  0 active torsions:
REMARK  status: ('A' for Active; 'I' for Inactive)
ROOT
ATOM      1  O1  BZF d   1      -1.069   1.065   0.364  0.00  0.00    -0.204 OA
ATOM      2  C2  BZF d   1       0.080   1.684  -0.089  0.00  0.00     0.174 A 
ATOM      3  C3  BZF d   1       1.091   0.798  -0.196  0.00  0.00    -0.012 A 
ATOM      4  C3A BZF d   1       0.515  -0.471   0.129  0.00  0.00    -0.107 A 
ATOM      5  C4  BZF d   1       1.012  -1.741   0.185  0.00  0.00     0.055 A 
ATOM      6  C5  BZF d   1       0.205  -2.749   0.608  0.00  0.00    -0.016 A 
ATOM      7  C6  BZF d   1      -1.102  -2.522   0.987  0.00  0.00     0.022 A 
ATOM      8  C7  BZF d   1      -1.642  -1.279   0.943  0.00  0.00     0.029 A 
ATOM      9  C7A BZF d   1      -0.838  -0.264   0.485  0.00  0.00     0.058 A 
ENDROOT
TORSDOF 0
ENDMDL
