MODEL 1
REMARK minimizedAffinity -1.02815378
REMARK minimizedRMSD -1
REMARK  0 active torsions:
REMARK  status: ('A' for Active; 'I' for Inactive)
ROOT
ATOM      1  O1  BZF d   1      -1.295   0.422   1.195  0.00  0.00    -0.204 OA
ATOM      2  C2  BZF d   1      -0.672   1.437   0.496  0.00  0.00     0.174 A 
ATOM      3  C3  BZF d   1       0.464   0.993  -0.081  0.00  0.00    -0.012 A 
ATOM      4  C3A BZF d   1       0.507  -0.409   0.204  0.00  0.00    -0.107 A 
ATOM      5  C4  BZF d   1       1.385  -1.405  -0.115  0.00  0.00     0.055 A 
ATOM      6  C5  BZF d   1       1.177  -2.653   0.380  0.00  0.00    -0.016 A 
ATOM      7  C6  BZF d   1       0.105  -2.938   1.201  0.00  0.00     0.022 A 
ATOM      8  C7  BZF d   1      -0.795  -1.984   1.541  0.00  0.00     0.029 A 
ATOM      9  C7A BZF d   1      -0.606  -0.730   1.015  0.00  0.00     0.058 A 
ENDROOT
TORSDOF 0
ENDMDL
