MODEL 1
REMARK minimizedAffinity -1.27773118
REMARK minimizedRMSD -1
REMARK  0 active torsions:
REMARK  status: ('A' for Active; 'I' for Inactive)
ROOT
ATOM      1  C1  DEN d   1       1.111   5.154   2.584  0.00  0.00     0.130 A 
ATOM      2  C2  DEN d   1      -0.280   5.319   2.173  0.00  0.00    -0.031 A 
ATOM      3  C3  DEN d   1      -0.459   4.627   0.880  0.00  0.00     0.027 A 
ATOM      4  C4  DEN d   1       1.274   3.321  -0.514  0.00  0.00     0.027 A 
ATOM      5  C5  DEN d   1       2.589   2.918  -0.579  0.00  0.00    -0.003 A 
ATOM      6  C6  DEN d   1       3.505   3.258   0.382  0.00  0.00     0.001 A 
ATOM      7  C7  DEN d   1       3.107   3.986   1.472  0.00  0.00     0.017 A 
ATOM      8  C8  DEN d   1       1.784   4.402   1.540  0.00  0.00    -0.094 A 
ATOM      9  C9  DEN d   1       0.870   4.038   0.565  0.00  0.00    -0.072 A 
ENDROOT
TORSDOF 0
ENDMDL
