MODEL 1
REMARK minimizedAffinity -2.68501782
REMARK minimizedRMSD -1
REMARK  0 active torsions:
REMARK  status: ('A' for Active; 'I' for Inactive)
ROOT
ATOM      1  C1  DEN d   1      -0.250   0.410  -1.405  0.00  0.00     0.130 A 
ATOM      2  C2  DEN d   1       0.438  -0.093  -2.591  0.00  0.00    -0.031 A 
ATOM      3  C3  DEN d   1       0.804  -1.502  -2.343  0.00  0.00     0.027 A 
ATOM      4  C4  DEN d   1       0.370  -2.947  -0.251  0.00  0.00     0.027 A 
ATOM      5  C5  DEN d   1      -0.169  -2.954   1.016  0.00  0.00    -0.003 A 
ATOM      6  C6  DEN d   1      -0.739  -1.840   1.574  0.00  0.00     0.001 A 
ATOM      7  C7  DEN d   1      -0.822  -0.683   0.845  0.00  0.00     0.017 A 
ATOM      8  C8  DEN d   1      -0.274  -0.666  -0.431  0.00  0.00    -0.094 A 
ATOM      9  C9  DEN d   1       0.287  -1.807  -0.982  0.00  0.00    -0.072 A 
ENDROOT
TORSDOF 0
ENDMDL
