MODEL 1
REMARK minimizedAffinity -4.84591198
REMARK minimizedRMSD -1
REMARK  0 active torsions:
REMARK  status: ('A' for Active; 'I' for Inactive)
ROOT
ATOM      1  C1  DEN d   1      -0.216   0.568  -0.384  0.00  0.00     0.130 A 
ATOM      2  C2  DEN d   1      -1.364   0.891   0.458  0.00  0.00    -0.031 A 
ATOM      3  C3  DEN d   1      -1.773  -0.339   1.164  0.00  0.00     0.027 A 
ATOM      4  C4  DEN d   1      -0.744  -2.701   1.039  0.00  0.00     0.027 A 
ATOM      5  C5  DEN d   1       0.238  -3.468   0.451  0.00  0.00    -0.003 A 
ATOM      6  C6  DEN d   1       1.108  -2.956  -0.474  0.00  0.00     0.001 A 
ATOM      7  C7  DEN d   1       1.043  -1.628  -0.805  0.00  0.00     0.017 A 
ATOM      8  C8  DEN d   1       0.051  -0.850  -0.223  0.00  0.00    -0.094 A 
ATOM      9  C9  DEN d   1      -0.812  -1.383   0.720  0.00  0.00    -0.072 A 
ENDROOT
TORSDOF 0
ENDMDL
