MODEL 1
REMARK minimizedAffinity -2.48196483
REMARK minimizedRMSD -1
REMARK  0 active torsions:
REMARK  status: ('A' for Active; 'I' for Inactive)
ROOT
ATOM      1  C1  DEN d   1      -0.093  -0.698   0.855  0.00  0.00     0.130 A 
ATOM      2  C2  DEN d   1       0.230  -0.210  -0.483  0.00  0.00    -0.031 A 
ATOM      3  C3  DEN d   1      -0.755   0.831  -0.839  0.00  0.00     0.027 A 
ATOM      4  C4  DEN d   1      -2.737   1.731   0.544  0.00  0.00     0.027 A 
ATOM      5  C5  DEN d   1      -3.419   1.615   1.735  0.00  0.00    -0.003 A 
ATOM      6  C6  DEN d   1      -3.064   0.704   2.694  0.00  0.00     0.001 A 
ATOM      7  C7  DEN d   1      -1.970  -0.097   2.498  0.00  0.00     0.017 A 
ATOM      8  C8  DEN d   1      -1.282   0.009   1.297  0.00  0.00    -0.094 A 
ATOM      9  C9  DEN d   1      -1.649   0.945   0.345  0.00  0.00    -0.072 A 
ENDROOT
TORSDOF 0
ENDMDL
