MODEL 1
REMARK minimizedAffinity -1.79740238
REMARK minimizedRMSD -1
REMARK  0 active torsions:
REMARK  status: ('A' for Active; 'I' for Inactive)
ROOT
ATOM      1  C1  DEN d   1       0.157  -1.289  -2.412  0.00  0.00     0.130 A 
ATOM      2  C2  DEN d   1       0.338   0.160  -2.438  0.00  0.00    -0.031 A 
ATOM      3  C3  DEN d   1       0.002   0.686  -1.099  0.00  0.00     0.027 A 
ATOM      4  C4  DEN d   1      -0.773  -0.595   1.000  0.00  0.00     0.027 A 
ATOM      5  C5  DEN d   1      -1.084  -1.838   1.506  0.00  0.00    -0.003 A 
ATOM      6  C6  DEN d   1      -1.036  -2.972   0.738  0.00  0.00     0.001 A 
ATOM      7  C7  DEN d   1      -0.626  -2.891  -0.567  0.00  0.00     0.017 A 
ATOM      8  C8  DEN d   1      -0.318  -1.640  -1.085  0.00  0.00    -0.094 A 
ATOM      9  C9  DEN d   1      -0.360  -0.508  -0.289  0.00  0.00    -0.072 A 
ENDROOT
TORSDOF 0
ENDMDL
