MODEL 1
REMARK minimizedAffinity -3.48817611
REMARK minimizedRMSD -1
REMARK  0 active torsions:
REMARK  status: ('A' for Active; 'I' for Inactive)
ROOT
ATOM      1  C1  DEN d   1      -3.766   1.366   1.502  0.00  0.00     0.130 A 
ATOM      2  C2  DEN d   1      -3.821   2.737   1.002  0.00  0.00    -0.031 A 
ATOM      3  C3  DEN d   1      -2.601   2.982   0.206  0.00  0.00     0.027 A 
ATOM      4  C4  DEN d   1      -0.647   1.378  -0.303  0.00  0.00     0.027 A 
ATOM      5  C5  DEN d   1      -0.147   0.113  -0.087  0.00  0.00    -0.003 A 
ATOM      6  C6  DEN d   1      -0.797  -0.805   0.695  0.00  0.00     0.001 A 
ATOM      7  C7  DEN d   1      -2.007  -0.486   1.253  0.00  0.00     0.017 A 
ATOM      8  C8  DEN d   1      -2.513   0.791   1.046  0.00  0.00    -0.094 A 
ATOM      9  C9  DEN d   1      -1.847   1.700   0.242  0.00  0.00    -0.072 A 
ENDROOT
TORSDOF 0
ENDMDL
