MODEL 1
REMARK minimizedAffinity -1.02703202
REMARK minimizedRMSD -1
REMARK  0 active torsions:
REMARK  status: ('A' for Active; 'I' for Inactive)
ROOT
ATOM      1  C1  DEN d   1       0.842   0.445  -0.400  0.00  0.00     0.130 A 
ATOM      2  C2  DEN d   1      -0.606   0.267  -0.347  0.00  0.00    -0.031 A 
ATOM      3  C3  DEN d   1      -1.199   1.506   0.193  0.00  0.00     0.027 A 
ATOM      4  C4  DEN d   1      -0.022   3.675   0.945  0.00  0.00     0.027 A 
ATOM      5  C5  DEN d   1       1.199   4.294   1.097  0.00  0.00    -0.003 A 
ATOM      6  C6  DEN d   1       2.379   3.667   0.796  0.00  0.00     0.001 A 
ATOM      7  C7  DEN d   1       2.361   2.397   0.283  0.00  0.00     0.017 A 
ATOM      8  C8  DEN d   1       1.134   1.763   0.133  0.00  0.00    -0.094 A 
ATOM      9  C9  DEN d   1      -0.048   2.418   0.432  0.00  0.00    -0.072 A 
ENDROOT
TORSDOF 0
ENDMDL
