MODEL 1
REMARK minimizedAffinity -3.19639945
REMARK minimizedRMSD -1
REMARK  0 active torsions:
REMARK  status: ('A' for Active; 'I' for Inactive)
ROOT
ATOM      1  C1  DEN d   1      -3.215   1.776   0.133  0.00  0.00     0.130 A 
ATOM      2  C2  DEN d   1      -4.017   1.645   1.346  0.00  0.00    -0.031 A 
ATOM      3  C3  DEN d   1      -3.440   0.556   2.159  0.00  0.00     0.027 A 
ATOM      4  C4  DEN d   1      -1.390  -0.928   1.663  0.00  0.00     0.027 A 
ATOM      5  C5  DEN d   1      -0.394  -1.198   0.750  0.00  0.00    -0.003 A 
ATOM      6  C6  DEN d   1      -0.290  -0.525  -0.438  0.00  0.00     0.001 A 
ATOM      7  C7  DEN d   1      -1.171   0.484  -0.725  0.00  0.00     0.017 A 
ATOM      8  C8  DEN d   1      -2.182   0.758   0.187  0.00  0.00    -0.094 A 
ATOM      9  C9  DEN d   1      -2.263   0.073   1.388  0.00  0.00    -0.072 A 
ENDROOT
TORSDOF 0
ENDMDL
