MODEL 1
REMARK minimizedAffinity -5.33899069
REMARK minimizedRMSD -1
REMARK  0 active torsions:
REMARK  status: ('A' for Active; 'I' for Inactive)
ROOT
ATOM      1  C1  DEN d   1      -1.830  -2.664  -1.912  0.00  0.00     0.130 A 
ATOM      2  C2  DEN d   1      -1.260  -3.964  -2.256  0.00  0.00    -0.031 A 
ATOM      3  C3  DEN d   1       0.211  -3.848  -2.193  0.00  0.00     0.027 A 
ATOM      4  C4  DEN d   1       1.653  -1.794  -1.595  0.00  0.00     0.027 A 
ATOM      5  C5  DEN d   1       1.619  -0.463  -1.242  0.00  0.00    -0.003 A 
ATOM      6  C6  DEN d   1       0.444   0.231  -1.122  0.00  0.00     0.001 A 
ATOM      7  C7  DEN d   1      -0.749  -0.416  -1.312  0.00  0.00     0.017 A 
ATOM      8  C8  DEN d   1      -0.722  -1.756  -1.676  0.00  0.00    -0.094 A 
ATOM      9  C9  DEN d   1       0.475  -2.443  -1.780  0.00  0.00    -0.072 A 
ENDROOT
TORSDOF 0
ENDMDL
