MODEL 1
REMARK minimizedAffinity 10.374856
REMARK minimizedRMSD -1
REMARK  0 active torsions:
REMARK  status: ('A' for Active; 'I' for Inactive)
ROOT
ATOM      1  C1  DEN d   1      -0.178  -3.962  -3.000  0.00  0.00     0.130 A 
ATOM      2  C2  DEN d   1      -0.073  -2.727  -2.227  0.00  0.00    -0.031 A 
ATOM      3  C3  DEN d   1      -1.416  -2.395  -1.712  0.00  0.00     0.027 A 
ATOM      4  C4  DEN d   1      -3.637  -3.668  -2.030  0.00  0.00     0.027 A 
ATOM      5  C5  DEN d   1      -4.228  -4.764  -2.619  0.00  0.00    -0.003 A 
ATOM      6  C6  DEN d   1      -3.523  -5.644  -3.397  0.00  0.00     0.001 A 
ATOM      7  C7  DEN d   1      -2.176  -5.468  -3.571  0.00  0.00     0.017 A 
ATOM      8  C8  DEN d   1      -1.574  -4.360  -2.987  0.00  0.00    -0.094 A 
ATOM      9  C9  DEN d   1      -2.301  -3.489  -2.194  0.00  0.00    -0.072 A 
ENDROOT
TORSDOF 0
ENDMDL
