MODEL 1
REMARK minimizedAffinity 3.75405288
REMARK minimizedRMSD -1
REMARK  0 active torsions:
REMARK  status: ('A' for Active; 'I' for Inactive)
ROOT
ATOM      1  C1  DEN d   1      -1.036   4.356   2.892  0.00  0.00     0.130 A 
ATOM      2  C2  DEN d   1       0.339   4.295   3.381  0.00  0.00    -0.031 A 
ATOM      3  C3  DEN d   1       0.979   3.100   2.796  0.00  0.00     0.027 A 
ATOM      4  C4  DEN d   1      -0.019   1.350   1.185  0.00  0.00     0.027 A 
ATOM      5  C5  DEN d   1      -1.152   0.974   0.499  0.00  0.00    -0.003 A 
ATOM      6  C6  DEN d   1      -2.326   1.673   0.588  0.00  0.00     0.001 A 
ATOM      7  C7  DEN d   1      -2.381   2.813   1.346  0.00  0.00     0.017 A 
ATOM      8  C8  DEN d   1      -1.245   3.195   2.047  0.00  0.00    -0.094 A 
ATOM      9  C9  DEN d   1      -0.064   2.481   1.934  0.00  0.00    -0.072 A 
ENDROOT
TORSDOF 0
ENDMDL
