MODEL 1
REMARK minimizedAffinity 9.16989136
REMARK minimizedRMSD -1
REMARK  0 active torsions:
REMARK  status: ('A' for Active; 'I' for Inactive)
ROOT
ATOM      1  C1  DEN d   1      -3.455  -2.403  -0.442  0.00  0.00     0.130 A 
ATOM      2  C2  DEN d   1      -4.614  -3.291  -0.443  0.00  0.00    -0.031 A 
ATOM      3  C3  DEN d   1      -4.289  -4.465  -1.278  0.00  0.00     0.027 A 
ATOM      4  C4  DEN d   1      -2.114  -4.993  -2.558  0.00  0.00     0.027 A 
ATOM      5  C5  DEN d   1      -0.853  -4.532  -2.867  0.00  0.00    -0.003 A 
ATOM      6  C6  DEN d   1      -0.387  -3.324  -2.421  0.00  0.00     0.001 A 
ATOM      7  C7  DEN d   1      -1.172  -2.554  -1.603  0.00  0.00     0.017 A 
ATOM      8  C8  DEN d   1      -2.447  -3.009  -1.293  0.00  0.00    -0.094 A 
ATOM      9  C9  DEN d   1      -2.895  -4.239  -1.744  0.00  0.00    -0.072 A 
ENDROOT
TORSDOF 0
ENDMDL
