MODEL 1
REMARK minimizedAffinity 5.48512793
REMARK minimizedRMSD -1
REMARK  0 active torsions:
REMARK  status: ('A' for Active; 'I' for Inactive)
ROOT
ATOM      1  C1  DEN d   1      -1.734  -3.342  -2.286  0.00  0.00     0.130 A 
ATOM      2  C2  DEN d   1      -1.797  -4.478  -1.370  0.00  0.00    -0.031 A 
ATOM      3  C3  DEN d   1      -1.671  -5.715  -2.167  0.00  0.00     0.027 A 
ATOM      4  C4  DEN d   1      -1.381  -5.980  -4.716  0.00  0.00     0.027 A 
ATOM      5  C5  DEN d   1      -1.284  -5.303  -5.911  0.00  0.00    -0.003 A 
ATOM      6  C6  DEN d   1      -1.364  -3.937  -5.985  0.00  0.00     0.001 A 
ATOM      7  C7  DEN d   1      -1.500  -3.202  -4.837  0.00  0.00     0.017 A 
ATOM      8  C8  DEN d   1      -1.606  -3.879  -3.629  0.00  0.00    -0.094 A 
ATOM      9  C9  DEN d   1      -1.511  -5.259  -3.574  0.00  0.00    -0.072 A 
ENDROOT
TORSDOF 0
ENDMDL
