MODEL 1
REMARK minimizedAffinity -1.95090258
REMARK minimizedRMSD -1
REMARK  0 active torsions:
REMARK  status: ('A' for Active; 'I' for Inactive)
ROOT
ATOM      1  C1  DEN d   1       0.988  -3.119  -0.019  0.00  0.00     0.130 A 
ATOM      2  C2  DEN d   1       0.763  -2.948   1.414  0.00  0.00    -0.031 A 
ATOM      3  C3  DEN d   1       0.265  -1.575   1.637  0.00  0.00     0.027 A 
ATOM      4  C4  DEN d   1      -0.182   0.289  -0.088  0.00  0.00     0.027 A 
ATOM      5  C5  DEN d   1      -0.129   0.618  -1.424  0.00  0.00    -0.003 A 
ATOM      6  C6  DEN d   1       0.329  -0.256  -2.374  0.00  0.00     0.001 A 
ATOM      7  C7  DEN d   1       0.709  -1.520  -2.006  0.00  0.00     0.017 A 
ATOM      8  C8  DEN d   1       0.665  -1.857  -0.659  0.00  0.00    -0.094 A 
ATOM      9  C9  DEN d   1       0.188  -0.962   0.284  0.00  0.00    -0.072 A 
ENDROOT
TORSDOF 0
ENDMDL
