MODEL 1
REMARK minimizedAffinity 1.43877876
REMARK minimizedRMSD -1
REMARK  0 active torsions:
REMARK  status: ('A' for Active; 'I' for Inactive)
ROOT
ATOM      1  C   UNL d   1       4.359  -5.866  -1.879  0.00  0.00     0.078 C 
ATOM      2  C1  UNL d   1       3.939  -5.906  -3.317  0.00  0.00    -0.077 A 
ATOM      3  C2  UNL d   1       4.887  -5.867  -4.347  0.00  0.00    -0.001 A 
ATOM      4  C3  UNL d   1       4.481  -5.896  -5.682  0.00  0.00     0.003 A 
ATOM      5  C4  UNL d   1       3.126  -5.962  -6.000  0.00  0.00    -0.005 A 
ATOM      6  C5  UNL d   1       2.175  -5.999  -4.982  0.00  0.00     0.003 A 
ATOM      7  C6  UNL d   1       2.579  -5.971  -3.646  0.00  0.00    -0.001 A 
ENDROOT
TORSDOF 0
ENDMDL
