MODEL 1
REMARK minimizedAffinity 7.99103928
REMARK minimizedRMSD -1
REMARK  0 active torsions:
REMARK  status: ('A' for Active; 'I' for Inactive)
ROOT
ATOM      1  C   UNL d   1       1.564   0.962   3.158  0.00  0.00     0.078 C 
ATOM      2  C1  UNL d   1       1.969   1.559   1.843  0.00  0.00    -0.077 A 
ATOM      3  C2  UNL d   1       3.194   1.230   1.248  0.00  0.00    -0.001 A 
ATOM      4  C3  UNL d   1       3.562   1.801   0.029  0.00  0.00     0.003 A 
ATOM      5  C4  UNL d   1       2.712   2.705  -0.605  0.00  0.00    -0.005 A 
ATOM      6  C5  UNL d   1       1.493   3.040  -0.020  0.00  0.00     0.003 A 
ATOM      7  C6  UNL d   1       1.123   2.470   1.199  0.00  0.00    -0.001 A 
ENDROOT
TORSDOF 0
ENDMDL
