MODEL 1
REMARK minimizedAffinity 2.48802185
REMARK minimizedRMSD -1
REMARK  0 active torsions:
REMARK  status: ('A' for Active; 'I' for Inactive)
ROOT
ATOM      1  C   UNL d   1       1.599  -5.992   0.377  0.00  0.00     0.078 C 
ATOM      2  C1  UNL d   1       2.527  -5.998  -0.800  0.00  0.00    -0.077 A 
ATOM      3  C2  UNL d   1       3.916  -5.999  -0.623  0.00  0.00    -0.001 A 
ATOM      4  C3  UNL d   1       4.769  -5.994  -1.728  0.00  0.00     0.003 A 
ATOM      5  C4  UNL d   1       4.242  -5.989  -3.018  0.00  0.00    -0.005 A 
ATOM      6  C5  UNL d   1       2.861  -5.986  -3.204  0.00  0.00     0.003 A 
ATOM      7  C6  UNL d   1       2.007  -5.990  -2.100  0.00  0.00    -0.001 A 
ENDROOT
TORSDOF 0
ENDMDL
