MODEL 1
REMARK minimizedAffinity 4.50500631
REMARK minimizedRMSD -1
REMARK  0 active torsions:
REMARK  status: ('A' for Active; 'I' for Inactive)
ROOT
ATOM      1  C   UNL d   1      -4.867   1.840  -3.938  0.00  0.00     0.078 C 
ATOM      2  C1  UNL d   1      -3.901   0.893  -3.292  0.00  0.00    -0.077 A 
ATOM      3  C2  UNL d   1      -3.905  -0.471  -3.611  0.00  0.00    -0.001 A 
ATOM      4  C3  UNL d   1      -3.007  -1.343  -2.995  0.00  0.00     0.003 A 
ATOM      5  C4  UNL d   1      -2.099  -0.862  -2.054  0.00  0.00    -0.005 A 
ATOM      6  C5  UNL d   1      -2.089   0.493  -1.728  0.00  0.00     0.003 A 
ATOM      7  C6  UNL d   1      -2.986   1.366  -2.343  0.00  0.00    -0.001 A 
ENDROOT
TORSDOF 0
ENDMDL
