MODEL 1
REMARK minimizedAffinity 7.0549202
REMARK minimizedRMSD -1
REMARK  0 active torsions:
REMARK  status: ('A' for Active; 'I' for Inactive)
ROOT
ATOM      1  C   UNL d   1       5.038  -5.913  -0.002  0.00  0.00     0.078 C 
ATOM      2  C1  UNL d   1       3.541  -5.924   0.083  0.00  0.00    -0.077 A 
ATOM      3  C2  UNL d   1       2.888  -5.905   1.321  0.00  0.00    -0.001 A 
ATOM      4  C3  UNL d   1       1.494  -5.926   1.385  0.00  0.00     0.003 A 
ATOM      5  C4  UNL d   1       0.740  -5.967   0.213  0.00  0.00    -0.005 A 
ATOM      6  C5  UNL d   1       1.381  -5.989  -1.024  0.00  0.00     0.003 A 
ATOM      7  C6  UNL d   1       2.775  -5.969  -1.089  0.00  0.00    -0.001 A 
ENDROOT
TORSDOF 0
ENDMDL
