MODEL 1
REMARK minimizedAffinity 9.21762085
REMARK minimizedRMSD -1
REMARK  0 active torsions:
REMARK  status: ('A' for Active; 'I' for Inactive)
ROOT
ATOM      1  C   UNL d   1       0.939  -0.408   1.740  0.00  0.00     0.078 C 
ATOM      2  C1  UNL d   1       1.748  -1.183   2.737  0.00  0.00    -0.077 A 
ATOM      3  C2  UNL d   1       2.977  -1.753   2.382  0.00  0.00    -0.001 A 
ATOM      4  C3  UNL d   1       3.714  -2.480   3.317  0.00  0.00     0.003 A 
ATOM      5  C4  UNL d   1       3.231  -2.645   4.614  0.00  0.00    -0.005 A 
ATOM      6  C5  UNL d   1       2.008  -2.083   4.976  0.00  0.00     0.003 A 
ATOM      7  C6  UNL d   1       1.269  -1.355   4.042  0.00  0.00    -0.001 A 
ENDROOT
TORSDOF 0
ENDMDL
