MODEL 1
REMARK minimizedAffinity 1.80914342
REMARK minimizedRMSD -1
REMARK  0 active torsions:
REMARK  status: ('A' for Active; 'I' for Inactive)
ROOT
ATOM      1  C   UNL d   1       4.174  -5.861  -2.329  0.00  0.00     0.078 C 
ATOM      2  C1  UNL d   1       3.279  -5.847  -1.127  0.00  0.00    -0.077 A 
ATOM      3  C2  UNL d   1       1.893  -6.000  -1.257  0.00  0.00    -0.001 A 
ATOM      4  C3  UNL d   1       1.070  -5.975  -0.130  0.00  0.00     0.003 A 
ATOM      5  C4  UNL d   1       1.624  -5.795   1.136  0.00  0.00    -0.005 A 
ATOM      6  C5  UNL d   1       3.002  -5.639   1.276  0.00  0.00     0.003 A 
ATOM      7  C6  UNL d   1       3.826  -5.665   0.150  0.00  0.00    -0.001 A 
ENDROOT
TORSDOF 0
ENDMDL
