MODEL 1
REMARK minimizedAffinity 3.01378298
REMARK minimizedRMSD -1
REMARK  0 active torsions:
REMARK  status: ('A' for Active; 'I' for Inactive)
ROOT
ATOM      1  C   UNL d   1       1.338  -1.205   4.261  0.00  0.00     0.078 C 
ATOM      2  C1  UNL d   1       1.988  -0.410   3.168  0.00  0.00    -0.077 A 
ATOM      3  C2  UNL d   1       2.822  -1.026   2.226  0.00  0.00    -0.001 A 
ATOM      4  C3  UNL d   1       3.427  -0.271   1.220  0.00  0.00     0.003 A 
ATOM      5  C4  UNL d   1       3.206   1.103   1.146  0.00  0.00    -0.005 A 
ATOM      6  C5  UNL d   1       2.380   1.724   2.080  0.00  0.00     0.003 A 
ATOM      7  C6  UNL d   1       1.773   0.971   3.087  0.00  0.00    -0.001 A 
ENDROOT
TORSDOF 0
ENDMDL
