MODEL 1
REMARK minimizedAffinity 0.299092561
REMARK minimizedRMSD -1
REMARK  0 active torsions:
REMARK  status: ('A' for Active; 'I' for Inactive)
ROOT
ATOM      1  C   UNL d   1       4.191  -5.999  -2.612  0.00  0.00     0.078 C 
ATOM      2  C1  UNL d   1       3.360  -5.988  -1.364  0.00  0.00    -0.077 A 
ATOM      3  C2  UNL d   1       3.959  -5.999  -0.098  0.00  0.00    -0.001 A 
ATOM      4  C3  UNL d   1       3.173  -5.999   1.055  0.00  0.00     0.003 A 
ATOM      5  C4  UNL d   1       1.783  -5.989   0.954  0.00  0.00    -0.005 A 
ATOM      6  C5  UNL d   1       1.178  -5.980  -0.300  0.00  0.00     0.003 A 
ATOM      7  C6  UNL d   1       1.962  -5.980  -1.455  0.00  0.00    -0.001 A 
ENDROOT
TORSDOF 0
ENDMDL
