MODEL 1
REMARK minimizedAffinity -0.11860653
REMARK minimizedRMSD -1
REMARK  0 active torsions:
REMARK  status: ('A' for Active; 'I' for Inactive)
ROOT
ATOM      1  C   UNL d   1       5.615  -5.995  -3.216  0.00  0.00     0.078 C 
ATOM      2  C1  UNL d   1       4.284  -5.874  -2.537  0.00  0.00    -0.077 A 
ATOM      3  C2  UNL d   1       3.119  -5.623  -3.273  0.00  0.00    -0.001 A 
ATOM      4  C3  UNL d   1       1.888  -5.503  -2.626  0.00  0.00     0.003 A 
ATOM      5  C4  UNL d   1       1.809  -5.632  -1.241  0.00  0.00    -0.005 A 
ATOM      6  C5  UNL d   1       2.963  -5.880  -0.500  0.00  0.00     0.003 A 
ATOM      7  C6  UNL d   1       4.195  -6.000  -1.145  0.00  0.00    -0.001 A 
ENDROOT
TORSDOF 0
ENDMDL
