MODEL 1
REMARK minimizedAffinity 4.36060047
REMARK minimizedRMSD -1
REMARK  0 active torsions:
REMARK  status: ('A' for Active; 'I' for Inactive)
ROOT
ATOM      1  C   UNL d   1       1.519  -1.928  -0.794  0.00  0.00     0.078 C 
ATOM      2  C1  UNL d   1       1.230  -0.509  -0.402  0.00  0.00    -0.077 A 
ATOM      3  C2  UNL d   1       2.035   0.543  -0.856  0.00  0.00    -0.001 A 
ATOM      4  C3  UNL d   1       1.760   1.857  -0.476  0.00  0.00     0.003 A 
ATOM      5  C4  UNL d   1       0.680   2.132   0.361  0.00  0.00    -0.005 A 
ATOM      6  C5  UNL d   1      -0.125   1.091   0.819  0.00  0.00     0.003 A 
ATOM      7  C6  UNL d   1       0.148  -0.224   0.440  0.00  0.00    -0.001 A 
ENDROOT
TORSDOF 0
ENDMDL
