MODEL 1
REMARK minimizedAffinity -3.3025291
REMARK minimizedRMSD -1
REMARK  0 active torsions:
REMARK  status: ('A' for Active; 'I' for Inactive)
ROOT
ATOM      1  C   UNL d   1       2.251  -4.693  -5.991  0.00  0.00     0.078 C 
ATOM      2  C1  UNL d   1       3.537  -3.923  -6.000  0.00  0.00    -0.077 A 
ATOM      3  C2  UNL d   1       4.773  -4.582  -5.996  0.00  0.00    -0.001 A 
ATOM      4  C3  UNL d   1       5.962  -3.852  -5.995  0.00  0.00     0.003 A 
ATOM      5  C4  UNL d   1       5.928  -2.459  -5.996  0.00  0.00    -0.005 A 
ATOM      6  C5  UNL d   1       4.704  -1.794  -5.997  0.00  0.00     0.003 A 
ATOM      7  C6  UNL d   1       3.513  -2.522  -5.999  0.00  0.00    -0.001 A 
ENDROOT
TORSDOF 0
ENDMDL
