MODEL 1
REMARK minimizedAffinity -2.90995765
REMARK minimizedRMSD -1
REMARK  0 active torsions:
REMARK  status: ('A' for Active; 'I' for Inactive)
ROOT
ATOM      1  C   UNL d   1       6.000  -3.152  -5.774  0.00  0.00     0.078 C 
ATOM      2  C1  UNL d   1       5.750  -1.796  -5.186  0.00  0.00    -0.077 A 
ATOM      3  C2  UNL d   1       5.435  -1.645  -3.829  0.00  0.00    -0.001 A 
ATOM      4  C3  UNL d   1       5.195  -0.377  -3.297  0.00  0.00     0.003 A 
ATOM      5  C4  UNL d   1       5.265   0.750  -4.115  0.00  0.00    -0.005 A 
ATOM      6  C5  UNL d   1       5.575   0.609  -5.466  0.00  0.00     0.003 A 
ATOM      7  C6  UNL d   1       5.816  -0.658  -6.000  0.00  0.00    -0.001 A 
ENDROOT
TORSDOF 0
ENDMDL
