MODEL 1
REMARK minimizedAffinity -2.33607459
REMARK minimizedRMSD -1
REMARK  0 active torsions:
REMARK  status: ('A' for Active; 'I' for Inactive)
ROOT
ATOM      1  C   UNL d   1       5.983  -3.490  -5.717  0.00  0.00     0.078 C 
ATOM      2  C1  UNL d   1       5.568  -2.152  -5.182  0.00  0.00    -0.077 A 
ATOM      3  C2  UNL d   1       5.575  -1.015  -5.999  0.00  0.00    -0.001 A 
ATOM      4  C3  UNL d   1       5.195   0.226  -5.485  0.00  0.00     0.003 A 
ATOM      5  C4  UNL d   1       4.807   0.342  -4.152  0.00  0.00    -0.005 A 
ATOM      6  C5  UNL d   1       4.799  -0.784  -3.331  0.00  0.00     0.003 A 
ATOM      7  C6  UNL d   1       5.178  -2.025  -3.843  0.00  0.00    -0.001 A 
ENDROOT
TORSDOF 0
ENDMDL
