MODEL 1
REMARK minimizedAffinity -0.238168344
REMARK minimizedRMSD -1
REMARK  0 active torsions:
REMARK  status: ('A' for Active; 'I' for Inactive)
ROOT
ATOM      1  C   UNL d   1      -0.218   2.784   0.452  0.00  0.00     0.078 C 
ATOM      2  C1  UNL d   1       0.377   1.454   0.094  0.00  0.00    -0.077 A 
ATOM      3  C2  UNL d   1       1.197   0.765   0.995  0.00  0.00    -0.001 A 
ATOM      4  C3  UNL d   1       1.752  -0.467   0.645  0.00  0.00     0.003 A 
ATOM      5  C4  UNL d   1       1.493  -1.020  -0.607  0.00  0.00    -0.005 A 
ATOM      6  C5  UNL d   1       0.680  -0.341  -1.512  0.00  0.00     0.003 A 
ATOM      7  C6  UNL d   1       0.124   0.892  -1.163  0.00  0.00    -0.001 A 
ENDROOT
TORSDOF 0
ENDMDL
