MODEL 1
REMARK minimizedAffinity -3.63623786
REMARK minimizedRMSD -1
REMARK  0 active torsions:
REMARK  status: ('A' for Active; 'I' for Inactive)
ROOT
ATOM      1  C1  BNZ d   1       1.296  -0.831  -1.094  0.00  0.00     0.000 A 
ATOM      2  C2  BNZ d   1       0.081  -0.524  -1.645  0.00  0.00     0.000 A 
ATOM      3  C3  BNZ d   1      -0.983  -0.191  -0.854  0.00  0.00     0.000 A 
ATOM      4  C4  BNZ d   1      -0.842  -0.204   0.487  0.00  0.00     0.000 A 
ATOM      5  C5  BNZ d   1       0.375  -0.521   1.059  0.00  0.00     0.000 A 
ATOM      6  C6  BNZ d   1       1.454  -0.817   0.258  0.00  0.00     0.000 A 
ENDROOT
TORSDOF 0
ENDMDL
