MODEL 1
REMARK minimizedAffinity -4.33475113
REMARK minimizedRMSD -1
REMARK  0 active torsions:
REMARK  status: ('A' for Active; 'I' for Inactive)
ROOT
ATOM      1  C1  BNZ d   1       0.115  -0.029   1.138  0.00  0.00     0.000 A 
ATOM      2  C2  BNZ d   1       0.504  -0.706   2.263  0.00  0.00     0.000 A 
ATOM      3  C3  BNZ d   1       1.551  -1.584   2.224  0.00  0.00     0.000 A 
ATOM      4  C4  BNZ d   1       2.181  -1.813   1.054  0.00  0.00     0.000 A 
ATOM      5  C5  BNZ d   1       1.794  -1.145  -0.091  0.00  0.00     0.000 A 
ATOM      6  C6  BNZ d   1       0.765  -0.233  -0.040  0.00  0.00     0.000 A 
ENDROOT
TORSDOF 0
ENDMDL
