MODEL 1
REMARK minimizedAffinity -3.26067901
REMARK minimizedRMSD -1
REMARK  0 active torsions:
REMARK  status: ('A' for Active; 'I' for Inactive)
ROOT
ATOM      1  C1  BNZ d   1       2.216   0.112   2.137  0.00  0.00     0.000 A 
ATOM      2  C2  BNZ d   1       1.378  -0.234   3.164  0.00  0.00     0.000 A 
ATOM      3  C3  BNZ d   1       0.094  -0.631   2.916  0.00  0.00     0.000 A 
ATOM      4  C4  BNZ d   1      -0.363  -0.642   1.647  0.00  0.00     0.000 A 
ATOM      5  C5  BNZ d   1       0.466  -0.287   0.602  0.00  0.00     0.000 A 
ATOM      6  C6  BNZ d   1       1.770   0.074   0.852  0.00  0.00     0.000 A 
ENDROOT
TORSDOF 0
ENDMDL
