MODEL 1
REMARK minimizedAffinity -5.20028782
REMARK minimizedRMSD -1
REMARK  0 active torsions:
REMARK  status: ('A' for Active; 'I' for Inactive)
ROOT
ATOM      1  C1  BNZ d   1       1.632  -0.792   1.504  0.00  0.00     0.000 A 
ATOM      2  C2  BNZ d   1       0.922  -1.001   2.656  0.00  0.00     0.000 A 
ATOM      3  C3  BNZ d   1      -0.433  -0.825   2.685  0.00  0.00     0.000 A 
ATOM      4  C4  BNZ d   1      -1.070  -0.401   1.575  0.00  0.00     0.000 A 
ATOM      5  C5  BNZ d   1      -0.368  -0.176   0.408  0.00  0.00     0.000 A 
ATOM      6  C6  BNZ d   1       0.991  -0.393   0.372  0.00  0.00     0.000 A 
ENDROOT
TORSDOF 0
ENDMDL
