MODEL 1
REMARK minimizedAffinity -2.69152689
REMARK minimizedRMSD -1
REMARK  0 active torsions:
REMARK  status: ('A' for Active; 'I' for Inactive)
ROOT
ATOM      1  C1  BNZ d   1       1.916  -1.117  -0.406  0.00  0.00     0.000 A 
ATOM      2  C2  BNZ d   1       0.938  -0.578  -1.199  0.00  0.00     0.000 A 
ATOM      3  C3  BNZ d   1      -0.171  -0.001  -0.648  0.00  0.00     0.000 A 
ATOM      4  C4  BNZ d   1      -0.322   0.000   0.692  0.00  0.00     0.000 A 
ATOM      5  C5  BNZ d   1       0.650  -0.548   1.505  0.00  0.00     0.000 A 
ATOM      6  C6  BNZ d   1       1.784  -1.093   0.948  0.00  0.00     0.000 A 
ENDROOT
TORSDOF 0
ENDMDL
