MODEL 1
REMARK minimizedAffinity -4.88141108
REMARK minimizedRMSD -1
REMARK  0 active torsions:
REMARK  status: ('A' for Active; 'I' for Inactive)
ROOT
ATOM      1  C1  BNZ d   1      -1.491  -0.666   1.439  0.00  0.00     0.000 A 
ATOM      2  C2  BNZ d   1      -0.722  -1.062   2.501  0.00  0.00     0.000 A 
ATOM      3  C3  BNZ d   1       0.616  -0.784   2.539  0.00  0.00     0.000 A 
ATOM      4  C4  BNZ d   1       1.190  -0.147   1.498  0.00  0.00     0.000 A 
ATOM      5  C5  BNZ d   1       0.430   0.251   0.417  0.00  0.00     0.000 A 
ATOM      6  C6  BNZ d   1      -0.923   0.004   0.400  0.00  0.00     0.000 A 
ENDROOT
TORSDOF 0
ENDMDL
