MODEL 1
REMARK minimizedAffinity -2.56030178
REMARK minimizedRMSD -1
REMARK  0 active torsions:
REMARK  status: ('A' for Active; 'I' for Inactive)
ROOT
ATOM      1  C1  BNZ d   1       0.922   0.720  -2.423  0.00  0.00     0.000 A 
ATOM      2  C2  BNZ d   1       0.633   1.645  -3.390  0.00  0.00     0.000 A 
ATOM      3  C3  BNZ d   1      -0.648   2.084  -3.579  0.00  0.00     0.000 A 
ATOM      4  C4  BNZ d   1      -1.643   1.567  -2.829  0.00  0.00     0.000 A 
ATOM      5  C5  BNZ d   1      -1.369   0.627  -1.857  0.00  0.00     0.000 A 
ATOM      6  C6  BNZ d   1      -0.073   0.216  -1.643  0.00  0.00     0.000 A 
ENDROOT
TORSDOF 0
ENDMDL
