MODEL 1
REMARK minimizedAffinity -3.43403387
REMARK minimizedRMSD -1
REMARK  0 active torsions:
REMARK  status: ('A' for Active; 'I' for Inactive)
ROOT
ATOM      1  C1  BNZ d   1       0.361  -2.868   2.970  0.00  0.00     0.000 A 
ATOM      2  C2  BNZ d   1      -0.703  -2.006   2.984  0.00  0.00     0.000 A 
ATOM      3  C3  BNZ d   1      -1.064  -1.323   1.857  0.00  0.00     0.000 A 
ATOM      4  C4  BNZ d   1      -0.338  -1.471   0.730  0.00  0.00     0.000 A 
ATOM      5  C5  BNZ d   1       0.743  -2.329   0.703  0.00  0.00     0.000 A 
ATOM      6  C6  BNZ d   1       1.080  -3.045   1.829  0.00  0.00     0.000 A 
ENDROOT
TORSDOF 0
ENDMDL
