MODEL 1
REMARK minimizedAffinity -3.41915703
REMARK minimizedRMSD -1
REMARK  0 active torsions:
REMARK  status: ('A' for Active; 'I' for Inactive)
ROOT
ATOM      1  C1  BNZ d   1      -0.974  -0.675   1.397  0.00  0.00     0.000 A 
ATOM      2  C2  BNZ d   1      -0.177  -0.426   0.312  0.00  0.00     0.000 A 
ATOM      3  C3  BNZ d   1       1.177  -0.295   0.452  0.00  0.00     0.000 A 
ATOM      4  C4  BNZ d   1       1.726  -0.372   1.681  0.00  0.00     0.000 A 
ATOM      5  C5  BNZ d   1       0.935  -0.614   2.787  0.00  0.00     0.000 A 
ATOM      6  C6  BNZ d   1      -0.422  -0.784   2.636  0.00  0.00     0.000 A 
ENDROOT
TORSDOF 0
ENDMDL
