MODEL 1
REMARK minimizedAffinity -4.92902994
REMARK minimizedRMSD -1
REMARK  0 active torsions:
REMARK  status: ('A' for Active; 'I' for Inactive)
ROOT
ATOM      1  C1  BNZ d   1       2.040  -0.256   2.317  0.00  0.00     0.000 A 
ATOM      2  C2  BNZ d   1       1.077  -0.680   3.194  0.00  0.00     0.000 A 
ATOM      3  C3  BNZ d   1      -0.184  -0.979   2.758  0.00  0.00     0.000 A 
ATOM      4  C4  BNZ d   1      -0.491  -0.815   1.455  0.00  0.00     0.000 A 
ATOM      5  C5  BNZ d   1       0.467  -0.380   0.560  0.00  0.00     0.000 A 
ATOM      6  C6  BNZ d   1       1.745  -0.117   0.996  0.00  0.00     0.000 A 
ENDROOT
TORSDOF 0
ENDMDL
