MODEL 1
REMARK minimizedAffinity -4.7583065
REMARK minimizedRMSD -1
REMARK  0 active torsions:
REMARK  status: ('A' for Active; 'I' for Inactive)
ROOT
ATOM      1  C1  BNZ d   1       1.861  -1.268   1.487  0.00  0.00     0.000 A 
ATOM      2  C2  BNZ d   1       1.155  -0.638   0.497  0.00  0.00     0.000 A 
ATOM      3  C3  BNZ d   1      -0.194  -0.452   0.609  0.00  0.00     0.000 A 
ATOM      4  C4  BNZ d   1      -0.842  -0.932   1.690  0.00  0.00     0.000 A 
ATOM      5  C5  BNZ d   1      -0.146  -1.578   2.692  0.00  0.00     0.000 A 
ATOM      6  C6  BNZ d   1       1.218  -1.729   2.594  0.00  0.00     0.000 A 
ENDROOT
TORSDOF 0
ENDMDL
