MODEL 1
REMARK minimizedAffinity -0.116640054
REMARK minimizedRMSD -1
REMARK  0 active torsions:
REMARK  status: ('A' for Active; 'I' for Inactive)
ROOT
ATOM      1  C   UNL d   1       0.039   0.859   0.619  0.00  0.00     0.124 A 
ATOM      2  C1  UNL d   1       1.028  -0.064   0.310  0.00  0.00     0.062 A 
ATOM      3  C2  UNL d   1       0.730  -1.172  -0.478  0.00  0.00     0.162 A 
ATOM      4  C3  UNL d   1      -0.564  -1.362  -0.964  0.00  0.00    -0.034 A 
ATOM      5  C4  UNL d   1      -1.553  -0.430  -0.648  0.00  0.00     0.162 A 
ATOM      6  C5  UNL d   1      -1.250   0.676   0.140  0.00  0.00     0.062 A 
ATOM      7  F   UNL d   1      -2.207   1.567   0.438  0.00  0.00    -0.097 F 
ATOM      8  F1  UNL d   1      -2.807  -0.582  -1.098  0.00  0.00    -0.096 F 
ATOM      9  I   UNL d   1      -1.014  -3.017  -2.142  0.00  0.00    -0.060 I 
ATOM     10  F2  UNL d   1       1.706  -2.048  -0.761  0.00  0.00    -0.096 F 
ATOM     11  F3  UNL d   1       2.275   0.110   0.773  0.00  0.00    -0.097 F 
ATOM     12  F4  UNL d   1       0.329   1.924   1.378  0.00  0.00    -0.092 F 
ENDROOT
TORSDOF 0
ENDMDL
