MODEL 1
REMARK minimizedAffinity -3.76143861
REMARK minimizedRMSD -1
REMARK  0 active torsions:
REMARK  status: ('A' for Active; 'I' for Inactive)
ROOT
ATOM      1  C   UNL d   1       0.099   0.910   1.555  0.00  0.00     0.124 A 
ATOM      2  C1  UNL d   1      -0.734   1.466   0.594  0.00  0.00     0.062 A 
ATOM      3  C2  UNL d   1      -0.902   0.836  -0.636  0.00  0.00     0.162 A 
ATOM      4  C3  UNL d   1      -0.237  -0.359  -0.911  0.00  0.00    -0.034 A 
ATOM      5  C4  UNL d   1       0.600  -0.912   0.061  0.00  0.00     0.162 A 
ATOM      6  C5  UNL d   1       0.764  -0.278   1.288  0.00  0.00     0.062 A 
ATOM      7  F   UNL d   1       1.569  -0.817   2.216  0.00  0.00    -0.097 F 
ATOM      8  F1  UNL d   1       1.254  -2.059  -0.171  0.00  0.00    -0.096 F 
ATOM      9  I   UNL d   1      -0.485  -1.304  -2.748  0.00  0.00    -0.060 I 
ATOM     10  F2  UNL d   1      -1.712   1.396  -1.546  0.00  0.00    -0.096 F 
ATOM     11  F3  UNL d   1      -1.377   2.614   0.849  0.00  0.00    -0.097 F 
ATOM     12  F4  UNL d   1       0.259   1.519   2.737  0.00  0.00    -0.092 F 
ENDROOT
TORSDOF 0
ENDMDL
