MODEL 1
REMARK minimizedAffinity 1.0068512
REMARK minimizedRMSD -1
REMARK  0 active torsions:
REMARK  status: ('A' for Active; 'I' for Inactive)
ROOT
ATOM      1  C   UNL d   1      -0.808   1.859   1.583  0.00  0.00     0.124 A 
ATOM      2  C1  UNL d   1       0.178   1.014   2.074  0.00  0.00     0.062 A 
ATOM      3  C2  UNL d   1       0.453  -0.189   1.430  0.00  0.00     0.162 A 
ATOM      4  C3  UNL d   1      -0.258  -0.555   0.288  0.00  0.00    -0.034 A 
ATOM      5  C4  UNL d   1      -1.249   0.299  -0.200  0.00  0.00     0.162 A 
ATOM      6  C5  UNL d   1      -1.521   1.501   0.447  0.00  0.00     0.062 A 
ATOM      7  F   UNL d   1      -2.474   2.315  -0.029  0.00  0.00    -0.097 F 
ATOM      8  F1  UNL d   1      -1.952  -0.022  -1.296  0.00  0.00    -0.096 F 
ATOM      9  I   UNL d   1       0.151  -2.353  -0.677  0.00  0.00    -0.060 I 
ATOM     10  F2  UNL d   1       1.412  -0.985   1.927  0.00  0.00    -0.096 F 
ATOM     11  F3  UNL d   1       0.867   1.358   3.172  0.00  0.00    -0.097 F 
ATOM     12  F4  UNL d   1      -1.072   3.015   2.205  0.00  0.00    -0.092 F 
ENDROOT
TORSDOF 0
ENDMDL
