MODEL 1
REMARK minimizedAffinity 0.60041678
REMARK minimizedRMSD -1
REMARK  0 active torsions:
REMARK  status: ('A' for Active; 'I' for Inactive)
ROOT
ATOM      1  C   UNL d   1      -0.840   2.252   1.101  0.00  0.00     0.124 A 
ATOM      2  C1  UNL d   1      -1.163   1.883  -0.197  0.00  0.00     0.062 A 
ATOM      3  C2  UNL d   1      -0.675   0.693  -0.730  0.00  0.00     0.162 A 
ATOM      4  C3  UNL d   1       0.140  -0.138   0.037  0.00  0.00    -0.034 A 
ATOM      5  C4  UNL d   1       0.462   0.239   1.342  0.00  0.00     0.162 A 
ATOM      6  C5  UNL d   1      -0.028   1.429   1.870  0.00  0.00     0.062 A 
ATOM      7  F   UNL d   1       0.286   1.783   3.125  0.00  0.00    -0.097 F 
ATOM      8  F1  UNL d   1       1.244  -0.537   2.107  0.00  0.00    -0.096 F 
ATOM      9  I   UNL d   1       0.872  -1.919  -0.755  0.00  0.00    -0.060 I 
ATOM     10  F2  UNL d   1      -1.004   0.363  -1.987  0.00  0.00    -0.096 F 
ATOM     11  F3  UNL d   1      -1.947   2.677  -0.942  0.00  0.00    -0.097 F 
ATOM     12  F4  UNL d   1      -1.310   3.398   1.611  0.00  0.00    -0.092 F 
ENDROOT
TORSDOF 0
ENDMDL
