MODEL 1
REMARK minimizedAffinity 1.60288477
REMARK minimizedRMSD -1
REMARK  0 active torsions:
REMARK  status: ('A' for Active; 'I' for Inactive)
ROOT
ATOM      1  C   UNL d   1       0.414  -1.319  -1.481  0.00  0.00     0.124 A 
ATOM      2  C1  UNL d   1       0.473   0.015  -1.861  0.00  0.00     0.062 A 
ATOM      3  C2  UNL d   1      -0.020   1.005  -1.017  0.00  0.00     0.162 A 
ATOM      4  C3  UNL d   1      -0.575   0.666   0.217  0.00  0.00    -0.034 A 
ATOM      5  C4  UNL d   1      -0.631  -0.677   0.592  0.00  0.00     0.162 A 
ATOM      6  C5  UNL d   1      -0.137  -1.664  -0.255  0.00  0.00     0.062 A 
ATOM      7  F   UNL d   1      -0.195  -2.952   0.114  0.00  0.00    -0.097 F 
ATOM      8  F1  UNL d   1      -1.158  -1.038   1.771  0.00  0.00    -0.096 F 
ATOM      9  I   UNL d   1      -1.313   2.145   1.482  0.00  0.00    -0.060 I 
ATOM     10  F2  UNL d   1       0.050   2.286  -1.410  0.00  0.00    -0.096 F 
ATOM     11  F3  UNL d   1       1.005   0.350  -3.046  0.00  0.00    -0.097 F 
ATOM     12  F4  UNL d   1       0.888  -2.270  -2.296  0.00  0.00    -0.092 F 
ENDROOT
TORSDOF 0
ENDMDL
