MODEL 1
REMARK minimizedAffinity 13.7358027
REMARK minimizedRMSD -1
REMARK  0 active torsions:
REMARK  status: ('A' for Active; 'I' for Inactive)
ROOT
ATOM      1  C1  BNZ d   1       4.110  -1.503   2.097  0.00  0.00     0.000 A 
ATOM      2  C2  BNZ d   1       3.946  -2.119   0.886  0.00  0.00     0.000 A 
ATOM      3  C3  BNZ d   1       2.741  -2.089   0.242  0.00  0.00     0.000 A 
ATOM      4  C4  BNZ d   1       1.691  -1.478   0.828  0.00  0.00     0.000 A 
ATOM      5  C5  BNZ d   1       1.838  -0.860   2.054  0.00  0.00     0.000 A 
ATOM      6  C6  BNZ d   1       3.063  -0.859   2.681  0.00  0.00     0.000 A 
ENDROOT
TORSDOF 0
ENDMDL
