MODEL 1
REMARK minimizedAffinity 12.6617241
REMARK minimizedRMSD -1
REMARK  0 active torsions:
REMARK  status: ('A' for Active; 'I' for Inactive)
ROOT
ATOM      1  C1  BNZ d   1       4.036  -3.800  -3.890  0.00  0.00     0.000 A 
ATOM      2  C2  BNZ d   1       2.691  -3.587  -4.025  0.00  0.00     0.000 A 
ATOM      3  C3  BNZ d   1       1.808  -4.071  -3.100  0.00  0.00     0.000 A 
ATOM      4  C4  BNZ d   1       2.268  -4.801  -2.064  0.00  0.00     0.000 A 
ATOM      5  C5  BNZ d   1       3.621  -5.033  -1.919  0.00  0.00     0.000 A 
ATOM      6  C6  BNZ d   1       4.510  -4.511  -2.830  0.00  0.00     0.000 A 
ENDROOT
TORSDOF 0
ENDMDL
