MODEL 1
REMARK minimizedAffinity 8.13836765
REMARK minimizedRMSD -1
REMARK  0 active torsions:
REMARK  status: ('A' for Active; 'I' for Inactive)
ROOT
ATOM      1  C1  BNZ d   1      -1.386   5.325  -5.060  0.00  0.00     0.000 A 
ATOM      2  C2  BNZ d   1      -1.291   4.269  -4.193  0.00  0.00     0.000 A 
ATOM      3  C3  BNZ d   1      -2.380   3.847  -3.482  0.00  0.00     0.000 A 
ATOM      4  C4  BNZ d   1      -3.550   4.506  -3.608  0.00  0.00     0.000 A 
ATOM      5  C5  BNZ d   1      -3.659   5.578  -4.472  0.00  0.00     0.000 A 
ATOM      6  C6  BNZ d   1      -2.571   5.975  -5.215  0.00  0.00     0.000 A 
ENDROOT
TORSDOF 0
ENDMDL
