MODEL 1
REMARK minimizedAffinity 10.2410383
REMARK minimizedRMSD -1
REMARK  0 active torsions:
REMARK  status: ('A' for Active; 'I' for Inactive)
ROOT
ATOM      1  C1  BNZ d   1       1.534  -2.720  -0.549  0.00  0.00     0.000 A 
ATOM      2  C2  BNZ d   1       1.698  -1.456  -0.048  0.00  0.00     0.000 A 
ATOM      3  C3  BNZ d   1       2.762  -1.153   0.754  0.00  0.00     0.000 A 
ATOM      4  C4  BNZ d   1       3.638  -2.123   1.087  0.00  0.00     0.000 A 
ATOM      5  C5  BNZ d   1       3.482  -3.404   0.598  0.00  0.00     0.000 A 
ATOM      6  C6  BNZ d   1       2.431  -3.696  -0.241  0.00  0.00     0.000 A 
ENDROOT
TORSDOF 0
ENDMDL
