MODEL 1
REMARK minimizedAffinity 6.28559732
REMARK minimizedRMSD -1
REMARK  0 active torsions:
REMARK  status: ('A' for Active; 'I' for Inactive)
ROOT
ATOM      1  C1  BNZ d   1       4.821  -4.255   0.749  0.00  0.00     0.000 A 
ATOM      2  C2  BNZ d   1       3.655  -3.542   0.664  0.00  0.00     0.000 A 
ATOM      3  C3  BNZ d   1       3.657  -2.181   0.786  0.00  0.00     0.000 A 
ATOM      4  C4  BNZ d   1       4.817  -1.539   1.032  0.00  0.00     0.000 A 
ATOM      5  C5  BNZ d   1       6.000  -2.245   1.129  0.00  0.00     0.000 A 
ATOM      6  C6  BNZ d   1       5.999  -3.611   0.967  0.00  0.00     0.000 A 
ENDROOT
TORSDOF 0
ENDMDL
