MODEL 1
REMARK minimizedAffinity -0.216013744
REMARK minimizedRMSD -1
REMARK  0 active torsions:
REMARK  status: ('A' for Active; 'I' for Inactive)
ROOT
ATOM      1  C1  BNZ d   1      -3.507   2.733  -4.452  0.00  0.00     0.000 A 
ATOM      2  C2  BNZ d   1      -4.447   3.643  -4.855  0.00  0.00     0.000 A 
ATOM      3  C3  BNZ d   1      -4.138   4.971  -4.957  0.00  0.00     0.000 A 
ATOM      4  C4  BNZ d   1      -2.903   5.392  -4.616  0.00  0.00     0.000 A 
ATOM      5  C5  BNZ d   1      -1.946   4.488  -4.199  0.00  0.00     0.000 A 
ATOM      6  C6  BNZ d   1      -2.249   3.147  -4.135  0.00  0.00     0.000 A 
ENDROOT
TORSDOF 0
ENDMDL
