MODEL 1
REMARK minimizedAffinity 13.1228361
REMARK minimizedRMSD -1
REMARK  0 active torsions:
REMARK  status: ('A' for Active; 'I' for Inactive)
ROOT
ATOM      1  C1  BNZ d   1       1.430   2.784   1.778  0.00  0.00     0.000 A 
ATOM      2  C2  BNZ d   1       1.543   2.416   3.092  0.00  0.00     0.000 A 
ATOM      3  C3  BNZ d   1       0.565   1.680   3.700  0.00  0.00     0.000 A 
ATOM      4  C4  BNZ d   1      -0.542   1.346   3.005  0.00  0.00     0.000 A 
ATOM      5  C5  BNZ d   1      -0.675   1.718   1.682  0.00  0.00     0.000 A 
ATOM      6  C6  BNZ d   1       0.330   2.426   1.063  0.00  0.00     0.000 A 
ENDROOT
TORSDOF 0
ENDMDL
