MODEL 1
REMARK minimizedAffinity 8.28057194
REMARK minimizedRMSD -1
REMARK  0 active torsions:
REMARK  status: ('A' for Active; 'I' for Inactive)
ROOT
ATOM      1  C1  BNZ d   1       3.959  -1.298   0.865  0.00  0.00     0.000 A 
ATOM      2  C2  BNZ d   1       2.742  -1.185   0.249  0.00  0.00     0.000 A 
ATOM      3  C3  BNZ d   1       1.982  -2.292  -0.009  0.00  0.00     0.000 A 
ATOM      4  C4  BNZ d   1       2.458  -3.512   0.312  0.00  0.00     0.000 A 
ATOM      5  C5  BNZ d   1       3.688  -3.643   0.925  0.00  0.00     0.000 A 
ATOM      6  C6  BNZ d   1       4.433  -2.524   1.219  0.00  0.00     0.000 A 
ENDROOT
TORSDOF 0
ENDMDL
