MODEL 1
REMARK minimizedAffinity 2.62189198
REMARK minimizedRMSD -1
REMARK  0 active torsions:
REMARK  status: ('A' for Active; 'I' for Inactive)
ROOT
ATOM      1  C1  BNZ d   1       5.996  -4.088   0.697  0.00  0.00     0.000 A 
ATOM      2  C2  BNZ d   1       5.990  -2.726   0.836  0.00  0.00     0.000 A 
ATOM      3  C3  BNZ d   1       4.817  -2.025   0.821  0.00  0.00     0.000 A 
ATOM      4  C4  BNZ d   1       3.655  -2.682   0.627  0.00  0.00     0.000 A 
ATOM      5  C5  BNZ d   1       3.645  -4.055   0.476  0.00  0.00     0.000 A 
ATOM      6  C6  BNZ d   1       4.825  -4.761   0.531  0.00  0.00     0.000 A 
ENDROOT
TORSDOF 0
ENDMDL
