MODEL 1
REMARK minimizedAffinity 5.51728344
REMARK minimizedRMSD -1
REMARK  0 active torsions:
REMARK  status: ('A' for Active; 'I' for Inactive)
ROOT
ATOM      1  C1  BNZ d   1      -5.252  -3.704   3.381  0.00  0.00     0.000 A 
ATOM      2  C2  BNZ d   1      -5.290  -3.764   4.748  0.00  0.00     0.000 A 
ATOM      3  C3  BNZ d   1      -5.644  -4.919   5.388  0.00  0.00     0.000 A 
ATOM      4  C4  BNZ d   1      -5.999  -5.998   4.661  0.00  0.00     0.000 A 
ATOM      5  C5  BNZ d   1      -5.976  -5.950   3.282  0.00  0.00     0.000 A 
ATOM      6  C6  BNZ d   1      -5.581  -4.798   2.641  0.00  0.00     0.000 A 
ENDROOT
TORSDOF 0
ENDMDL
