MODEL 1
REMARK minimizedAffinity 6.86711025
REMARK minimizedRMSD -1
REMARK  0 active torsions:
REMARK  status: ('A' for Active; 'I' for Inactive)
ROOT
ATOM      1  C1  BNZ d   1      -5.917  -5.985   3.886  0.00  0.00     0.000 A 
ATOM      2  C2  BNZ d   1      -5.999  -5.987   5.253  0.00  0.00     0.000 A 
ATOM      3  C3  BNZ d   1      -5.935  -4.818   5.959  0.00  0.00     0.000 A 
ATOM      4  C4  BNZ d   1      -5.748  -3.656   5.302  0.00  0.00     0.000 A 
ATOM      5  C5  BNZ d   1      -5.654  -3.638   3.925  0.00  0.00     0.000 A 
ATOM      6  C6  BNZ d   1      -5.759  -4.812   3.214  0.00  0.00     0.000 A 
ENDROOT
TORSDOF 0
ENDMDL
