MODEL 1
REMARK minimizedAffinity 5.61384821
REMARK minimizedRMSD -1
REMARK  0 active torsions:
REMARK  status: ('A' for Active; 'I' for Inactive)
ROOT
ATOM      1  C1  BNZ d   1       3.513  -2.437   0.635  0.00  0.00     0.000 A 
ATOM      2  C2  BNZ d   1       2.157  -2.256   0.705  0.00  0.00     0.000 A 
ATOM      3  C3  BNZ d   1       1.616  -1.349   1.573  0.00  0.00     0.000 A 
ATOM      4  C4  BNZ d   1       2.427  -0.655   2.398  0.00  0.00     0.000 A 
ATOM      5  C5  BNZ d   1       3.795  -0.834   2.346  0.00  0.00     0.000 A 
ATOM      6  C6  BNZ d   1       4.339  -1.719   1.443  0.00  0.00     0.000 A 
ENDROOT
TORSDOF 0
ENDMDL
