MODEL 1
REMARK minimizedAffinity 8.01033211
REMARK minimizedRMSD -1
REMARK  0 active torsions:
REMARK  status: ('A' for Active; 'I' for Inactive)
ROOT
ATOM      1  C1  BNZ d   1      -5.221   5.867  -0.514  0.00  0.00     0.000 A 
ATOM      2  C2  BNZ d   1      -3.857   5.863  -0.398  0.00  0.00     0.000 A 
ATOM      3  C3  BNZ d   1      -3.258   5.902   0.830  0.00  0.00     0.000 A 
ATOM      4  C4  BNZ d   1      -4.023   5.985   1.938  0.00  0.00     0.000 A 
ATOM      5  C5  BNZ d   1      -5.400   5.999   1.838  0.00  0.00     0.000 A 
ATOM      6  C6  BNZ d   1      -5.999   5.920   0.602  0.00  0.00     0.000 A 
ENDROOT
TORSDOF 0
ENDMDL
