MODEL 1
REMARK minimizedAffinity 0.430926353
REMARK minimizedRMSD -1
REMARK  0 active torsions:
REMARK  status: ('A' for Active; 'I' for Inactive)
ROOT
ATOM      1  C1  BNZ d   1      -1.962  -4.845   5.999  0.00  0.00     0.000 A 
ATOM      2  C2  BNZ d   1      -3.075  -4.047   6.000  0.00  0.00     0.000 A 
ATOM      3  C3  BNZ d   1      -3.003  -2.745   5.590  0.00  0.00     0.000 A 
ATOM      4  C4  BNZ d   1      -1.813  -2.232   5.218  0.00  0.00     0.000 A 
ATOM      5  C5  BNZ d   1      -0.680  -3.021   5.220  0.00  0.00     0.000 A 
ATOM      6  C6  BNZ d   1      -0.764  -4.342   5.597  0.00  0.00     0.000 A 
ENDROOT
TORSDOF 0
ENDMDL
