MODEL 1
REMARK minimizedAffinity 9.031353
REMARK minimizedRMSD -1
REMARK  0 active torsions:
REMARK  status: ('A' for Active; 'I' for Inactive)
ROOT
ATOM      1  C1  BNZ d   1       6.000  -3.726  -0.590  0.00  0.00     0.000 A 
ATOM      2  C2  BNZ d   1       6.000  -3.781   0.778  0.00  0.00     0.000 A 
ATOM      3  C3  BNZ d   1       5.639  -4.926   1.433  0.00  0.00     0.000 A 
ATOM      4  C4  BNZ d   1       5.241  -5.999   0.720  0.00  0.00     0.000 A 
ATOM      5  C5  BNZ d   1       5.227  -5.956  -0.660  0.00  0.00     0.000 A 
ATOM      6  C6  BNZ d   1       5.628  -4.815  -1.316  0.00  0.00     0.000 A 
ENDROOT
TORSDOF 0
ENDMDL
