MODEL 1
REMARK minimizedAffinity 10.2862568
REMARK minimizedRMSD -1
REMARK  0 active torsions:
REMARK  status: ('A' for Active; 'I' for Inactive)
ROOT
ATOM      1  C1  BNZ d   1       0.224   2.193   0.325  0.00  0.00     0.000 A 
ATOM      2  C2  BNZ d   1      -0.832   2.786  -0.314  0.00  0.00     0.000 A 
ATOM      3  C3  BNZ d   1      -2.033   2.943   0.319  0.00  0.00     0.000 A 
ATOM      4  C4  BNZ d   1      -2.189   2.473   1.573  0.00  0.00     0.000 A 
ATOM      5  C5  BNZ d   1      -1.137   1.864   2.227  0.00  0.00     0.000 A 
ATOM      6  C6  BNZ d   1       0.083   1.742   1.602  0.00  0.00     0.000 A 
ENDROOT
TORSDOF 0
ENDMDL
