MODEL 1
REMARK minimizedAffinity 13.8743811
REMARK minimizedRMSD -1
REMARK  0 active torsions:
REMARK  status: ('A' for Active; 'I' for Inactive)
ROOT
ATOM      1  C1  BNZ d   1       5.913  -3.638   1.500  0.00  0.00     0.000 A 
ATOM      2  C2  BNZ d   1       5.999  -3.660   0.133  0.00  0.00     0.000 A 
ATOM      3  C3  BNZ d   1       5.943  -4.841  -0.552  0.00  0.00     0.000 A 
ATOM      4  C4  BNZ d   1       5.842  -6.000   0.131  0.00  0.00     0.000 A 
ATOM      5  C5  BNZ d   1       5.764  -5.995   1.509  0.00  0.00     0.000 A 
ATOM      6  C6  BNZ d   1       5.782  -4.801   2.194  0.00  0.00     0.000 A 
ENDROOT
TORSDOF 0
ENDMDL
