MODEL 1
REMARK minimizedAffinity -4.9841013
REMARK minimizedRMSD -1
REMARK  1 active torsions:
REMARK  status: ('A' for Active; 'I' for Inactive)
REMARK    1  A    between atoms: C1_2  and  C2_3 
ROOT
ATOM      1  C2  UNL d   1       0.832  -0.162   0.996  0.00  0.00    -0.077 A 
ATOM      2  C3  UNL d   1       2.150   0.100   1.393  0.00  0.00     0.002 A 
ATOM      3  C4  UNL d   1       2.845  -0.816   2.185  0.00  0.00     0.002 A 
ATOM      4  C5  UNL d   1       2.232  -2.002   2.582  0.00  0.00    -0.004 A 
ATOM      5  C6  UNL d   1       0.920  -2.272   2.193  0.00  0.00     0.002 A 
ATOM      6  C7  UNL d   1       0.224  -1.356   1.403  0.00  0.00     0.002 A 
ENDROOT
BRANCH   1   7
ATOM      7  C1  UNL d   1       0.098   0.802   0.101  0.00  0.00     0.055 C 
ATOM      8  C   UNL d   1      -1.152   0.167  -0.490  0.00  0.00     0.019 C 
ENDBRANCH   1   7
TORSDOF 1
ENDMDL
