MODEL 1
REMARK minimizedAffinity -5.40851498
REMARK minimizedRMSD -1
REMARK  1 active torsions:
REMARK  status: ('A' for Active; 'I' for Inactive)
REMARK    1  A    between atoms: C1_2  and  C2_3 
ROOT
ATOM      1  C2  UNL d   1       0.438  -0.611   0.519  0.00  0.00    -0.077 A 
ATOM      2  C3  UNL d   1       0.794  -1.530   1.515  0.00  0.00     0.002 A 
ATOM      3  C4  UNL d   1       2.135  -1.851   1.735  0.00  0.00     0.002 A 
ATOM      4  C5  UNL d   1       3.131  -1.253   0.965  0.00  0.00    -0.004 A 
ATOM      5  C6  UNL d   1       2.787  -0.339  -0.030  0.00  0.00     0.002 A 
ATOM      6  C7  UNL d   1       1.447  -0.019  -0.252  0.00  0.00     0.002 A 
ENDROOT
BRANCH   1   7
ATOM      7  C1  UNL d   1      -1.004  -0.227   0.313  0.00  0.00     0.055 C 
ATOM      8  C   UNL d   1      -1.336  -0.092  -1.166  0.00  0.00     0.019 C 
ENDBRANCH   1   7
TORSDOF 1
ENDMDL
