MODEL 1
REMARK minimizedAffinity -1.20419586
REMARK minimizedRMSD -1
REMARK  1 active torsions:
REMARK  status: ('A' for Active; 'I' for Inactive)
REMARK    1  A    between atoms: C1_2  and  C2_3 
ROOT
ATOM      1  C2  UNL d   1      -1.339   0.647  -1.275  0.00  0.00    -0.077 A 
ATOM      2  C3  UNL d   1      -1.200   0.431   0.104  0.00  0.00     0.002 A 
ATOM      3  C4  UNL d   1       0.047   0.570   0.718  0.00  0.00     0.002 A 
ATOM      4  C5  UNL d   1       1.161   0.930  -0.037  0.00  0.00    -0.004 A 
ATOM      5  C6  UNL d   1       1.033   1.145  -1.409  0.00  0.00     0.002 A 
ATOM      6  C7  UNL d   1      -0.212   1.006  -2.024  0.00  0.00     0.002 A 
ENDROOT
BRANCH   1   7
ATOM      7  C1  UNL d   1      -2.691   0.546  -1.930  0.00  0.00     0.055 C 
ATOM      8  C   UNL d   1      -2.569   0.142  -3.392  0.00  0.00     0.019 C 
ENDBRANCH   1   7
TORSDOF 1
ENDMDL
