MODEL 1
REMARK minimizedAffinity -3.89997411
REMARK minimizedRMSD -1
REMARK  1 active torsions:
REMARK  status: ('A' for Active; 'I' for Inactive)
REMARK    1  A    between atoms: C1_2  and  C2_3 
ROOT
ATOM      1  C2  UNL d   1       0.354  -0.204   0.688  0.00  0.00    -0.077 A 
ATOM      2  C3  UNL d   1       0.657  -1.294   1.516  0.00  0.00     0.002 A 
ATOM      3  C4  UNL d   1       1.892  -1.368   2.162  0.00  0.00     0.002 A 
ATOM      4  C5  UNL d   1       2.832  -0.354   1.990  0.00  0.00    -0.004 A 
ATOM      5  C6  UNL d   1       2.541   0.733   1.166  0.00  0.00     0.002 A 
ATOM      6  C7  UNL d   1       1.307   0.808   0.519  0.00  0.00     0.002 A 
ENDROOT
BRANCH   1   7
ATOM      7  C1  UNL d   1      -0.997  -0.098   0.029  0.00  0.00     0.055 C 
ATOM      8  C   UNL d   1      -0.875  -0.091  -1.487  0.00  0.00     0.019 C 
ENDBRANCH   1   7
TORSDOF 1
ENDMDL
