MODEL 1
REMARK minimizedAffinity -4.13925457
REMARK minimizedRMSD -1
REMARK  1 active torsions:
REMARK  status: ('A' for Active; 'I' for Inactive)
REMARK    1  A    between atoms: C1_2  and  C2_3 
ROOT
ATOM      1  C2  UNL d   1      -1.298   0.297  -1.482  0.00  0.00    -0.077 A 
ATOM      2  C3  UNL d   1      -1.778  -0.198  -0.262  0.00  0.00     0.002 A 
ATOM      3  C4  UNL d   1      -0.928  -0.304   0.841  0.00  0.00     0.002 A 
ATOM      4  C5  UNL d   1       0.405   0.085   0.735  0.00  0.00    -0.004 A 
ATOM      5  C6  UNL d   1       0.893   0.577  -0.475  0.00  0.00     0.002 A 
ATOM      6  C7  UNL d   1       0.046   0.683  -1.579  0.00  0.00     0.002 A 
ENDROOT
BRANCH   1   7
ATOM      7  C1  UNL d   1      -2.225   0.459  -2.659  0.00  0.00     0.055 C 
ATOM      8  C   UNL d   1      -2.887  -0.861  -3.027  0.00  0.00     0.019 C 
ENDBRANCH   1   7
TORSDOF 1
ENDMDL
