MODEL 1
REMARK minimizedAffinity -5.63278437
REMARK minimizedRMSD -1
REMARK  1 active torsions:
REMARK  status: ('A' for Active; 'I' for Inactive)
REMARK    1  A    between atoms: C1_2  and  C2_3 
ROOT
ATOM      1  C2  UNL d   1       0.273  -0.080   0.336  0.00  0.00    -0.077 A 
ATOM      2  C3  UNL d   1       0.890  -1.264   0.765  0.00  0.00     0.002 A 
ATOM      3  C4  UNL d   1       2.186  -1.237   1.283  0.00  0.00     0.002 A 
ATOM      4  C5  UNL d   1       2.874  -0.029   1.381  0.00  0.00    -0.004 A 
ATOM      5  C6  UNL d   1       2.270   1.153   0.955  0.00  0.00     0.002 A 
ATOM      6  C7  UNL d   1       0.975   1.128   0.436  0.00  0.00     0.002 A 
ENDROOT
BRANCH   1   7
ATOM      7  C1  UNL d   1      -1.143  -0.100  -0.178  0.00  0.00     0.055 C 
ATOM      8  C   UNL d   1      -1.198  -0.545  -1.632  0.00  0.00     0.019 C 
ENDBRANCH   1   7
TORSDOF 1
ENDMDL
