MODEL 1
REMARK minimizedAffinity -4.10793972
REMARK minimizedRMSD -1
REMARK  1 active torsions:
REMARK  status: ('A' for Active; 'I' for Inactive)
REMARK    1  A    between atoms: C1_2  and  C2_3 
ROOT
ATOM      1  C2  UNL d   1      -0.131   0.162   0.031  0.00  0.00    -0.077 A 
ATOM      2  C3  UNL d   1       0.732  -0.464   0.942  0.00  0.00     0.002 A 
ATOM      3  C4  UNL d   1       2.038  -0.000   1.109  0.00  0.00     0.002 A 
ATOM      4  C5  UNL d   1       2.491   1.092   0.374  0.00  0.00    -0.004 A 
ATOM      5  C6  UNL d   1       1.641   1.720  -0.536  0.00  0.00     0.002 A 
ATOM      6  C7  UNL d   1       0.335   1.258  -0.706  0.00  0.00     0.002 A 
ENDROOT
BRANCH   1   7
ATOM      7  C1  UNL d   1      -1.556  -0.306  -0.115  0.00  0.00     0.055 C 
ATOM      8  C   UNL d   1      -2.147   0.130  -1.448  0.00  0.00     0.019 C 
ENDBRANCH   1   7
TORSDOF 1
ENDMDL
