MODEL 1
REMARK minimizedAffinity -1.21906352
REMARK minimizedRMSD -1
REMARK  1 active torsions:
REMARK  status: ('A' for Active; 'I' for Inactive)
REMARK    1  A    between atoms: C1_2  and  C2_3 
ROOT
ATOM      1  C2  UNL d   1       0.492  -5.604  -3.572  0.00  0.00    -0.077 A 
ATOM      2  C3  UNL d   1       0.221  -5.990  -4.892  0.00  0.00     0.002 A 
ATOM      3  C4  UNL d   1       1.237  -5.994  -5.850  0.00  0.00     0.002 A 
ATOM      4  C5  UNL d   1       2.531  -5.617  -5.497  0.00  0.00    -0.004 A 
ATOM      5  C6  UNL d   1       2.811  -5.229  -4.187  0.00  0.00     0.002 A 
ATOM      6  C7  UNL d   1       1.796  -5.223  -3.229  0.00  0.00     0.002 A 
ENDROOT
BRANCH   1   7
ATOM      7  C1  UNL d   1      -0.591  -5.646  -2.526  0.00  0.00     0.055 C 
ATOM      8  C   UNL d   1      -1.080  -4.248  -2.179  0.00  0.00     0.019 C 
ENDBRANCH   1   7
TORSDOF 1
ENDMDL
