MODEL 1
REMARK minimizedAffinity 0.433610439
REMARK minimizedRMSD -1
REMARK  1 active torsions:
REMARK  status: ('A' for Active; 'I' for Inactive)
REMARK    1  A    between atoms: C1_2  and  C2_3 
ROOT
ATOM      1  C2  UNL d   1       1.246  -1.205   3.962  0.00  0.00    -0.077 A 
ATOM      2  C3  UNL d   1       0.174  -1.036   4.850  0.00  0.00     0.002 A 
ATOM      3  C4  UNL d   1      -1.109  -0.774   4.367  0.00  0.00     0.002 A 
ATOM      4  C5  UNL d   1      -1.333  -0.683   2.995  0.00  0.00    -0.004 A 
ATOM      5  C6  UNL d   1      -0.274  -0.848   2.104  0.00  0.00     0.002 A 
ATOM      6  C7  UNL d   1       1.010  -1.109   2.585  0.00  0.00     0.002 A 
ENDROOT
BRANCH   1   7
ATOM      7  C1  UNL d   1       2.621  -1.537   4.480  0.00  0.00     0.055 C 
ATOM      8  C   UNL d   1       2.627  -1.659   5.997  0.00  0.00     0.019 C 
ENDBRANCH   1   7
TORSDOF 1
ENDMDL
