MODEL 1
REMARK minimizedAffinity -1.14276588
REMARK minimizedRMSD -1
REMARK  1 active torsions:
REMARK  status: ('A' for Active; 'I' for Inactive)
REMARK    1  A    between atoms: C1_2  and  C2_3 
ROOT
ATOM      1  C2  UNL d   1       0.244  -1.406   3.635  0.00  0.00    -0.077 A 
ATOM      2  C3  UNL d   1      -0.757  -2.256   4.125  0.00  0.00     0.002 A 
ATOM      3  C4  UNL d   1      -2.076  -2.118   3.689  0.00  0.00     0.002 A 
ATOM      4  C5  UNL d   1      -2.405  -1.135   2.759  0.00  0.00    -0.004 A 
ATOM      5  C6  UNL d   1      -1.417  -0.283   2.266  0.00  0.00     0.002 A 
ATOM      6  C7  UNL d   1      -0.098  -0.419   2.702  0.00  0.00     0.002 A 
ENDROOT
BRANCH   1   7
ATOM      7  C1  UNL d   1       1.676  -1.585   4.066  0.00  0.00     0.055 C 
ATOM      8  C   UNL d   1       1.823  -1.436   5.573  0.00  0.00     0.019 C 
ENDBRANCH   1   7
TORSDOF 1
ENDMDL
