MODEL 1
REMARK minimizedAffinity -5.54395437
REMARK minimizedRMSD -1
REMARK  1 active torsions:
REMARK  status: ('A' for Active; 'I' for Inactive)
REMARK    1  A    between atoms: C1_2  and  C2_3 
ROOT
ATOM      1  C2  UNL d   1       0.838  -0.599   2.917  0.00  0.00    -0.077 A 
ATOM      2  C3  UNL d   1       1.156  -1.461   3.975  0.00  0.00     0.002 A 
ATOM      3  C4  UNL d   1       0.152  -1.957   4.809  0.00  0.00     0.002 A 
ATOM      4  C5  UNL d   1      -1.177  -1.598   4.592  0.00  0.00    -0.004 A 
ATOM      5  C6  UNL d   1      -1.503  -0.739   3.543  0.00  0.00     0.002 A 
ATOM      6  C7  UNL d   1      -0.501  -0.242   2.709  0.00  0.00     0.002 A 
ENDROOT
BRANCH   1   7
ATOM      7  C1  UNL d   1       1.913  -0.103   1.987  0.00  0.00     0.055 C 
ATOM      8  C   UNL d   1       1.506   1.200   1.314  0.00  0.00     0.019 C 
ENDBRANCH   1   7
TORSDOF 1
ENDMDL
