MODEL 1
REMARK minimizedAffinity -3.77681851
REMARK minimizedRMSD -1
REMARK  1 active torsions:
REMARK  status: ('A' for Active; 'I' for Inactive)
REMARK    1  A    between atoms: C1_2  and  C2_3 
ROOT
ATOM      1  C2  UNL d   1       0.032  -1.073   3.442  0.00  0.00    -0.077 A 
ATOM      2  C3  UNL d   1       0.885  -0.910   2.341  0.00  0.00     0.002 A 
ATOM      3  C4  UNL d   1       0.366  -0.567   1.091  0.00  0.00     0.002 A 
ATOM      4  C5  UNL d   1      -1.006  -0.379   0.932  0.00  0.00    -0.004 A 
ATOM      5  C6  UNL d   1      -1.862  -0.540   2.021  0.00  0.00     0.002 A 
ATOM      6  C7  UNL d   1      -1.345  -0.884   3.270  0.00  0.00     0.002 A 
ENDROOT
BRANCH   1   7
ATOM      7  C1  UNL d   1       0.595  -1.395   4.802  0.00  0.00     0.055 C 
ATOM      8  C   UNL d   1       2.104  -1.586   4.746  0.00  0.00     0.019 C 
ENDBRANCH   1   7
TORSDOF 1
ENDMDL
