MODEL 1
REMARK minimizedAffinity 5.017272
REMARK minimizedRMSD -1
REMARK  1 active torsions:
REMARK  status: ('A' for Active; 'I' for Inactive)
REMARK    1  A    between atoms: C1_2  and  C2_3 
ROOT
ATOM      1  C2  UNL d   1       1.716  -1.268   3.450  0.00  0.00    -0.077 A 
ATOM      2  C3  UNL d   1       1.256  -0.510   4.536  0.00  0.00     0.002 A 
ATOM      3  C4  UNL d   1       1.809  -0.688   5.806  0.00  0.00     0.002 A 
ATOM      4  C5  UNL d   1       2.827  -1.620   6.000  0.00  0.00    -0.004 A 
ATOM      5  C6  UNL d   1       3.289  -2.380   4.926  0.00  0.00     0.002 A 
ATOM      6  C7  UNL d   1       2.737  -2.204   3.657  0.00  0.00     0.002 A 
ENDROOT
BRANCH   1   7
ATOM      7  C1  UNL d   1       1.155  -1.043   2.070  0.00  0.00     0.055 C 
ATOM      8  C   UNL d   1       0.094   0.048   2.075  0.00  0.00     0.019 C 
ENDBRANCH   1   7
TORSDOF 1
ENDMDL
