MODEL 1
REMARK minimizedAffinity 1.72930312
REMARK minimizedRMSD -1
REMARK  2 active torsions:
REMARK  status: ('A' for Active; 'I' for Inactive)
REMARK    1  A    between atoms: C1_2  and  C2_3 
REMARK    2  A    between atoms: C2_3  and  C3_4 
ROOT
ATOM      1  C3  UNL d   1      -2.219   1.537  -3.838  0.00  0.00    -0.075 A 
ATOM      2  C4  UNL d   1      -1.279   2.522  -3.502  0.00  0.00     0.002 A 
ATOM      3  C5  UNL d   1      -1.651   3.620  -2.726  0.00  0.00     0.002 A 
ATOM      4  C6  UNL d   1      -2.966   3.752  -2.285  0.00  0.00    -0.004 A 
ATOM      5  C7  UNL d   1      -3.912   2.787  -2.626  0.00  0.00     0.002 A 
ATOM      6  C8  UNL d   1      -3.541   1.685  -3.399  0.00  0.00     0.002 A 
ENDROOT
BRANCH   1   7
ATOM      7  C2  UNL d   1      -1.816   0.331  -4.653  0.00  0.00     0.056 C 
BRANCH   7   8
ATOM      8  C1  UNL d   1      -1.188  -0.798  -3.828  0.00  0.00     0.007 C 
ATOM      9  C   UNL d   1       0.192  -1.208  -4.324  0.00  0.00     0.009 C 
ENDBRANCH   7   8
ENDBRANCH   1   7
TORSDOF 2
ENDMDL
