MODEL 1
REMARK minimizedAffinity -2.51672053
REMARK minimizedRMSD -1
REMARK  2 active torsions:
REMARK  status: ('A' for Active; 'I' for Inactive)
REMARK    1  A    between atoms: C1_2  and  C2_3 
REMARK    2  A    between atoms: C2_3  and  C3_4 
ROOT
ATOM      1  C3  UNL d   1      -0.042  -1.886   1.994  0.00  0.00    -0.075 A 
ATOM      2  C4  UNL d   1       0.019  -3.195   2.493  0.00  0.00     0.002 A 
ATOM      3  C5  UNL d   1       0.915  -4.119   1.953  0.00  0.00     0.002 A 
ATOM      4  C6  UNL d   1       1.751  -3.750   0.902  0.00  0.00    -0.004 A 
ATOM      5  C7  UNL d   1       1.687  -2.457   0.386  0.00  0.00     0.002 A 
ATOM      6  C8  UNL d   1       0.796  -1.529   0.928  0.00  0.00     0.002 A 
ENDROOT
BRANCH   1   7
ATOM      7  C2  UNL d   1      -0.987  -0.874   2.594  0.00  0.00     0.056 C 
BRANCH   7   8
ATOM      8  C1  UNL d   1      -1.634   0.061   1.566  0.00  0.00     0.007 C 
ATOM      9  C   UNL d   1      -2.951  -0.471   1.015  0.00  0.00     0.009 C 
ENDBRANCH   7   8
ENDBRANCH   1   7
TORSDOF 2
ENDMDL
