MODEL 1
REMARK minimizedAffinity 1.5837487
REMARK minimizedRMSD -1
REMARK  2 active torsions:
REMARK  status: ('A' for Active; 'I' for Inactive)
REMARK    1  A    between atoms: C1_2  and  C2_3 
REMARK    2  A    between atoms: C2_3  and  C3_4 
ROOT
ATOM      1  C3  UNL d   1      -0.321  -1.771   1.514  0.00  0.00    -0.075 A 
ATOM      2  C4  UNL d   1      -1.673  -1.741   1.886  0.00  0.00     0.002 A 
ATOM      3  C5  UNL d   1      -2.561  -0.868   1.257  0.00  0.00     0.002 A 
ATOM      4  C6  UNL d   1      -2.109  -0.008   0.259  0.00  0.00    -0.004 A 
ATOM      5  C7  UNL d   1      -0.764  -0.018  -0.107  0.00  0.00     0.002 A 
ATOM      6  C8  UNL d   1       0.126  -0.894   0.517  0.00  0.00     0.002 A 
ENDROOT
BRANCH   1   7
ATOM      7  C2  UNL d   1       0.639  -2.735   2.170  0.00  0.00     0.056 C 
BRANCH   7   8
ATOM      8  C1  UNL d   1       1.625  -3.391   1.198  0.00  0.00     0.007 C 
ATOM      9  C   UNL d   1       2.219  -4.689   1.730  0.00  0.00     0.009 C 
ENDBRANCH   7   8
ENDBRANCH   1   7
TORSDOF 2
ENDMDL
