MODEL 1
REMARK minimizedAffinity -2.5826931
REMARK minimizedRMSD -1
REMARK  2 active torsions:
REMARK  status: ('A' for Active; 'I' for Inactive)
REMARK    1  A    between atoms: C1_2  and  C2_3 
REMARK    2  A    between atoms: C2_3  and  C3_4 
ROOT
ATOM      1  C3  UNL d   1       0.594  -1.179   0.468  0.00  0.00    -0.075 A 
ATOM      2  C4  UNL d   1       1.183  -2.422   0.742  0.00  0.00     0.002 A 
ATOM      3  C5  UNL d   1       0.747  -3.190   1.822  0.00  0.00     0.002 A 
ATOM      4  C6  UNL d   1      -0.274  -2.722   2.646  0.00  0.00    -0.004 A 
ATOM      5  C7  UNL d   1      -0.855  -1.482   2.393  0.00  0.00     0.002 A 
ATOM      6  C8  UNL d   1      -0.424  -0.713   1.310  0.00  0.00     0.002 A 
ENDROOT
BRANCH   1   7
ATOM      7  C2  UNL d   1       1.041  -0.357  -0.717  0.00  0.00     0.056 C 
BRANCH   7   8
ATOM      8  C1  UNL d   1       0.360  -0.741  -2.035  0.00  0.00     0.007 C 
ATOM      9  C   UNL d   1      -1.150  -0.886  -1.911  0.00  0.00     0.009 C 
ENDBRANCH   7   8
ENDBRANCH   1   7
TORSDOF 2
ENDMDL
