MODEL 1
REMARK minimizedAffinity -1.41558218
REMARK minimizedRMSD -1
REMARK  2 active torsions:
REMARK  status: ('A' for Active; 'I' for Inactive)
REMARK    1  A    between atoms: C1_2  and  C2_3 
REMARK    2  A    between atoms: C2_3  and  C3_4 
ROOT
ATOM      1  C3  UNL d   1      -0.106  -2.727   2.736  0.00  0.00    -0.075 A 
ATOM      2  C4  UNL d   1       1.164  -2.767   2.143  0.00  0.00     0.002 A 
ATOM      3  C5  UNL d   1       1.802  -3.987   1.917  0.00  0.00     0.002 A 
ATOM      4  C6  UNL d   1       1.185  -5.179   2.290  0.00  0.00    -0.004 A 
ATOM      5  C7  UNL d   1      -0.070  -5.150   2.894  0.00  0.00     0.002 A 
ATOM      6  C8  UNL d   1      -0.713  -3.931   3.117  0.00  0.00     0.002 A 
ENDROOT
BRANCH   1   7
ATOM      7  C2  UNL d   1      -0.815  -1.412   2.956  0.00  0.00     0.056 C 
BRANCH   7   8
ATOM      8  C1  UNL d   1      -0.662  -0.419   1.798  0.00  0.00     0.007 C 
ATOM      9  C   UNL d   1      -1.994   0.026   1.209  0.00  0.00     0.009 C 
ENDBRANCH   7   8
ENDBRANCH   1   7
TORSDOF 2
ENDMDL
