MODEL 1
REMARK minimizedAffinity -2.28443027
REMARK minimizedRMSD -1
REMARK  0 active torsions:
REMARK  status: ('A' for Active; 'I' for Inactive)
ROOT
ATOM      1  C   UNL d   1       1.733  -0.883   0.441  0.00  0.00     0.020 A 
ATOM      2  C1  UNL d   1       1.063  -1.337  -0.694  0.00  0.00     0.020 A 
ATOM      3  C2  UNL d   1      -0.286  -1.028  -0.879  0.00  0.00     0.034 A 
ATOM      4  C3  UNL d   1      -0.969  -0.262   0.073  0.00  0.00     0.017 A 
ATOM      5  C4  UNL d   1      -0.295   0.194   1.212  0.00  0.00     0.017 A 
ATOM      6  C5  UNL d   1       1.056  -0.118   1.391  0.00  0.00     0.034 A 
ATOM      7 Cl   UNL d   1      -1.071   1.145   2.429  0.00  0.00    -0.070 Cl
ATOM      8 Cl1  UNL d   1      -2.637   0.084  -0.220  0.00  0.00    -0.070 Cl
ENDROOT
TORSDOF 0
ENDMDL
