MODEL 1
REMARK minimizedAffinity -0.943434
REMARK minimizedRMSD -1
REMARK  0 active torsions:
REMARK  status: ('A' for Active; 'I' for Inactive)
ROOT
ATOM      1  C   UNL d   1      -1.547   0.463   2.251  0.00  0.00     0.020 A 
ATOM      2  C1  UNL d   1      -0.511  -0.414   1.932  0.00  0.00     0.020 A 
ATOM      3  C2  UNL d   1       0.043  -0.404   0.650  0.00  0.00     0.034 A 
ATOM      4  C3  UNL d   1      -0.439   0.484  -0.318  0.00  0.00     0.017 A 
ATOM      5  C4  UNL d   1      -1.479   1.364   0.003  0.00  0.00     0.017 A 
ATOM      6  C5  UNL d   1      -2.030   1.350   1.288  0.00  0.00     0.034 A 
ATOM      7 Cl   UNL d   1      -2.127   2.489  -1.139  0.00  0.00    -0.070 Cl
ATOM      8 Cl1  UNL d   1       0.292   0.442  -1.883  0.00  0.00    -0.070 Cl
ENDROOT
TORSDOF 0
ENDMDL
