MODEL 1
REMARK minimizedAffinity -1.45530391
REMARK minimizedRMSD -1
REMARK  0 active torsions:
REMARK  status: ('A' for Active; 'I' for Inactive)
ROOT
ATOM      1  C   UNL d   1      -0.949  -0.047  -0.923  0.00  0.00     0.020 A 
ATOM      2  C1  UNL d   1       0.330  -0.566  -1.119  0.00  0.00     0.020 A 
ATOM      3  C2  UNL d   1       1.192  -0.727  -0.033  0.00  0.00     0.034 A 
ATOM      4  C3  UNL d   1       0.777  -0.368   1.255  0.00  0.00     0.017 A 
ATOM      5  C4  UNL d   1      -0.507   0.153   1.450  0.00  0.00     0.017 A 
ATOM      6  C5  UNL d   1      -1.367   0.312   0.359  0.00  0.00     0.034 A 
ATOM      7 Cl   UNL d   1      -1.091   0.619   3.009  0.00  0.00    -0.070 Cl
ATOM      8 Cl1  UNL d   1       1.895  -0.594   2.552  0.00  0.00    -0.070 Cl
ENDROOT
TORSDOF 0
ENDMDL
