MODEL 1
REMARK minimizedAffinity 17.3036175
REMARK minimizedRMSD -1
REMARK  0 active torsions:
REMARK  status: ('A' for Active; 'I' for Inactive)
ROOT
ATOM      1  C   UNL d   1       1.200  -2.453   2.459  0.00  0.00     0.124 A 
ATOM      2  C1  UNL d   1       1.548  -3.786   2.285  0.00  0.00     0.062 A 
ATOM      3  C2  UNL d   1       1.262  -4.719   3.278  0.00  0.00     0.162 A 
ATOM      4  C3  UNL d   1       0.625  -4.323   4.454  0.00  0.00    -0.034 A 
ATOM      5  C4  UNL d   1       0.280  -2.981   4.622  0.00  0.00     0.162 A 
ATOM      6  C5  UNL d   1       0.567  -2.052   3.627  0.00  0.00     0.062 A 
ATOM      7  F   UNL d   1       0.230  -0.765   3.797  0.00  0.00    -0.097 F 
ATOM      8  F1  UNL d   1      -0.334  -2.566   5.740  0.00  0.00    -0.096 F 
ATOM      9  I   UNL d   1       0.197  -5.715   5.941  0.00  0.00    -0.060 I 
ATOM     10  F2  UNL d   1       1.609  -6.000   3.083  0.00  0.00    -0.096 F 
ATOM     11  F3  UNL d   1       2.160  -4.176   1.158  0.00  0.00    -0.097 F 
ATOM     12  F4  UNL d   1       1.477  -1.557   1.503  0.00  0.00    -0.092 F 
ENDROOT
TORSDOF 0
ENDMDL
