MODEL 1
REMARK minimizedAffinity 14.7668972
REMARK minimizedRMSD -1
REMARK  0 active torsions:
REMARK  status: ('A' for Active; 'I' for Inactive)
ROOT
ATOM      1  C   UNL d   1       5.033   4.126  -4.960  0.00  0.00     0.124 A 
ATOM      2  C1  UNL d   1       5.091   5.009  -3.891  0.00  0.00     0.062 A 
ATOM      3  C2  UNL d   1       4.208   4.875  -2.823  0.00  0.00     0.162 A 
ATOM      4  C3  UNL d   1       3.260   3.852  -2.818  0.00  0.00    -0.034 A 
ATOM      5  C4  UNL d   1       3.207   2.968  -3.897  0.00  0.00     0.162 A 
ATOM      6  C5  UNL d   1       4.091   3.106  -4.962  0.00  0.00     0.062 A 
ATOM      7  F   UNL d   1       4.034   2.252  -5.994  0.00  0.00    -0.097 F 
ATOM      8  F1  UNL d   1       2.308   1.973  -3.925  0.00  0.00    -0.096 F 
ATOM      9  I   UNL d   1       1.939   3.647  -1.224  0.00  0.00    -0.060 I 
ATOM     10  F2  UNL d   1       4.287   5.743  -1.803  0.00  0.00    -0.096 F 
ATOM     11  F3  UNL d   1       5.999   5.996  -3.887  0.00  0.00    -0.097 F 
ATOM     12  F4  UNL d   1       5.883   4.258  -5.987  0.00  0.00    -0.092 F 
ENDROOT
TORSDOF 0
ENDMDL
