MODEL 1
REMARK minimizedAffinity 14.5624666
REMARK minimizedRMSD -1
REMARK  0 active torsions:
REMARK  status: ('A' for Active; 'I' for Inactive)
ROOT
ATOM      1  C   UNL d   1       0.748  -0.756   2.022  0.00  0.00     0.124 A 
ATOM      2  C1  UNL d   1       2.049  -1.234   2.098  0.00  0.00     0.062 A 
ATOM      3  C2  UNL d   1       2.479  -1.917   3.232  0.00  0.00     0.162 A 
ATOM      4  C3  UNL d   1       1.606  -2.127   4.300  0.00  0.00    -0.034 A 
ATOM      5  C4  UNL d   1       0.300  -1.643   4.217  0.00  0.00     0.162 A 
ATOM      6  C5  UNL d   1      -0.125  -0.961   3.081  0.00  0.00     0.062 A 
ATOM      7  F   UNL d   1      -1.383  -0.500   3.010  0.00  0.00    -0.097 F 
ATOM      8  F1  UNL d   1      -0.565  -1.827   5.225  0.00  0.00    -0.096 F 
ATOM      9  I   UNL d   1       2.246  -3.148   5.997  0.00  0.00    -0.060 I 
ATOM     10  F2  UNL d   1       3.741  -2.367   3.277  0.00  0.00    -0.096 F 
ATOM     11  F3  UNL d   1       2.894  -1.036   1.076  0.00  0.00    -0.097 F 
ATOM     12  F4  UNL d   1       0.337  -0.098   0.930  0.00  0.00    -0.092 F 
ENDROOT
TORSDOF 0
ENDMDL
