MODEL 1
REMARK minimizedAffinity 29.8581295
REMARK minimizedRMSD -1
REMARK  0 active torsions:
REMARK  status: ('A' for Active; 'I' for Inactive)
ROOT
ATOM      1  C   UNL d   1       3.565  -0.015   0.286  0.00  0.00     0.124 A 
ATOM      2  C1  UNL d   1       3.835  -1.243   0.873  0.00  0.00     0.062 A 
ATOM      3  C2  UNL d   1       3.023  -1.724   1.896  0.00  0.00     0.162 A 
ATOM      4  C3  UNL d   1       1.931  -0.978   2.338  0.00  0.00    -0.034 A 
ATOM      5  C4  UNL d   1       1.665   0.257   1.743  0.00  0.00     0.162 A 
ATOM      6  C5  UNL d   1       2.480   0.734   0.722  0.00  0.00     0.062 A 
ATOM      7  F   UNL d   1       2.217   1.921   0.156  0.00  0.00    -0.097 F 
ATOM      8  F1  UNL d   1       0.624   1.001   2.144  0.00  0.00    -0.096 F 
ATOM      9  I   UNL d   1       0.713  -1.694   3.866  0.00  0.00    -0.060 I 
ATOM     10  F2  UNL d   1       3.308  -2.915   2.445  0.00  0.00    -0.096 F 
ATOM     11  F3  UNL d   1       4.883  -1.968   0.455  0.00  0.00    -0.097 F 
ATOM     12  F4  UNL d   1       4.349   0.447  -0.697  0.00  0.00    -0.092 F 
ENDROOT
TORSDOF 0
ENDMDL
