MODEL 1
REMARK minimizedAffinity 22.2236786
REMARK minimizedRMSD -1
REMARK  0 active torsions:
REMARK  status: ('A' for Active; 'I' for Inactive)
ROOT
ATOM      1  C   UNL d   1      -4.333   1.828  -2.642  0.00  0.00     0.124 A 
ATOM      2  C1  UNL d   1      -4.180   0.514  -2.221  0.00  0.00     0.062 A 
ATOM      3  C2  UNL d   1      -4.592  -0.535  -3.038  0.00  0.00     0.162 A 
ATOM      4  C3  UNL d   1      -5.159  -0.275  -4.285  0.00  0.00    -0.034 A 
ATOM      5  C4  UNL d   1      -5.311   1.049  -4.701  0.00  0.00     0.162 A 
ATOM      6  C5  UNL d   1      -4.899   2.094  -3.881  0.00  0.00     0.062 A 
ATOM      7  F   UNL d   1      -5.047   3.363  -4.289  0.00  0.00    -0.097 F 
ATOM      8  F1  UNL d   1      -5.853   1.335  -5.894  0.00  0.00    -0.096 F 
ATOM      9  I   UNL d   1      -5.776  -1.840  -5.510  0.00  0.00    -0.060 I 
ATOM     10  F2  UNL d   1      -4.431  -1.795  -2.606  0.00  0.00    -0.096 F 
ATOM     11  F3  UNL d   1      -3.635   0.254  -1.024  0.00  0.00    -0.097 F 
ATOM     12  F4  UNL d   1      -3.938   2.835  -1.853  0.00  0.00    -0.092 F 
ENDROOT
TORSDOF 0
ENDMDL
