MODEL 1
REMARK minimizedAffinity 17.6349964
REMARK minimizedRMSD -1
REMARK  0 active torsions:
REMARK  status: ('A' for Active; 'I' for Inactive)
ROOT
ATOM      1  C   UNL d   1       1.038  -2.066   4.247  0.00  0.00     0.124 A 
ATOM      2  C1  UNL d   1       1.198  -0.720   4.545  0.00  0.00     0.062 A 
ATOM      3  C2  UNL d   1       1.595   0.174   3.555  0.00  0.00     0.162 A 
ATOM      4  C3  UNL d   1       1.834  -0.275   2.256  0.00  0.00    -0.034 A 
ATOM      5  C4  UNL d   1       1.671  -1.631   1.964  0.00  0.00     0.162 A 
ATOM      6  C5  UNL d   1       1.274  -2.520   2.957  0.00  0.00     0.062 A 
ATOM      7  F   UNL d   1       1.120  -3.820   2.667  0.00  0.00    -0.097 F 
ATOM      8  F1  UNL d   1       1.892  -2.096   0.725  0.00  0.00    -0.096 F 
ATOM      9  I   UNL d   1       2.427   1.058   0.772  0.00  0.00    -0.060 I 
ATOM     10  F2  UNL d   1       1.743   1.469   3.871  0.00  0.00    -0.096 F 
ATOM     11  F3  UNL d   1       0.972  -0.279   5.791  0.00  0.00    -0.097 F 
ATOM     12  F4  UNL d   1       0.657  -2.924   5.202  0.00  0.00    -0.092 F 
ENDROOT
TORSDOF 0
ENDMDL
