MODEL 1
REMARK minimizedAffinity -1.13677704
REMARK minimizedRMSD -1
REMARK  2 active torsions:
REMARK  status: ('A' for Active; 'I' for Inactive)
REMARK    1  A    between atoms: C1_2  and  C2_3 
REMARK    2  A    between atoms: C2_3  and  C3_4 
ROOT
ATOM      1  C3  UNL d   1       0.566  -1.249  -0.456  0.00  0.00    -0.075 A 
ATOM      2  C4  UNL d   1       0.024  -0.138   0.206  0.00  0.00     0.002 A 
ATOM      3  C5  UNL d   1      -0.387   0.985  -0.513  0.00  0.00     0.002 A 
ATOM      4  C6  UNL d   1      -0.252   1.016  -1.899  0.00  0.00    -0.004 A 
ATOM      5  C7  UNL d   1       0.301  -0.075  -2.566  0.00  0.00     0.002 A 
ATOM      6  C8  UNL d   1       0.709  -1.202  -1.850  0.00  0.00     0.002 A 
ENDROOT
BRANCH   1   7
ATOM      7  C2  UNL d   1       0.985  -2.478   0.313  0.00  0.00     0.056 C 
BRANCH   7   8
ATOM      8  C1  UNL d   1       0.017  -3.659   0.178  0.00  0.00     0.007 C 
ATOM      9  C   UNL d   1      -1.445  -3.233   0.127  0.00  0.00     0.009 C 
ENDBRANCH   7   8
ENDBRANCH   1   7
TORSDOF 2
ENDMDL
