MODEL 1
REMARK minimizedAffinity -1.94473183
REMARK minimizedRMSD -1
REMARK  2 active torsions:
REMARK  status: ('A' for Active; 'I' for Inactive)
REMARK    1  A    between atoms: C1_2  and  C2_3 
REMARK    2  A    between atoms: C2_3  and  C3_4 
ROOT
ATOM      1  C3  UNL d   1       0.650   2.466   0.052  0.00  0.00    -0.075 A 
ATOM      2  C4  UNL d   1       2.039   2.278   0.036  0.00  0.00     0.002 A 
ATOM      3  C5  UNL d   1       2.872   3.075   0.822  0.00  0.00     0.002 A 
ATOM      4  C6  UNL d   1       2.328   4.076   1.624  0.00  0.00    -0.004 A 
ATOM      5  C7  UNL d   1       0.951   4.283   1.636  0.00  0.00     0.002 A 
ATOM      6  C8  UNL d   1       0.115   3.484   0.854  0.00  0.00     0.002 A 
ENDROOT
BRANCH   1   7
ATOM      7  C2  UNL d   1      -0.259   1.587  -0.773  0.00  0.00     0.056 C 
BRANCH   7   8
ATOM      8  C1  UNL d   1       0.017   0.088  -0.621  0.00  0.00     0.007 C 
ATOM      9  C   UNL d   1       0.010  -0.661  -1.947  0.00  0.00     0.009 C 
ENDBRANCH   7   8
ENDBRANCH   1   7
TORSDOF 2
ENDMDL
