MODEL 1
REMARK minimizedAffinity -3.0131588
REMARK minimizedRMSD -1
REMARK  2 active torsions:
REMARK  status: ('A' for Active; 'I' for Inactive)
REMARK    1  A    between atoms: C1_2  and  C2_3 
REMARK    2  A    between atoms: C2_3  and  C3_4 
ROOT
ATOM      1  C3  UNL d   1      -0.318  -0.117   0.283  0.00  0.00    -0.075 A 
ATOM      2  C4  UNL d   1      -1.267  -0.362   1.286  0.00  0.00     0.002 A 
ATOM      3  C5  UNL d   1      -1.709  -1.660   1.542  0.00  0.00     0.002 A 
ATOM      4  C6  UNL d   1      -1.217  -2.727   0.793  0.00  0.00    -0.004 A 
ATOM      5  C7  UNL d   1      -0.287  -2.493  -0.217  0.00  0.00     0.002 A 
ATOM      6  C8  UNL d   1       0.161  -1.196  -0.472  0.00  0.00     0.002 A 
ENDROOT
BRANCH   1   7
ATOM      7  C2  UNL d   1       0.186   1.282   0.021  0.00  0.00     0.056 C 
BRANCH   7   8
ATOM      8  C1  UNL d   1       1.390   1.682   0.881  0.00  0.00     0.007 C 
ATOM      9  C   UNL d   1       1.815   3.131   0.681  0.00  0.00     0.009 C 
ENDBRANCH   7   8
ENDBRANCH   1   7
TORSDOF 2
ENDMDL
