MODEL 1
REMARK minimizedAffinity -3.36210322
REMARK minimizedRMSD -1
REMARK  2 active torsions:
REMARK  status: ('A' for Active; 'I' for Inactive)
REMARK    1  A    between atoms: C1_2  and  C2_3 
REMARK    2  A    between atoms: C2_3  and  C3_4 
ROOT
ATOM      1  C3  UNL d   1       0.466   0.571   0.317  0.00  0.00    -0.075 A 
ATOM      2  C4  UNL d   1       0.884   1.819   0.800  0.00  0.00     0.002 A 
ATOM      3  C5  UNL d   1       0.928   2.928  -0.045  0.00  0.00     0.002 A 
ATOM      4  C6  UNL d   1       0.564   2.802  -1.384  0.00  0.00    -0.004 A 
ATOM      5  C7  UNL d   1       0.162   1.563  -1.879  0.00  0.00     0.002 A 
ATOM      6  C8  UNL d   1       0.113   0.452  -1.034  0.00  0.00     0.002 A 
ENDROOT
BRANCH   1   7
ATOM      7  C2  UNL d   1       0.388  -0.627   1.233  0.00  0.00     0.056 C 
BRANCH   7   8
ATOM      8  C1  UNL d   1      -0.931  -1.400   1.139  0.00  0.00     0.007 C 
ATOM      9  C   UNL d   1      -0.799  -2.724   0.398  0.00  0.00     0.009 C 
ENDBRANCH   7   8
ENDBRANCH   1   7
TORSDOF 2
ENDMDL
