MODEL 1
REMARK minimizedAffinity -4.74173784
REMARK minimizedRMSD -1
REMARK  2 active torsions:
REMARK  status: ('A' for Active; 'I' for Inactive)
REMARK    1  A    between atoms: C1_2  and  C2_3 
REMARK    2  A    between atoms: C2_3  and  C3_4 
ROOT
ATOM      1  C3  UNL d   1      -0.109  -0.103   0.270  0.00  0.00    -0.075 A 
ATOM      2  C4  UNL d   1      -0.800  -0.831   1.250  0.00  0.00     0.002 A 
ATOM      3  C5  UNL d   1      -0.879  -2.222   1.174  0.00  0.00     0.002 A 
ATOM      4  C6  UNL d   1      -0.278  -2.901   0.116  0.00  0.00    -0.004 A 
ATOM      5  C7  UNL d   1       0.396  -2.186  -0.872  0.00  0.00     0.002 A 
ATOM      6  C8  UNL d   1       0.480  -0.795  -0.797  0.00  0.00     0.002 A 
ENDROOT
BRANCH   1   7
ATOM      7  C2  UNL d   1       0.005   1.400   0.361  0.00  0.00     0.056 C 
BRANCH   7   8
ATOM      8  C1  UNL d   1       1.447   1.915   0.393  0.00  0.00     0.007 C 
ATOM      9  C   UNL d   1       1.577   3.299   1.015  0.00  0.00     0.009 C 
ENDBRANCH   7   8
ENDBRANCH   1   7
TORSDOF 2
ENDMDL
