MODEL 1
REMARK minimizedAffinity -5.68156862
REMARK minimizedRMSD -1
REMARK  2 active torsions:
REMARK  status: ('A' for Active; 'I' for Inactive)
REMARK    1  A    between atoms: C1_2  and  C2_3 
REMARK    2  A    between atoms: C2_3  and  C3_4 
ROOT
ATOM      1  C3  UNL d   1      -0.432  -1.373  -0.260  0.00  0.00    -0.075 A 
ATOM      2  C4  UNL d   1      -0.334  -2.724   0.105  0.00  0.00     0.002 A 
ATOM      3  C5  UNL d   1      -0.200  -3.713  -0.870  0.00  0.00     0.002 A 
ATOM      4  C6  UNL d   1      -0.173  -3.366  -2.219  0.00  0.00    -0.004 A 
ATOM      5  C7  UNL d   1      -0.286  -2.029  -2.594  0.00  0.00     0.002 A 
ATOM      6  C8  UNL d   1      -0.415  -1.037  -1.620  0.00  0.00     0.002 A 
ENDROOT
BRANCH   1   7
ATOM      7  C2  UNL d   1      -0.547  -0.295   0.792  0.00  0.00     0.056 C 
BRANCH   7   8
ATOM      8  C1  UNL d   1      -0.703   1.118   0.222  0.00  0.00     0.007 C 
ATOM      9  C   UNL d   1      -2.121   1.661   0.341  0.00  0.00     0.009 C 
ENDBRANCH   7   8
ENDBRANCH   1   7
TORSDOF 2
ENDMDL
