MODEL 1
REMARK minimizedAffinity -5.43456125
REMARK minimizedRMSD -1
REMARK  2 active torsions:
REMARK  status: ('A' for Active; 'I' for Inactive)
REMARK    1  A    between atoms: C1_2  and  C2_3 
REMARK    2  A    between atoms: C2_3  and  C3_4 
ROOT
ATOM      1  C3  UNL d   1      -0.600  -1.046   0.403  0.00  0.00    -0.075 A 
ATOM      2  C4  UNL d   1       0.072  -0.633  -0.757  0.00  0.00     0.002 A 
ATOM      3  C5  UNL d   1       0.544  -1.572  -1.674  0.00  0.00     0.002 A 
ATOM      4  C6  UNL d   1       0.360  -2.933  -1.439  0.00  0.00    -0.004 A 
ATOM      5  C7  UNL d   1      -0.291  -3.355  -0.282  0.00  0.00     0.002 A 
ATOM      6  C8  UNL d   1      -0.768  -2.417   0.635  0.00  0.00     0.002 A 
ENDROOT
BRANCH   1   7
ATOM      7  C2  UNL d   1      -1.139  -0.033   1.385  0.00  0.00     0.056 C 
BRANCH   7   8
ATOM      8  C1  UNL d   1      -2.289   0.818   0.835  0.00  0.00     0.007 C 
ATOM      9  C   UNL d   1      -3.370   1.106   1.868  0.00  0.00     0.009 C 
ENDBRANCH   7   8
ENDBRANCH   1   7
TORSDOF 2
ENDMDL
