MODEL 1
REMARK minimizedAffinity -3.40696764
REMARK minimizedRMSD -1
REMARK  2 active torsions:
REMARK  status: ('A' for Active; 'I' for Inactive)
REMARK    1  A    between atoms: C1_2  and  C2_3 
REMARK    2  A    between atoms: C2_3  and  C3_4 
ROOT
ATOM      1  C3  UNL d   1      -0.367   0.085  -0.101  0.00  0.00    -0.075 A 
ATOM      2  C4  UNL d   1      -0.334  -0.645  -1.298  0.00  0.00     0.002 A 
ATOM      3  C5  UNL d   1      -0.693  -1.993  -1.317  0.00  0.00     0.002 A 
ATOM      4  C6  UNL d   1      -1.078  -2.630  -0.140  0.00  0.00    -0.004 A 
ATOM      5  C7  UNL d   1      -1.099  -1.920   1.059  0.00  0.00     0.002 A 
ATOM      6  C8  UNL d   1      -0.745  -0.570   1.079  0.00  0.00     0.002 A 
ENDROOT
BRANCH   1   7
ATOM      7  C2  UNL d   1      -0.009   1.551  -0.079  0.00  0.00     0.056 C 
BRANCH   7   8
ATOM      8  C1  UNL d   1       1.435   1.834   0.351  0.00  0.00     0.007 C 
ATOM      9  C   UNL d   1       1.670   3.286   0.746  0.00  0.00     0.009 C 
ENDBRANCH   7   8
ENDBRANCH   1   7
TORSDOF 2
ENDMDL
