MODEL 1
REMARK minimizedAffinity -5.48699093
REMARK minimizedRMSD -1
REMARK  2 active torsions:
REMARK  status: ('A' for Active; 'I' for Inactive)
REMARK    1  A    between atoms: C1_2  and  C2_3 
REMARK    2  A    between atoms: C2_3  and  C3_4 
ROOT
ATOM      1  C3  UNL d   1       0.776   1.488   0.568  0.00  0.00    -0.075 A 
ATOM      2  C4  UNL d   1       0.814   0.902   1.842  0.00  0.00     0.002 A 
ATOM      3  C5  UNL d   1      -0.101  -0.092   2.192  0.00  0.00     0.002 A 
ATOM      4  C6  UNL d   1      -1.069  -0.505   1.279  0.00  0.00    -0.004 A 
ATOM      5  C7  UNL d   1      -1.126   0.082   0.017  0.00  0.00     0.002 A 
ATOM      6  C8  UNL d   1      -0.210   1.074  -0.337  0.00  0.00     0.002 A 
ENDROOT
BRANCH   1   7
ATOM      7  C2  UNL d   1       1.781   2.543   0.173  0.00  0.00     0.056 C 
BRANCH   7   8
ATOM      8  C1  UNL d   1       2.602   3.092   1.345  0.00  0.00     0.007 C 
ATOM      9  C   UNL d   1       2.212   4.510   1.739  0.00  0.00     0.009 C 
ENDBRANCH   7   8
ENDBRANCH   1   7
TORSDOF 2
ENDMDL
