MODEL 1
REMARK minimizedAffinity -3.64606452
REMARK minimizedRMSD -1
REMARK  2 active torsions:
REMARK  status: ('A' for Active; 'I' for Inactive)
REMARK    1  A    between atoms: C1_2  and  C2_3 
REMARK    2  A    between atoms: C2_3  and  C3_4 
ROOT
ATOM      1  C3  UNL d   1       0.245   1.662  -0.300  0.00  0.00    -0.075 A 
ATOM      2  C4  UNL d   1      -0.182   1.218  -1.560  0.00  0.00     0.002 A 
ATOM      3  C5  UNL d   1      -0.430  -0.136  -1.787  0.00  0.00     0.002 A 
ATOM      4  C6  UNL d   1      -0.246  -1.063  -0.763  0.00  0.00    -0.004 A 
ATOM      5  C7  UNL d   1       0.194  -0.634   0.488  0.00  0.00     0.002 A 
ATOM      6  C8  UNL d   1       0.439   0.720   0.719  0.00  0.00     0.002 A 
ENDROOT
BRANCH   1   7
ATOM      7  C2  UNL d   1       0.487   3.130  -0.040  0.00  0.00     0.056 C 
BRANCH   7   8
ATOM      8  C1  UNL d   1       1.947   3.562  -0.214  0.00  0.00     0.007 C 
ATOM      9  C   UNL d   1       2.478   4.371   0.961  0.00  0.00     0.009 C 
ENDBRANCH   7   8
ENDBRANCH   1   7
TORSDOF 2
ENDMDL
