MODEL 1
REMARK minimizedAffinity -4.60348177
REMARK minimizedRMSD -1
REMARK  2 active torsions:
REMARK  status: ('A' for Active; 'I' for Inactive)
REMARK    1  A    between atoms: C1_2  and  C2_3 
REMARK    2  A    between atoms: C2_3  and  C3_4 
ROOT
ATOM      1  C3  UNL d   1       1.162   1.308   1.105  0.00  0.00    -0.075 A 
ATOM      2  C4  UNL d   1       0.919   0.185   1.911  0.00  0.00     0.002 A 
ATOM      3  C5  UNL d   1      -0.096  -0.714   1.584  0.00  0.00     0.002 A 
ATOM      4  C6  UNL d   1      -0.886  -0.498   0.457  0.00  0.00    -0.004 A 
ATOM      5  C7  UNL d   1      -0.664   0.622  -0.341  0.00  0.00     0.002 A 
ATOM      6  C8  UNL d   1       0.354   1.522  -0.019  0.00  0.00     0.002 A 
ENDROOT
BRANCH   1   7
ATOM      7  C2  UNL d   1       2.279   2.269   1.437  0.00  0.00     0.056 C 
BRANCH   7   8
ATOM      8  C1  UNL d   1       2.365   3.474   0.495  0.00  0.00     0.007 C 
ATOM      9  C   UNL d   1       1.722   4.730   1.067  0.00  0.00     0.009 C 
ENDBRANCH   7   8
ENDBRANCH   1   7
TORSDOF 2
ENDMDL
