MODEL 1
REMARK minimizedAffinity -5.12467909
REMARK minimizedRMSD -1
REMARK  2 active torsions:
REMARK  status: ('A' for Active; 'I' for Inactive)
REMARK    1  A    between atoms: C1_2  and  C2_3 
REMARK    2  A    between atoms: C2_3  and  C3_4 
ROOT
ATOM      1  C3  UNL d   1      -0.094  -2.247   0.235  0.00  0.00    -0.075 A 
ATOM      2  C4  UNL d   1      -1.376  -1.932   0.709  0.00  0.00     0.002 A 
ATOM      3  C5  UNL d   1      -1.590  -0.776   1.460  0.00  0.00     0.002 A 
ATOM      4  C6  UNL d   1      -0.525   0.073   1.756  0.00  0.00    -0.004 A 
ATOM      5  C7  UNL d   1       0.755  -0.239   1.305  0.00  0.00     0.002 A 
ATOM      6  C8  UNL d   1       0.971  -1.392   0.549  0.00  0.00     0.002 A 
ENDROOT
BRANCH   1   7
ATOM      7  C2  UNL d   1       0.138  -3.481  -0.603  0.00  0.00     0.056 C 
BRANCH   7   8
ATOM      8  C1  UNL d   1      -0.505  -3.421  -1.993  0.00  0.00     0.007 C 
ATOM      9  C   UNL d   1       0.338  -2.668  -3.013  0.00  0.00     0.009 C 
ENDBRANCH   7   8
ENDBRANCH   1   7
TORSDOF 2
ENDMDL
