MODEL 1
REMARK minimizedAffinity -4.9209156
REMARK minimizedRMSD -1
REMARK  1 active torsions:
REMARK  status: ('A' for Active; 'I' for Inactive)
REMARK    1  A    between atoms: C1_2  and  C2_3 
ROOT
ATOM      1  C2  UNL d   1      -0.067   0.328  -0.073  0.00  0.00    -0.077 A 
ATOM      2  C3  UNL d   1       0.899  -0.478   0.544  0.00  0.00     0.002 A 
ATOM      3  C4  UNL d   1       2.204  -0.013   0.714  0.00  0.00     0.002 A 
ATOM      4  C5  UNL d   1       2.554   1.262   0.274  0.00  0.00    -0.004 A 
ATOM      5  C6  UNL d   1       1.601   2.071  -0.343  0.00  0.00     0.002 A 
ATOM      6  C7  UNL d   1       0.296   1.607  -0.515  0.00  0.00     0.002 A 
ENDROOT
BRANCH   1   7
ATOM      7  C1  UNL d   1      -1.487  -0.153  -0.214  0.00  0.00     0.055 C 
ATOM      8  C   UNL d   1      -2.242   0.647  -1.265  0.00  0.00     0.019 C 
ENDBRANCH   1   7
TORSDOF 1
ENDMDL
