MODEL 1
REMARK minimizedAffinity -3.9919517
REMARK minimizedRMSD -1
REMARK  1 active torsions:
REMARK  status: ('A' for Active; 'I' for Inactive)
REMARK    1  A    between atoms: C1_2  and  C2_3 
ROOT
ATOM      1  C2  UNL d   1       0.463   0.141   0.368  0.00  0.00    -0.077 A 
ATOM      2  C3  UNL d   1       1.084   0.762  -0.725  0.00  0.00     0.002 A 
ATOM      3  C4  UNL d   1       2.441   1.087  -0.676  0.00  0.00     0.002 A 
ATOM      4  C5  UNL d   1       3.189   0.790   0.461  0.00  0.00    -0.004 A 
ATOM      5  C6  UNL d   1       2.581   0.174   1.554  0.00  0.00     0.002 A 
ATOM      6  C7  UNL d   1       1.224  -0.150   1.507  0.00  0.00     0.002 A 
ENDROOT
BRANCH   1   7
ATOM      7  C1  UNL d   1      -0.989  -0.254   0.298  0.00  0.00     0.055 C 
ATOM      8  C   UNL d   1      -1.555  -0.037  -1.097  0.00  0.00     0.019 C 
ENDBRANCH   1   7
TORSDOF 1
ENDMDL
