MODEL 1
REMARK minimizedAffinity -4.98737144
REMARK minimizedRMSD -1
REMARK  1 active torsions:
REMARK  status: ('A' for Active; 'I' for Inactive)
REMARK    1  A    between atoms: C1_2  and  C2_3 
ROOT
ATOM      1  C2  UNL d   1       0.412   0.183  -0.053  0.00  0.00    -0.077 A 
ATOM      2  C3  UNL d   1       1.295   0.781   0.857  0.00  0.00     0.002 A 
ATOM      3  C4  UNL d   1       2.633   0.384   0.907  0.00  0.00     0.002 A 
ATOM      4  C5  UNL d   1       3.099  -0.609   0.048  0.00  0.00    -0.004 A 
ATOM      5  C6  UNL d   1       2.228  -1.211  -0.858  0.00  0.00     0.002 A 
ATOM      6  C7  UNL d   1       0.890  -0.817  -0.910  0.00  0.00     0.002 A 
ENDROOT
BRANCH   1   7
ATOM      7  C1  UNL d   1      -1.020   0.644  -0.143  0.00  0.00     0.055 C 
ATOM      8  C   UNL d   1      -1.572   0.463  -1.549  0.00  0.00     0.019 C 
ENDBRANCH   1   7
TORSDOF 1
ENDMDL
