MODEL 1
REMARK minimizedAffinity -4.75162125
REMARK minimizedRMSD -1
REMARK  1 active torsions:
REMARK  status: ('A' for Active; 'I' for Inactive)
REMARK    1  A    between atoms: C1_2  and  C2_3 
ROOT
ATOM      1  C2  UNL d   1       0.031  -0.373   0.625  0.00  0.00    -0.077 A 
ATOM      2  C3  UNL d   1       0.165  -1.458   1.502  0.00  0.00     0.002 A 
ATOM      3  C4  UNL d   1       1.416  -1.792   2.026  0.00  0.00     0.002 A 
ATOM      4  C5  UNL d   1       2.539  -1.043   1.683  0.00  0.00    -0.004 A 
ATOM      5  C6  UNL d   1       2.416   0.037   0.809  0.00  0.00     0.002 A 
ATOM      6  C7  UNL d   1       1.167   0.371   0.284  0.00  0.00     0.002 A 
ENDROOT
BRANCH   1   7
ATOM      7  C1  UNL d   1      -1.325   0.019   0.098  0.00  0.00     0.055 C 
ATOM      8  C   UNL d   1      -1.351   0.009  -1.424  0.00  0.00     0.019 C 
ENDBRANCH   1   7
TORSDOF 1
ENDMDL
