MODEL 1
REMARK minimizedAffinity -4.83282232
REMARK minimizedRMSD -1
REMARK  1 active torsions:
REMARK  status: ('A' for Active; 'I' for Inactive)
REMARK    1  A    between atoms: C1_2  and  C2_3 
ROOT
ATOM      1  C2  UNL d   1       0.265  -0.078   0.515  0.00  0.00    -0.077 A 
ATOM      2  C3  UNL d   1       0.952  -1.300   0.532  0.00  0.00     0.002 A 
ATOM      3  C4  UNL d   1       2.303  -1.346   0.880  0.00  0.00     0.002 A 
ATOM      4  C5  UNL d   1       2.978  -0.175   1.217  0.00  0.00    -0.004 A 
ATOM      5  C6  UNL d   1       2.304   1.046   1.201  0.00  0.00     0.002 A 
ATOM      6  C7  UNL d   1       0.954   1.094   0.852  0.00  0.00     0.002 A 
ENDROOT
BRANCH   1   7
ATOM      7  C1  UNL d   1      -1.205  -0.033   0.187  0.00  0.00     0.055 C 
ATOM      8  C   UNL d   1      -1.456  -0.366  -1.276  0.00  0.00     0.019 C 
ENDBRANCH   1   7
TORSDOF 1
ENDMDL
