MODEL 1
REMARK minimizedAffinity -3.90058708
REMARK minimizedRMSD -1
REMARK  0 active torsions:
REMARK  status: ('A' for Active; 'I' for Inactive)
ROOT
ATOM      1  N1  IND d   1       0.756   1.158   1.951  0.00  0.00    -0.196 N 
ATOM      2  C2  IND d   1       1.854   1.751   1.393  0.00  0.00     0.054 A 
ATOM      3  C3  IND d   1       1.793   1.678   0.044  0.00  0.00    -0.031 A 
ATOM      4  C4  IND d   1      -0.064   0.723  -1.460  0.00  0.00     0.051 A 
ATOM      5  C5  IND d   1      -1.249   0.042  -1.409  0.00  0.00    -0.031 A 
ATOM      6  C6  IND d   1      -1.839  -0.305  -0.211  0.00  0.00     0.015 A 
ATOM      7  C7  IND d   1      -1.269   0.026   0.986  0.00  0.00    -0.016 A 
ATOM      8  C8  IND d   1      -0.063   0.710   0.938  0.00  0.00    -0.047 A 
ATOM      9  C9  IND d   1       0.561   1.029  -0.275  0.00  0.00    -0.096 A 
ATOM     10  HN1 IND d   1       0.602   1.078   2.793  0.00  0.00     0.298 HD
ENDROOT
TORSDOF 0
ENDMDL
