MODEL 1
REMARK minimizedAffinity -0.801181078
REMARK minimizedRMSD -1
REMARK  0 active torsions:
REMARK  status: ('A' for Active; 'I' for Inactive)
ROOT
ATOM      1  N1  IND d   1      -2.120  -0.667  -1.719  0.00  0.00    -0.196 N 
ATOM      2  C2  IND d   1      -2.856  -1.225  -0.712  0.00  0.00     0.054 A 
ATOM      3  C3  IND d   1      -2.157  -1.210   0.445  0.00  0.00    -0.031 A 
ATOM      4  C4  IND d   1       0.171  -0.227   0.937  0.00  0.00     0.051 A 
ATOM      5  C5  IND d   1       1.246   0.353   0.325  0.00  0.00    -0.031 A 
ATOM      6  C6  IND d   1       1.254   0.631  -1.026  0.00  0.00     0.015 A 
ATOM      7  C7  IND d   1       0.177   0.348  -1.818  0.00  0.00    -0.016 A 
ATOM      8  C8  IND d   1      -0.914  -0.248  -1.201  0.00  0.00    -0.047 A 
ATOM      9  C9  IND d   1      -0.911  -0.571   0.162  0.00  0.00    -0.096 A 
ATOM     10  HN1 IND d   1      -2.368  -0.591  -2.539  0.00  0.00     0.298 HD
ENDROOT
TORSDOF 0
ENDMDL
