MODEL 1
REMARK minimizedAffinity 0.221258447
REMARK minimizedRMSD -1
REMARK  0 active torsions:
REMARK  status: ('A' for Active; 'I' for Inactive)
ROOT
ATOM      1  N1  IND d   1      -0.560   0.090   0.930  0.00  0.00    -0.196 N 
ATOM      2  C2  IND d   1      -0.810  -0.182  -0.386  0.00  0.00     0.054 A 
ATOM      3  C3  IND d   1       0.224   0.228  -1.155  0.00  0.00    -0.031 A 
ATOM      4  C4  IND d   1       2.468   1.278  -0.456  0.00  0.00     0.051 A 
ATOM      5  C5  IND d   1       3.141   1.754   0.634  0.00  0.00    -0.031 A 
ATOM      6  C6  IND d   1       2.605   1.696   1.905  0.00  0.00     0.015 A 
ATOM      7  C7  IND d   1       1.376   1.147   2.135  0.00  0.00    -0.016 A 
ATOM      8  C8  IND d   1       0.686   0.669   1.029  0.00  0.00    -0.047 A 
ATOM      9  C9  IND d   1       1.206   0.764  -0.268  0.00  0.00    -0.096 A 
ATOM     10  HN1 IND d   1      -1.092  -0.073   1.586  0.00  0.00     0.298 HD
ENDROOT
TORSDOF 0
ENDMDL
