MODEL 1
REMARK minimizedAffinity -1.08010435
REMARK minimizedRMSD -1
REMARK  0 active torsions:
REMARK  status: ('A' for Active; 'I' for Inactive)
ROOT
ATOM      1  N1  IND d   1       0.184  -1.377   1.337  0.00  0.00    -0.196 N 
ATOM      2  C2  IND d   1       1.378  -0.732   1.166  0.00  0.00     0.054 A 
ATOM      3  C3  IND d   1       1.296   0.146   0.142  0.00  0.00    -0.031 A 
ATOM      4  C4  IND d   1      -0.727   0.761  -1.328  0.00  0.00     0.051 A 
ATOM      5  C5  IND d   1      -2.025   0.412  -1.574  0.00  0.00    -0.031 A 
ATOM      6  C6  IND d   1      -2.667  -0.569  -0.846  0.00  0.00     0.015 A 
ATOM      7  C7  IND d   1      -2.035  -1.232   0.167  0.00  0.00    -0.016 A 
ATOM      8  C8  IND d   1      -0.715  -0.886   0.415  0.00  0.00    -0.047 A 
ATOM      9  C9  IND d   1      -0.045   0.079  -0.348  0.00  0.00    -0.096 A 
ATOM     10  HN1 IND d   1       0.023  -1.987   1.921  0.00  0.00     0.298 HD
ENDROOT
TORSDOF 0
ENDMDL
