MODEL 1
REMARK minimizedAffinity 2.03112888
REMARK minimizedRMSD -1
REMARK  0 active torsions:
REMARK  status: ('A' for Active; 'I' for Inactive)
ROOT
ATOM      1  N1  IND d   1       1.246   1.846   1.712  0.00  0.00    -0.196 N 
ATOM      2  C2  IND d   1       2.307   2.449   1.095  0.00  0.00     0.054 A 
ATOM      3  C3  IND d   1       2.465   1.959  -0.155  0.00  0.00    -0.031 A 
ATOM      4  C4  IND d   1       1.038   0.237  -1.430  0.00  0.00     0.051 A 
ATOM      5  C5  IND d   1      -0.015  -0.620  -1.269  0.00  0.00    -0.031 A 
ATOM      6  C6  IND d   1      -0.717  -0.698  -0.084  0.00  0.00     0.015 A 
ATOM      7  C7  IND d   1      -0.398   0.090   0.986  0.00  0.00    -0.016 A 
ATOM      8  C8  IND d   1       0.675   0.955   0.829  0.00  0.00    -0.047 A 
ATOM      9  C9  IND d   1       1.418   1.009  -0.357  0.00  0.00    -0.096 A 
ATOM     10  HN1 IND d   1       0.981   1.997   2.515  0.00  0.00     0.298 HD
ENDROOT
TORSDOF 0
ENDMDL
