MODEL 1
REMARK minimizedAffinity -3.0287466
REMARK minimizedRMSD -1
REMARK  0 active torsions:
REMARK  status: ('A' for Active; 'I' for Inactive)
ROOT
ATOM      1  N1  IND d   1       0.431   0.760   1.187  0.00  0.00    -0.196 N 
ATOM      2  C2  IND d   1       1.548   0.786   0.399  0.00  0.00     0.054 A 
ATOM      3  C3  IND d   1       1.269   0.295  -0.830  0.00  0.00    -0.031 A 
ATOM      4  C4  IND d   1      -0.977  -0.510  -1.797  0.00  0.00     0.051 A 
ATOM      5  C5  IND d   1      -2.275  -0.755  -1.446  0.00  0.00    -0.031 A 
ATOM      6  C6  IND d   1      -2.748  -0.500  -0.175  0.00  0.00     0.015 A 
ATOM      7  C7  IND d   1      -1.939   0.023   0.794  0.00  0.00    -0.016 A 
ATOM      8  C8  IND d   1      -0.618   0.267   0.443  0.00  0.00    -0.047 A 
ATOM      9  C9  IND d   1      -0.122  -0.030  -0.833  0.00  0.00    -0.096 A 
ATOM     10  HN1 IND d   1       0.391   1.011   2.008  0.00  0.00     0.298 HD
ENDROOT
TORSDOF 0
ENDMDL
