MODEL 1
REMARK minimizedAffinity -3.07270122
REMARK minimizedRMSD -1
REMARK  0 active torsions:
REMARK  status: ('A' for Active; 'I' for Inactive)
ROOT
ATOM      1  N1  IND d   1      -2.365  -0.319  -1.449  0.00  0.00    -0.196 N 
ATOM      2  C2  IND d   1      -3.176  -0.702  -0.418  0.00  0.00     0.054 A 
ATOM      3  C3  IND d   1      -2.462  -0.815   0.725  0.00  0.00    -0.031 A 
ATOM      4  C4  IND d   1       0.028  -0.322   1.153  0.00  0.00     0.051 A 
ATOM      5  C5  IND d   1       1.185   0.019   0.510  0.00  0.00    -0.031 A 
ATOM      6  C6  IND d   1       1.217   0.273  -0.846  0.00  0.00     0.015 A 
ATOM      7  C7  IND d   1       0.087   0.206  -1.611  0.00  0.00    -0.016 A 
ATOM      8  C8  IND d   1      -1.088  -0.147  -0.962  0.00  0.00    -0.047 A 
ATOM      9  C9  IND d   1      -1.119  -0.448   0.406  0.00  0.00    -0.096 A 
ATOM     10  HN1 IND d   1      -2.611  -0.205  -2.265  0.00  0.00     0.298 HD
ENDROOT
TORSDOF 0
ENDMDL
