MODEL 1
REMARK minimizedAffinity -4.59738064
REMARK minimizedRMSD -1
REMARK  0 active torsions:
REMARK  status: ('A' for Active; 'I' for Inactive)
ROOT
ATOM      1  N1  IND d   1       1.252  -1.446   1.451  0.00  0.00    -0.196 N 
ATOM      2  C2  IND d   1       2.156  -0.756   0.692  0.00  0.00     0.054 A 
ATOM      3  C3  IND d   1       1.517   0.057  -0.178  0.00  0.00    -0.031 A 
ATOM      4  C4  IND d   1      -1.005   0.493  -0.458  0.00  0.00     0.051 A 
ATOM      5  C5  IND d   1      -2.227   0.070  -0.015  0.00  0.00    -0.031 A 
ATOM      6  C6  IND d   1      -2.354  -0.897   0.961  0.00  0.00     0.015 A 
ATOM      7  C7  IND d   1      -1.259  -1.472   1.541  0.00  0.00    -0.016 A 
ATOM      8  C8  IND d   1      -0.017  -1.050   1.088  0.00  0.00    -0.047 A 
ATOM      9  C9  IND d   1       0.118  -0.100   0.068  0.00  0.00    -0.096 A 
ATOM     10  HN1 IND d   1       1.444  -2.029   2.053  0.00  0.00     0.298 HD
ENDROOT
TORSDOF 0
ENDMDL
