MODEL 1
REMARK minimizedAffinity -4.74850845
REMARK minimizedRMSD -1
REMARK  0 active torsions:
REMARK  status: ('A' for Active; 'I' for Inactive)
ROOT
ATOM      1  N1  IND d   1      -1.726   0.624  -1.096  0.00  0.00    -0.196 N 
ATOM      2  C2  IND d   1      -2.961   0.127  -0.784  0.00  0.00     0.054 A 
ATOM      3  C3  IND d   1      -2.851  -0.873   0.120  0.00  0.00    -0.031 A 
ATOM      4  C4  IND d   1      -0.754  -1.787   1.300  0.00  0.00     0.051 A 
ATOM      5  C5  IND d   1       0.608  -1.675   1.317  0.00  0.00    -0.031 A 
ATOM      6  C6  IND d   1       1.275  -0.770   0.516  0.00  0.00     0.015 A 
ATOM      7  C7  IND d   1       0.600   0.067  -0.327  0.00  0.00    -0.016 A 
ATOM      8  C8  IND d   1      -0.782  -0.049  -0.352  0.00  0.00    -0.047 A 
ATOM      9  C9  IND d   1      -1.461  -0.994   0.428  0.00  0.00    -0.096 A 
ATOM     10  HN1 IND d   1      -1.567   1.252  -1.661  0.00  0.00     0.298 HD
ENDROOT
TORSDOF 0
ENDMDL
