MODEL 1
REMARK minimizedAffinity -3.32498026
REMARK minimizedRMSD -1
REMARK  0 active torsions:
REMARK  status: ('A' for Active; 'I' for Inactive)
ROOT
ATOM      1  N1  IND d   1       1.421  -0.932   0.635  0.00  0.00    -0.196 N 
ATOM      2  C2  IND d   1       0.895  -1.632   1.685  0.00  0.00     0.054 A 
ATOM      3  C3  IND d   1      -0.440  -1.778   1.531  0.00  0.00    -0.031 A 
ATOM      4  C4  IND d   1      -1.952  -1.040  -0.418  0.00  0.00     0.051 A 
ATOM      5  C5  IND d   1      -1.934  -0.335  -1.588  0.00  0.00    -0.031 A 
ATOM      6  C6  IND d   1      -0.772   0.216  -2.089  0.00  0.00     0.015 A 
ATOM      7  C7  IND d   1       0.422   0.072  -1.441  0.00  0.00    -0.016 A 
ATOM      8  C8  IND d   1       0.406  -0.638  -0.249  0.00  0.00    -0.047 A 
ATOM      9  C9  IND d   1      -0.778  -1.162   0.287  0.00  0.00    -0.096 A 
ATOM     10  HN1 IND d   1       2.247  -0.713   0.541  0.00  0.00     0.298 HD
ENDROOT
TORSDOF 0
ENDMDL
