MODEL 1
REMARK minimizedAffinity 0.351391375
REMARK minimizedRMSD -1
REMARK  0 active torsions:
REMARK  status: ('A' for Active; 'I' for Inactive)
ROOT
ATOM      1  N1  IND d   1      -1.308   0.014  -1.367  0.00  0.00    -0.196 N 
ATOM      2  C2  IND d   1      -2.479  -0.628  -1.075  0.00  0.00     0.054 A 
ATOM      3  C3  IND d   1      -2.322  -1.427   0.004  0.00  0.00    -0.031 A 
ATOM      4  C4  IND d   1      -0.258  -1.756   1.508  0.00  0.00     0.051 A 
ATOM      5  C5  IND d   1       1.060  -1.411   1.619  0.00  0.00    -0.031 A 
ATOM      6  C6  IND d   1       1.667  -0.554   0.725  0.00  0.00     0.015 A 
ATOM      7  C7  IND d   1       0.973   0.002  -0.313  0.00  0.00    -0.016 A 
ATOM      8  C8  IND d   1      -0.363  -0.352  -0.433  0.00  0.00    -0.047 A 
ATOM      9  C9  IND d   1      -0.974  -1.255   0.446  0.00  0.00    -0.096 A 
ATOM     10  HN1 IND d   1      -1.183   0.556  -2.023  0.00  0.00     0.298 HD
ENDROOT
TORSDOF 0
ENDMDL
