MODEL 1
REMARK minimizedAffinity -1.61103165
REMARK minimizedRMSD -1
REMARK  0 active torsions:
REMARK  status: ('A' for Active; 'I' for Inactive)
ROOT
ATOM      1  N1  IND d   1       1.534  -0.700   1.160  0.00  0.00    -0.196 N 
ATOM      2  C2  IND d   1       1.576   0.357   0.294  0.00  0.00     0.054 A 
ATOM      3  C3  IND d   1       0.336   0.639  -0.165  0.00  0.00    -0.031 A 
ATOM      4  C4  IND d   1      -1.919  -0.441   0.448  0.00  0.00     0.051 A 
ATOM      5  C5  IND d   1      -2.461  -1.469   1.168  0.00  0.00    -0.031 A 
ATOM      6  C6  IND d   1      -1.684  -2.308   1.940  0.00  0.00     0.015 A 
ATOM      7  C7  IND d   1      -0.330  -2.143   2.030  0.00  0.00    -0.016 A 
ATOM      8  C8  IND d   1       0.224  -1.105   1.294  0.00  0.00    -0.047 A 
ATOM      9  C9  IND d   1      -0.555  -0.277   0.476  0.00  0.00    -0.096 A 
ATOM     10  HN1 IND d   1       2.212  -1.053   1.554  0.00  0.00     0.298 HD
ENDROOT
TORSDOF 0
ENDMDL
