MODEL 1
REMARK minimizedAffinity -6.05897903
REMARK minimizedRMSD -1
REMARK  0 active torsions:
REMARK  status: ('A' for Active; 'I' for Inactive)
ROOT
ATOM      1  N1  IND d   1      -2.540  -1.643   0.574  0.00  0.00    -0.196 N 
ATOM      2  C2  IND d   1      -3.289  -1.388  -0.541  0.00  0.00     0.054 A 
ATOM      3  C3  IND d   1      -2.571  -0.671  -1.435  0.00  0.00    -0.031 A 
ATOM      4  C4  IND d   1      -0.119   0.104  -1.320  0.00  0.00     0.051 A 
ATOM      5  C5  IND d   1       0.961   0.140  -0.483  0.00  0.00    -0.031 A 
ATOM      6  C6  IND d   1       0.930  -0.430   0.773  0.00  0.00     0.015 A 
ATOM      7  C7  IND d   1      -0.184  -1.071   1.237  0.00  0.00    -0.016 A 
ATOM      8  C8  IND d   1      -1.285  -1.103   0.393  0.00  0.00    -0.047 A 
ATOM      9  C9  IND d   1      -1.274  -0.489  -0.866  0.00  0.00    -0.096 A 
ATOM     10  HN1 IND d   1      -2.807  -2.069   1.272  0.00  0.00     0.298 HD
ENDROOT
TORSDOF 0
ENDMDL
