MODEL 1
REMARK minimizedAffinity -0.365114003
REMARK minimizedRMSD -1
REMARK  0 active torsions:
REMARK  status: ('A' for Active; 'I' for Inactive)
ROOT
ATOM      1  N1  IND d   1       1.496  -0.030  -0.270  0.00  0.00    -0.196 N 
ATOM      2  C2  IND d   1       0.926   0.673  -1.294  0.00  0.00     0.054 A 
ATOM      3  C3  IND d   1      -0.421   0.573  -1.241  0.00  0.00    -0.031 A 
ATOM      4  C4  IND d   1      -1.906  -0.607   0.500  0.00  0.00     0.051 A 
ATOM      5  C5  IND d   1      -1.841  -1.414   1.601  0.00  0.00    -0.031 A 
ATOM      6  C6  IND d   1      -0.637  -1.807   2.147  0.00  0.00     0.015 A 
ATOM      7  C7  IND d   1       0.554  -1.396   1.617  0.00  0.00    -0.016 A 
ATOM      8  C8  IND d   1       0.492  -0.582   0.495  0.00  0.00    -0.047 A 
ATOM      9  C9  IND d   1      -0.727  -0.215  -0.089  0.00  0.00    -0.096 A 
ATOM     10  HN1 IND d   1       2.340  -0.114  -0.127  0.00  0.00     0.298 HD
ENDROOT
TORSDOF 0
ENDMDL
