MODEL 1
REMARK minimizedAffinity -2.26689482
REMARK minimizedRMSD -1
REMARK  0 active torsions:
REMARK  status: ('A' for Active; 'I' for Inactive)
ROOT
ATOM      1  N1  IND d   1       0.556  -0.260  -1.536  0.00  0.00    -0.196 N 
ATOM      2  C2  IND d   1       1.460   0.188  -0.613  0.00  0.00     0.054 A 
ATOM      3  C3  IND d   1       0.854   0.386   0.579  0.00  0.00    -0.031 A 
ATOM      4  C4  IND d   1      -1.586  -0.059   1.269  0.00  0.00     0.051 A 
ATOM      5  C5  IND d   1      -2.797  -0.436   0.760  0.00  0.00    -0.031 A 
ATOM      6  C6  IND d   1      -2.955  -0.784  -0.566  0.00  0.00     0.015 A 
ATOM      7  C7  IND d   1      -1.900  -0.778  -1.434  0.00  0.00    -0.016 A 
ATOM      8  C8  IND d   1      -0.670  -0.389  -0.923  0.00  0.00    -0.047 A 
ATOM      9  C9  IND d   1      -0.513   0.006   0.412  0.00  0.00    -0.096 A 
ATOM     10  HN1 IND d   1       0.726  -0.433  -2.361  0.00  0.00     0.298 HD
ENDROOT
TORSDOF 0
ENDMDL
