MODEL 1
REMARK minimizedAffinity 3.44016767
REMARK minimizedRMSD -1
REMARK  0 active torsions:
REMARK  status: ('A' for Active; 'I' for Inactive)
ROOT
ATOM      1  N1  IND d   1       1.644  -0.354  -0.302  0.00  0.00    -0.196 N 
ATOM      2  C2  IND d   1       1.148   0.647  -1.090  0.00  0.00     0.054 A 
ATOM      3  C3  IND d   1      -0.166   0.837  -0.837  0.00  0.00    -0.031 A 
ATOM      4  C4  IND d   1      -1.680  -0.312   0.899  0.00  0.00     0.051 A 
ATOM      5  C5  IND d   1      -1.687  -1.317   1.826  0.00  0.00    -0.031 A 
ATOM      6  C6  IND d   1      -0.560  -2.066   2.097  0.00  0.00     0.015 A 
ATOM      7  C7  IND d   1       0.624  -1.829   1.458  0.00  0.00    -0.016 A 
ATOM      8  C8  IND d   1       0.632  -0.814   0.512  0.00  0.00    -0.047 A 
ATOM      9  C9  IND d   1      -0.519  -0.078   0.201  0.00  0.00    -0.096 A 
ATOM     10  HN1 IND d   1       2.452  -0.648  -0.314  0.00  0.00     0.298 HD
ENDROOT
TORSDOF 0
ENDMDL
