MODEL 1
REMARK minimizedAffinity -0.558419526
REMARK minimizedRMSD -1
REMARK  0 active torsions:
REMARK  status: ('A' for Active; 'I' for Inactive)
ROOT
ATOM      1  N1  IND d   1       0.562  -0.351  -1.419  0.00  0.00    -0.196 N 
ATOM      2  C2  IND d   1       1.302   0.254  -0.441  0.00  0.00     0.054 A 
ATOM      3  C3  IND d   1       0.565   0.403   0.682  0.00  0.00    -0.031 A 
ATOM      4  C4  IND d   1      -1.843  -0.365   1.172  0.00  0.00     0.051 A 
ATOM      5  C5  IND d   1      -2.936  -0.930   0.576  0.00  0.00    -0.031 A 
ATOM      6  C6  IND d   1      -2.917  -1.342  -0.741  0.00  0.00     0.015 A 
ATOM      7  C7  IND d   1      -1.796  -1.214  -1.511  0.00  0.00    -0.016 A 
ATOM      8  C8  IND d   1      -0.687  -0.634  -0.912  0.00  0.00    -0.047 A 
ATOM      9  C9  IND d   1      -0.714  -0.175   0.412  0.00  0.00    -0.096 A 
ATOM     10  HN1 IND d   1       0.832  -0.526  -2.217  0.00  0.00     0.298 HD
ENDROOT
TORSDOF 0
ENDMDL
