MODEL 1
REMARK minimizedAffinity -3.62035275
REMARK minimizedRMSD -1
REMARK  1 active torsions:
REMARK  status: ('A' for Active; 'I' for Inactive)
REMARK    1  A    between atoms: C1_2  and  C2_3 
ROOT
ATOM      1  C2  UNL d   1      -0.056  -0.507  -0.348  0.00  0.00    -0.077 A 
ATOM      2  C3  UNL d   1      -0.975  -0.305   0.692  0.00  0.00     0.002 A 
ATOM      3  C4  UNL d   1      -0.984   0.897   1.403  0.00  0.00     0.002 A 
ATOM      4  C5  UNL d   1      -0.082   1.907   1.078  0.00  0.00    -0.004 A 
ATOM      5  C6  UNL d   1       0.837   1.715   0.047  0.00  0.00     0.002 A 
ATOM      6  C7  UNL d   1       0.849   0.514  -0.664  0.00  0.00     0.002 A 
ENDROOT
BRANCH   1   7
ATOM      7  C1  UNL d   1      -0.077  -1.783  -1.148  0.00  0.00     0.055 C 
ATOM      8  C   UNL d   1      -1.402  -1.959  -1.876  0.00  0.00     0.019 C 
ENDBRANCH   1   7
TORSDOF 1
ENDMDL
