MODEL 1
REMARK minimizedAffinity -5.6462326
REMARK minimizedRMSD -1
REMARK  1 active torsions:
REMARK  status: ('A' for Active; 'I' for Inactive)
REMARK    1  A    between atoms: C1_2  and  C2_3 
ROOT
ATOM      1  C2  UNL d   1       0.042  -0.050  -0.064  0.00  0.00    -0.077 A 
ATOM      2  C3  UNL d   1       1.137   0.749  -0.423  0.00  0.00     0.002 A 
ATOM      3  C4  UNL d   1       1.414   1.923   0.280  0.00  0.00     0.002 A 
ATOM      4  C5  UNL d   1       0.605   2.307   1.347  0.00  0.00    -0.004 A 
ATOM      5  C6  UNL d   1      -0.488   1.521   1.710  0.00  0.00     0.002 A 
ATOM      6  C7  UNL d   1      -0.767   0.347   1.008  0.00  0.00     0.002 A 
ENDROOT
BRANCH   1   7
ATOM      7  C1  UNL d   1      -0.231  -1.342  -0.788  0.00  0.00     0.055 C 
ATOM      8  C   UNL d   1      -1.304  -1.165  -1.853  0.00  0.00     0.019 C 
ENDBRANCH   1   7
TORSDOF 1
ENDMDL
