MODEL 1
REMARK minimizedAffinity -4.70481253
REMARK minimizedRMSD -1
REMARK  1 active torsions:
REMARK  status: ('A' for Active; 'I' for Inactive)
REMARK    1  A    between atoms: C1_2  and  C2_3 
ROOT
ATOM      1  C2  UNL d   1       1.413   1.523   0.674  0.00  0.00    -0.077 A 
ATOM      2  C3  UNL d   1       0.563   1.786   1.758  0.00  0.00     0.002 A 
ATOM      3  C4  UNL d   1      -0.605   1.043   1.936  0.00  0.00     0.002 A 
ATOM      4  C5  UNL d   1      -0.931   0.029   1.038  0.00  0.00    -0.004 A 
ATOM      5  C6  UNL d   1      -0.094  -0.239  -0.044  0.00  0.00     0.002 A 
ATOM      6  C7  UNL d   1       1.073   0.504  -0.225  0.00  0.00     0.002 A 
ENDROOT
BRANCH   1   7
ATOM      7  C1  UNL d   1       2.698   2.291   0.507  0.00  0.00     0.055 C 
ATOM      8  C   UNL d   1       3.655   1.571  -0.431  0.00  0.00     0.019 C 
ENDBRANCH   1   7
TORSDOF 1
ENDMDL
