MODEL 1
REMARK minimizedAffinity -3.64776397
REMARK minimizedRMSD -1
REMARK  1 active torsions:
REMARK  status: ('A' for Active; 'I' for Inactive)
REMARK    1  A    between atoms: C1_2  and  C2_3 
ROOT
ATOM      1  C2  UNL d   1       0.061  -0.377   0.311  0.00  0.00    -0.077 A 
ATOM      2  C3  UNL d   1       0.440   0.869  -0.207  0.00  0.00     0.002 A 
ATOM      3  C4  UNL d   1       0.479   1.995   0.617  0.00  0.00     0.002 A 
ATOM      4  C5  UNL d   1       0.145   1.886   1.965  0.00  0.00    -0.004 A 
ATOM      5  C6  UNL d   1      -0.235   0.651   2.490  0.00  0.00     0.002 A 
ATOM      6  C7  UNL d   1      -0.276  -0.475   1.667  0.00  0.00     0.002 A 
ENDROOT
BRANCH   1   7
ATOM      7  C1  UNL d   1       0.066  -1.602  -0.565  0.00  0.00     0.055 C 
ATOM      8  C   UNL d   1      -1.153  -1.637  -1.475  0.00  0.00     0.019 C 
ENDBRANCH   1   7
TORSDOF 1
ENDMDL
