MODEL 1
REMARK minimizedAffinity -3.01692367
REMARK minimizedRMSD -1
REMARK  1 active torsions:
REMARK  status: ('A' for Active; 'I' for Inactive)
REMARK    1  A    between atoms: C1_2  and  C2_3 
ROOT
ATOM      1  C2  UNL d   1      -0.876  -0.821  -1.202  0.00  0.00    -0.077 A 
ATOM      2  C3  UNL d   1      -0.092  -0.639  -2.349  0.00  0.00     0.002 A 
ATOM      3  C4  UNL d   1      -0.656  -0.778  -3.619  0.00  0.00     0.002 A 
ATOM      4  C5  UNL d   1      -2.006  -1.095  -3.753  0.00  0.00    -0.004 A 
ATOM      5  C6  UNL d   1      -2.793  -1.280  -2.617  0.00  0.00     0.002 A 
ATOM      6  C7  UNL d   1      -2.231  -1.142  -1.347  0.00  0.00     0.002 A 
ENDROOT
BRANCH   1   7
ATOM      7  C1  UNL d   1      -0.281  -0.623   0.168  0.00  0.00     0.055 C 
ATOM      8  C   UNL d   1       0.029   0.844   0.430  0.00  0.00     0.019 C 
ENDBRANCH   1   7
TORSDOF 1
ENDMDL
