MODEL 1
REMARK minimizedAffinity -3.12610435
REMARK minimizedRMSD -1
REMARK  1 active torsions:
REMARK  status: ('A' for Active; 'I' for Inactive)
REMARK    1  A    between atoms: C1_2  and  C2_3 
ROOT
ATOM      1  C2  UNL d   1      -0.182   0.399   0.408  0.00  0.00    -0.077 A 
ATOM      2  C3  UNL d   1       0.743   1.452   0.390  0.00  0.00     0.002 A 
ATOM      3  C4  UNL d   1       1.187   2.022   1.585  0.00  0.00     0.002 A 
ATOM      4  C5  UNL d   1       0.715   1.543   2.805  0.00  0.00    -0.004 A 
ATOM      5  C6  UNL d   1      -0.207   0.497   2.833  0.00  0.00     0.002 A 
ATOM      6  C7  UNL d   1      -0.653  -0.073   1.640  0.00  0.00     0.002 A 
ENDROOT
BRANCH   1   7
ATOM      7  C1  UNL d   1      -0.625  -0.250  -0.878  0.00  0.00     0.055 C 
ATOM      8  C   UNL d   1      -0.396  -1.754  -0.846  0.00  0.00     0.019 C 
ENDBRANCH   1   7
TORSDOF 1
ENDMDL
