MODEL 1
REMARK minimizedAffinity -3.03319263
REMARK minimizedRMSD -1
REMARK  1 active torsions:
REMARK  status: ('A' for Active; 'I' for Inactive)
REMARK    1  A    between atoms: C1_2  and  C2_3 
ROOT
ATOM      1  C2  UNL d   1      -1.024  -1.464  -1.460  0.00  0.00    -0.077 A 
ATOM      2  C3  UNL d   1      -0.645  -1.333  -2.804  0.00  0.00     0.002 A 
ATOM      3  C4  UNL d   1      -1.611  -1.312  -3.811  0.00  0.00     0.002 A 
ATOM      4  C5  UNL d   1      -2.962  -1.416  -3.486  0.00  0.00    -0.004 A 
ATOM      5  C6  UNL d   1      -3.349  -1.548  -2.153  0.00  0.00     0.002 A 
ATOM      6  C7  UNL d   1      -2.384  -1.571  -1.145  0.00  0.00     0.002 A 
ENDROOT
BRANCH   1   7
ATOM      7  C1  UNL d   1       0.014  -1.438  -0.368  0.00  0.00     0.055 C 
ATOM      8  C   UNL d   1      -0.126  -0.195   0.499  0.00  0.00     0.019 C 
ENDBRANCH   1   7
TORSDOF 1
ENDMDL
