MODEL 1
REMARK minimizedAffinity -3.36107492
REMARK minimizedRMSD -1
REMARK  1 active torsions:
REMARK  status: ('A' for Active; 'I' for Inactive)
REMARK    1  A    between atoms: C1_2  and  C2_3 
ROOT
ATOM      1  C2  UNL d   1       0.561   0.850   0.178  0.00  0.00    -0.077 A 
ATOM      2  C3  UNL d   1       1.489   0.172  -0.625  0.00  0.00     0.002 A 
ATOM      3  C4  UNL d   1       1.165  -1.064  -1.188  0.00  0.00     0.002 A 
ATOM      4  C5  UNL d   1      -0.087  -1.631  -0.956  0.00  0.00    -0.004 A 
ATOM      5  C6  UNL d   1      -1.015  -0.965  -0.157  0.00  0.00     0.002 A 
ATOM      6  C7  UNL d   1      -0.693   0.270   0.407  0.00  0.00     0.002 A 
ENDROOT
BRANCH   1   7
ATOM      7  C1  UNL d   1       0.890   2.206   0.745  0.00  0.00     0.055 C 
ATOM      8  C   UNL d   1       1.196   2.124   2.234  0.00  0.00     0.019 C 
ENDBRANCH   1   7
TORSDOF 1
ENDMDL
