MODEL 1
REMARK minimizedAffinity -4.86852026
REMARK minimizedRMSD -1
REMARK  1 active torsions:
REMARK  status: ('A' for Active; 'I' for Inactive)
REMARK    1  A    between atoms: C1_2  and  C2_3 
ROOT
ATOM      1  C2  UNL d   1       0.255   0.494   0.195  0.00  0.00    -0.077 A 
ATOM      2  C3  UNL d   1       0.126   0.707   1.574  0.00  0.00     0.002 A 
ATOM      3  C4  UNL d   1       1.032   1.527   2.250  0.00  0.00     0.002 A 
ATOM      4  C5  UNL d   1       2.071   2.142   1.554  0.00  0.00    -0.004 A 
ATOM      5  C6  UNL d   1       2.209   1.934   0.182  0.00  0.00     0.002 A 
ATOM      6  C7  UNL d   1       1.304   1.115  -0.495  0.00  0.00     0.002 A 
ENDROOT
BRANCH   1   7
ATOM      7  C1  UNL d   1      -0.750  -0.350  -0.545  0.00  0.00     0.055 C 
ATOM      8  C   UNL d   1      -0.226  -1.760  -0.776  0.00  0.00     0.019 C 
ENDBRANCH   1   7
TORSDOF 1
ENDMDL
