MODEL 1
REMARK minimizedAffinity -4.45766926
REMARK minimizedRMSD -1
REMARK  1 active torsions:
REMARK  status: ('A' for Active; 'I' for Inactive)
REMARK    1  A    between atoms: C1_2  and  C2_3 
ROOT
ATOM      1  C2  UNL d   1       0.656   0.841   0.672  0.00  0.00    -0.077 A 
ATOM      2  C3  UNL d   1      -0.402  -0.067   0.823  0.00  0.00     0.002 A 
ATOM      3  C4  UNL d   1      -0.456  -1.224   0.043  0.00  0.00     0.002 A 
ATOM      4  C5  UNL d   1       0.547  -1.486  -0.888  0.00  0.00    -0.004 A 
ATOM      5  C6  UNL d   1       1.602  -0.588  -1.047  0.00  0.00     0.002 A 
ATOM      6  C7  UNL d   1       1.656   0.569  -0.269  0.00  0.00     0.002 A 
ENDROOT
BRANCH   1   7
ATOM      7  C1  UNL d   1       0.741   2.064   1.547  0.00  0.00     0.055 C 
ATOM      8  C   UNL d   1       1.755   3.062   1.005  0.00  0.00     0.019 C 
ENDBRANCH   1   7
TORSDOF 1
ENDMDL
