MODEL 1
REMARK minimizedAffinity -3.5098803
REMARK minimizedRMSD -1
REMARK  1 active torsions:
REMARK  status: ('A' for Active; 'I' for Inactive)
REMARK    1  A    between atoms: C1_2  and  C2_3 
ROOT
ATOM      1  C2  UNL d   1      -0.256  -0.448  -0.080  0.00  0.00    -0.077 A 
ATOM      2  C3  UNL d   1      -1.094  -0.048   0.969  0.00  0.00     0.002 A 
ATOM      3  C4  UNL d   1      -0.818   1.116   1.689  0.00  0.00     0.002 A 
ATOM      4  C5  UNL d   1       0.293   1.891   1.364  0.00  0.00    -0.004 A 
ATOM      5  C6  UNL d   1       1.134   1.500   0.323  0.00  0.00     0.002 A 
ATOM      6  C7  UNL d   1       0.861   0.336  -0.396  0.00  0.00     0.002 A 
ENDROOT
BRANCH   1   7
ATOM      7  C1  UNL d   1      -0.579  -1.677  -0.889  0.00  0.00     0.055 C 
ATOM      8  C   UNL d   1      -1.668  -1.395  -1.914  0.00  0.00     0.019 C 
ENDBRANCH   1   7
TORSDOF 1
ENDMDL
