MODEL 1
REMARK minimizedAffinity -5.34393215
REMARK minimizedRMSD -1
REMARK  1 active torsions:
REMARK  status: ('A' for Active; 'I' for Inactive)
REMARK    1  A    between atoms: C1_2  and  C2_3 
ROOT
ATOM      1  C2  UNL d   1       0.017   0.085  -0.063  0.00  0.00    -0.077 A 
ATOM      2  C3  UNL d   1       1.352   0.364  -0.388  0.00  0.00     0.002 A 
ATOM      3  C4  UNL d   1       2.028   1.411   0.241  0.00  0.00     0.002 A 
ATOM      4  C5  UNL d   1       1.380   2.184   1.202  0.00  0.00    -0.004 A 
ATOM      5  C6  UNL d   1       0.052   1.916   1.531  0.00  0.00     0.002 A 
ATOM      6  C7  UNL d   1      -0.626   0.871   0.903  0.00  0.00     0.002 A 
ENDROOT
BRANCH   1   7
ATOM      7  C1  UNL d   1      -0.700  -1.074  -0.704  0.00  0.00     0.055 C 
ATOM      8  C   UNL d   1      -1.668  -0.601  -1.778  0.00  0.00     0.019 C 
ENDBRANCH   1   7
TORSDOF 1
ENDMDL
