MODEL 1
REMARK minimizedAffinity -2.02074194
REMARK minimizedRMSD -1
REMARK  1 active torsions:
REMARK  status: ('A' for Active; 'I' for Inactive)
REMARK    1  A    between atoms: C1_2  and  C2_3 
ROOT
ATOM      1  C2  UNL d   1       0.592  -0.040  -0.131  0.00  0.00    -0.077 A 
ATOM      2  C3  UNL d   1       1.515   0.896  -0.618  0.00  0.00     0.002 A 
ATOM      3  C4  UNL d   1       1.673   2.129   0.018  0.00  0.00     0.002 A 
ATOM      4  C5  UNL d   1       0.915   2.435   1.146  0.00  0.00    -0.004 A 
ATOM      5  C6  UNL d   1      -0.007   1.512   1.637  0.00  0.00     0.002 A 
ATOM      6  C7  UNL d   1      -0.167   0.279   1.002  0.00  0.00     0.002 A 
ENDROOT
BRANCH   1   7
ATOM      7  C1  UNL d   1       0.455  -1.390  -0.785  0.00  0.00     0.055 C 
ATOM      8  C   UNL d   1      -0.978  -1.649  -1.226  0.00  0.00     0.019 C 
ENDBRANCH   1   7
TORSDOF 1
ENDMDL
