MODEL 1
REMARK minimizedAffinity -2.36698723
REMARK minimizedRMSD -1
REMARK  1 active torsions:
REMARK  status: ('A' for Active; 'I' for Inactive)
REMARK    1  A    between atoms: C1_2  and  C2_3 
ROOT
ATOM      1  C2  UNL d   1       0.936   1.195  -0.018  0.00  0.00    -0.077 A 
ATOM      2  C3  UNL d   1       1.110   1.959   1.145  0.00  0.00     0.002 A 
ATOM      3  C4  UNL d   1       0.289   1.752   2.255  0.00  0.00     0.002 A 
ATOM      4  C5  UNL d   1      -0.707   0.779   2.216  0.00  0.00    -0.004 A 
ATOM      5  C6  UNL d   1      -0.889   0.015   1.063  0.00  0.00     0.002 A 
ATOM      6  C7  UNL d   1      -0.070   0.222  -0.048  0.00  0.00     0.002 A 
ENDROOT
BRANCH   1   7
ATOM      7  C1  UNL d   1       1.852   1.383  -1.199  0.00  0.00     0.055 C 
ATOM      8  C   UNL d   1       2.954   0.333  -1.218  0.00  0.00     0.019 C 
ENDBRANCH   1   7
TORSDOF 1
ENDMDL
