MODEL 1
REMARK minimizedAffinity 6.56216717
REMARK minimizedRMSD -1
REMARK  0 active torsions:
REMARK  status: ('A' for Active; 'I' for Inactive)
ROOT
ATOM      1  O1  BZF d   1      -5.762   2.965  -3.090  0.00  0.00    -0.204 OA
ATOM      2  C2  BZF d   1      -5.746   2.429  -1.816  0.00  0.00     0.174 A 
ATOM      3  C3  BZF d   1      -5.865   1.087  -1.860  0.00  0.00    -0.012 A 
ATOM      4  C3A BZF d   1      -5.868   0.755  -3.252  0.00  0.00    -0.107 A 
ATOM      5  C4  BZF d   1      -5.946  -0.425  -3.936  0.00  0.00     0.055 A 
ATOM      6  C5  BZF d   1      -5.998  -0.399  -5.294  0.00  0.00    -0.016 A 
ATOM      7  C6  BZF d   1      -5.980   0.786  -5.999  0.00  0.00     0.022 A 
ATOM      8  C7  BZF d   1      -5.898   1.981  -5.365  0.00  0.00     0.029 A 
ATOM      9  C7A BZF d   1      -5.812   1.957  -3.994  0.00  0.00     0.058 A 
ENDROOT
TORSDOF 0
ENDMDL
