MODEL 1
REMARK minimizedAffinity 3.14699769
REMARK minimizedRMSD -1
REMARK  0 active torsions:
REMARK  status: ('A' for Active; 'I' for Inactive)
ROOT
ATOM      1  O1  BZF d   1      -5.916  -0.940  -4.936  0.00  0.00    -0.204 OA
ATOM      2  C2  BZF d   1      -5.920  -0.041  -5.985  0.00  0.00     0.174 A 
ATOM      3  C3  BZF d   1      -6.000   1.226  -5.530  0.00  0.00    -0.012 A 
ATOM      4  C3A BZF d   1      -5.957   1.116  -4.104  0.00  0.00    -0.107 A 
ATOM      5  C4  BZF d   1      -5.983   2.032  -3.090  0.00  0.00     0.055 A 
ATOM      6  C5  BZF d   1      -6.000   1.593  -1.804  0.00  0.00    -0.016 A 
ATOM      7  C6  BZF d   1      -5.996   0.248  -1.496  0.00  0.00     0.022 A 
ATOM      8  C7  BZF d   1      -5.965  -0.697  -2.466  0.00  0.00     0.029 A 
ATOM      9  C7A BZF d   1      -5.915  -0.256  -3.766  0.00  0.00     0.058 A 
ENDROOT
TORSDOF 0
ENDMDL
