MODEL 1
REMARK minimizedAffinity 9.19384861
REMARK minimizedRMSD -1
REMARK  0 active torsions:
REMARK  status: ('A' for Active; 'I' for Inactive)
ROOT
ATOM      1  O1  BZF d   1       2.131   4.127  -3.477  0.00  0.00    -0.204 OA
ATOM      2  C2  BZF d   1       1.497   3.279  -2.589  0.00  0.00     0.174 A 
ATOM      3  C3  BZF d   1       0.163   3.292  -2.785  0.00  0.00    -0.012 A 
ATOM      4  C3A BZF d   1      -0.042   4.134  -3.924  0.00  0.00    -0.107 A 
ATOM      5  C4  BZF d   1      -1.154   4.525  -4.614  0.00  0.00     0.055 A 
ATOM      6  C5  BZF d   1      -1.019   5.413  -5.634  0.00  0.00    -0.016 A 
ATOM      7  C6  BZF d   1       0.209   5.932  -5.987  0.00  0.00     0.022 A 
ATOM      8  C7  BZF d   1       1.341   5.570  -5.335  0.00  0.00     0.029 A 
ATOM      9  C7A BZF d   1       1.212   4.648  -4.325  0.00  0.00     0.058 A 
ENDROOT
TORSDOF 0
ENDMDL
