MODEL 1
REMARK minimizedAffinity 1.51013005
REMARK minimizedRMSD -1
REMARK  0 active torsions:
REMARK  status: ('A' for Active; 'I' for Inactive)
ROOT
ATOM      1  O1  BZF d   1      -0.834   4.875  -4.988  0.00  0.00    -0.204 OA
ATOM      2  C2  BZF d   1      -0.245   5.613  -5.996  0.00  0.00     0.174 A 
ATOM      3  C3  BZF d   1       1.077   5.760  -5.771  0.00  0.00    -0.012 A 
ATOM      4  C3A BZF d   1       1.346   4.994  -4.593  0.00  0.00    -0.107 A 
ATOM      5  C4  BZF d   1       2.481   4.736  -3.880  0.00  0.00     0.055 A 
ATOM      6  C5  BZF d   1       2.391   4.009  -2.735  0.00  0.00    -0.016 A 
ATOM      7  C6  BZF d   1       1.183   3.529  -2.273  0.00  0.00     0.022 A 
ATOM      8  C7  BZF d   1       0.031   3.754  -2.949  0.00  0.00     0.029 A 
ATOM      9  C7A BZF d   1       0.123   4.461  -4.124  0.00  0.00     0.058 A 
ENDROOT
TORSDOF 0
ENDMDL
