MODEL 1
REMARK minimizedAffinity 0.752015173
REMARK minimizedRMSD -1
REMARK  0 active torsions:
REMARK  status: ('A' for Active; 'I' for Inactive)
ROOT
ATOM      1  O1  BZF d   1       2.174   4.123  -3.651  0.00  0.00    -0.204 OA
ATOM      2  C2  BZF d   1       1.721   3.284  -2.651  0.00  0.00     0.174 A 
ATOM      3  C3  BZF d   1       0.377   3.181  -2.684  0.00  0.00    -0.012 A 
ATOM      4  C3A BZF d   1      -0.030   3.935  -3.830  0.00  0.00    -0.107 A 
ATOM      5  C4  BZF d   1      -1.243   4.197  -4.399  0.00  0.00     0.055 A 
ATOM      6  C5  BZF d   1      -1.304   5.029  -5.472  0.00  0.00    -0.016 A 
ATOM      7  C6  BZF d   1      -0.174   5.620  -5.997  0.00  0.00     0.022 A 
ATOM      8  C7  BZF d   1       1.053   5.387  -5.470  0.00  0.00     0.029 A 
ATOM      9  C7A BZF d   1       1.121   4.520  -4.406  0.00  0.00     0.058 A 
ENDROOT
TORSDOF 0
ENDMDL
