MODEL 1
REMARK minimizedAffinity 6.04078388
REMARK minimizedRMSD -1
REMARK  0 active torsions:
REMARK  status: ('A' for Active; 'I' for Inactive)
ROOT
ATOM      1  O1  BZF d   1      -0.841   5.262  -4.140  0.00  0.00    -0.204 OA
ATOM      2  C2  BZF d   1      -0.984   5.959  -5.324  0.00  0.00     0.174 A 
ATOM      3  C3  BZF d   1       0.182   5.998  -6.000  0.00  0.00    -0.012 A 
ATOM      4  C3A BZF d   1       1.089   5.201  -5.232  0.00  0.00    -0.107 A 
ATOM      5  C4  BZF d   1       2.398   4.846  -5.396  0.00  0.00     0.055 A 
ATOM      6  C5  BZF d   1       3.011   4.118  -4.427  0.00  0.00    -0.016 A 
ATOM      7  C6  BZF d   1       2.349   3.732  -3.280  0.00  0.00     0.022 A 
ATOM      8  C7  BZF d   1       1.049   4.056  -3.074  0.00  0.00     0.029 A 
ATOM      9  C7A BZF d   1       0.417   4.764  -4.067  0.00  0.00     0.058 A 
ENDROOT
TORSDOF 0
ENDMDL
