MODEL 1
REMARK minimizedAffinity 6.57615709
REMARK minimizedRMSD -1
REMARK  0 active torsions:
REMARK  status: ('A' for Active; 'I' for Inactive)
ROOT
ATOM      1  O1  BZF d   1       2.835   4.611  -4.560  0.00  0.00    -0.204 OA
ATOM      2  C2  BZF d   1       2.881   4.098  -3.278  0.00  0.00     0.174 A 
ATOM      3  C3  BZF d   1       1.658   4.120  -2.709  0.00  0.00    -0.012 A 
ATOM      4  C3A BZF d   1       0.777   4.597  -3.731  0.00  0.00    -0.107 A 
ATOM      5  C4  BZF d   1      -0.569   4.823  -3.779  0.00  0.00     0.055 A 
ATOM      6  C5  BZF d   1      -1.109   5.361  -4.905  0.00  0.00    -0.016 A 
ATOM      7  C6  BZF d   1      -0.332   5.688  -5.997  0.00  0.00     0.022 A 
ATOM      8  C7  BZF d   1       1.007   5.478  -5.998  0.00  0.00     0.029 A 
ATOM      9  C7A BZF d   1       1.550   4.904  -4.874  0.00  0.00     0.058 A 
ENDROOT
TORSDOF 0
ENDMDL
