MODEL 1
REMARK minimizedAffinity 8.8475771
REMARK minimizedRMSD -1
REMARK  0 active torsions:
REMARK  status: ('A' for Active; 'I' for Inactive)
ROOT
ATOM      1  O1  BZF d   1      -6.000  -1.612  -4.361  0.00  0.00    -0.204 OA
ATOM      2  C2  BZF d   1      -5.924  -1.702  -2.985  0.00  0.00     0.174 A 
ATOM      3  C3  BZF d   1      -5.786  -0.479  -2.432  0.00  0.00    -0.012 A 
ATOM      4  C3A BZF d   1      -5.868   0.439  -3.526  0.00  0.00    -0.107 A 
ATOM      5  C4  BZF d   1      -5.816   1.801  -3.614  0.00  0.00     0.055 A 
ATOM      6  C5  BZF d   1      -5.853   2.386  -4.840  0.00  0.00    -0.016 A 
ATOM      7  C6  BZF d   1      -5.936   1.640  -5.998  0.00  0.00     0.022 A 
ATOM      8  C7  BZF d   1      -5.995   0.286  -5.961  0.00  0.00     0.029 A 
ATOM      9  C7A BZF d   1      -5.992  -0.306  -4.721  0.00  0.00     0.058 A 
ENDROOT
TORSDOF 0
ENDMDL
