MODEL 1
REMARK minimizedAffinity 8.61842346
REMARK minimizedRMSD -1
REMARK  0 active torsions:
REMARK  status: ('A' for Active; 'I' for Inactive)
ROOT
ATOM      1  O1  BZF d   1      -4.576  -5.937  -5.894  0.00  0.00    -0.204 OA
ATOM      2  C2  BZF d   1      -5.485  -5.768  -4.868  0.00  0.00     0.174 A 
ATOM      3  C3  BZF d   1      -4.853  -5.644  -3.684  0.00  0.00    -0.012 A 
ATOM      4  C3A BZF d   1      -3.458  -5.650  -3.999  0.00  0.00    -0.107 A 
ATOM      5  C4  BZF d   1      -2.324  -5.544  -3.245  0.00  0.00     0.055 A 
ATOM      6  C5  BZF d   1      -1.114  -5.660  -3.852  0.00  0.00    -0.016 A 
ATOM      7  C6  BZF d   1      -1.000  -5.889  -5.208  0.00  0.00     0.022 A 
ATOM      8  C7  BZF d   1      -2.096  -5.996  -5.998  0.00  0.00     0.029 A 
ATOM      9  C7A BZF d   1      -3.320  -5.846  -5.393  0.00  0.00     0.058 A 
ENDROOT
TORSDOF 0
ENDMDL
