MODEL 1
REMARK minimizedAffinity 6.47184944
REMARK minimizedRMSD -1
REMARK  0 active torsions:
REMARK  status: ('A' for Active; 'I' for Inactive)
ROOT
ATOM      1  O1  BZF d   1      -5.520  -0.314   0.386  0.00  0.00    -0.204 OA
ATOM      2  C2  BZF d   1      -5.996   0.760   1.112  0.00  0.00     0.174 A 
ATOM      3  C3  BZF d   1      -5.335   0.878   2.282  0.00  0.00    -0.012 A 
ATOM      4  C3A BZF d   1      -4.324  -0.133   2.246  0.00  0.00    -0.107 A 
ATOM      5  C4  BZF d   1      -3.338  -0.507   3.115  0.00  0.00     0.055 A 
ATOM      6  C5  BZF d   1      -2.565  -1.582   2.813  0.00  0.00    -0.016 A 
ATOM      7  C6  BZF d   1      -2.752  -2.309   1.655  0.00  0.00     0.022 A 
ATOM      8  C7  BZF d   1      -3.713  -1.974   0.761  0.00  0.00     0.029 A 
ATOM      9  C7A BZF d   1      -4.475  -0.868   1.047  0.00  0.00     0.058 A 
ENDROOT
TORSDOF 0
ENDMDL
