MODEL 1
REMARK minimizedAffinity 8.30366039
REMARK minimizedRMSD -1
REMARK  0 active torsions:
REMARK  status: ('A' for Active; 'I' for Inactive)
ROOT
ATOM      1  O1  BZF d   1      -5.990   1.623  -2.271  0.00  0.00    -0.204 OA
ATOM      2  C2  BZF d   1      -5.966   2.969  -2.580  0.00  0.00     0.174 A 
ATOM      3  C3  BZF d   1      -5.879   3.153  -3.913  0.00  0.00    -0.012 A 
ATOM      4  C3A BZF d   1      -5.940   1.840  -4.478  0.00  0.00    -0.107 A 
ATOM      5  C4  BZF d   1      -5.918   1.367  -5.759  0.00  0.00     0.055 A 
ATOM      6  C5  BZF d   1      -5.921   0.024  -5.968  0.00  0.00    -0.016 A 
ATOM      7  C6  BZF d   1      -5.940  -0.873  -4.920  0.00  0.00     0.022 A 
ATOM      8  C7  BZF d   1      -5.969  -0.452  -3.633  0.00  0.00     0.029 A 
ATOM      9  C7A BZF d   1      -5.999   0.905  -3.419  0.00  0.00     0.058 A 
ENDROOT
TORSDOF 0
ENDMDL
