MODEL 1
REMARK minimizedAffinity 4.16897821
REMARK minimizedRMSD -1
REMARK  0 active torsions:
REMARK  status: ('A' for Active; 'I' for Inactive)
ROOT
ATOM      1  O1  BZF d   1       1.035   5.493  -6.000  0.00  0.00    -0.204 OA
ATOM      2  C2  BZF d   1      -0.251   5.998  -5.982  0.00  0.00     0.174 A 
ATOM      3  C3  BZF d   1      -0.903   5.604  -4.869  0.00  0.00    -0.012 A 
ATOM      4  C3A BZF d   1       0.063   4.879  -4.102  0.00  0.00    -0.107 A 
ATOM      5  C4  BZF d   1       0.022   4.253  -2.889  0.00  0.00     0.055 A 
ATOM      6  C5  BZF d   1       1.118   3.575  -2.458  0.00  0.00    -0.016 A 
ATOM      7  C6  BZF d   1       2.268   3.499  -3.215  0.00  0.00     0.022 A 
ATOM      8  C7  BZF d   1       2.359   4.108  -4.423  0.00  0.00     0.029 A 
ATOM      9  C7A BZF d   1       1.264   4.821  -4.846  0.00  0.00     0.058 A 
ENDROOT
TORSDOF 0
ENDMDL
