MODEL 1
REMARK minimizedAffinity -0.335747331
REMARK minimizedRMSD -1
REMARK  0 active torsions:
REMARK  status: ('A' for Active; 'I' for Inactive)
ROOT
ATOM      1  O1  BZF d   1      -5.972   2.694  -3.414  0.00  0.00    -0.204 OA
ATOM      2  C2  BZF d   1      -5.957   2.632  -2.034  0.00  0.00     0.174 A 
ATOM      3  C3  BZF d   1      -5.998   1.351  -1.613  0.00  0.00    -0.012 A 
ATOM      4  C3A BZF d   1      -5.949   0.561  -2.804  0.00  0.00    -0.107 A 
ATOM      5  C4  BZF d   1      -5.944  -0.784  -3.039  0.00  0.00     0.055 A 
ATOM      6  C5  BZF d   1      -5.964  -1.231  -4.322  0.00  0.00    -0.016 A 
ATOM      7  C6  BZF d   1      -5.996  -0.362  -5.393  0.00  0.00     0.022 A 
ATOM      8  C7  BZF d   1      -5.998   0.981  -5.210  0.00  0.00     0.029 A 
ATOM      9  C7A BZF d   1      -5.944   1.436  -3.915  0.00  0.00     0.058 A 
ENDROOT
TORSDOF 0
ENDMDL
