MODEL 1
REMARK minimizedAffinity -1.60410559
REMARK minimizedRMSD -1
REMARK  0 active torsions:
REMARK  status: ('A' for Active; 'I' for Inactive)
ROOT
ATOM      1  O1  BZF d   1      -4.243   0.251   2.352  0.00  0.00    -0.204 OA
ATOM      2  C2  BZF d   1      -5.092  -0.442   1.510  0.00  0.00     0.174 A 
ATOM      3  C3  BZF d   1      -4.484  -1.541   1.018  0.00  0.00    -0.012 A 
ATOM      4  C3A BZF d   1      -3.207  -1.584   1.660  0.00  0.00    -0.107 A 
ATOM      5  C4  BZF d   1      -2.153  -2.450   1.596  0.00  0.00     0.055 A 
ATOM      6  C5  BZF d   1      -1.022  -2.167   2.295  0.00  0.00    -0.016 A 
ATOM      7  C6  BZF d   1      -0.909  -1.026   3.062  0.00  0.00     0.022 A 
ATOM      8  C7  BZF d   1      -1.930  -0.139   3.160  0.00  0.00     0.029 A 
ATOM      9  C7A BZF d   1      -3.086  -0.440   2.482  0.00  0.00     0.058 A 
ENDROOT
TORSDOF 0
ENDMDL
