MODEL 1
REMARK minimizedAffinity 8.93719482
REMARK minimizedRMSD -1
REMARK  0 active torsions:
REMARK  status: ('A' for Active; 'I' for Inactive)
ROOT
ATOM      1  O1  BZF d   1      -5.980   1.625  -2.222  0.00  0.00    -0.204 OA
ATOM      2  C2  BZF d   1      -5.996   2.978  -2.498  0.00  0.00     0.174 A 
ATOM      3  C3  BZF d   1      -5.943   3.197  -3.828  0.00  0.00    -0.012 A 
ATOM      4  C3A BZF d   1      -5.984   1.897  -4.424  0.00  0.00    -0.107 A 
ATOM      5  C4  BZF d   1      -5.978   1.456  -5.717  0.00  0.00     0.055 A 
ATOM      6  C5  BZF d   1      -5.953   0.119  -5.959  0.00  0.00    -0.016 A 
ATOM      7  C6  BZF d   1      -5.928  -0.804  -4.934  0.00  0.00     0.022 A 
ATOM      8  C7  BZF d   1      -5.938  -0.415  -3.636  0.00  0.00     0.029 A 
ATOM      9  C7A BZF d   1      -5.997   0.935  -3.388  0.00  0.00     0.058 A 
ENDROOT
TORSDOF 0
ENDMDL
