MODEL 1
REMARK minimizedAffinity 3.66449237
REMARK minimizedRMSD -1
REMARK  0 active torsions:
REMARK  status: ('A' for Active; 'I' for Inactive)
ROOT
ATOM      1  O1  BZF d   1       1.885   3.917  -3.185  0.00  0.00    -0.204 OA
ATOM      2  C2  BZF d   1       1.163   2.918  -2.562  0.00  0.00     0.174 A 
ATOM      3  C3  BZF d   1      -0.110   2.900  -3.006  0.00  0.00    -0.012 A 
ATOM      4  C3A BZF d   1      -0.165   3.894  -4.033  0.00  0.00    -0.107 A 
ATOM      5  C4  BZF d   1      -1.157   4.335  -4.862  0.00  0.00     0.055 A 
ATOM      6  C5  BZF d   1      -0.902   5.371  -5.704  0.00  0.00    -0.016 A 
ATOM      7  C6  BZF d   1       0.329   5.992  -5.740  0.00  0.00     0.022 A 
ATOM      8  C7  BZF d   1       1.346   5.586  -4.941  0.00  0.00     0.029 A 
ATOM      9  C7A BZF d   1       1.102   4.518  -4.112  0.00  0.00     0.058 A 
ENDROOT
TORSDOF 0
ENDMDL
