MODEL 1
REMARK minimizedAffinity 2.48112679
REMARK minimizedRMSD -1
REMARK  0 active torsions:
REMARK  status: ('A' for Active; 'I' for Inactive)
ROOT
ATOM      1  O1  BZF d   1      -5.434   3.022  -3.257  0.00  0.00    -0.204 OA
ATOM      2  C2  BZF d   1      -5.849   1.706  -3.323  0.00  0.00     0.174 A 
ATOM      3  C3  BZF d   1      -5.993   1.187  -2.087  0.00  0.00    -0.012 A 
ATOM      4  C3A BZF d   1      -5.734   2.271  -1.191  0.00  0.00    -0.107 A 
ATOM      5  C4  BZF d   1      -5.737   2.386   0.170  0.00  0.00     0.055 A 
ATOM      6  C5  BZF d   1      -5.369   3.566   0.734  0.00  0.00    -0.016 A 
ATOM      7  C6  BZF d   1      -4.988   4.649  -0.031  0.00  0.00     0.022 A 
ATOM      8  C7  BZF d   1      -4.974   4.585  -1.384  0.00  0.00     0.029 A 
ATOM      9  C7A BZF d   1      -5.377   3.404  -1.958  0.00  0.00     0.058 A 
ENDROOT
TORSDOF 0
ENDMDL
