MODEL 1
REMARK minimizedAffinity 3.51699948
REMARK minimizedRMSD -1
REMARK  0 active torsions:
REMARK  status: ('A' for Active; 'I' for Inactive)
ROOT
ATOM      1  O1  BZF d   1       0.005   3.368  -2.950  0.00  0.00    -0.204 OA
ATOM      2  C2  BZF d   1       1.353   3.342  -2.651  0.00  0.00     0.174 A 
ATOM      3  C3  BZF d   1       2.047   4.127  -3.500  0.00  0.00    -0.012 A 
ATOM      4  C3A BZF d   1       1.060   4.749  -4.328  0.00  0.00    -0.107 A 
ATOM      5  C4  BZF d   1       1.126   5.650  -5.353  0.00  0.00     0.055 A 
ATOM      6  C5  BZF d   1      -0.016   6.000  -6.000  0.00  0.00    -0.016 A 
ATOM      7  C6  BZF d   1      -1.240   5.466  -5.652  0.00  0.00     0.022 A 
ATOM      8  C7  BZF d   1      -1.357   4.573  -4.639  0.00  0.00     0.029 A 
ATOM      9  C7A BZF d   1      -0.208   4.243  -3.962  0.00  0.00     0.058 A 
ENDROOT
TORSDOF 0
ENDMDL
