MODEL 1
REMARK minimizedAffinity -3.58612919
REMARK minimizedRMSD -1
REMARK  1 active torsions:
REMARK  status: ('A' for Active; 'I' for Inactive)
REMARK    1  A    between atoms: N_2  and  C1_3 
ROOT
ATOM      1  C1  UNL d   1       0.500  -0.227  -0.900  0.00  0.00     0.143 A 
ATOM      2  C2  UNL d   1       1.353   0.322   0.064  0.00  0.00    -0.057 A 
ATOM      3  C3  UNL d   1       0.984   0.377   1.414  0.00  0.00     0.033 A 
ATOM      4  C4  UNL d   1      -0.261  -0.093   1.820  0.00  0.00    -0.042 A 
ATOM      5  C5  UNL d   1      -1.135  -0.620   0.876  0.00  0.00     0.033 A 
ATOM      6  C6  UNL d   1      -0.758  -0.677  -0.469  0.00  0.00    -0.057 A 
ENDROOT
BRANCH   1   7
ATOM      7  N   UNL d   1       0.768  -0.219  -2.270  0.00  0.00    -0.732 N 
ATOM      8  C   UNL d   1       0.849  -1.459  -3.012  0.00  0.00     0.284 C 
ATOM      9  H3  UNL d   1       0.276   0.526  -2.759  0.00  0.00     0.395 HD
ENDBRANCH   1   7
TORSDOF 1
ENDMDL
