MODEL 1
REMARK minimizedAffinity -1.23534739
REMARK minimizedRMSD -1
REMARK  1 active torsions:
REMARK  status: ('A' for Active; 'I' for Inactive)
REMARK    1  A    between atoms: N_2  and  C1_3 
ROOT
ATOM      1  C1  UNL d   1      -0.235  -0.036  -1.327  0.00  0.00     0.143 A 
ATOM      2  C2  UNL d   1      -1.541   0.330  -1.670  0.00  0.00    -0.057 A 
ATOM      3  C3  UNL d   1      -2.552   0.402  -0.704  0.00  0.00     0.033 A 
ATOM      4  C4  UNL d   1      -2.281   0.079   0.621  0.00  0.00    -0.042 A 
ATOM      5  C5  UNL d   1      -0.996  -0.312   0.981  0.00  0.00     0.033 A 
ATOM      6  C6  UNL d   1       0.011  -0.375   0.013  0.00  0.00    -0.057 A 
ENDROOT
BRANCH   1   7
ATOM      7  N   UNL d   1       0.791  -0.220  -2.257  0.00  0.00    -0.732 N 
ATOM      8  C   UNL d   1       0.662  -1.203  -3.311  0.00  0.00     0.284 C 
ATOM      9  H3  UNL d   1       1.206   0.659  -2.557  0.00  0.00     0.395 HD
ENDBRANCH   1   7
TORSDOF 1
ENDMDL
