MODEL 1
REMARK minimizedAffinity -5.38482285
REMARK minimizedRMSD -1
REMARK  1 active torsions:
REMARK  status: ('A' for Active; 'I' for Inactive)
REMARK    1  A    between atoms: N_2  and  C1_3 
ROOT
ATOM      1  C1  UNL d   1      -0.373  -0.144   0.858  0.00  0.00     0.143 A 
ATOM      2  C2  UNL d   1       0.179  -0.414   2.115  0.00  0.00    -0.057 A 
ATOM      3  C3  UNL d   1      -0.634  -0.602   3.240  0.00  0.00     0.033 A 
ATOM      4  C4  UNL d   1      -2.017  -0.494   3.131  0.00  0.00    -0.042 A 
ATOM      5  C5  UNL d   1      -2.586  -0.202   1.897  0.00  0.00     0.033 A 
ATOM      6  C6  UNL d   1      -1.769  -0.022   0.776  0.00  0.00    -0.057 A 
ENDROOT
BRANCH   1   7
ATOM      7  N   UNL d   1       0.387   0.150  -0.277  0.00  0.00    -0.732 N 
ATOM      8  C   UNL d   1      -0.212   0.114  -1.594  0.00  0.00     0.284 C 
ATOM      9  H3  UNL d   1       1.019   0.933  -0.129  0.00  0.00     0.395 HD
ENDBRANCH   1   7
TORSDOF 1
ENDMDL
