MODEL 1
REMARK minimizedAffinity -5.06924057
REMARK minimizedRMSD -1
REMARK  1 active torsions:
REMARK  status: ('A' for Active; 'I' for Inactive)
REMARK    1  A    between atoms: N_2  and  C1_3 
ROOT
ATOM      1  C1  UNL d   1      -0.070  -0.113   0.247  0.00  0.00     0.143 A 
ATOM      2  C2  UNL d   1       1.113  -0.099   0.994  0.00  0.00    -0.057 A 
ATOM      3  C3  UNL d   1       1.092  -0.208   2.390  0.00  0.00     0.033 A 
ATOM      4  C4  UNL d   1      -0.119  -0.304   3.068  0.00  0.00    -0.042 A 
ATOM      5  C5  UNL d   1      -1.308  -0.294   2.348  0.00  0.00     0.033 A 
ATOM      6  C6  UNL d   1      -1.280  -0.192   0.954  0.00  0.00    -0.057 A 
ENDROOT
BRANCH   1   7
ATOM      7  N   UNL d   1      -0.120   0.091  -1.134  0.00  0.00    -0.732 N 
ATOM      8  C   UNL d   1       0.716  -0.685  -2.024  0.00  0.00     0.284 C 
ATOM      9  H3  UNL d   1      -1.070   0.231  -1.471  0.00  0.00     0.395 HD
ENDBRANCH   1   7
TORSDOF 1
ENDMDL
