MODEL 1
REMARK minimizedAffinity 2.30807948
REMARK minimizedRMSD -1
REMARK  1 active torsions:
REMARK  status: ('A' for Active; 'I' for Inactive)
REMARK    1  A    between atoms: N_2  and  C1_3 
ROOT
ATOM      1  C1  UNL d   1       4.401   0.955  -4.991  0.00  0.00     0.143 A 
ATOM      2  C2  UNL d   1       4.526  -0.428  -5.163  0.00  0.00    -0.057 A 
ATOM      3  C3  UNL d   1       3.492  -1.300  -4.804  0.00  0.00     0.033 A 
ATOM      4  C4  UNL d   1       2.321  -0.806  -4.237  0.00  0.00    -0.042 A 
ATOM      5  C5  UNL d   1       2.185   0.563  -4.034  0.00  0.00     0.033 A 
ATOM      6  C6  UNL d   1       3.219   1.430  -4.401  0.00  0.00    -0.057 A 
ENDROOT
BRANCH   1   7
ATOM      7  N   UNL d   1       5.431   1.866  -5.237  0.00  0.00    -0.732 N 
ATOM      8  C   UNL d   1       5.183   3.073  -5.996  0.00  0.00     0.284 C 
ATOM      9  H3  UNL d   1       6.032   2.000  -4.428  0.00  0.00     0.395 HD
ENDBRANCH   1   7
TORSDOF 1
ENDMDL
