MODEL 1
REMARK minimizedAffinity -3.20015216
REMARK minimizedRMSD -1
REMARK  1 active torsions:
REMARK  status: ('A' for Active; 'I' for Inactive)
REMARK    1  A    between atoms: N_2  and  C1_3 
ROOT
ATOM      1  C1  UNL d   1      -1.296   0.739   1.168  0.00  0.00     0.143 A 
ATOM      2  C2  UNL d   1      -0.516   0.636   0.011  0.00  0.00    -0.057 A 
ATOM      3  C3  UNL d   1       0.871   0.458   0.084  0.00  0.00     0.033 A 
ATOM      4  C4  UNL d   1       1.508   0.411   1.320  0.00  0.00    -0.042 A 
ATOM      5  C5  UNL d   1       0.756   0.536   2.482  0.00  0.00     0.033 A 
ATOM      6  C6  UNL d   1      -0.630   0.706   2.403  0.00  0.00    -0.057 A 
ENDROOT
BRANCH   1   7
ATOM      7  N   UNL d   1      -2.666   1.014   1.160  0.00  0.00    -0.732 N 
ATOM      8  C   UNL d   1      -3.352   1.375   2.382  0.00  0.00     0.284 C 
ATOM      9  H3  UNL d   1      -2.948   1.559   0.349  0.00  0.00     0.395 HD
ENDBRANCH   1   7
TORSDOF 1
ENDMDL
