MODEL 1
REMARK minimizedAffinity 0.0147998221
REMARK minimizedRMSD -1
REMARK  1 active torsions:
REMARK  status: ('A' for Active; 'I' for Inactive)
REMARK    1  A    between atoms: N_2  and  C1_3 
ROOT
ATOM      1  C1  UNL d   1       0.141   0.226   1.744  0.00  0.00     0.143 A 
ATOM      2  C2  UNL d   1      -1.128  -0.126   1.273  0.00  0.00    -0.057 A 
ATOM      3  C3  UNL d   1      -1.372  -0.303  -0.095  0.00  0.00     0.033 A 
ATOM      4  C4  UNL d   1      -0.353  -0.103  -1.020  0.00  0.00    -0.042 A 
ATOM      5  C5  UNL d   1       0.910   0.271  -0.577  0.00  0.00     0.033 A 
ATOM      6  C6  UNL d   1       1.149   0.440   0.791  0.00  0.00    -0.057 A 
ENDROOT
BRANCH   1   7
ATOM      7  N   UNL d   1       0.422   0.513   3.082  0.00  0.00    -0.732 N 
ATOM      8  C   UNL d   1       0.342   1.870   3.577  0.00  0.00     0.284 C 
ATOM      9  H3  UNL d   1       0.041  -0.185   3.717  0.00  0.00     0.395 HD
ENDBRANCH   1   7
TORSDOF 1
ENDMDL
