MODEL 1
REMARK minimizedAffinity -5.34264612
REMARK minimizedRMSD -1
REMARK  1 active torsions:
REMARK  status: ('A' for Active; 'I' for Inactive)
REMARK    1  A    between atoms: N_2  and  C1_3 
ROOT
ATOM      1  C1  UNL d   1       0.191   0.168   0.104  0.00  0.00     0.143 A 
ATOM      2  C2  UNL d   1      -0.638  -0.545   0.976  0.00  0.00    -0.057 A 
ATOM      3  C3  UNL d   1      -0.238  -0.831   2.287  0.00  0.00     0.033 A 
ATOM      4  C4  UNL d   1       1.015  -0.433   2.741  0.00  0.00    -0.042 A 
ATOM      5  C5  UNL d   1       1.866   0.255   1.883  0.00  0.00     0.033 A 
ATOM      6  C6  UNL d   1       1.458   0.543   0.577  0.00  0.00    -0.057 A 
ENDROOT
BRANCH   1   7
ATOM      7  N   UNL d   1      -0.109   0.397  -1.241  0.00  0.00    -0.732 N 
ATOM      8  C   UNL d   1       0.517  -0.391  -2.281  0.00  0.00     0.284 C 
ATOM      9  H3  UNL d   1      -1.099   0.575  -1.393  0.00  0.00     0.395 HD
ENDBRANCH   1   7
TORSDOF 1
ENDMDL
