MODEL 1
REMARK minimizedAffinity -2.91949248
REMARK minimizedRMSD -1
REMARK  1 active torsions:
REMARK  status: ('A' for Active; 'I' for Inactive)
REMARK    1  A    between atoms: N_2  and  C1_3 
ROOT
ATOM      1  C1  UNL d   1      -0.351  -0.286   1.454  0.00  0.00     0.143 A 
ATOM      2  C2  UNL d   1      -0.655  -0.107   2.808  0.00  0.00    -0.057 A 
ATOM      3  C3  UNL d   1      -1.981  -0.080   3.256  0.00  0.00     0.033 A 
ATOM      4  C4  UNL d   1      -3.030  -0.202   2.351  0.00  0.00    -0.042 A 
ATOM      5  C5  UNL d   1      -2.752  -0.356   0.998  0.00  0.00     0.033 A 
ATOM      6  C6  UNL d   1      -1.425  -0.389   0.557  0.00  0.00    -0.057 A 
ENDROOT
BRANCH   1   7
ATOM      7  N   UNL d   1       0.944  -0.224   0.934  0.00  0.00    -0.732 N 
ATOM      8  C   UNL d   1       1.960   0.581   1.578  0.00  0.00     0.284 C 
ATOM      9  H3  UNL d   1       1.276  -1.129   0.607  0.00  0.00     0.395 HD
ENDBRANCH   1   7
TORSDOF 1
ENDMDL
