MODEL 1
REMARK minimizedAffinity -2.07448387
REMARK minimizedRMSD -1
REMARK  1 active torsions:
REMARK  status: ('A' for Active; 'I' for Inactive)
REMARK    1  A    between atoms: N_2  and  C1_3 
ROOT
ATOM      1  C1  UNL d   1       0.522   0.255  -0.450  0.00  0.00     0.143 A 
ATOM      2  C2  UNL d   1       0.805  -1.042  -0.007  0.00  0.00    -0.057 A 
ATOM      3  C3  UNL d   1       1.088  -1.303   1.339  0.00  0.00     0.033 A 
ATOM      4  C4  UNL d   1       1.122  -0.265   2.264  0.00  0.00    -0.042 A 
ATOM      5  C5  UNL d   1       0.869   1.035   1.841  0.00  0.00     0.033 A 
ATOM      6  C6  UNL d   1       0.580   1.289   0.497  0.00  0.00    -0.057 A 
ENDROOT
BRANCH   1   7
ATOM      7  N   UNL d   1       0.330   0.594  -1.791  0.00  0.00    -0.732 N 
ATOM      8  C   UNL d   1       1.031  -0.117  -2.839  0.00  0.00     0.284 C 
ATOM      9  H3  UNL d   1      -0.644   0.796  -2.006  0.00  0.00     0.395 HD
ENDBRANCH   1   7
TORSDOF 1
ENDMDL
