MODEL 1
REMARK minimizedAffinity -2.69077587
REMARK minimizedRMSD -1
REMARK  1 active torsions:
REMARK  status: ('A' for Active; 'I' for Inactive)
REMARK    1  A    between atoms: N_2  and  C1_3 
ROOT
ATOM      1  C1  UNL d   1       0.412   0.342   0.068  0.00  0.00     0.143 A 
ATOM      2  C2  UNL d   1      -0.823   0.126   0.689  0.00  0.00    -0.057 A 
ATOM      3  C3  UNL d   1      -0.984   0.312   2.067  0.00  0.00     0.033 A 
ATOM      4  C4  UNL d   1       0.098   0.690   2.856  0.00  0.00    -0.042 A 
ATOM      5  C5  UNL d   1       1.340   0.885   2.263  0.00  0.00     0.033 A 
ATOM      6  C6  UNL d   1       1.493   0.704   0.885  0.00  0.00    -0.057 A 
ENDROOT
BRANCH   1   7
ATOM      7  N   UNL d   1       0.660   0.078  -1.282  0.00  0.00    -0.732 N 
ATOM      8  C   UNL d   1       0.710  -1.283  -1.770  0.00  0.00     0.284 C 
ATOM      9  H3  UNL d   1       0.173   0.724  -1.899  0.00  0.00     0.395 HD
ENDBRANCH   1   7
TORSDOF 1
ENDMDL
