MODEL 1
REMARK minimizedAffinity 11.635252
REMARK minimizedRMSD -1
REMARK  2 active torsions:
REMARK  status: ('A' for Active; 'I' for Inactive)
REMARK    1  A    between atoms: C2'_3  and  C1'_4 
REMARK    2  A    between atoms: C1'_4  and  C1_5 
ROOT
ATOM      1  C1  I4B d   1       1.872  -0.729  -5.188  0.00  0.00    -0.075 A 
ATOM      2  C2  I4B d   1       2.111  -1.286  -3.957  0.00  0.00     0.003 A 
ATOM      3  C3  I4B d   1       3.440  -1.480  -3.508  0.00  0.00     0.002 A 
ATOM      4  C4  I4B d   1       4.492  -1.152  -4.338  0.00  0.00    -0.004 A 
ATOM      5  C5  I4B d   1       4.248  -0.566  -5.577  0.00  0.00     0.002 A 
ATOM      6  C6  I4B d   1       2.930  -0.342  -6.000  0.00  0.00     0.003 A 
ENDROOT
BRANCH   1   7
ATOM      7  C1' I4B d   1       0.456  -0.569  -5.644  0.00  0.00     0.060 C 
BRANCH   7   8
ATOM      8  C2' I4B d   1      -0.414  -1.468  -4.789  0.00  0.00    -0.013 C 
ATOM      9  C4' I4B d   1      -1.775  -0.861  -4.570  0.00  0.00     0.013 C 
ATOM     10  C3' I4B d   1      -0.518  -2.798  -5.472  0.00  0.00     0.013 C 
ENDBRANCH   7   8
ENDBRANCH   1   7
TORSDOF 2
ENDMDL
