MODEL 1
REMARK minimizedAffinity 10.6594067
REMARK minimizedRMSD -1
REMARK  2 active torsions:
REMARK  status: ('A' for Active; 'I' for Inactive)
REMARK    1  A    between atoms: C2'_3  and  C1'_4 
REMARK    2  A    between atoms: C1'_4  and  C1_5 
ROOT
ATOM      1  C1  I4B d   1       0.612  -1.051   3.316  0.00  0.00    -0.075 A 
ATOM      2  C2  I4B d   1       0.701  -0.631   4.620  0.00  0.00     0.003 A 
ATOM      3  C3  I4B d   1       1.864  -0.907   5.380  0.00  0.00     0.002 A 
ATOM      4  C4  I4B d   1       2.886  -1.643   4.815  0.00  0.00    -0.004 A 
ATOM      5  C5  I4B d   1       2.804  -2.047   3.486  0.00  0.00     0.002 A 
ATOM      6  C6  I4B d   1       1.665  -1.739   2.727  0.00  0.00     0.003 A 
ENDROOT
BRANCH   1   7
ATOM      7  C1' I4B d   1      -0.644  -0.772   2.554  0.00  0.00     0.060 C 
BRANCH   7   8
ATOM      8  C2' I4B d   1      -1.308  -2.098   2.246  0.00  0.00    -0.013 C 
ATOM      9  C4' I4B d   1      -0.974  -3.130   3.291  0.00  0.00     0.013 C 
ATOM     10  C3' I4B d   1      -2.788  -1.868   2.167  0.00  0.00     0.013 C 
ENDBRANCH   7   8
ENDBRANCH   1   7
TORSDOF 2
ENDMDL
