MODEL 1
REMARK minimizedAffinity 6.68483353
REMARK minimizedRMSD -1
REMARK  2 active torsions:
REMARK  status: ('A' for Active; 'I' for Inactive)
REMARK    1  A    between atoms: C2'_3  and  C1'_4 
REMARK    2  A    between atoms: C1'_4  and  C1_5 
ROOT
ATOM      1  C1  I4B d   1       1.629   0.231  -5.760  0.00  0.00    -0.075 A 
ATOM      2  C2  I4B d   1       0.647   1.117  -5.390  0.00  0.00     0.003 A 
ATOM      3  C3  I4B d   1      -0.693   0.681  -5.256  0.00  0.00     0.002 A 
ATOM      4  C4  I4B d   1      -1.014  -0.629  -5.548  0.00  0.00    -0.004 A 
ATOM      5  C5  I4B d   1      -0.015  -1.531  -5.901  0.00  0.00     0.002 A 
ATOM      6  C6  I4B d   1       1.317  -1.102  -5.995  0.00  0.00     0.003 A 
ENDROOT
BRANCH   1   7
ATOM      7  C1' I4B d   1       3.028   0.732  -5.924  0.00  0.00     0.060 C 
BRANCH   7   8
ATOM      8  C2' I4B d   1       3.971  -0.348  -5.434  0.00  0.00    -0.013 C 
ATOM      9  C4' I4B d   1       5.355  -0.160  -5.998  0.00  0.00     0.013 C 
ATOM     10  C3' I4B d   1       3.987  -0.305  -3.936  0.00  0.00     0.013 C 
ENDBRANCH   7   8
ENDBRANCH   1   7
TORSDOF 2
ENDMDL
