MODEL 1
REMARK minimizedAffinity 4.96321869
REMARK minimizedRMSD -1
REMARK  2 active torsions:
REMARK  status: ('A' for Active; 'I' for Inactive)
REMARK    1  A    between atoms: C2'_3  and  C1'_4 
REMARK    2  A    between atoms: C1'_4  and  C1_5 
ROOT
ATOM      1  C1  I4B d   1       1.510  -0.151  -4.877  0.00  0.00    -0.075 A 
ATOM      2  C2  I4B d   1       2.283   0.011  -6.000  0.00  0.00     0.003 A 
ATOM      3  C3  I4B d   1       3.636  -0.408  -5.999  0.00  0.00     0.002 A 
ATOM      4  C4  I4B d   1       4.185  -0.932  -4.847  0.00  0.00    -0.004 A 
ATOM      5  C5  I4B d   1       3.393  -1.115  -3.717  0.00  0.00     0.002 A 
ATOM      6  C6  I4B d   1       2.044  -0.734  -3.736  0.00  0.00     0.003 A 
ENDROOT
BRANCH   1   7
ATOM      7  C1' I4B d   1       0.094   0.332  -4.902  0.00  0.00     0.060 C 
BRANCH   7   8
ATOM      8  C2' I4B d   1      -0.803  -0.833  -4.536  0.00  0.00    -0.013 C 
ATOM      9  C4' I4B d   1      -2.230  -0.387  -4.357  0.00  0.00     0.013 C 
ATOM     10  C3' I4B d   1      -0.689  -1.863  -5.619  0.00  0.00     0.013 C 
ENDBRANCH   7   8
ENDBRANCH   1   7
TORSDOF 2
ENDMDL
