MODEL 1
REMARK minimizedAffinity -3.3170929
REMARK minimizedRMSD -1
REMARK  0 active torsions:
REMARK  status: ('A' for Active; 'I' for Inactive)
ROOT
ATOM      1  C2' OXE d   1       1.490   1.247   2.025  0.00  0.00     0.078 C 
ATOM      2  C1' OXE d   1      -1.132   1.210   3.027  0.00  0.00     0.078 C 
ATOM      3  C1  OXE d   1      -0.911   0.723   1.617  0.00  0.00    -0.078 A 
ATOM      4  C2  OXE d   1       0.368   0.789   1.119  0.00  0.00    -0.078 A 
ATOM      5  C3  OXE d   1       0.637   0.301  -0.157  0.00  0.00     0.003 A 
ATOM      6  C4  OXE d   1      -0.408  -0.112  -0.993  0.00  0.00    -0.002 A 
ATOM      7  C5  OXE d   1      -1.723  -0.149  -0.519  0.00  0.00    -0.002 A 
ATOM      8  C6  OXE d   1      -1.985   0.224   0.795  0.00  0.00     0.003 A 
ENDROOT
TORSDOF 0
ENDMDL
