MODEL 1
REMARK minimizedAffinity -3.55289412
REMARK minimizedRMSD -1
REMARK  0 active torsions:
REMARK  status: ('A' for Active; 'I' for Inactive)
ROOT
ATOM      1  C2' OXE d   1       1.615   0.050  -2.908  0.00  0.00     0.078 C 
ATOM      2  C1' OXE d   1       1.029  -2.175  -1.301  0.00  0.00     0.078 C 
ATOM      3  C1  OXE d   1       0.274  -0.897  -1.034  0.00  0.00    -0.078 A 
ATOM      4  C2  OXE d   1       0.601   0.200  -1.795  0.00  0.00    -0.078 A 
ATOM      5  C3  OXE d   1      -0.103   1.390  -1.627  0.00  0.00     0.003 A 
ATOM      6  C4  OXE d   1      -1.032   1.523  -0.589  0.00  0.00    -0.002 A 
ATOM      7  C5  OXE d   1      -1.352   0.429   0.223  0.00  0.00    -0.002 A 
ATOM      8  C6  OXE d   1      -0.739  -0.797  -0.013  0.00  0.00     0.003 A 
ENDROOT
TORSDOF 0
ENDMDL
