MODEL 1
REMARK minimizedAffinity -6.32015514
REMARK minimizedRMSD -1
REMARK  0 active torsions:
REMARK  status: ('A' for Active; 'I' for Inactive)
ROOT
ATOM      1  C2' OXE d   1      -2.106   0.143   0.109  0.00  0.00     0.078 C 
ATOM      2  C1' OXE d   1       0.584  -0.513  -0.354  0.00  0.00     0.078 C 
ATOM      3  C1  OXE d   1       0.198  -0.066   1.034  0.00  0.00    -0.078 A 
ATOM      4  C2  OXE d   1      -1.111   0.298   1.239  0.00  0.00    -0.078 A 
ATOM      5  C3  OXE d   1      -1.533   0.665   2.514  0.00  0.00     0.003 A 
ATOM      6  C4  OXE d   1      -0.605   0.815   3.552  0.00  0.00    -0.002 A 
ATOM      7  C5  OXE d   1       0.741   0.488   3.353  0.00  0.00    -0.002 A 
ATOM      8  C6  OXE d   1       1.150   0.006   2.115  0.00  0.00     0.003 A 
ENDROOT
TORSDOF 0
ENDMDL
