MODEL 1
REMARK minimizedAffinity -1.94308281
REMARK minimizedRMSD -1
REMARK  0 active torsions:
REMARK  status: ('A' for Active; 'I' for Inactive)
ROOT
ATOM      1  C2' OXE d   1      -1.707   0.663   1.883  0.00  0.00     0.078 C 
ATOM      2  C1' OXE d   1      -0.241   2.594   0.468  0.00  0.00     0.078 C 
ATOM      3  C1  OXE d   1      -0.138   1.160   0.013  0.00  0.00    -0.078 A 
ATOM      4  C2  OXE d   1      -0.822   0.215   0.740  0.00  0.00    -0.078 A 
ATOM      5  C3  OXE d   1      -0.804  -1.115   0.330  0.00  0.00     0.003 A 
ATOM      6  C4  OXE d   1       0.026  -1.522  -0.721  0.00  0.00    -0.002 A 
ATOM      7  C5  OXE d   1       0.761  -0.581  -1.450  0.00  0.00    -0.002 A 
ATOM      8  C6  OXE d   1       0.658   0.766  -1.123  0.00  0.00     0.003 A 
ENDROOT
TORSDOF 0
ENDMDL
