MODEL 1
REMARK minimizedAffinity -3.81720281
REMARK minimizedRMSD -1
REMARK  0 active torsions:
REMARK  status: ('A' for Active; 'I' for Inactive)
ROOT
ATOM      1  C2' OXE d   1      -2.423  -0.493   2.290  0.00  0.00     0.078 C 
ATOM      2  C1' OXE d   1      -0.528   1.498   2.859  0.00  0.00     0.078 C 
ATOM      3  C1  OXE d   1      -0.502   0.874   1.486  0.00  0.00    -0.078 A 
ATOM      4  C2  OXE d   1      -1.403  -0.132   1.232  0.00  0.00    -0.078 A 
ATOM      5  C3  OXE d   1      -1.459  -0.704  -0.036  0.00  0.00     0.003 A 
ATOM      6  C4  OXE d   1      -0.505  -0.372  -1.006  0.00  0.00    -0.002 A 
ATOM      7  C5  OXE d   1       0.447   0.622  -0.754  0.00  0.00    -0.002 A 
ATOM      8  C6  OXE d   1       0.435   1.283   0.469  0.00  0.00     0.003 A 
ENDROOT
TORSDOF 0
ENDMDL
