MODEL 1
REMARK minimizedAffinity -4.68859243
REMARK minimizedRMSD -1
REMARK  0 active torsions:
REMARK  status: ('A' for Active; 'I' for Inactive)
ROOT
ATOM      1  C2' OXE d   1      -0.462  -0.064   0.302  0.00  0.00     0.078 C 
ATOM      2  C1' OXE d   1      -1.478   2.148  -1.095  0.00  0.00     0.078 C 
ATOM      3  C1  OXE d   1      -0.527   1.232  -1.823  0.00  0.00    -0.078 A 
ATOM      4  C2  OXE d   1       0.002   0.179  -1.117  0.00  0.00    -0.078 A 
ATOM      5  C3  OXE d   1       0.842  -0.728  -1.758  0.00  0.00     0.003 A 
ATOM      6  C4  OXE d   1       1.274  -0.490  -3.068  0.00  0.00    -0.002 A 
ATOM      7  C5  OXE d   1       0.778   0.600  -3.792  0.00  0.00    -0.002 A 
ATOM      8  C6  OXE d   1      -0.153   1.445  -3.200  0.00  0.00     0.003 A 
ENDROOT
TORSDOF 0
ENDMDL
