MODEL 1
REMARK minimizedAffinity -3.74508238
REMARK minimizedRMSD -1
REMARK  0 active torsions:
REMARK  status: ('A' for Active; 'I' for Inactive)
ROOT
ATOM      1  C2' OXE d   1      -2.772  -0.194   2.618  0.00  0.00     0.078 C 
ATOM      2  C1' OXE d   1      -0.762   1.686   3.170  0.00  0.00     0.078 C 
ATOM      3  C1  OXE d   1      -0.782   1.059   1.798  0.00  0.00    -0.078 A 
ATOM      4  C2  OXE d   1      -1.740   0.106   1.552  0.00  0.00    -0.078 A 
ATOM      5  C3  OXE d   1      -1.837  -0.464   0.286  0.00  0.00     0.003 A 
ATOM      6  C4  OXE d   1      -0.873  -0.188  -0.691  0.00  0.00    -0.002 A 
ATOM      7  C5  OXE d   1       0.136   0.751  -0.448  0.00  0.00    -0.002 A 
ATOM      8  C6  OXE d   1       0.170   1.413   0.774  0.00  0.00     0.003 A 
ENDROOT
TORSDOF 0
ENDMDL
