MODEL 1
REMARK minimizedAffinity -4.4446764
REMARK minimizedRMSD -1
REMARK  0 active torsions:
REMARK  status: ('A' for Active; 'I' for Inactive)
ROOT
ATOM      1  C2' OXE d   1      -2.528  -0.286  -0.032  0.00  0.00     0.078 C 
ATOM      2  C1' OXE d   1      -1.486   0.815   2.330  0.00  0.00     0.078 C 
ATOM      3  C1  OXE d   1      -0.590  -0.088   1.520  0.00  0.00    -0.078 A 
ATOM      4  C2  OXE d   1      -1.124  -0.660   0.390  0.00  0.00    -0.078 A 
ATOM      5  C3  OXE d   1      -0.323  -1.457  -0.423  0.00  0.00     0.003 A 
ATOM      6  C4  OXE d   1       0.971  -1.806  -0.020  0.00  0.00    -0.002 A 
ATOM      7  C5  OXE d   1       1.521  -1.267   1.148  0.00  0.00    -0.002 A 
ATOM      8  C6  OXE d   1       0.770  -0.374   1.905  0.00  0.00     0.003 A 
ENDROOT
TORSDOF 0
ENDMDL
