MODEL 1
REMARK minimizedAffinity -5.20684433
REMARK minimizedRMSD -1
REMARK  0 active torsions:
REMARK  status: ('A' for Active; 'I' for Inactive)
ROOT
ATOM      1  C2' OXE d   1      -1.820  -0.006   0.283  0.00  0.00     0.078 C 
ATOM      2  C1' OXE d   1      -1.388   0.807   2.935  0.00  0.00     0.078 C 
ATOM      3  C1  OXE d   1      -0.245   0.144   2.207  0.00  0.00    -0.078 A 
ATOM      4  C2  OXE d   1      -0.480  -0.293   0.926  0.00  0.00    -0.078 A 
ATOM      5  C3  OXE d   1       0.556  -0.862   0.191  0.00  0.00     0.003 A 
ATOM      6  C4  OXE d   1       1.789  -1.133   0.797  0.00  0.00    -0.002 A 
ATOM      7  C5  OXE d   1       2.036  -0.732   2.114  0.00  0.00    -0.002 A 
ATOM      8  C6  OXE d   1       1.046  -0.056   2.818  0.00  0.00     0.003 A 
ENDROOT
TORSDOF 0
ENDMDL
