MODEL 1
REMARK minimizedAffinity -0.346643358
REMARK minimizedRMSD -1
REMARK  0 active torsions:
REMARK  status: ('A' for Active; 'I' for Inactive)
ROOT
ATOM      1  C2' OXE d   1       0.267  -0.229  -1.223  0.00  0.00     0.078 C 
ATOM      2  C1' OXE d   1      -2.249   0.737  -0.439  0.00  0.00     0.078 C 
ATOM      3  C1  OXE d   1      -1.238   0.448   0.643  0.00  0.00    -0.078 A 
ATOM      4  C2  OXE d   1      -0.026  -0.069   0.253  0.00  0.00    -0.078 A 
ATOM      5  C3  OXE d   1       0.962  -0.302   1.205  0.00  0.00     0.003 A 
ATOM      6  C4  OXE d   1       0.680  -0.161   2.569  0.00  0.00    -0.002 A 
ATOM      7  C5  OXE d   1      -0.562   0.326   2.990  0.00  0.00    -0.002 A 
ATOM      8  C6  OXE d   1      -1.516   0.675   2.039  0.00  0.00     0.003 A 
ENDROOT
TORSDOF 0
ENDMDL
