MODEL 1
REMARK minimizedAffinity -3.83995008
REMARK minimizedRMSD -1
REMARK  0 active torsions:
REMARK  status: ('A' for Active; 'I' for Inactive)
ROOT
ATOM      1  C2' OXE d   1      -2.249   0.758   0.850  0.00  0.00     0.078 C 
ATOM      2  C1' OXE d   1      -0.141  -0.319  -0.658  0.00  0.00     0.078 C 
ATOM      3  C1  OXE d   1       0.040  -0.224   0.836  0.00  0.00    -0.078 A 
ATOM      4  C2  OXE d   1      -0.978   0.347   1.561  0.00  0.00    -0.078 A 
ATOM      5  C3  OXE d   1      -0.885   0.408   2.949  0.00  0.00     0.003 A 
ATOM      6  C4  OXE d   1       0.298   0.035   3.598  0.00  0.00    -0.002 A 
ATOM      7  C5  OXE d   1       1.362  -0.512   2.874  0.00  0.00    -0.002 A 
ATOM      8  C6  OXE d   1       1.233  -0.688   1.500  0.00  0.00     0.003 A 
ENDROOT
TORSDOF 0
ENDMDL
