MODEL 1
REMARK minimizedAffinity 12.7845078
REMARK minimizedRMSD -1
REMARK  0 active torsions:
REMARK  status: ('A' for Active; 'I' for Inactive)
ROOT
ATOM      1  C   UNL d   1       1.740  -0.717   3.744  0.00  0.00     0.020 A 
ATOM      2  C1  UNL d   1       2.413  -1.593   2.893  0.00  0.00     0.020 A 
ATOM      3  C2  UNL d   1       3.031  -1.108   1.738  0.00  0.00     0.034 A 
ATOM      4  C3  UNL d   1       2.978   0.257   1.432  0.00  0.00     0.017 A 
ATOM      5  C4  UNL d   1       2.303   1.135   2.287  0.00  0.00     0.017 A 
ATOM      6  C5  UNL d   1       1.685   0.644   3.442  0.00  0.00     0.034 A 
ATOM      7 Cl   UNL d   1       2.195   2.832   1.976  0.00  0.00    -0.070 Cl
ATOM      8 Cl1  UNL d   1       3.765   0.787  -0.012  0.00  0.00    -0.070 Cl
ENDROOT
TORSDOF 0
ENDMDL
