MODEL 1
REMARK minimizedAffinity 9.21239281
REMARK minimizedRMSD -1
REMARK  0 active torsions:
REMARK  status: ('A' for Active; 'I' for Inactive)
ROOT
ATOM      1  C   UNL d   1       2.653  -0.755   1.868  0.00  0.00     0.020 A 
ATOM      2  C1  UNL d   1       1.668  -0.349   2.768  0.00  0.00     0.020 A 
ATOM      3  C2  UNL d   1       1.326  -1.169   3.845  0.00  0.00     0.034 A 
ATOM      4  C3  UNL d   1       1.968  -2.399   4.025  0.00  0.00     0.017 A 
ATOM      5  C4  UNL d   1       2.956  -2.806   3.121  0.00  0.00     0.017 A 
ATOM      6  C5  UNL d   1       3.295  -1.981   2.044  0.00  0.00     0.034 A 
ATOM      7 Cl   UNL d   1       3.793  -4.310   3.278  0.00  0.00    -0.070 Cl
ATOM      8 Cl1  UNL d   1       1.495  -3.362   5.380  0.00  0.00    -0.070 Cl
ENDROOT
TORSDOF 0
ENDMDL
