MODEL 1
REMARK minimizedAffinity 9.60082912
REMARK minimizedRMSD -1
REMARK  0 active torsions:
REMARK  status: ('A' for Active; 'I' for Inactive)
ROOT
ATOM      1  C   UNL d   1       5.997  -2.309  -5.946  0.00  0.00     0.020 A 
ATOM      2  C1  UNL d   1       5.647  -3.042  -4.813  0.00  0.00     0.020 A 
ATOM      3  C2  UNL d   1       5.034  -2.405  -3.731  0.00  0.00     0.034 A 
ATOM      4  C3  UNL d   1       4.769  -1.031  -3.781  0.00  0.00     0.017 A 
ATOM      5  C4  UNL d   1       5.121  -0.297  -4.919  0.00  0.00     0.017 A 
ATOM      6  C5  UNL d   1       5.735  -0.939  -5.999  0.00  0.00     0.034 A 
ATOM      7 Cl   UNL d   1       4.827   1.401  -5.054  0.00  0.00    -0.070 Cl
ATOM      8 Cl1  UNL d   1       4.009  -0.310  -2.408  0.00  0.00    -0.070 Cl
ENDROOT
TORSDOF 0
ENDMDL
