MODEL 1
REMARK minimizedAffinity 16.9584999
REMARK minimizedRMSD -1
REMARK  0 active torsions:
REMARK  status: ('A' for Active; 'I' for Inactive)
ROOT
ATOM      1  C   UNL d   1       2.155  -0.424   3.577  0.00  0.00     0.020 A 
ATOM      2  C1  UNL d   1       1.857  -1.085   2.386  0.00  0.00     0.020 A 
ATOM      3  C2  UNL d   1       2.207  -2.428   2.227  0.00  0.00     0.034 A 
ATOM      4  C3  UNL d   1       2.856  -3.114   3.260  0.00  0.00     0.017 A 
ATOM      5  C4  UNL d   1       3.155  -2.449   4.455  0.00  0.00     0.017 A 
ATOM      6  C5  UNL d   1       2.802  -1.105   4.609  0.00  0.00     0.034 A 
ATOM      7 Cl   UNL d   1       3.954  -3.229   5.774  0.00  0.00    -0.070 Cl
ATOM      8 Cl1  UNL d   1       3.258  -4.773   2.994  0.00  0.00    -0.070 Cl
ENDROOT
TORSDOF 0
ENDMDL
