MODEL 1
REMARK minimizedAffinity 8.06358147
REMARK minimizedRMSD -1
REMARK  0 active torsions:
REMARK  status: ('A' for Active; 'I' for Inactive)
ROOT
ATOM      1  C   UNL d   1       2.338  -1.445   2.022  0.00  0.00     0.020 A 
ATOM      2  C1  UNL d   1       2.304  -1.616   3.405  0.00  0.00     0.020 A 
ATOM      3  C2  UNL d   1       2.210  -0.503   4.244  0.00  0.00     0.034 A 
ATOM      4  C3  UNL d   1       2.150   0.785   3.700  0.00  0.00     0.017 A 
ATOM      5  C4  UNL d   1       2.184   0.956   2.312  0.00  0.00     0.017 A 
ATOM      6  C5  UNL d   1       2.279  -0.162   1.476  0.00  0.00     0.034 A 
ATOM      7 Cl   UNL d   1       2.114   2.514   1.567  0.00  0.00    -0.070 Cl
ATOM      8 Cl1  UNL d   1       2.033   2.115   4.797  0.00  0.00    -0.070 Cl
ENDROOT
TORSDOF 0
ENDMDL
