MODEL 1
REMARK minimizedAffinity 6.78588295
REMARK minimizedRMSD -1
REMARK  0 active torsions:
REMARK  status: ('A' for Active; 'I' for Inactive)
ROOT
ATOM      1  C   UNL d   1       2.220   5.936  -0.824  0.00  0.00     0.020 A 
ATOM      2  C1  UNL d   1       2.966   5.164  -1.715  0.00  0.00     0.020 A 
ATOM      3  C2  UNL d   1       3.202   3.816  -1.441  0.00  0.00     0.034 A 
ATOM      4  C3  UNL d   1       2.694   3.235  -0.274  0.00  0.00     0.017 A 
ATOM      5  C4  UNL d   1       1.946   4.010   0.620  0.00  0.00     0.017 A 
ATOM      6  C5  UNL d   1       1.711   5.360   0.340  0.00  0.00     0.034 A 
ATOM      7 Cl   UNL d   1       1.285   3.364   2.080  0.00  0.00    -0.070 Cl
ATOM      8 Cl1  UNL d   1       3.025   1.561   0.001  0.00  0.00    -0.070 Cl
ENDROOT
TORSDOF 0
ENDMDL
