MODEL 1
REMARK minimizedAffinity 7.66464329
REMARK minimizedRMSD -1
REMARK  0 active torsions:
REMARK  status: ('A' for Active; 'I' for Inactive)
ROOT
ATOM      1  C   UNL d   1      -4.022   3.011   2.754  0.00  0.00     0.020 A 
ATOM      2  C1  UNL d   1      -5.411   2.965   2.636  0.00  0.00     0.020 A 
ATOM      3  C2  UNL d   1      -5.999   2.760   1.386  0.00  0.00     0.034 A 
ATOM      4  C3  UNL d   1      -5.198   2.600   0.249  0.00  0.00     0.017 A 
ATOM      5  C4  UNL d   1      -3.805   2.646   0.369  0.00  0.00     0.017 A 
ATOM      6  C5  UNL d   1      -3.221   2.852   1.622  0.00  0.00     0.034 A 
ATOM      7 Cl   UNL d   1      -2.752   2.456  -0.989  0.00  0.00    -0.070 Cl
ATOM      8 Cl1  UNL d   1      -5.994   2.349  -1.264  0.00  0.00    -0.070 Cl
ENDROOT
TORSDOF 0
ENDMDL
