MODEL 1
REMARK minimizedAffinity 8.18734455
REMARK minimizedRMSD -1
REMARK  0 active torsions:
REMARK  status: ('A' for Active; 'I' for Inactive)
ROOT
ATOM      1  C   UNL d   1       2.252  -1.181   2.502  0.00  0.00     0.020 A 
ATOM      2  C1  UNL d   1       2.356  -1.088   3.889  0.00  0.00     0.020 A 
ATOM      3  C2  UNL d   1       2.501   0.162   4.496  0.00  0.00     0.034 A 
ATOM      4  C3  UNL d   1       2.543   1.323   3.715  0.00  0.00     0.017 A 
ATOM      5  C4  UNL d   1       2.439   1.227   2.322  0.00  0.00     0.017 A 
ATOM      6  C5  UNL d   1       2.293  -0.026   1.720  0.00  0.00     0.034 A 
ATOM      7 Cl   UNL d   1       2.482   2.615   1.293  0.00  0.00    -0.070 Cl
ATOM      8 Cl1  UNL d   1       2.724   2.834   4.532  0.00  0.00    -0.070 Cl
ENDROOT
TORSDOF 0
ENDMDL
