MODEL 1
REMARK minimizedAffinity 20.8276424
REMARK minimizedRMSD -1
REMARK  0 active torsions:
REMARK  status: ('A' for Active; 'I' for Inactive)
ROOT
ATOM      1  N1  IND d   1      -3.923   1.644   0.461  0.00  0.00    -0.196 N 
ATOM      2  C2  IND d   1      -3.416   0.442   0.053  0.00  0.00     0.054 A 
ATOM      3  C3  IND d   1      -2.154   0.283   0.512  0.00  0.00    -0.031 A 
ATOM      4  C4  IND d   1      -0.762   1.823   2.034  0.00  0.00     0.051 A 
ATOM      5  C5  IND d   1      -0.785   3.050   2.636  0.00  0.00    -0.031 A 
ATOM      6  C6  IND d   1      -1.878   3.887   2.544  0.00  0.00     0.015 A 
ATOM      7  C7  IND d   1      -2.999   3.521   1.853  0.00  0.00    -0.016 A 
ATOM      8  C8  IND d   1      -2.976   2.279   1.235  0.00  0.00    -0.047 A 
ATOM      9  C9  IND d   1      -1.853   1.443   1.289  0.00  0.00    -0.096 A 
ATOM     10  HN1 IND d   1      -4.702   1.952   0.267  0.00  0.00     0.298 HD
ENDROOT
TORSDOF 0
ENDMDL
