MODEL 1
REMARK minimizedAffinity 12.5873003
REMARK minimizedRMSD -1
REMARK  0 active torsions:
REMARK  status: ('A' for Active; 'I' for Inactive)
ROOT
ATOM      1  N1  IND d   1      -3.547   4.074   2.841  0.00  0.00    -0.196 N 
ATOM      2  C2  IND d   1      -4.666   3.682   2.161  0.00  0.00     0.054 A 
ATOM      3  C3  IND d   1      -5.779   4.066   2.825  0.00  0.00    -0.031 A 
ATOM      4  C4  IND d   1      -5.999   5.436   4.993  0.00  0.00     0.051 A 
ATOM      5  C5  IND d   1      -5.256   5.990   5.997  0.00  0.00    -0.031 A 
ATOM      6  C6  IND d   1      -3.877   5.936   5.999  0.00  0.00     0.015 A 
ATOM      7  C7  IND d   1      -3.187   5.331   4.987  0.00  0.00    -0.016 A 
ATOM      8  C8  IND d   1      -3.938   4.761   3.969  0.00  0.00    -0.047 A 
ATOM      9  C9  IND d   1      -5.339   4.777   3.983  0.00  0.00    -0.096 A 
ATOM     10  HN1 IND d   1      -2.735   3.918   2.605  0.00  0.00     0.298 HD
ENDROOT
TORSDOF 0
ENDMDL
