MODEL 1
REMARK minimizedAffinity 17.1456051
REMARK minimizedRMSD -1
REMARK  0 active torsions:
REMARK  status: ('A' for Active; 'I' for Inactive)
ROOT
ATOM      1  N1  IND d   1       5.308   2.543  -6.000  0.00  0.00    -0.196 N 
ATOM      2  C2  IND d   1       4.688   3.761  -6.000  0.00  0.00     0.054 A 
ATOM      3  C3  IND d   1       3.366   3.616  -5.757  0.00  0.00    -0.031 A 
ATOM      4  C4  IND d   1       2.025   1.483  -5.230  0.00  0.00     0.051 A 
ATOM      5  C5  IND d   1       2.148   0.124  -5.154  0.00  0.00    -0.031 A 
ATOM      6  C6  IND d   1       3.357  -0.511  -5.357  0.00  0.00     0.015 A 
ATOM      7  C7  IND d   1       4.494   0.194  -5.634  0.00  0.00    -0.016 A 
ATOM      8  C8  IND d   1       4.370   1.574  -5.719  0.00  0.00    -0.047 A 
ATOM      9  C9  IND d   1       3.138   2.220  -5.556  0.00  0.00    -0.096 A 
ATOM     10  HN1 IND d   1       6.143   2.405  -6.150  0.00  0.00     0.298 HD
ENDROOT
TORSDOF 0
ENDMDL
