MODEL 1
REMARK minimizedAffinity 13.5544415
REMARK minimizedRMSD -1
REMARK  0 active torsions:
REMARK  status: ('A' for Active; 'I' for Inactive)
ROOT
ATOM      1  N1  IND d   1      -2.249   2.111   1.439  0.00  0.00    -0.196 N 
ATOM      2  C2  IND d   1      -3.368   1.344   1.609  0.00  0.00     0.054 A 
ATOM      3  C3  IND d   1      -3.049   0.169   2.197  0.00  0.00    -0.031 A 
ATOM      4  C4  IND d   1      -0.769  -0.663   3.056  0.00  0.00     0.051 A 
ATOM      5  C5  IND d   1       0.556  -0.330   3.092  0.00  0.00    -0.031 A 
ATOM      6  C6  IND d   1       1.023   0.859   2.570  0.00  0.00     0.015 A 
ATOM      7  C7  IND d   1       0.176   1.769   2.001  0.00  0.00    -0.016 A 
ATOM      8  C8  IND d   1      -1.169   1.430   1.957  0.00  0.00    -0.047 A 
ATOM      9  C9  IND d   1      -1.642   0.206   2.446  0.00  0.00    -0.096 A 
ATOM     10  HN1 IND d   1      -2.224   2.887   1.070  0.00  0.00     0.298 HD
ENDROOT
TORSDOF 0
ENDMDL
