MODEL 1
REMARK minimizedAffinity 15.5335712
REMARK minimizedRMSD -1
REMARK  0 active torsions:
REMARK  status: ('A' for Active; 'I' for Inactive)
ROOT
ATOM      1  N1  IND d   1       1.626   4.414  -5.477  0.00  0.00    -0.196 N 
ATOM      2  C2  IND d   1       1.744   5.607  -4.822  0.00  0.00     0.054 A 
ATOM      3  C3  IND d   1       3.009   5.776  -4.375  0.00  0.00    -0.031 A 
ATOM      4  C4  IND d   1       5.071   4.268  -4.697  0.00  0.00     0.051 A 
ATOM      5  C5  IND d   1       5.450   3.054  -5.197  0.00  0.00    -0.031 A 
ATOM      6  C6  IND d   1       4.556   2.215  -5.831  0.00  0.00     0.015 A 
ATOM      7  C7  IND d   1       3.247   2.566  -6.000  0.00  0.00    -0.016 A 
ATOM      8  C8  IND d   1       2.856   3.795  -5.487  0.00  0.00    -0.047 A 
ATOM      9  C9  IND d   1       3.749   4.632  -4.805  0.00  0.00    -0.096 A 
ATOM     10  HN1 IND d   1       0.904   4.101  -5.825  0.00  0.00     0.298 HD
ENDROOT
TORSDOF 0
ENDMDL
