MODEL 1
REMARK minimizedAffinity 10.0102901
REMARK minimizedRMSD -1
REMARK  0 active torsions:
REMARK  status: ('A' for Active; 'I' for Inactive)
ROOT
ATOM      1  N1  IND d   1      -2.980   0.406  -5.970  0.00  0.00    -0.196 N 
ATOM      2  C2  IND d   1      -1.791   1.079  -5.938  0.00  0.00     0.054 A 
ATOM      3  C3  IND d   1      -0.758   0.207  -5.905  0.00  0.00    -0.031 A 
ATOM      4  C4  IND d   1      -0.785  -2.365  -5.999  0.00  0.00     0.051 A 
ATOM      5  C5  IND d   1      -1.637  -3.434  -5.998  0.00  0.00    -0.031 A 
ATOM      6  C6  IND d   1      -3.008  -3.274  -5.990  0.00  0.00     0.015 A 
ATOM      7  C7  IND d   1      -3.580  -2.034  -5.994  0.00  0.00    -0.016 A 
ATOM      8  C8  IND d   1      -2.719  -0.946  -5.988  0.00  0.00    -0.047 A 
ATOM      9  C9  IND d   1      -1.327  -1.102  -5.954  0.00  0.00    -0.096 A 
ATOM     10  HN1 IND d   1      -3.761   0.767  -5.977  0.00  0.00     0.298 HD
ENDROOT
TORSDOF 0
ENDMDL
