MODEL 1
REMARK minimizedAffinity 4.99313164
REMARK minimizedRMSD -1
REMARK  0 active torsions:
REMARK  status: ('A' for Active; 'I' for Inactive)
ROOT
ATOM      1  N1  IND d   1       1.532   0.220   3.112  0.00  0.00    -0.196 N 
ATOM      2  C2  IND d   1       0.389   0.884   2.763  0.00  0.00     0.054 A 
ATOM      3  C3  IND d   1       0.564   1.539   1.593  0.00  0.00    -0.031 A 
ATOM      4  C4  IND d   1       2.610   1.579   0.031  0.00  0.00     0.051 A 
ATOM      5  C5  IND d   1       3.906   1.154  -0.058  0.00  0.00    -0.031 A 
ATOM      6  C6  IND d   1       4.488   0.378   0.924  0.00  0.00     0.015 A 
ATOM      7  C7  IND d   1       3.789  -0.013   2.031  0.00  0.00    -0.016 A 
ATOM      8  C8  IND d   1       2.475   0.423   2.127  0.00  0.00    -0.047 A 
ATOM      9  C9  IND d   1       1.892   1.245   1.155  0.00  0.00    -0.096 A 
ATOM     10  HN1 IND d   1       1.644  -0.245   3.826  0.00  0.00     0.298 HD
ENDROOT
TORSDOF 0
ENDMDL
