MODEL 1
REMARK minimizedAffinity 6.4067564
REMARK minimizedRMSD -1
REMARK  0 active torsions:
REMARK  status: ('A' for Active; 'I' for Inactive)
ROOT
ATOM      1  N1  IND d   1      -1.004   2.765   2.118  0.00  0.00    -0.196 N 
ATOM      2  C2  IND d   1      -2.363   2.687   1.996  0.00  0.00     0.054 A 
ATOM      3  C3  IND d   1      -2.794   1.447   2.319  0.00  0.00    -0.031 A 
ATOM      4  C4  IND d   1      -1.454  -0.579   3.172  0.00  0.00     0.051 A 
ATOM      5  C5  IND d   1      -0.177  -1.003   3.411  0.00  0.00    -0.031 A 
ATOM      6  C6  IND d   1       0.912  -0.174   3.231  0.00  0.00     0.015 A 
ATOM      7  C7  IND d   1       0.762   1.118   2.813  0.00  0.00    -0.016 A 
ATOM      8  C8  IND d   1      -0.533   1.549   2.563  0.00  0.00    -0.047 A 
ATOM      9  C9  IND d   1      -1.638   0.700   2.703  0.00  0.00    -0.096 A 
ATOM     10  HN1 IND d   1      -0.524   3.458   1.946  0.00  0.00     0.298 HD
ENDROOT
TORSDOF 0
ENDMDL
