MODEL 1
REMARK minimizedAffinity -0.510699332
REMARK minimizedRMSD -1
REMARK  0 active torsions:
REMARK  status: ('A' for Active; 'I' for Inactive)
ROOT
ATOM      1  N1  IND d   1       4.888  -2.266   4.469  0.00  0.00    -0.196 N 
ATOM      2  C2  IND d   1       4.671  -1.681   3.253  0.00  0.00     0.054 A 
ATOM      3  C3  IND d   1       4.934  -2.555   2.256  0.00  0.00    -0.031 A 
ATOM      4  C4  IND d   1       5.634  -5.029   2.392  0.00  0.00     0.051 A 
ATOM      5  C5  IND d   1       5.992  -5.999   3.285  0.00  0.00    -0.031 A 
ATOM      6  C6  IND d   1       5.999  -5.771   4.646  0.00  0.00     0.015 A 
ATOM      7  C7  IND d   1       5.634  -4.562   5.167  0.00  0.00    -0.016 A 
ATOM      8  C8  IND d   1       5.276  -3.572   4.263  0.00  0.00    -0.047 A 
ATOM      9  C9  IND d   1       5.309  -3.785   2.879  0.00  0.00    -0.096 A 
ATOM     10  HN1 IND d   1       4.798  -1.883   5.233  0.00  0.00     0.298 HD
ENDROOT
TORSDOF 0
ENDMDL
