MODEL 1
REMARK minimizedAffinity 14.8595076
REMARK minimizedRMSD -1
REMARK  0 active torsions:
REMARK  status: ('A' for Active; 'I' for Inactive)
ROOT
ATOM      1  N1  IND d   1       5.992  -3.752   5.997  0.00  0.00    -0.196 N 
ATOM      2  C2  IND d   1       5.969  -5.063   5.611  0.00  0.00     0.054 A 
ATOM      3  C3  IND d   1       5.899  -5.155   4.264  0.00  0.00    -0.031 A 
ATOM      4  C4  IND d   1       5.914  -3.286   2.494  0.00  0.00     0.051 A 
ATOM      5  C5  IND d   1       5.888  -1.926   2.363  0.00  0.00    -0.031 A 
ATOM      6  C6  IND d   1       5.898  -1.088   3.459  0.00  0.00     0.015 A 
ATOM      7  C7  IND d   1       5.947  -1.581   4.733  0.00  0.00    -0.016 A 
ATOM      8  C8  IND d   1       5.966  -2.962   4.869  0.00  0.00    -0.047 A 
ATOM      9  C9  IND d   1       5.913  -3.818   3.762  0.00  0.00    -0.096 A 
ATOM     10  HN1 IND d   1       6.018  -3.468   6.809  0.00  0.00     0.298 HD
ENDROOT
TORSDOF 0
ENDMDL
