MODEL 1
REMARK minimizedAffinity 8.08774757
REMARK minimizedRMSD -1
REMARK  0 active torsions:
REMARK  status: ('A' for Active; 'I' for Inactive)
ROOT
ATOM      1  N1  IND d   1      -1.183   1.458   1.783  0.00  0.00    -0.196 N 
ATOM      2  C2  IND d   1      -0.775   0.181   2.052  0.00  0.00     0.054 A 
ATOM      3  C3  IND d   1      -1.843  -0.638   2.172  0.00  0.00    -0.031 A 
ATOM      4  C4  IND d   1      -4.346  -0.118   1.865  0.00  0.00     0.051 A 
ATOM      5  C5  IND d   1      -5.213   0.916   1.648  0.00  0.00    -0.031 A 
ATOM      6  C6  IND d   1      -4.771   2.210   1.459  0.00  0.00     0.015 A 
ATOM      7  C7  IND d   1      -3.440   2.516   1.468  0.00  0.00    -0.016 A 
ATOM      8  C8  IND d   1      -2.557   1.470   1.695  0.00  0.00    -0.047 A 
ATOM      9  C9  IND d   1      -3.002   0.162   1.930  0.00  0.00    -0.096 A 
ATOM     10  HN1 IND d   1      -0.667   2.139   1.685  0.00  0.00     0.298 HD
ENDROOT
TORSDOF 0
ENDMDL
