MODEL 1
REMARK minimizedAffinity 13.7768612
REMARK minimizedRMSD -1
REMARK  0 active torsions:
REMARK  status: ('A' for Active; 'I' for Inactive)
ROOT
ATOM      1  N1  IND d   1      -5.238  -0.273   1.246  0.00  0.00    -0.196 N 
ATOM      2  C2  IND d   1      -4.950  -1.561   0.888  0.00  0.00     0.054 A 
ATOM      3  C3  IND d   1      -3.613  -1.763   0.895  0.00  0.00    -0.031 A 
ATOM      4  C4  IND d   1      -1.719  -0.153   1.563  0.00  0.00     0.051 A 
ATOM      5  C5  IND d   1      -1.485   1.143   1.927  0.00  0.00    -0.031 A 
ATOM      6  C6  IND d   1      -2.512   2.051   2.089  0.00  0.00     0.015 A 
ATOM      7  C7  IND d   1      -3.816   1.692   1.902  0.00  0.00    -0.016 A 
ATOM      8  C8  IND d   1      -4.057   0.379   1.526  0.00  0.00    -0.047 A 
ATOM      9  C9  IND d   1      -3.016  -0.536   1.319  0.00  0.00    -0.096 A 
ATOM     10  HN1 IND d   1      -6.024   0.071   1.290  0.00  0.00     0.298 HD
ENDROOT
TORSDOF 0
ENDMDL
