MODEL 1
REMARK minimizedAffinity 22.3054676
REMARK minimizedRMSD -1
REMARK  0 active torsions:
REMARK  status: ('A' for Active; 'I' for Inactive)
ROOT
ATOM      1  N1  IND d   1      -2.362   1.627   2.101  0.00  0.00    -0.196 N 
ATOM      2  C2  IND d   1      -2.693   0.339   1.783  0.00  0.00     0.054 A 
ATOM      3  C3  IND d   1      -1.679  -0.498   2.097  0.00  0.00    -0.031 A 
ATOM      4  C4  IND d   1       0.573   0.014   3.235  0.00  0.00     0.051 A 
ATOM      5  C5  IND d   1       1.343   1.051   3.681  0.00  0.00    -0.031 A 
ATOM      6  C6  IND d   1       0.908   2.359   3.624  0.00  0.00     0.015 A 
ATOM      7  C7  IND d   1      -0.324   2.679   3.128  0.00  0.00    -0.016 A 
ATOM      8  C8  IND d   1      -1.106   1.629   2.668  0.00  0.00    -0.047 A 
ATOM      9  C9  IND d   1      -0.653   0.304   2.683  0.00  0.00    -0.096 A 
ATOM     10  HN1 IND d   1      -2.855   2.319   1.969  0.00  0.00     0.298 HD
ENDROOT
TORSDOF 0
ENDMDL
