MODEL 1
REMARK minimizedAffinity 21.1238022
REMARK minimizedRMSD -1
REMARK  0 active torsions:
REMARK  status: ('A' for Active; 'I' for Inactive)
ROOT
ATOM      1  N1  IND d   1      -5.180  -2.623   4.815  0.00  0.00    -0.196 N 
ATOM      2  C2  IND d   1      -4.498  -2.627   6.000  0.00  0.00     0.054 A 
ATOM      3  C3  IND d   1      -3.549  -1.663   5.999  0.00  0.00    -0.031 A 
ATOM      4  C4  IND d   1      -3.008   0.098   4.201  0.00  0.00     0.051 A 
ATOM      5  C5  IND d   1      -3.338   0.476   2.930  0.00  0.00    -0.031 A 
ATOM      6  C6  IND d   1      -4.320  -0.172   2.208  0.00  0.00     0.015 A 
ATOM      7  C7  IND d   1      -5.020  -1.218   2.738  0.00  0.00    -0.016 A 
ATOM      8  C8  IND d   1      -4.683  -1.609   4.026  0.00  0.00    -0.047 A 
ATOM      9  C9  IND d   1      -3.658  -0.983   4.747  0.00  0.00    -0.096 A 
ATOM     10  HN1 IND d   1      -5.812  -3.164   4.599  0.00  0.00     0.298 HD
ENDROOT
TORSDOF 0
ENDMDL
