MODEL 1
REMARK minimizedAffinity -1.47998893
REMARK minimizedRMSD -1
REMARK  1 active torsions:
REMARK  status: ('A' for Active; 'I' for Inactive)
REMARK    1  A    between atoms: C1_2  and  C2_3 
ROOT
ATOM      1  C2  UNL d   1       0.669  -1.022  -0.541  0.00  0.00    -0.081 A 
ATOM      2  C3  UNL d   1       0.704  -1.450   0.792  0.00  0.00     0.006 A 
ATOM      3  C4  UNL d   1       0.005  -0.752   1.779  0.00  0.00     0.002 A 
ATOM      4  C5  UNL d   1      -0.747   0.381   1.449  0.00  0.00    -0.080 A 
ATOM      5  C6  UNL d   1      -1.528   1.122   2.493  0.00  0.00     0.076 C 
ATOM      6  C7  UNL d   1      -0.769   0.819   0.120  0.00  0.00     0.002 A 
ATOM      7  C8  UNL d   1      -0.069   0.121  -0.867  0.00  0.00     0.006 A 
ENDROOT
BRANCH   1   8
ATOM      8  C1  UNL d   1       1.370  -1.810  -1.618  0.00  0.00     0.054 C 
ATOM      9  C   UNL d   1       0.405  -2.216  -2.723  0.00  0.00     0.018 C 
ENDBRANCH   1   8
TORSDOF 1
ENDMDL
