MODEL 1
REMARK minimizedAffinity -5.9297266
REMARK minimizedRMSD -1
REMARK  1 active torsions:
REMARK  status: ('A' for Active; 'I' for Inactive)
REMARK    1  A    between atoms: C1_2  and  C2_3 
ROOT
ATOM      1  C2  UNL d   1      -0.007   0.536  -1.117  0.00  0.00    -0.081 A 
ATOM      2  C3  UNL d   1      -0.672   0.131  -2.281  0.00  0.00     0.006 A 
ATOM      3  C4  UNL d   1      -0.508  -1.165  -2.776  0.00  0.00     0.002 A 
ATOM      4  C5  UNL d   1       0.317  -2.079  -2.112  0.00  0.00    -0.080 A 
ATOM      5  C6  UNL d   1       0.479  -3.483  -2.616  0.00  0.00     0.076 C 
ATOM      6  C7  UNL d   1       0.996  -1.669  -0.960  0.00  0.00     0.002 A 
ATOM      7  C8  UNL d   1       0.832  -0.374  -0.465  0.00  0.00     0.006 A 
ENDROOT
BRANCH   1   8
ATOM      8  C1  UNL d   1      -0.233   1.912  -0.545  0.00  0.00     0.054 C 
ATOM      9  C   UNL d   1       0.388   2.986  -1.426  0.00  0.00     0.018 C 
ENDBRANCH   1   8
TORSDOF 1
ENDMDL
