MODEL 1
REMARK minimizedAffinity -6.75525284
REMARK minimizedRMSD -1
REMARK  1 active torsions:
REMARK  status: ('A' for Active; 'I' for Inactive)
REMARK    1  A    between atoms: C1_2  and  C2_3 
ROOT
ATOM      1  C2  UNL d   1       0.100   0.975  -1.026  0.00  0.00    -0.081 A 
ATOM      2  C3  UNL d   1      -0.569   0.550   0.129  0.00  0.00     0.006 A 
ATOM      3  C4  UNL d   1      -1.356   1.442   0.861  0.00  0.00     0.002 A 
ATOM      4  C5  UNL d   1      -1.494   2.771   0.447  0.00  0.00    -0.080 A 
ATOM      5  C6  UNL d   1      -2.360   3.731   1.207  0.00  0.00     0.076 C 
ATOM      6  C7  UNL d   1      -0.812   3.201  -0.696  0.00  0.00     0.002 A 
ATOM      7  C8  UNL d   1      -0.025   2.309  -1.428  0.00  0.00     0.006 A 
ENDROOT
BRANCH   1   8
ATOM      8  C1  UNL d   1       0.897  -0.000  -1.853  0.00  0.00     0.054 C 
ATOM      9  C   UNL d   1      -0.005  -0.815  -2.770  0.00  0.00     0.018 C 
ENDBRANCH   1   8
TORSDOF 1
ENDMDL
