MODEL 1
REMARK minimizedAffinity -6.46436405
REMARK minimizedRMSD -1
REMARK  1 active torsions:
REMARK  status: ('A' for Active; 'I' for Inactive)
REMARK    1  A    between atoms: C1_2  and  C2_3 
ROOT
ATOM      1  C2  UNL d   1       0.516   0.153  -1.438  0.00  0.00    -0.081 A 
ATOM      2  C3  UNL d   1      -0.166  -0.324  -0.311  0.00  0.00     0.006 A 
ATOM      3  C4  UNL d   1      -0.877   0.554   0.510  0.00  0.00     0.002 A 
ATOM      4  C5  UNL d   1      -0.927   1.920   0.214  0.00  0.00    -0.080 A 
ATOM      5  C6  UNL d   1      -1.712   2.869   1.070  0.00  0.00     0.076 C 
ATOM      6  C7  UNL d   1      -0.232   2.399  -0.902  0.00  0.00     0.002 A 
ATOM      7  C8  UNL d   1       0.481   1.522  -1.723  0.00  0.00     0.006 A 
ENDROOT
BRANCH   1   8
ATOM      8  C1  UNL d   1       1.230  -0.800  -2.362  0.00  0.00     0.054 C 
ATOM      9  C   UNL d   1       0.407  -2.057  -2.606  0.00  0.00     0.018 C 
ENDBRANCH   1   8
TORSDOF 1
ENDMDL
