MODEL 1
REMARK minimizedAffinity -5.99629688
REMARK minimizedRMSD -1
REMARK  1 active torsions:
REMARK  status: ('A' for Active; 'I' for Inactive)
REMARK    1  A    between atoms: C1_2  and  C2_3 
ROOT
ATOM      1  C2  UNL d   1      -0.749   0.525  -0.447  0.00  0.00    -0.081 A 
ATOM      2  C3  UNL d   1      -0.455   1.875  -0.679  0.00  0.00     0.006 A 
ATOM      3  C4  UNL d   1      -0.991   2.868   0.145  0.00  0.00     0.002 A 
ATOM      4  C5  UNL d   1      -1.823   2.528   1.217  0.00  0.00    -0.080 A 
ATOM      5  C6  UNL d   1      -2.380   3.582   2.127  0.00  0.00     0.076 C 
ATOM      6  C7  UNL d   1      -2.130   1.181   1.438  0.00  0.00     0.002 A 
ATOM      7  C8  UNL d   1      -1.595   0.188   0.615  0.00  0.00     0.006 A 
ENDROOT
BRANCH   1   8
ATOM      8  C1  UNL d   1      -0.120  -0.552  -1.294  0.00  0.00     0.054 C 
ATOM      9  C   UNL d   1       1.386  -0.613  -1.084  0.00  0.00     0.018 C 
ENDBRANCH   1   8
TORSDOF 1
ENDMDL
