MODEL 1
REMARK minimizedAffinity -3.35578442
REMARK minimizedRMSD -1
REMARK  1 active torsions:
REMARK  status: ('A' for Active; 'I' for Inactive)
REMARK    1  A    between atoms: C1_2  and  C2_3 
ROOT
ATOM      1  C2  UNL d   1       0.928  -1.027  -0.803  0.00  0.00    -0.081 A 
ATOM      2  C3  UNL d   1       0.405  -0.865   0.486  0.00  0.00     0.006 A 
ATOM      3  C4  UNL d   1      -0.248   0.318   0.841  0.00  0.00     0.002 A 
ATOM      4  C5  UNL d   1      -0.396   1.354  -0.087  0.00  0.00    -0.080 A 
ATOM      5  C6  UNL d   1      -1.122   2.616   0.272  0.00  0.00     0.076 C 
ATOM      6  C7  UNL d   1       0.142   1.199  -1.369  0.00  0.00     0.002 A 
ATOM      7  C8  UNL d   1       0.795   0.017  -1.725  0.00  0.00     0.006 A 
ENDROOT
BRANCH   1   8
ATOM      8  C1  UNL d   1       1.576  -2.326  -1.209  0.00  0.00     0.054 C 
ATOM      9  C   UNL d   1       0.868  -2.947  -2.404  0.00  0.00     0.018 C 
ENDBRANCH   1   8
TORSDOF 1
ENDMDL
