MODEL 1
REMARK minimizedAffinity -6.32348204
REMARK minimizedRMSD -1
REMARK  1 active torsions:
REMARK  status: ('A' for Active; 'I' for Inactive)
REMARK    1  A    between atoms: C1_2  and  C2_3 
ROOT
ATOM      1  C2  UNL d   1      -0.176   1.413   0.021  0.00  0.00    -0.081 A 
ATOM      2  C3  UNL d   1      -0.951   1.189   1.166  0.00  0.00     0.006 A 
ATOM      3  C4  UNL d   1      -1.891   2.136   1.581  0.00  0.00     0.002 A 
ATOM      4  C5  UNL d   1      -2.077   3.318   0.855  0.00  0.00    -0.080 A 
ATOM      5  C6  UNL d   1      -3.103   4.328   1.273  0.00  0.00     0.076 C 
ATOM      6  C7  UNL d   1      -1.290   3.549  -0.278  0.00  0.00     0.002 A 
ATOM      7  C8  UNL d   1      -0.350   2.603  -0.694  0.00  0.00     0.006 A 
ENDROOT
BRANCH   1   8
ATOM      8  C1  UNL d   1       0.792   0.365  -0.466  0.00  0.00     0.054 C 
ATOM      9  C   UNL d   1       1.154  -0.611   0.643  0.00  0.00     0.018 C 
ENDBRANCH   1   8
TORSDOF 1
ENDMDL
