MODEL 1
REMARK minimizedAffinity -5.23021936
REMARK minimizedRMSD -1
REMARK  1 active torsions:
REMARK  status: ('A' for Active; 'I' for Inactive)
REMARK    1  A    between atoms: C1_2  and  C2_3 
ROOT
ATOM      1  C2  UNL d   1       0.626   0.415  -0.256  0.00  0.00    -0.081 A 
ATOM      2  C3  UNL d   1      -0.279   0.149   0.779  0.00  0.00     0.006 A 
ATOM      3  C4  UNL d   1      -1.256   1.086   1.124  0.00  0.00     0.002 A 
ATOM      4  C5  UNL d   1      -1.349   2.301   0.436  0.00  0.00    -0.080 A 
ATOM      5  C6  UNL d   1      -2.411   3.303   0.776  0.00  0.00     0.076 C 
ATOM      6  C7  UNL d   1      -0.433   2.574  -0.586  0.00  0.00     0.002 A 
ATOM      7  C8  UNL d   1       0.544   1.637  -0.931  0.00  0.00     0.006 A 
ENDROOT
BRANCH   1   8
ATOM      8  C1  UNL d   1       1.638  -0.621  -0.673  0.00  0.00     0.054 C 
ATOM      9  C   UNL d   1       0.974  -1.784  -1.395  0.00  0.00     0.018 C 
ENDBRANCH   1   8
TORSDOF 1
ENDMDL
