MODEL 1
REMARK minimizedAffinity 0.537413239
REMARK minimizedRMSD -1
REMARK  1 active torsions:
REMARK  status: ('A' for Active; 'I' for Inactive)
REMARK    1  A    between atoms: C1_2  and  C2_3 
ROOT
ATOM      1  C2  UNL d   1      -0.015   1.794  -0.187  0.00  0.00    -0.081 A 
ATOM      2  C3  UNL d   1       0.241   0.441  -0.440  0.00  0.00     0.006 A 
ATOM      3  C4  UNL d   1      -0.103  -0.533   0.501  0.00  0.00     0.002 A 
ATOM      4  C5  UNL d   1      -0.714  -0.171   1.706  0.00  0.00    -0.080 A 
ATOM      5  C6  UNL d   1      -1.116  -1.209   2.712  0.00  0.00     0.076 C 
ATOM      6  C7  UNL d   1      -0.954   1.182   1.967  0.00  0.00     0.002 A 
ATOM      7  C8  UNL d   1      -0.611   2.156   1.026  0.00  0.00     0.006 A 
ENDROOT
BRANCH   1   8
ATOM      8  C1  UNL d   1       0.295   2.840  -1.227  0.00  0.00     0.054 C 
ATOM      9  C   UNL d   1       0.233   4.242  -0.637  0.00  0.00     0.018 C 
ENDBRANCH   1   8
TORSDOF 1
ENDMDL
