MODEL 1
REMARK minimizedAffinity -6.64203691
REMARK minimizedRMSD -1
REMARK  1 active torsions:
REMARK  status: ('A' for Active; 'I' for Inactive)
REMARK    1  A    between atoms: C1_2  and  C2_3 
ROOT
ATOM      1  C2  UNL d   1       0.816   0.452  -2.216  0.00  0.00    -0.081 A 
ATOM      2  C3  UNL d   1       1.010  -0.081  -0.936  0.00  0.00     0.006 A 
ATOM      3  C4  UNL d   1       0.906  -1.457  -0.718  0.00  0.00     0.002 A 
ATOM      4  C5  UNL d   1       0.613  -2.323  -1.777  0.00  0.00    -0.080 A 
ATOM      5  C6  UNL d   1       0.528  -3.805  -1.563  0.00  0.00     0.076 C 
ATOM      6  C7  UNL d   1       0.402  -1.789  -3.053  0.00  0.00     0.002 A 
ATOM      7  C8  UNL d   1       0.505  -0.413  -3.271  0.00  0.00     0.006 A 
ENDROOT
BRANCH   1   8
ATOM      8  C1  UNL d   1       0.991   1.928  -2.466  0.00  0.00     0.054 C 
ATOM      9  C   UNL d   1       0.291   2.757  -1.399  0.00  0.00     0.018 C 
ENDBRANCH   1   8
TORSDOF 1
ENDMDL
