MODEL 1
REMARK minimizedAffinity -5.51367092
REMARK minimizedRMSD -1
REMARK  1 active torsions:
REMARK  status: ('A' for Active; 'I' for Inactive)
REMARK    1  A    between atoms: C1_2  and  C2_3 
ROOT
ATOM      1  C2  UNL d   1      -0.655   0.516   0.779  0.00  0.00    -0.081 A 
ATOM      2  C3  UNL d   1      -0.177   1.546  -0.039  0.00  0.00     0.006 A 
ATOM      3  C4  UNL d   1      -0.758   2.816   0.009  0.00  0.00     0.002 A 
ATOM      4  C5  UNL d   1      -1.819   3.078   0.882  0.00  0.00    -0.080 A 
ATOM      5  C6  UNL d   1      -2.431   4.445   0.966  0.00  0.00     0.076 C 
ATOM      6  C7  UNL d   1      -2.307   2.044   1.688  0.00  0.00     0.002 A 
ATOM      7  C8  UNL d   1      -1.728   0.774   1.639  0.00  0.00     0.006 A 
ENDROOT
BRANCH   1   8
ATOM      8  C1  UNL d   1       0.011  -0.837   0.776  0.00  0.00     0.054 C 
ATOM      9  C   UNL d   1       0.416  -1.250  -0.632  0.00  0.00     0.018 C 
ENDBRANCH   1   8
TORSDOF 1
ENDMDL
