MODEL 1
REMARK minimizedAffinity -3.56186962
REMARK minimizedRMSD -1
REMARK  1 active torsions:
REMARK  status: ('A' for Active; 'I' for Inactive)
REMARK    1  A    between atoms: C1_2  and  C2_3 
ROOT
ATOM      1  C2  UNL d   1      -1.245   2.308   1.034  0.00  0.00    -0.081 A 
ATOM      2  C3  UNL d   1      -1.278   0.989   1.504  0.00  0.00     0.006 A 
ATOM      3  C4  UNL d   1      -0.526  -0.006   0.875  0.00  0.00     0.002 A 
ATOM      4  C5  UNL d   1       0.276   0.302  -0.229  0.00  0.00    -0.080 A 
ATOM      5  C6  UNL d   1       1.111  -0.751  -0.896  0.00  0.00     0.076 C 
ATOM      6  C7  UNL d   1       0.295   1.615  -0.710  0.00  0.00     0.002 A 
ATOM      7  C8  UNL d   1      -0.457   2.611  -0.082  0.00  0.00     0.006 A 
ENDROOT
BRANCH   1   8
ATOM      8  C1  UNL d   1      -2.004   3.396   1.750  0.00  0.00     0.054 C 
ATOM      9  C   UNL d   1      -1.314   3.790   3.047  0.00  0.00     0.018 C 
ENDBRANCH   1   8
TORSDOF 1
ENDMDL
