MODEL 1
REMARK minimizedAffinity -4.1123333
REMARK minimizedRMSD -1
REMARK  1 active torsions:
REMARK  status: ('A' for Active; 'I' for Inactive)
REMARK    1  A    between atoms: C1_2  and  C2_3 
ROOT
ATOM      1  C2  UNL d   1      -0.958   2.805   0.420  0.00  0.00    -0.081 A 
ATOM      2  C3  UNL d   1      -1.733   2.256   1.449  0.00  0.00     0.006 A 
ATOM      3  C4  UNL d   1      -1.667   0.890   1.734  0.00  0.00     0.002 A 
ATOM      4  C5  UNL d   1      -0.822   0.052   0.999  0.00  0.00    -0.080 A 
ATOM      5  C6  UNL d   1      -0.720  -1.411   1.314  0.00  0.00     0.076 C 
ATOM      6  C7  UNL d   1      -0.061   0.597  -0.040  0.00  0.00     0.002 A 
ATOM      7  C8  UNL d   1      -0.126   1.962  -0.326  0.00  0.00     0.006 A 
ENDROOT
BRANCH   1   8
ATOM      8  C1  UNL d   1      -0.977   4.288   0.153  0.00  0.00     0.054 C 
ATOM      9  C   UNL d   1       0.220   4.716  -0.684  0.00  0.00     0.018 C 
ENDBRANCH   1   8
TORSDOF 1
ENDMDL
