MODEL 1
REMARK minimizedAffinity -4.81840467
REMARK minimizedRMSD -1
REMARK  1 active torsions:
REMARK  status: ('A' for Active; 'I' for Inactive)
REMARK    1  A    between atoms: C1_2  and  C2_3 
ROOT
ATOM      1  C2  UNL d   1       0.401  -0.162  -0.370  0.00  0.00    -0.081 A 
ATOM      2  C3  UNL d   1       0.236   0.988  -1.152  0.00  0.00     0.006 A 
ATOM      3  C4  UNL d   1      -0.636   2.001  -0.745  0.00  0.00     0.002 A 
ATOM      4  C5  UNL d   1      -1.350   1.885   0.452  0.00  0.00    -0.080 A 
ATOM      5  C6  UNL d   1      -2.266   2.979   0.915  0.00  0.00     0.076 C 
ATOM      6  C7  UNL d   1      -1.197   0.729   1.225  0.00  0.00     0.002 A 
ATOM      7  C8  UNL d   1      -0.326  -0.285   0.818  0.00  0.00     0.006 A 
ENDROOT
BRANCH   1   8
ATOM      8  C1  UNL d   1       1.389  -1.227  -0.773  0.00  0.00     0.054 C 
ATOM      9  C   UNL d   1       0.861  -2.062  -1.930  0.00  0.00     0.018 C 
ENDBRANCH   1   8
TORSDOF 1
ENDMDL
