MODEL 1
REMARK minimizedAffinity -4.28747988
REMARK minimizedRMSD -1
REMARK  1 active torsions:
REMARK  status: ('A' for Active; 'I' for Inactive)
REMARK    1  A    between atoms: C1_2  and  C2_3 
ROOT
ATOM      1  C2  UNL d   1       0.054   1.939   0.003  0.00  0.00    -0.081 A 
ATOM      2  C3  UNL d   1      -0.713   1.868   1.172  0.00  0.00     0.006 A 
ATOM      3  C4  UNL d   1      -0.728   0.701   1.940  0.00  0.00     0.002 A 
ATOM      4  C5  UNL d   1       0.030  -0.411   1.555  0.00  0.00    -0.080 A 
ATOM      5  C6  UNL d   1       0.047  -1.659   2.386  0.00  0.00     0.076 C 
ATOM      6  C7  UNL d   1       0.783  -0.346   0.378  0.00  0.00     0.002 A 
ATOM      7  C8  UNL d   1       0.797   0.821  -0.390  0.00  0.00     0.006 A 
ENDROOT
BRANCH   1   8
ATOM      8  C1  UNL d   1       0.122   3.218  -0.792  0.00  0.00     0.054 C 
ATOM      9  C   UNL d   1       0.086   4.438   0.118  0.00  0.00     0.018 C 
ENDBRANCH   1   8
TORSDOF 1
ENDMDL
