MODEL 1
REMARK minimizedAffinity 14.2757578
REMARK minimizedRMSD -1
REMARK  0 active torsions:
REMARK  status: ('A' for Active; 'I' for Inactive)
ROOT
ATOM      1  C   UNL d   1      -4.857   0.340   2.906  0.00  0.00    -0.002 A 
ATOM      2  C1  UNL d   1      -4.699   0.612   1.555  0.00  0.00     0.010 A 
ATOM      3  C2  UNL d   1      -3.428   0.624   0.976  0.00  0.00     0.041 A 
ATOM      4  C3  UNL d   1      -2.308   0.355   1.787  0.00  0.00    -0.075 A 
ATOM      5  S   UNL d   1      -0.655   0.314   1.296  0.00  0.00     0.015 SA
ATOM      6  C4  UNL d   1      -0.120  -0.066   2.869  0.00  0.00     0.022 A 
ATOM      7  C5  UNL d   1      -1.163  -0.163   3.760  0.00  0.00     0.026 A 
ATOM      8  C6  UNL d   1      -2.441   0.077   3.150  0.00  0.00    -0.082 A 
ATOM      9  C7  UNL d   1      -3.743   0.073   3.707  0.00  0.00     0.045 A 
ENDROOT
TORSDOF 0
ENDMDL
