MODEL 1
REMARK minimizedAffinity -2.69976211
REMARK minimizedRMSD -1
REMARK  0 active torsions:
REMARK  status: ('A' for Active; 'I' for Inactive)
ROOT
ATOM      1  C   UNL d   1      -3.542  -0.369   1.059  0.00  0.00    -0.002 A 
ATOM      2  C1  UNL d   1      -2.509  -1.173   0.598  0.00  0.00     0.010 A 
ATOM      3  C2  UNL d   1      -1.204  -0.987   1.059  0.00  0.00     0.041 A 
ATOM      4  C3  UNL d   1      -0.952   0.030   2.000  0.00  0.00    -0.075 A 
ATOM      5  S   UNL d   1       0.567   0.440   2.705  0.00  0.00     0.015 SA
ATOM      6  C4  UNL d   1      -0.119   1.693   3.635  0.00  0.00     0.022 A 
ATOM      7  C5  UNL d   1      -1.473   1.809   3.425  0.00  0.00     0.026 A 
ATOM      8  C6  UNL d   1      -1.975   0.852   2.480  0.00  0.00    -0.082 A 
ATOM      9  C7  UNL d   1      -3.288   0.639   1.993  0.00  0.00     0.045 A 
ENDROOT
TORSDOF 0
ENDMDL
