MODEL 1
REMARK minimizedAffinity 10.9383478
REMARK minimizedRMSD -1
REMARK  0 active torsions:
REMARK  status: ('A' for Active; 'I' for Inactive)
ROOT
ATOM      1  C   UNL d   1      -4.084   0.000   0.491  0.00  0.00    -0.002 A 
ATOM      2  C1  UNL d   1      -4.352   1.361   0.536  0.00  0.00     0.010 A 
ATOM      3  C2  UNL d   1      -3.407   2.254   1.047  0.00  0.00     0.041 A 
ATOM      4  C3  UNL d   1      -2.177   1.751   1.513  0.00  0.00    -0.075 A 
ATOM      5  S   UNL d   1      -0.869   2.656   2.179  0.00  0.00     0.015 SA
ATOM      6  C4  UNL d   1       0.075   1.258   2.418  0.00  0.00     0.022 A 
ATOM      7  C5  UNL d   1      -0.575   0.119   2.006  0.00  0.00     0.026 A 
ATOM      8  C6  UNL d   1      -1.884   0.385   1.477  0.00  0.00    -0.082 A 
ATOM      9  C7  UNL d   1      -2.862  -0.495   0.955  0.00  0.00     0.045 A 
ENDROOT
TORSDOF 0
ENDMDL
