MODEL 1
REMARK minimizedAffinity 10.5686045
REMARK minimizedRMSD -1
REMARK  0 active torsions:
REMARK  status: ('A' for Active; 'I' for Inactive)
ROOT
ATOM      1  C   UNL d   1      -1.967  -4.495  -5.987  0.00  0.00    -0.002 A 
ATOM      2  C1  UNL d   1      -0.913  -3.592  -5.982  0.00  0.00     0.010 A 
ATOM      3  C2  UNL d   1      -1.155  -2.217  -5.980  0.00  0.00     0.041 A 
ATOM      4  C3  UNL d   1      -2.487  -1.760  -5.981  0.00  0.00    -0.075 A 
ATOM      5  S   UNL d   1      -3.024  -0.122  -5.978  0.00  0.00     0.015 SA
ATOM      6  C4  UNL d   1      -4.666  -0.581  -5.981  0.00  0.00     0.022 A 
ATOM      7  C5  UNL d   1      -4.818  -1.948  -5.985  0.00  0.00     0.026 A 
ATOM      8  C6  UNL d   1      -3.566  -2.650  -5.984  0.00  0.00    -0.082 A 
ATOM      9  C7  UNL d   1      -3.287  -4.038  -5.988  0.00  0.00     0.045 A 
ENDROOT
TORSDOF 0
ENDMDL
