MODEL 1
REMARK minimizedAffinity 7.37418604
REMARK minimizedRMSD -1
REMARK  0 active torsions:
REMARK  status: ('A' for Active; 'I' for Inactive)
ROOT
ATOM      1  C   UNL d   1      -4.599  -2.341  -0.184  0.00  0.00    -0.002 A 
ATOM      2  C1  UNL d   1      -3.413  -3.046  -0.034  0.00  0.00     0.010 A 
ATOM      3  C2  UNL d   1      -2.316  -2.463   0.602  0.00  0.00     0.041 A 
ATOM      4  C3  UNL d   1      -2.432  -1.147   1.091  0.00  0.00    -0.075 A 
ATOM      5  S   UNL d   1      -1.219  -0.230   1.904  0.00  0.00     0.015 SA
ATOM      6  C4  UNL d   1      -2.247   1.119   2.072  0.00  0.00     0.022 A 
ATOM      7  C5  UNL d   1      -3.489   0.893   1.527  0.00  0.00     0.026 A 
ATOM      8  C6  UNL d   1      -3.616  -0.417   0.953  0.00  0.00    -0.082 A 
ATOM      9  C7  UNL d   1      -4.710  -1.036   0.302  0.00  0.00     0.045 A 
ENDROOT
TORSDOF 0
ENDMDL
