MODEL 1
REMARK minimizedAffinity 11.8675404
REMARK minimizedRMSD -1
REMARK  0 active torsions:
REMARK  status: ('A' for Active; 'I' for Inactive)
ROOT
ATOM      1  C   UNL d   1      -5.321   1.777   3.437  0.00  0.00    -0.002 A 
ATOM      2  C1  UNL d   1      -4.499   2.330   2.466  0.00  0.00     0.010 A 
ATOM      3  C2  UNL d   1      -4.022   3.636   2.598  0.00  0.00     0.041 A 
ATOM      4  C3  UNL d   1      -4.387   4.382   3.735  0.00  0.00    -0.075 A 
ATOM      5  S   UNL d   1      -3.922   6.000   4.110  0.00  0.00     0.015 SA
ATOM      6  C4  UNL d   1      -4.803   5.994   5.569  0.00  0.00     0.022 A 
ATOM      7  C5  UNL d   1      -5.443   4.796   5.781  0.00  0.00     0.026 A 
ATOM      8  C6  UNL d   1      -5.213   3.847   4.727  0.00  0.00    -0.082 A 
ATOM      9  C7  UNL d   1      -5.681   2.521   4.564  0.00  0.00     0.045 A 
ENDROOT
TORSDOF 0
ENDMDL
