MODEL 1
REMARK minimizedAffinity 2.54845643
REMARK minimizedRMSD -1
REMARK  0 active torsions:
REMARK  status: ('A' for Active; 'I' for Inactive)
ROOT
ATOM      1  C   UNL d   1      -1.357  -1.992  -5.919  0.00  0.00    -0.002 A 
ATOM      2  C1  UNL d   1      -1.792  -0.687  -5.734  0.00  0.00     0.010 A 
ATOM      3  C2  UNL d   1      -3.154  -0.400  -5.629  0.00  0.00     0.041 A 
ATOM      4  C3  UNL d   1      -4.081  -1.457  -5.710  0.00  0.00    -0.075 A 
ATOM      5  S   UNL d   1      -5.799  -1.345  -5.606  0.00  0.00     0.015 SA
ATOM      6  C4  UNL d   1      -5.996  -3.026  -5.803  0.00  0.00     0.022 A 
ATOM      7  C5  UNL d   1      -4.791  -3.673  -5.946  0.00  0.00     0.026 A 
ATOM      8  C6  UNL d   1      -3.668  -2.780  -5.894  0.00  0.00    -0.082 A 
ATOM      9  C7  UNL d   1      -2.280  -3.038  -5.999  0.00  0.00     0.045 A 
ENDROOT
TORSDOF 0
ENDMDL
