MODEL 1
REMARK minimizedAffinity 10.4779282
REMARK minimizedRMSD -1
REMARK  0 active torsions:
REMARK  status: ('A' for Active; 'I' for Inactive)
ROOT
ATOM      1  C   UNL d   1      -0.651  -4.431   2.031  0.00  0.00    -0.002 A 
ATOM      2  C1  UNL d   1      -0.057  -3.954   0.871  0.00  0.00     0.010 A 
ATOM      3  C2  UNL d   1       1.306  -4.151   0.639  0.00  0.00     0.041 A 
ATOM      4  C3  UNL d   1       2.068  -4.844   1.601  0.00  0.00    -0.075 A 
ATOM      5  S   UNL d   1       3.752  -5.204   1.530  0.00  0.00     0.015 SA
ATOM      6  C4  UNL d   1       3.722  -6.000   3.037  0.00  0.00     0.022 A 
ATOM      7  C5  UNL d   1       2.465  -6.000   3.594  0.00  0.00     0.026 A 
ATOM      8  C6  UNL d   1       1.491  -5.334   2.776  0.00  0.00    -0.082 A 
ATOM      9  C7  UNL d   1       0.108  -5.117   2.982  0.00  0.00     0.045 A 
ENDROOT
TORSDOF 0
ENDMDL
