MODEL 1
REMARK minimizedAffinity 10.0322523
REMARK minimizedRMSD -1
REMARK  0 active torsions:
REMARK  status: ('A' for Active; 'I' for Inactive)
ROOT
ATOM      1  C   UNL d   1      -5.005  -1.032  -5.985  0.00  0.00    -0.002 A 
ATOM      2  C1  UNL d   1      -5.428  -2.354  -5.985  0.00  0.00     0.010 A 
ATOM      3  C2  UNL d   1      -4.500  -3.397  -5.991  0.00  0.00     0.041 A 
ATOM      4  C3  UNL d   1      -3.125  -3.086  -5.993  0.00  0.00    -0.075 A 
ATOM      5  S   UNL d   1      -1.808  -4.199  -5.999  0.00  0.00     0.015 SA
ATOM      6  C4  UNL d   1      -0.653  -2.946  -6.000  0.00  0.00     0.022 A 
ATOM      7  C5  UNL d   1      -1.240  -1.703  -5.996  0.00  0.00     0.026 A 
ATOM      8  C6  UNL d   1      -2.675  -1.763  -5.992  0.00  0.00    -0.082 A 
ATOM      9  C7  UNL d   1      -3.641  -0.728  -5.988  0.00  0.00     0.045 A 
ENDROOT
TORSDOF 0
ENDMDL
