MODEL 1
REMARK minimizedAffinity 18.1205482
REMARK minimizedRMSD -1
REMARK  0 active torsions:
REMARK  status: ('A' for Active; 'I' for Inactive)
ROOT
ATOM      1  C   UNL d   1       1.321  -5.109   2.129  0.00  0.00    -0.002 A 
ATOM      2  C1  UNL d   1       1.221  -5.681   3.389  0.00  0.00     0.010 A 
ATOM      3  C2  UNL d   1       2.369  -5.985   4.124  0.00  0.00     0.041 A 
ATOM      4  C3  UNL d   1       3.631  -5.699   3.567  0.00  0.00    -0.075 A 
ATOM      5  S   UNL d   1       5.172  -5.984   4.285  0.00  0.00     0.015 SA
ATOM      6  C4  UNL d   1       6.000  -5.351   2.936  0.00  0.00     0.022 A 
ATOM      7  C5  UNL d   1       5.137  -4.929   1.952  0.00  0.00     0.026 A 
ATOM      8  C6  UNL d   1       3.757  -5.122   2.300  0.00  0.00    -0.082 A 
ATOM      9  C7  UNL d   1       2.575  -4.827   1.579  0.00  0.00     0.045 A 
ENDROOT
TORSDOF 0
ENDMDL
