MODEL 1
REMARK minimizedAffinity -0.460736394
REMARK minimizedRMSD -1
REMARK  0 active torsions:
REMARK  status: ('A' for Active; 'I' for Inactive)
ROOT
ATOM      1  C   UNL d   1      -2.231  -0.244  -5.994  0.00  0.00    -0.002 A 
ATOM      2  C1  UNL d   1      -1.361  -1.325  -5.999  0.00  0.00     0.010 A 
ATOM      3  C2  UNL d   1      -1.851  -2.632  -6.000  0.00  0.00     0.041 A 
ATOM      4  C3  UNL d   1      -3.245  -2.837  -5.998  0.00  0.00    -0.075 A 
ATOM      5  S   UNL d   1      -4.073  -4.349  -5.999  0.00  0.00     0.015 SA
ATOM      6  C4  UNL d   1      -5.602  -3.596  -5.995  0.00  0.00     0.022 A 
ATOM      7  C5  UNL d   1      -5.502  -2.225  -5.992  0.00  0.00     0.026 A 
ATOM      8  C6  UNL d   1      -4.142  -1.765  -5.994  0.00  0.00    -0.082 A 
ATOM      9  C7  UNL d   1      -3.613  -0.451  -5.992  0.00  0.00     0.045 A 
ENDROOT
TORSDOF 0
ENDMDL
