MODEL 1
REMARK minimizedAffinity 3.45699787
REMARK minimizedRMSD -1
REMARK  1 active torsions:
REMARK  status: ('A' for Active; 'I' for Inactive)
REMARK    1  A    between atoms: N_2  and  C1_3 
ROOT
ATOM      1  C1  UNL d   1       1.850   0.773   0.268  0.00  0.00     0.143 A 
ATOM      2  C2  UNL d   1       2.310   0.670   1.585  0.00  0.00    -0.057 A 
ATOM      3  C3  UNL d   1       3.028  -0.451   2.019  0.00  0.00     0.033 A 
ATOM      4  C4  UNL d   1       3.274  -1.506   1.147  0.00  0.00    -0.042 A 
ATOM      5  C5  UNL d   1       2.805  -1.438  -0.160  0.00  0.00     0.033 A 
ATOM      6  C6  UNL d   1       2.094  -0.312  -0.589  0.00  0.00    -0.057 A 
ENDROOT
BRANCH   1   7
ATOM      7  N   UNL d   1       1.047   1.817  -0.197  0.00  0.00    -0.732 N 
ATOM      8  C   UNL d   1       1.417   3.195   0.043  0.00  0.00     0.284 C 
ATOM      9  H3  UNL d   1       0.682   1.640  -1.131  0.00  0.00     0.395 HD
ENDBRANCH   1   7
TORSDOF 1
ENDMDL
