MODEL 1
REMARK minimizedAffinity 0.73869592
REMARK minimizedRMSD -1
REMARK  1 active torsions:
REMARK  status: ('A' for Active; 'I' for Inactive)
REMARK    1  A    between atoms: N_2  and  C1_3 
ROOT
ATOM      1  C1  UNL d   1       1.044   0.737  -0.344  0.00  0.00     0.143 A 
ATOM      2  C2  UNL d   1       1.930   1.409   0.505  0.00  0.00    -0.057 A 
ATOM      3  C3  UNL d   1       3.142   0.828   0.897  0.00  0.00     0.033 A 
ATOM      4  C4  UNL d   1       3.478  -0.452   0.468  0.00  0.00    -0.042 A 
ATOM      5  C5  UNL d   1       2.601  -1.148  -0.356  0.00  0.00     0.033 A 
ATOM      6  C6  UNL d   1       1.395  -0.561  -0.749  0.00  0.00    -0.057 A 
ENDROOT
BRANCH   1   7
ATOM      7  N   UNL d   1      -0.220   1.220  -0.689  0.00  0.00    -0.732 N 
ATOM      8  C   UNL d   1      -0.931   0.678  -1.827  0.00  0.00     0.284 C 
ATOM      9  H3  UNL d   1      -0.807   1.390   0.125  0.00  0.00     0.395 HD
ENDBRANCH   1   7
TORSDOF 1
ENDMDL
