MODEL 1
REMARK minimizedAffinity -5.20467138
REMARK minimizedRMSD -1
REMARK  1 active torsions:
REMARK  status: ('A' for Active; 'I' for Inactive)
REMARK    1  A    between atoms: N_2  and  C1_3 
ROOT
ATOM      1  C1  UNL d   1       0.294  -0.348  -0.184  0.00  0.00     0.143 A 
ATOM      2  C2  UNL d   1       0.801  -1.379  -0.983  0.00  0.00    -0.057 A 
ATOM      3  C3  UNL d   1       2.026  -1.989  -0.689  0.00  0.00     0.033 A 
ATOM      4  C4  UNL d   1       2.782  -1.558   0.396  0.00  0.00    -0.042 A 
ATOM      5  C5  UNL d   1       2.310  -0.519   1.190  0.00  0.00     0.033 A 
ATOM      6  C6  UNL d   1       1.082   0.082   0.895  0.00  0.00    -0.057 A 
ENDROOT
BRANCH   1   7
ATOM      7  N   UNL d   1      -0.870   0.365  -0.481  0.00  0.00    -0.732 N 
ATOM      8  C   UNL d   1      -1.754   0.807   0.576  0.00  0.00     0.284 C 
ATOM      9  H3  UNL d   1      -0.727   1.052  -1.218  0.00  0.00     0.395 HD
ENDBRANCH   1   7
TORSDOF 1
ENDMDL
