MODEL 1
REMARK minimizedAffinity -2.49384904
REMARK minimizedRMSD -1
REMARK  0 active torsions:
REMARK  status: ('A' for Active; 'I' for Inactive)
ROOT
ATOM      1  C   UNL d   1       1.003  -0.877   3.058  0.00  0.00     0.023 A 
ATOM      2  C1  UNL d   1      -0.075  -0.515   2.249  0.00  0.00     0.003 A 
ATOM      3  C2  UNL d   1       0.076  -0.469   0.862  0.00  0.00     0.048 A 
ATOM      4  C3  UNL d   1       1.307  -0.786   0.289  0.00  0.00     0.023 A 
ATOM      5  C4  UNL d   1       2.388  -1.149   1.094  0.00  0.00     0.048 A 
ATOM      6  C5  UNL d   1       2.233  -1.193   2.481  0.00  0.00     0.003 A 
ATOM      7  I   UNL d   1       1.534  -0.718  -1.776  0.00  0.00    -0.146 I 
ENDROOT
TORSDOF 0
ENDMDL
