MODEL 1
REMARK minimizedAffinity -2.1251967
REMARK minimizedRMSD -1
REMARK  0 active torsions:
REMARK  status: ('A' for Active; 'I' for Inactive)
ROOT
ATOM      1  C   UNL d   1       2.637  -1.176   0.033  0.00  0.00     0.023 A 
ATOM      2  C1  UNL d   1       2.150  -0.691   1.247  0.00  0.00     0.003 A 
ATOM      3  C2  UNL d   1       0.847  -0.196   1.330  0.00  0.00     0.048 A 
ATOM      4  C3  UNL d   1       0.036  -0.190   0.196  0.00  0.00     0.023 A 
ATOM      5  C4  UNL d   1       0.519  -0.675  -1.020  0.00  0.00     0.048 A 
ATOM      6  C5  UNL d   1       1.823  -1.168  -1.099  0.00  0.00     0.003 A 
ATOM      7  I   UNL d   1      -1.904   0.546   0.318  0.00  0.00    -0.146 I 
ENDROOT
TORSDOF 0
ENDMDL
