MODEL 1
REMARK minimizedAffinity -3.21514988
REMARK minimizedRMSD -1
REMARK  0 active torsions:
REMARK  status: ('A' for Active; 'I' for Inactive)
ROOT
ATOM      1  C   UNL d   1       0.485  -1.133   2.209  0.00  0.00     0.023 A 
ATOM      2  C1  UNL d   1       1.357  -1.206   1.123  0.00  0.00     0.003 A 
ATOM      3  C2  UNL d   1       1.084  -0.487  -0.043  0.00  0.00     0.048 A 
ATOM      4  C3  UNL d   1      -0.063   0.302  -0.115  0.00  0.00     0.023 A 
ATOM      5  C4  UNL d   1      -0.938   0.378   0.969  0.00  0.00     0.048 A 
ATOM      6  C5  UNL d   1      -0.661  -0.342   2.133  0.00  0.00     0.003 A 
ATOM      7  I   UNL d   1      -0.473   1.373  -1.849  0.00  0.00    -0.146 I 
ENDROOT
TORSDOF 0
ENDMDL
