MODEL 1
REMARK minimizedAffinity -3.5561626
REMARK minimizedRMSD -1
REMARK  0 active torsions:
REMARK  status: ('A' for Active; 'I' for Inactive)
ROOT
ATOM      1  C   UNL d   1       0.970  -1.005   2.138  0.00  0.00     0.023 A 
ATOM      2  C1  UNL d   1      -0.326  -0.637   1.778  0.00  0.00     0.003 A 
ATOM      3  C2  UNL d   1      -0.540   0.157   0.649  0.00  0.00     0.048 A 
ATOM      4  C3  UNL d   1       0.548   0.579  -0.115  0.00  0.00     0.023 A 
ATOM      5  C4  UNL d   1       1.846   0.212   0.241  0.00  0.00     0.048 A 
ATOM      6  C5  UNL d   1       2.055  -0.581   1.371  0.00  0.00     0.003 A 
ATOM      7  I   UNL d   1       0.233   1.760  -1.796  0.00  0.00    -0.146 I 
ENDROOT
TORSDOF 0
ENDMDL
