MODEL 1
REMARK minimizedAffinity -0.890623212
REMARK minimizedRMSD -1
REMARK  0 active torsions:
REMARK  status: ('A' for Active; 'I' for Inactive)
ROOT
ATOM      1  C   UNL d   1       1.090  -1.473   1.704  0.00  0.00     0.023 A 
ATOM      2  C1  UNL d   1       0.050  -0.588   1.991  0.00  0.00     0.003 A 
ATOM      3  C2  UNL d   1      -0.440   0.262   0.998  0.00  0.00     0.048 A 
ATOM      4  C3  UNL d   1       0.114   0.221  -0.281  0.00  0.00     0.023 A 
ATOM      5  C4  UNL d   1       1.154  -0.663  -0.574  0.00  0.00     0.048 A 
ATOM      6  C5  UNL d   1       1.641  -1.510   0.423  0.00  0.00     0.003 A 
ATOM      7  I   UNL d   1      -0.613   1.486  -1.762  0.00  0.00    -0.146 I 
ENDROOT
TORSDOF 0
ENDMDL
