MODEL 1
REMARK minimizedAffinity -3.40778565
REMARK minimizedRMSD -1
REMARK  0 active torsions:
REMARK  status: ('A' for Active; 'I' for Inactive)
ROOT
ATOM      1  C   UNL d   1      -6.000   1.668  -3.526  0.00  0.00     0.023 A 
ATOM      2  C1  UNL d   1      -5.628   2.993  -3.752  0.00  0.00     0.003 A 
ATOM      3  C2  UNL d   1      -4.291   3.376  -3.621  0.00  0.00     0.048 A 
ATOM      4  C3  UNL d   1      -3.332   2.429  -3.265  0.00  0.00     0.023 A 
ATOM      5  C4  UNL d   1      -3.700   1.101  -3.039  0.00  0.00     0.048 A 
ATOM      6  C5  UNL d   1      -5.037   0.723  -3.170  0.00  0.00     0.003 A 
ATOM      7  I   UNL d   1      -1.342   2.996  -3.069  0.00  0.00    -0.146 I 
ENDROOT
TORSDOF 0
ENDMDL
