MODEL 1
REMARK minimizedAffinity -3.31738877
REMARK minimizedRMSD -1
REMARK  0 active torsions:
REMARK  status: ('A' for Active; 'I' for Inactive)
ROOT
ATOM      1  C   UNL d   1      -0.041  -0.186  -1.768  0.00  0.00     0.023 A 
ATOM      2  C1  UNL d   1       1.181  -0.782  -1.454  0.00  0.00     0.003 A 
ATOM      3  C2  UNL d   1       1.542  -0.975  -0.119  0.00  0.00     0.048 A 
ATOM      4  C3  UNL d   1       0.677  -0.571   0.897  0.00  0.00     0.023 A 
ATOM      5  C4  UNL d   1      -0.547   0.024   0.588  0.00  0.00     0.048 A 
ATOM      6  C5  UNL d   1      -0.904   0.216  -0.748  0.00  0.00     0.003 A 
ATOM      7  I   UNL d   1       1.213  -0.858   2.885  0.00  0.00    -0.146 I 
ENDROOT
TORSDOF 0
ENDMDL
