MODEL 1
REMARK minimizedAffinity 5.25088453
REMARK minimizedRMSD -1
REMARK  0 active torsions:
REMARK  status: ('A' for Active; 'I' for Inactive)
ROOT
ATOM      1  C   UNL d   1       3.070  -0.738   0.018  0.00  0.00     0.023 A 
ATOM      2  C1  UNL d   1       2.439  -0.508  -1.204  0.00  0.00     0.003 A 
ATOM      3  C2  UNL d   1       1.046  -0.449  -1.272  0.00  0.00     0.048 A 
ATOM      4  C3  UNL d   1       0.289  -0.621  -0.113  0.00  0.00     0.023 A 
ATOM      5  C4  UNL d   1       0.917  -0.852   1.112  0.00  0.00     0.048 A 
ATOM      6  C5  UNL d   1       2.310  -0.910   1.175  0.00  0.00     0.003 A 
ATOM      7  I   UNL d   1      -1.785  -0.534  -0.211  0.00  0.00    -0.146 I 
ENDROOT
TORSDOF 0
ENDMDL
