MODEL 1
REMARK minimizedAffinity -4.13347626
REMARK minimizedRMSD -1
REMARK  0 active torsions:
REMARK  status: ('A' for Active; 'I' for Inactive)
ROOT
ATOM      1  C2' OXE d   1      -2.851   0.467   0.381  0.00  0.00     0.078 C 
ATOM      2  C1' OXE d   1      -1.377   1.364   2.595  0.00  0.00     0.078 C 
ATOM      3  C1  OXE d   1      -0.630   0.656   1.493  0.00  0.00    -0.078 A 
ATOM      4  C2  OXE d   1      -1.366   0.179   0.435  0.00  0.00    -0.078 A 
ATOM      5  C3  OXE d   1      -0.719  -0.433  -0.634  0.00  0.00     0.003 A 
ATOM      6  C4  OXE d   1       0.653  -0.705  -0.572  0.00  0.00    -0.002 A 
ATOM      7  C5  OXE d   1       1.415  -0.263   0.515  0.00  0.00    -0.002 A 
ATOM      8  C6  OXE d   1       0.798   0.455   1.533  0.00  0.00     0.003 A 
ENDROOT
TORSDOF 0
ENDMDL
