MODEL 1
REMARK minimizedAffinity -5.93106413
REMARK minimizedRMSD -1
REMARK  0 active torsions:
REMARK  status: ('A' for Active; 'I' for Inactive)
ROOT
ATOM      1  C2' OXE d   1      -2.422  -0.255  -0.216  0.00  0.00     0.078 C 
ATOM      2  C1' OXE d   1       0.223  -0.578  -1.098  0.00  0.00     0.078 C 
ATOM      3  C1  OXE d   1       0.006   0.009   0.275  0.00  0.00    -0.078 A 
ATOM      4  C2  OXE d   1      -1.292   0.207   0.679  0.00  0.00    -0.078 A 
ATOM      5  C3  OXE d   1      -1.549   0.694   1.958  0.00  0.00     0.003 A 
ATOM      6  C4  OXE d   1      -0.499   1.128   2.775  0.00  0.00    -0.002 A 
ATOM      7  C5  OXE d   1       0.830   0.973   2.366  0.00  0.00    -0.002 A 
ATOM      8  C6  OXE d   1       1.100   0.377   1.139  0.00  0.00     0.003 A 
ENDROOT
TORSDOF 0
ENDMDL
