MODEL 1
REMARK minimizedAffinity -3.15515733
REMARK minimizedRMSD -1
REMARK  0 active torsions:
REMARK  status: ('A' for Active; 'I' for Inactive)
ROOT
ATOM      1  C2' OXE d   1      -2.849  -1.177   0.159  0.00  0.00     0.078 C 
ATOM      2  C1' OXE d   1      -0.355  -0.238  -0.724  0.00  0.00     0.078 C 
ATOM      3  C1  OXE d   1      -0.827   0.195   0.642  0.00  0.00    -0.078 A 
ATOM      4  C2  OXE d   1      -2.069  -0.231   1.046  0.00  0.00    -0.078 A 
ATOM      5  C3  OXE d   1      -2.529   0.095   2.319  0.00  0.00     0.003 A 
ATOM      6  C4  OXE d   1      -1.805   0.978   3.129  0.00  0.00    -0.002 A 
ATOM      7  C5  OXE d   1      -0.556   1.455   2.720  0.00  0.00    -0.002 A 
ATOM      8  C6  OXE d   1      -0.034   1.040   1.500  0.00  0.00     0.003 A 
ENDROOT
TORSDOF 0
ENDMDL
