MODEL 1
REMARK minimizedAffinity -2.74466133
REMARK minimizedRMSD -1
REMARK  0 active torsions:
REMARK  status: ('A' for Active; 'I' for Inactive)
ROOT
ATOM      1  C2' OXE d   1       1.876  -0.364   2.171  0.00  0.00     0.078 C 
ATOM      2  C1' OXE d   1      -0.570   0.993   2.410  0.00  0.00     0.078 C 
ATOM      3  C1  OXE d   1      -0.181   0.479   1.046  0.00  0.00    -0.078 A 
ATOM      4  C2  OXE d   1       1.039  -0.143   0.929  0.00  0.00    -0.078 A 
ATOM      5  C3  OXE d   1       1.422  -0.685  -0.294  0.00  0.00     0.003 A 
ATOM      6  C4  OXE d   1       0.647  -0.467  -1.440  0.00  0.00    -0.002 A 
ATOM      7  C5  OXE d   1      -0.580   0.199  -1.350  0.00  0.00    -0.002 A 
ATOM      8  C6  OXE d   1      -1.028   0.639  -0.110  0.00  0.00     0.003 A 
ENDROOT
TORSDOF 0
ENDMDL
