MODEL 1
REMARK minimizedAffinity -2.98216581
REMARK minimizedRMSD -1
REMARK  0 active torsions:
REMARK  status: ('A' for Active; 'I' for Inactive)
ROOT
ATOM      1  C2' OXE d   1      -1.104  -0.366  -0.912  0.00  0.00     0.078 C 
ATOM      2  C1' OXE d   1       1.635  -0.595  -0.339  0.00  0.00     0.078 C 
ATOM      3  C1  OXE d   1       1.242  -0.065  -1.695  0.00  0.00    -0.078 A 
ATOM      4  C2  OXE d   1      -0.100  -0.001  -1.984  0.00  0.00    -0.078 A 
ATOM      5  C3  OXE d   1      -0.519   0.531  -3.200  0.00  0.00     0.003 A 
ATOM      6  C4  OXE d   1       0.416   0.857  -4.191  0.00  0.00    -0.002 A 
ATOM      7  C5  OXE d   1       1.787   0.762  -3.932  0.00  0.00    -0.002 A 
ATOM      8  C6  OXE d   1       2.216   0.343  -2.677  0.00  0.00     0.003 A 
ENDROOT
TORSDOF 0
ENDMDL
