MODEL 1
REMARK minimizedAffinity 0.051538568
REMARK minimizedRMSD -1
REMARK  0 active torsions:
REMARK  status: ('A' for Active; 'I' for Inactive)
ROOT
ATOM      1  C2' OXE d   1       1.159   0.810  -3.754  0.00  0.00     0.078 C 
ATOM      2  C1' OXE d   1       0.015  -1.729  -3.397  0.00  0.00     0.078 C 
ATOM      3  C1  OXE d   1       0.332  -0.921  -2.164  0.00  0.00    -0.078 A 
ATOM      4  C2  OXE d   1       0.934   0.301  -2.346  0.00  0.00    -0.078 A 
ATOM      5  C3  OXE d   1       1.198   1.110  -1.245  0.00  0.00     0.003 A 
ATOM      6  C4  OXE d   1       0.997   0.628   0.054  0.00  0.00    -0.002 A 
ATOM      7  C5  OXE d   1       0.421  -0.629   0.263  0.00  0.00    -0.002 A 
ATOM      8  C6  OXE d   1       0.044  -1.397  -0.833  0.00  0.00     0.003 A 
ENDROOT
TORSDOF 0
ENDMDL
