MODEL 1
REMARK minimizedAffinity -4.51202726
REMARK minimizedRMSD -1
REMARK  0 active torsions:
REMARK  status: ('A' for Active; 'I' for Inactive)
ROOT
ATOM      1  C2' OXE d   1       0.094  -0.713  -0.935  0.00  0.00     0.078 C 
ATOM      2  C1' OXE d   1       1.912  -0.170   1.134  0.00  0.00     0.078 C 
ATOM      3  C1  OXE d   1       0.492   0.307   1.303  0.00  0.00    -0.078 A 
ATOM      4  C2  OXE d   1      -0.380   0.078   0.265  0.00  0.00    -0.078 A 
ATOM      5  C3  OXE d   1      -1.716   0.449   0.392  0.00  0.00     0.003 A 
ATOM      6  C4  OXE d   1      -2.143   1.189   1.501  0.00  0.00    -0.002 A 
ATOM      7  C5  OXE d   1      -1.262   1.467   2.552  0.00  0.00    -0.002 A 
ATOM      8  C6  OXE d   1       0.045   0.998   2.487  0.00  0.00     0.003 A 
ENDROOT
TORSDOF 0
ENDMDL
