MODEL 1
REMARK minimizedAffinity -5.66108704
REMARK minimizedRMSD -1
REMARK  0 active torsions:
REMARK  status: ('A' for Active; 'I' for Inactive)
ROOT
ATOM      1  C2' OXE d   1      -2.921  -0.076   0.011  0.00  0.00     0.078 C 
ATOM      2  C1' OXE d   1      -1.928   0.993   2.409  0.00  0.00     0.078 C 
ATOM      3  C1  OXE d   1      -0.931   0.464   1.408  0.00  0.00    -0.078 A 
ATOM      4  C2  OXE d   1      -1.428  -0.099   0.258  0.00  0.00    -0.078 A 
ATOM      5  C3  OXE d   1      -0.550  -0.553  -0.723  0.00  0.00     0.003 A 
ATOM      6  C4  OXE d   1       0.829  -0.580  -0.482  0.00  0.00    -0.002 A 
ATOM      7  C5  OXE d   1       1.354  -0.047   0.700  0.00  0.00    -0.002 A 
ATOM      8  C6  OXE d   1       0.492   0.516   1.635  0.00  0.00     0.003 A 
ENDROOT
TORSDOF 0
ENDMDL
