MODEL 1
REMARK minimizedAffinity -3.85426855
REMARK minimizedRMSD -1
REMARK  0 active torsions:
REMARK  status: ('A' for Active; 'I' for Inactive)
ROOT
ATOM      1  C2' OXE d   1      -2.781  -0.027  -0.474  0.00  0.00     0.078 C 
ATOM      2  C1' OXE d   1      -0.159  -0.101  -1.474  0.00  0.00     0.078 C 
ATOM      3  C1  OXE d   1      -0.341   0.123   0.006  0.00  0.00    -0.078 A 
ATOM      4  C2  OXE d   1      -1.628   0.205   0.480  0.00  0.00    -0.078 A 
ATOM      5  C3  OXE d   1      -1.853   0.356   1.845  0.00  0.00     0.003 A 
ATOM      6  C4  OXE d   1      -0.782   0.580   2.719  0.00  0.00    -0.002 A 
ATOM      7  C5  OXE d   1       0.536   0.540   2.251  0.00  0.00    -0.002 A 
ATOM      8  C6  OXE d   1       0.775   0.271   0.908  0.00  0.00     0.003 A 
ENDROOT
TORSDOF 0
ENDMDL
