MODEL 1
REMARK minimizedAffinity -1.93280339
REMARK minimizedRMSD -1
REMARK  0 active torsions:
REMARK  status: ('A' for Active; 'I' for Inactive)
ROOT
ATOM      1  C2' OXE d   1      -2.984  -1.302   2.721  0.00  0.00     0.078 C 
ATOM      2  C1' OXE d   1      -3.025  -0.654  -0.010  0.00  0.00     0.078 C 
ATOM      3  C1  OXE d   1      -2.279   0.269   0.921  0.00  0.00    -0.078 A 
ATOM      4  C2  OXE d   1      -2.304  -0.030   2.262  0.00  0.00    -0.078 A 
ATOM      5  C3  OXE d   1      -1.587   0.758   3.158  0.00  0.00     0.003 A 
ATOM      6  C4  OXE d   1      -0.969   1.938   2.726  0.00  0.00    -0.002 A 
ATOM      7  C5  OXE d   1      -0.965   2.282   1.370  0.00  0.00    -0.002 A 
ATOM      8  C6  OXE d   1      -1.578   1.438   0.451  0.00  0.00     0.003 A 
ENDROOT
TORSDOF 0
ENDMDL
