MODEL 1
REMARK minimizedAffinity -4.62419224
REMARK minimizedRMSD -1
REMARK  0 active torsions:
REMARK  status: ('A' for Active; 'I' for Inactive)
ROOT
ATOM      1  C2' OXE d   1       1.824  -1.787  -0.850  0.00  0.00     0.078 C 
ATOM      2  C1' OXE d   1      -0.395  -0.175  -0.252  0.00  0.00     0.078 C 
ATOM      3  C1  OXE d   1       0.228  -0.035  -1.618  0.00  0.00    -0.078 A 
ATOM      4  C2  OXE d   1       1.342  -0.794  -1.886  0.00  0.00    -0.078 A 
ATOM      5  C3  OXE d   1       1.923  -0.744  -3.149  0.00  0.00     0.003 A 
ATOM      6  C4  OXE d   1       1.478   0.184  -4.098  0.00  0.00    -0.002 A 
ATOM      7  C5  OXE d   1       0.369   0.995  -3.832  0.00  0.00    -0.002 A 
ATOM      8  C6  OXE d   1      -0.292   0.868  -2.615  0.00  0.00     0.003 A 
ENDROOT
TORSDOF 0
ENDMDL
