MODEL 1
REMARK minimizedAffinity -3.85539484
REMARK minimizedRMSD -1
REMARK  0 active torsions:
REMARK  status: ('A' for Active; 'I' for Inactive)
ROOT
ATOM      1  C2' OXE d   1      -0.416  -0.793  -1.242  0.00  0.00     0.078 C 
ATOM      2  C1' OXE d   1       1.633   0.818  -0.200  0.00  0.00     0.078 C 
ATOM      3  C1  OXE d   1       0.307   0.814   0.519  0.00  0.00    -0.078 A 
ATOM      4  C2  OXE d   1      -0.704   0.059  -0.025  0.00  0.00    -0.078 A 
ATOM      5  C3  OXE d   1      -1.931  -0.023   0.628  0.00  0.00     0.003 A 
ATOM      6  C4  OXE d   1      -2.193   0.776   1.747  0.00  0.00    -0.002 A 
ATOM      7  C5  OXE d   1      -1.189   1.583   2.294  0.00  0.00    -0.002 A 
ATOM      8  C6  OXE d   1       0.076   1.580   1.718  0.00  0.00     0.003 A 
ENDROOT
TORSDOF 0
ENDMDL
