MODEL 1
REMARK minimizedAffinity 19.1520958
REMARK minimizedRMSD -1
REMARK  0 active torsions:
REMARK  status: ('A' for Active; 'I' for Inactive)
ROOT
ATOM      1  C2' OXE d   1      -2.152   5.935   1.233  0.00  0.00     0.078 C 
ATOM      2  C1' OXE d   1      -4.528   5.993   2.727  0.00  0.00     0.078 C 
ATOM      3  C1  OXE d   1      -4.643   5.968   1.223  0.00  0.00    -0.078 A 
ATOM      4  C2  OXE d   1      -3.475   5.986   0.500  0.00  0.00    -0.078 A 
ATOM      5  C3  OXE d   1      -3.524   5.908  -0.889  0.00  0.00     0.003 A 
ATOM      6  C4  OXE d   1      -4.751   5.966  -1.560  0.00  0.00    -0.002 A 
ATOM      7  C5  OXE d   1      -5.952   5.988  -0.843  0.00  0.00    -0.002 A 
ATOM      8  C6  OXE d   1      -5.916   5.946   0.547  0.00  0.00     0.003 A 
ENDROOT
TORSDOF 0
ENDMDL
