MODEL 1
REMARK minimizedAffinity 16.2583733
REMARK minimizedRMSD -1
REMARK  0 active torsions:
REMARK  status: ('A' for Active; 'I' for Inactive)
ROOT
ATOM      1  C2' OXE d   1      -0.395  -3.049  -5.953  0.00  0.00     0.078 C 
ATOM      2  C1' OXE d   1       1.466  -5.150  -5.957  0.00  0.00     0.078 C 
ATOM      3  C1  OXE d   1       1.998  -3.739  -5.952  0.00  0.00    -0.078 A 
ATOM      4  C2  OXE d   1       1.081  -2.717  -5.997  0.00  0.00    -0.078 A 
ATOM      5  C3  OXE d   1       1.517  -1.397  -5.939  0.00  0.00     0.003 A 
ATOM      6  C4  OXE d   1       2.884  -1.099  -5.990  0.00  0.00    -0.002 A 
ATOM      7  C5  OXE d   1       3.835  -2.125  -5.985  0.00  0.00    -0.002 A 
ATOM      8  C6  OXE d   1       3.410  -3.447  -5.923  0.00  0.00     0.003 A 
ENDROOT
TORSDOF 0
ENDMDL
