MODEL 1
REMARK minimizedAffinity 18.0539799
REMARK minimizedRMSD -1
REMARK  0 active torsions:
REMARK  status: ('A' for Active; 'I' for Inactive)
ROOT
ATOM      1  C2' OXE d   1       0.273  -2.995   5.999  0.00  0.00     0.078 C 
ATOM      2  C1' OXE d   1      -0.195  -4.354   3.587  0.00  0.00     0.078 C 
ATOM      3  C1  OXE d   1      -1.346  -3.600   4.204  0.00  0.00    -0.078 A 
ATOM      4  C2  OXE d   1      -1.121  -2.977   5.408  0.00  0.00    -0.078 A 
ATOM      5  C3  OXE d   1      -2.133  -2.222   5.994  0.00  0.00     0.003 A 
ATOM      6  C4  OXE d   1      -3.422  -2.218   5.446  0.00  0.00    -0.002 A 
ATOM      7  C5  OXE d   1      -3.683  -2.879   4.241  0.00  0.00    -0.002 A 
ATOM      8  C6  OXE d   1      -2.648  -3.537   3.587  0.00  0.00     0.003 A 
ENDROOT
TORSDOF 0
ENDMDL
