MODEL 1
REMARK minimizedAffinity 14.7662334
REMARK minimizedRMSD -1
REMARK  0 active torsions:
REMARK  status: ('A' for Active; 'I' for Inactive)
ROOT
ATOM      1  C2' OXE d   1       3.377  -1.854  -6.000  0.00  0.00     0.078 C 
ATOM      2  C1' OXE d   1       0.692  -2.672  -6.000  0.00  0.00     0.078 C 
ATOM      3  C1  OXE d   1       1.552  -3.082  -4.831  0.00  0.00    -0.078 A 
ATOM      4  C2  OXE d   1       2.877  -2.718  -4.862  0.00  0.00    -0.078 A 
ATOM      5  C3  OXE d   1       3.701  -3.023  -3.783  0.00  0.00     0.003 A 
ATOM      6  C4  OXE d   1       3.233  -3.830  -2.739  0.00  0.00    -0.002 A 
ATOM      7  C5  OXE d   1       1.897  -4.246  -2.708  0.00  0.00    -0.002 A 
ATOM      8  C6  OXE d   1       1.035  -3.846  -3.722  0.00  0.00     0.003 A 
ENDROOT
TORSDOF 0
ENDMDL
