MODEL 1
REMARK minimizedAffinity 17.5075493
REMARK minimizedRMSD -1
REMARK  0 active torsions:
REMARK  status: ('A' for Active; 'I' for Inactive)
ROOT
ATOM      1  C2' OXE d   1      -1.071  -3.301  -5.932  0.00  0.00     0.078 C 
ATOM      2  C1' OXE d   1       1.227  -4.912  -5.995  0.00  0.00     0.078 C 
ATOM      3  C1  OXE d   1       1.417  -3.416  -5.971  0.00  0.00    -0.078 A 
ATOM      4  C2  OXE d   1       0.287  -2.635  -5.988  0.00  0.00    -0.078 A 
ATOM      5  C3  OXE d   1       0.405  -1.250  -5.911  0.00  0.00     0.003 A 
ATOM      6  C4  OXE d   1       1.665  -0.641  -5.973  0.00  0.00    -0.002 A 
ATOM      7  C5  OXE d   1       2.828  -1.418  -5.996  0.00  0.00    -0.002 A 
ATOM      8  C6  OXE d   1       2.723  -2.804  -5.953  0.00  0.00     0.003 A 
ENDROOT
TORSDOF 0
ENDMDL
