MODEL 1
REMARK minimizedAffinity 19.7844467
REMARK minimizedRMSD -1
REMARK  0 active torsions:
REMARK  status: ('A' for Active; 'I' for Inactive)
ROOT
ATOM      1  C2' OXE d   1      -4.557   4.784  -2.743  0.00  0.00     0.078 C 
ATOM      2  C1' OXE d   1      -4.958   2.220  -3.812  0.00  0.00     0.078 C 
ATOM      3  C1  OXE d   1      -3.538   2.701  -3.653  0.00  0.00    -0.078 A 
ATOM      4  C2  OXE d   1      -3.352   3.975  -3.173  0.00  0.00    -0.078 A 
ATOM      5  C3  OXE d   1      -2.061   4.449  -2.955  0.00  0.00     0.003 A 
ATOM      6  C4  OXE d   1      -0.953   3.698  -3.365  0.00  0.00    -0.002 A 
ATOM      7  C5  OXE d   1      -1.121   2.414  -3.894  0.00  0.00    -0.002 A 
ATOM      8  C6  OXE d   1      -2.402   1.885  -4.005  0.00  0.00     0.003 A 
ENDROOT
TORSDOF 0
ENDMDL
