MODEL 1
REMARK minimizedAffinity 12.6985922
REMARK minimizedRMSD -1
REMARK  0 active torsions:
REMARK  status: ('A' for Active; 'I' for Inactive)
ROOT
ATOM      1  C2' OXE d   1      -4.963   5.548  -3.150  0.00  0.00     0.078 C 
ATOM      2  C1' OXE d   1      -2.466   4.418  -2.540  0.00  0.00     0.078 C 
ATOM      3  C1  OXE d   1      -3.296   4.949  -1.398  0.00  0.00    -0.078 A 
ATOM      4  C2  OXE d   1      -4.496   5.542  -1.710  0.00  0.00    -0.078 A 
ATOM      5  C3  OXE d   1      -5.325   6.000  -0.690  0.00  0.00     0.003 A 
ATOM      6  C4  OXE d   1      -4.881   6.000   0.638  0.00  0.00    -0.002 A 
ATOM      7  C5  OXE d   1      -3.646   5.436   0.973  0.00  0.00    -0.002 A 
ATOM      8  C6  OXE d   1      -2.862   4.869  -0.025  0.00  0.00     0.003 A 
ENDROOT
TORSDOF 0
ENDMDL
