MODEL 1
REMARK minimizedAffinity 18.3657761
REMARK minimizedRMSD -1
REMARK  0 active torsions:
REMARK  status: ('A' for Active; 'I' for Inactive)
ROOT
ATOM      1  C2' OXE d   1      -1.748   2.781  -3.220  0.00  0.00     0.078 C 
ATOM      2  C1' OXE d   1      -3.657   4.830  -3.021  0.00  0.00     0.078 C 
ATOM      3  C1  OXE d   1      -4.125   3.476  -3.492  0.00  0.00    -0.078 A 
ATOM      4  C2  OXE d   1      -3.176   2.492  -3.632  0.00  0.00    -0.078 A 
ATOM      5  C3  OXE d   1      -3.563   1.210  -4.011  0.00  0.00     0.003 A 
ATOM      6  C4  OXE d   1      -4.883   0.954  -4.399  0.00  0.00    -0.002 A 
ATOM      7  C5  OXE d   1      -5.858   1.952  -4.303  0.00  0.00    -0.002 A 
ATOM      8  C6  OXE d   1      -5.505   3.204  -3.812  0.00  0.00     0.003 A 
ENDROOT
TORSDOF 0
ENDMDL
