MODEL 1
REMARK minimizedAffinity 17.6839924
REMARK minimizedRMSD -1
REMARK  0 active torsions:
REMARK  status: ('A' for Active; 'I' for Inactive)
ROOT
ATOM      1  C2' OXE d   1       1.399   4.339  -2.513  0.00  0.00     0.078 C 
ATOM      2  C1' OXE d   1      -1.179   3.522  -3.265  0.00  0.00     0.078 C 
ATOM      3  C1  OXE d   1      -0.675   3.100  -1.907  0.00  0.00    -0.078 A 
ATOM      4  C2  OXE d   1       0.605   3.465  -1.566  0.00  0.00    -0.078 A 
ATOM      5  C3  OXE d   1       1.099   3.150  -0.304  0.00  0.00     0.003 A 
ATOM      6  C4  OXE d   1       0.362   2.332   0.562  0.00  0.00    -0.002 A 
ATOM      7  C5  OXE d   1      -0.929   1.916   0.218  0.00  0.00    -0.002 A 
ATOM      8  C6  OXE d   1      -1.477   2.326  -0.993  0.00  0.00     0.003 A 
ENDROOT
TORSDOF 0
ENDMDL
