MODEL 1
REMARK minimizedAffinity 5.99493313
REMARK minimizedRMSD -1
REMARK  0 active torsions:
REMARK  status: ('A' for Active; 'I' for Inactive)
ROOT
ATOM      1  C2' OXE d   1       0.511   4.986   0.355  0.00  0.00     0.078 C 
ATOM      2  C1' OXE d   1      -0.452   2.352   0.477  0.00  0.00     0.078 C 
ATOM      3  C1  OXE d   1      -0.684   3.127  -0.795  0.00  0.00    -0.078 A 
ATOM      4  C2  OXE d   1      -0.251   4.431  -0.830  0.00  0.00    -0.078 A 
ATOM      5  C3  OXE d   1      -0.391   5.173  -1.998  0.00  0.00     0.003 A 
ATOM      6  C4  OXE d   1      -1.106   4.656  -3.085  0.00  0.00    -0.002 A 
ATOM      7  C5  OXE d   1      -1.591   3.344  -3.057  0.00  0.00    -0.002 A 
ATOM      8  C6  OXE d   1      -1.351   2.553  -1.938  0.00  0.00     0.003 A 
ENDROOT
TORSDOF 0
ENDMDL
