MODEL 1
REMARK minimizedAffinity 4.30921125
REMARK minimizedRMSD -1
REMARK  0 active torsions:
REMARK  status: ('A' for Active; 'I' for Inactive)
ROOT
ATOM      1  C2' OXE d   1      -3.323   2.181   2.087  0.00  0.00     0.078 C 
ATOM      2  C1' OXE d   1      -3.568   4.901   1.436  0.00  0.00     0.078 C 
ATOM      3  C1  OXE d   1      -2.323   4.178   0.984  0.00  0.00    -0.078 A 
ATOM      4  C2  OXE d   1      -2.190   2.860   1.347  0.00  0.00    -0.078 A 
ATOM      5  C3  OXE d   1      -1.088   2.132   0.910  0.00  0.00     0.003 A 
ATOM      6  C4  OXE d   1      -0.040   2.770   0.234  0.00  0.00    -0.002 A 
ATOM      7  C5  OXE d   1      -0.137   4.122  -0.111  0.00  0.00    -0.002 A 
ATOM      8  C6  OXE d   1      -1.288   4.828   0.218  0.00  0.00     0.003 A 
ENDROOT
TORSDOF 0
ENDMDL
