MODEL 1
REMARK minimizedAffinity -1.45789206
REMARK minimizedRMSD -1
REMARK  0 active torsions:
REMARK  status: ('A' for Active; 'I' for Inactive)
ROOT
ATOM      1  C2' OXE d   1      -0.612   3.176  -3.128  0.00  0.00     0.078 C 
ATOM      2  C1' OXE d   1       0.481   5.478  -1.952  0.00  0.00     0.078 C 
ATOM      3  C1  OXE d   1       0.053   4.356  -1.038  0.00  0.00    -0.078 A 
ATOM      4  C2  OXE d   1      -0.524   3.253  -1.619  0.00  0.00    -0.078 A 
ATOM      5  C3  OXE d   1      -0.886   2.167  -0.828  0.00  0.00     0.003 A 
ATOM      6  C4  OXE d   1      -0.810   2.251   0.568  0.00  0.00    -0.002 A 
ATOM      7  C5  OXE d   1      -0.263   3.382   1.183  0.00  0.00    -0.002 A 
ATOM      8  C6  OXE d   1       0.212   4.423   0.393  0.00  0.00     0.003 A 
ENDROOT
TORSDOF 0
ENDMDL
