MODEL 1
REMARK minimizedAffinity 1.01288259
REMARK minimizedRMSD -1
REMARK  0 active torsions:
REMARK  status: ('A' for Active; 'I' for Inactive)
ROOT
ATOM      1  C2' OXE d   1      -0.596   3.747  -1.601  0.00  0.00     0.078 C 
ATOM      2  C1' OXE d   1      -0.464   2.137   0.695  0.00  0.00     0.078 C 
ATOM      3  C1  OXE d   1       0.191   3.495   0.749  0.00  0.00    -0.078 A 
ATOM      4  C2  OXE d   1       0.162   4.257  -0.394  0.00  0.00    -0.078 A 
ATOM      5  C3  OXE d   1       0.703   5.539  -0.381  0.00  0.00     0.003 A 
ATOM      6  C4  OXE d   1       1.410   5.999   0.737  0.00  0.00    -0.002 A 
ATOM      7  C5  OXE d   1       1.486   5.223   1.898  0.00  0.00    -0.002 A 
ATOM      8  C6  OXE d   1       0.847   3.988   1.935  0.00  0.00     0.003 A 
ENDROOT
TORSDOF 0
ENDMDL
