MODEL 1
REMARK minimizedAffinity 5.75102139
REMARK minimizedRMSD -1
REMARK  0 active torsions:
REMARK  status: ('A' for Active; 'I' for Inactive)
ROOT
ATOM      1  C2' OXE d   1      -1.611   1.519  -2.830  0.00  0.00     0.078 C 
ATOM      2  C1' OXE d   1       0.451   0.755  -1.085  0.00  0.00     0.078 C 
ATOM      3  C1  OXE d   1      -0.010   2.190  -1.043  0.00  0.00    -0.078 A 
ATOM      4  C2  OXE d   1      -0.988   2.566  -1.932  0.00  0.00    -0.078 A 
ATOM      5  C3  OXE d   1      -1.488   3.865  -1.898  0.00  0.00     0.003 A 
ATOM      6  C4  OXE d   1      -0.899   4.830  -1.072  0.00  0.00    -0.002 A 
ATOM      7  C5  OXE d   1       0.124   4.477  -0.187  0.00  0.00    -0.002 A 
ATOM      8  C6  OXE d   1       0.550   3.155  -0.129  0.00  0.00     0.003 A 
ENDROOT
TORSDOF 0
ENDMDL
