MODEL 1
REMARK minimizedAffinity 18.3791637
REMARK minimizedRMSD -1
REMARK  0 active torsions:
REMARK  status: ('A' for Active; 'I' for Inactive)
ROOT
ATOM      1  C2' OXE d   1       0.522   0.082   3.006  0.00  0.00     0.078 C 
ATOM      2  C1' OXE d   1       1.940  -1.755   1.426  0.00  0.00     0.078 C 
ATOM      3  C1  OXE d   1       0.865  -2.293   2.338  0.00  0.00    -0.078 A 
ATOM      4  C2  OXE d   1       0.209  -1.392   3.141  0.00  0.00    -0.078 A 
ATOM      5  C3  OXE d   1      -0.829  -1.828   3.961  0.00  0.00     0.003 A 
ATOM      6  C4  OXE d   1      -1.106  -3.195   4.087  0.00  0.00    -0.002 A 
ATOM      7  C5  OXE d   1      -0.422  -4.133   3.307  0.00  0.00    -0.002 A 
ATOM      8  C6  OXE d   1       0.535  -3.696   2.398  0.00  0.00     0.003 A 
ENDROOT
TORSDOF 0
ENDMDL
