MODEL 1
REMARK minimizedAffinity 11.8175821
REMARK minimizedRMSD -1
REMARK  0 active torsions:
REMARK  status: ('A' for Active; 'I' for Inactive)
ROOT
ATOM      1  C2' OXE d   1       1.123   4.498   0.788  0.00  0.00     0.078 C 
ATOM      2  C1' OXE d   1      -1.238   5.994   0.532  0.00  0.00     0.078 C 
ATOM      3  C1  OXE d   1      -0.855   5.085  -0.609  0.00  0.00    -0.078 A 
ATOM      4  C2  OXE d   1       0.327   4.392  -0.495  0.00  0.00    -0.078 A 
ATOM      5  C3  OXE d   1       0.700   3.499  -1.494  0.00  0.00     0.003 A 
ATOM      6  C4  OXE d   1      -0.037   3.414  -2.682  0.00  0.00    -0.002 A 
ATOM      7  C5  OXE d   1      -1.222   4.142  -2.835  0.00  0.00    -0.002 A 
ATOM      8  C6  OXE d   1      -1.666   4.948  -1.793  0.00  0.00     0.003 A 
ENDROOT
TORSDOF 0
ENDMDL
