MODEL 1
REMARK minimizedAffinity 4.98204136
REMARK minimizedRMSD -1
REMARK  0 active torsions:
REMARK  status: ('A' for Active; 'I' for Inactive)
ROOT
ATOM      1  C2' OXE d   1      -4.843  -0.363  -1.509  0.00  0.00     0.078 C 
ATOM      2  C1' OXE d   1      -5.949   0.075   1.033  0.00  0.00     0.078 C 
ATOM      3  C1  OXE d   1      -5.707  -1.351   0.608  0.00  0.00    -0.078 A 
ATOM      4  C2  OXE d   1      -5.209  -1.558  -0.656  0.00  0.00    -0.078 A 
ATOM      5  C3  OXE d   1      -4.916  -2.852  -1.078  0.00  0.00     0.003 A 
ATOM      6  C4  OXE d   1      -5.267  -3.952  -0.287  0.00  0.00    -0.002 A 
ATOM      7  C5  OXE d   1      -5.812  -3.765   0.988  0.00  0.00    -0.002 A 
ATOM      8  C6  OXE d   1      -5.999  -2.473   1.466  0.00  0.00     0.003 A 
ENDROOT
TORSDOF 0
ENDMDL
