MODEL 1
REMARK minimizedAffinity -0.167000771
REMARK minimizedRMSD -1
REMARK  0 active torsions:
REMARK  status: ('A' for Active; 'I' for Inactive)
ROOT
ATOM      1  C   UNL d   1      -1.077   0.813   1.780  0.00  0.00     0.124 A 
ATOM      2  C1  UNL d   1      -2.051  -0.108   2.141  0.00  0.00     0.062 A 
ATOM      3  C2  UNL d   1      -2.341  -1.184   1.307  0.00  0.00     0.162 A 
ATOM      4  C3  UNL d   1      -1.653  -1.346   0.104  0.00  0.00    -0.034 A 
ATOM      5  C4  UNL d   1      -0.675  -0.416  -0.253  0.00  0.00     0.162 A 
ATOM      6  C5  UNL d   1      -0.390   0.658   0.585  0.00  0.00     0.062 A 
ATOM      7  F   UNL d   1       0.552   1.546   0.235  0.00  0.00    -0.097 F 
ATOM      8  F1  UNL d   1       0.004  -0.542  -1.402  0.00  0.00    -0.096 F 
ATOM      9  I   UNL d   1      -2.083  -2.954  -1.146  0.00  0.00    -0.060 I 
ATOM     10  F2  UNL d   1      -3.287  -2.058   1.680  0.00  0.00    -0.096 F 
ATOM     11  F3  UNL d   1      -2.717   0.040   3.295  0.00  0.00    -0.097 F 
ATOM     12  F4  UNL d   1      -0.801   1.848   2.584  0.00  0.00    -0.092 F 
ENDROOT
TORSDOF 0
ENDMDL
