MODEL 1
REMARK minimizedAffinity 0.68645674
REMARK minimizedRMSD -1
REMARK  0 active torsions:
REMARK  status: ('A' for Active; 'I' for Inactive)
ROOT
ATOM      1  C   UNL d   1       0.317   0.628  -3.996  0.00  0.00     0.124 A 
ATOM      2  C1  UNL d   1       0.843   0.209  -2.782  0.00  0.00     0.062 A 
ATOM      3  C2  UNL d   1       0.264  -0.856  -2.098  0.00  0.00     0.162 A 
ATOM      4  C3  UNL d   1      -0.847  -1.512  -2.629  0.00  0.00    -0.034 A 
ATOM      5  C4  UNL d   1      -1.371  -1.085  -3.850  0.00  0.00     0.162 A 
ATOM      6  C5  UNL d   1      -0.789  -0.019  -4.529  0.00  0.00     0.062 A 
ATOM      7  F   UNL d   1      -1.298   0.383  -5.703  0.00  0.00    -0.097 F 
ATOM      8  F1  UNL d   1      -2.438  -1.693  -4.389  0.00  0.00    -0.096 F 
ATOM      9  I   UNL d   1      -1.715  -3.106  -1.610  0.00  0.00    -0.060 I 
ATOM     10  F2  UNL d   1       0.793  -1.239  -0.927  0.00  0.00    -0.096 F 
ATOM     11  F3  UNL d   1       1.910   0.834  -2.264  0.00  0.00    -0.097 F 
ATOM     12  F4  UNL d   1       0.875   1.654  -4.651  0.00  0.00    -0.092 F 
ENDROOT
TORSDOF 0
ENDMDL
