MODEL 1
REMARK minimizedAffinity 1.01221132
REMARK minimizedRMSD -1
REMARK  0 active torsions:
REMARK  status: ('A' for Active; 'I' for Inactive)
ROOT
ATOM      1  C   UNL d   1      -1.232  -1.215  -0.600  0.00  0.00     0.124 A 
ATOM      2  C1  UNL d   1      -0.342  -0.232  -0.191  0.00  0.00     0.062 A 
ATOM      3  C2  UNL d   1       0.598   0.277  -1.083  0.00  0.00     0.162 A 
ATOM      4  C3  UNL d   1       0.653  -0.197  -2.394  0.00  0.00    -0.034 A 
ATOM      5  C4  UNL d   1      -0.245  -1.187  -2.798  0.00  0.00     0.162 A 
ATOM      6  C5  UNL d   1      -1.183  -1.692  -1.903  0.00  0.00     0.062 A 
ATOM      7  F   UNL d   1      -2.041  -2.642  -2.300  0.00  0.00    -0.097 F 
ATOM      8  F1  UNL d   1      -0.220  -1.665  -4.051  0.00  0.00    -0.096 F 
ATOM      9  I   UNL d   1       2.057   0.560  -3.730  0.00  0.00    -0.060 I 
ATOM     10  F2  UNL d   1       1.445   1.227  -0.660  0.00  0.00    -0.096 F 
ATOM     11  F3  UNL d   1      -0.387   0.230   1.067  0.00  0.00    -0.097 F 
ATOM     12  F4  UNL d   1      -2.135  -1.703   0.260  0.00  0.00    -0.092 F 
ENDROOT
TORSDOF 0
ENDMDL
