MODEL 1
REMARK minimizedAffinity -6.18031406
REMARK minimizedRMSD -1
REMARK  0 active torsions:
REMARK  status: ('A' for Active; 'I' for Inactive)
ROOT
ATOM      1  C   UNL d   1      -0.388   0.598   1.899  0.00  0.00     0.124 A 
ATOM      2  C1  UNL d   1       0.738  -0.051   1.413  0.00  0.00     0.062 A 
ATOM      3  C2  UNL d   1       0.624  -0.966   0.370  0.00  0.00     0.162 A 
ATOM      4  C3  UNL d   1      -0.622  -1.237  -0.195  0.00  0.00    -0.034 A 
ATOM      5  C4  UNL d   1      -1.751  -0.581   0.300  0.00  0.00     0.162 A 
ATOM      6  C5  UNL d   1      -1.632   0.332   1.343  0.00  0.00     0.062 A 
ATOM      7  F   UNL d   1      -2.721   0.958   1.811  0.00  0.00    -0.097 F 
ATOM      8  F1  UNL d   1      -2.964  -0.818  -0.220  0.00  0.00    -0.096 F 
ATOM      9  I   UNL d   1      -0.797  -2.604  -1.754  0.00  0.00    -0.060 I 
ATOM     10  F2  UNL d   1       1.730  -1.577  -0.079  0.00  0.00    -0.096 F 
ATOM     11  F3  UNL d   1       1.940   0.204   1.950  0.00  0.00    -0.097 F 
ATOM     12  F4  UNL d   1      -0.276   1.477   2.903  0.00  0.00    -0.092 F 
ENDROOT
TORSDOF 0
ENDMDL
