MODEL 1
REMARK minimizedAffinity 3.72207713
REMARK minimizedRMSD -1
REMARK  0 active torsions:
REMARK  status: ('A' for Active; 'I' for Inactive)
ROOT
ATOM      1  C   UNL d   1       1.008   0.815  -4.708  0.00  0.00     0.124 A 
ATOM      2  C1  UNL d   1      -0.004  -0.054  -4.326  0.00  0.00     0.062 A 
ATOM      3  C2  UNL d   1      -0.175  -0.383  -2.984  0.00  0.00     0.162 A 
ATOM      4  C3  UNL d   1       0.669   0.159  -2.014  0.00  0.00    -0.034 A 
ATOM      5  C4  UNL d   1       1.685   1.031  -2.406  0.00  0.00     0.162 A 
ATOM      6  C5  UNL d   1       1.852   1.356  -3.749  0.00  0.00     0.062 A 
ATOM      7  F   UNL d   1       2.831   2.196  -4.116  0.00  0.00    -0.097 F 
ATOM      8  F1  UNL d   1       2.514   1.570  -1.500  0.00  0.00    -0.096 F 
ATOM      9  I   UNL d   1       0.416  -0.330  -0.006  0.00  0.00    -0.060 I 
ATOM     10  F2  UNL d   1      -1.162  -1.225  -2.643  0.00  0.00    -0.096 F 
ATOM     11  F3  UNL d   1      -0.820  -0.580  -5.251  0.00  0.00    -0.097 F 
ATOM     12  F4  UNL d   1       1.171   1.128  -6.000  0.00  0.00    -0.092 F 
ENDROOT
TORSDOF 0
ENDMDL
