MODEL 1
REMARK minimizedAffinity -4.6007452
REMARK minimizedRMSD -1
REMARK  0 active torsions:
REMARK  status: ('A' for Active; 'I' for Inactive)
ROOT
ATOM      1  C   UNL d   1      -1.435  -1.950   4.384  0.00  0.00     0.124 A 
ATOM      2  C1  UNL d   1      -2.309  -1.282   3.539  0.00  0.00     0.062 A 
ATOM      3  C2  UNL d   1      -1.853  -0.230   2.750  0.00  0.00     0.162 A 
ATOM      4  C3  UNL d   1      -0.514   0.160   2.802  0.00  0.00    -0.034 A 
ATOM      5  C4  UNL d   1       0.359  -0.517   3.656  0.00  0.00     0.162 A 
ATOM      6  C5  UNL d   1      -0.103  -1.568   4.442  0.00  0.00     0.062 A 
ATOM      7  F   UNL d   1       0.743  -2.213   5.259  0.00  0.00    -0.097 F 
ATOM      8  F1  UNL d   1       1.652  -0.169   3.731  0.00  0.00    -0.096 F 
ATOM      9  I   UNL d   1       0.172   1.732   1.624  0.00  0.00    -0.060 I 
ATOM     10  F2  UNL d   1      -2.720   0.399   1.942  0.00  0.00    -0.096 F 
ATOM     11  F3  UNL d   1      -3.598  -1.649   3.482  0.00  0.00    -0.097 F 
ATOM     12  F4  UNL d   1      -1.877  -2.962   5.143  0.00  0.00    -0.092 F 
ENDROOT
TORSDOF 0
ENDMDL
