MODEL 1
REMARK minimizedAffinity 4.0422163
REMARK minimizedRMSD -1
REMARK  0 active torsions:
REMARK  status: ('A' for Active; 'I' for Inactive)
ROOT
ATOM      1  C   UNL d   1      -0.117   0.901   1.794  0.00  0.00     0.124 A 
ATOM      2  C1  UNL d   1       0.510   0.797   0.560  0.00  0.00     0.062 A 
ATOM      3  C2  UNL d   1       0.035  -0.099  -0.394  0.00  0.00     0.162 A 
ATOM      4  C3  UNL d   1      -1.075  -0.898  -0.118  0.00  0.00    -0.034 A 
ATOM      5  C4  UNL d   1      -1.700  -0.788   1.126  0.00  0.00     0.162 A 
ATOM      6  C5  UNL d   1      -1.221   0.108   2.076  0.00  0.00     0.062 A 
ATOM      7  F   UNL d   1      -1.828   0.207   3.267  0.00  0.00    -0.097 F 
ATOM      8  F1  UNL d   1      -2.769  -1.541   1.424  0.00  0.00    -0.096 F 
ATOM      9  I   UNL d   1      -1.788  -2.238  -1.541  0.00  0.00    -0.060 I 
ATOM     10  F2  UNL d   1       0.661  -0.178  -1.577  0.00  0.00    -0.096 F 
ATOM     11  F3  UNL d   1       1.577   1.561   0.286  0.00  0.00    -0.097 F 
ATOM     12  F4  UNL d   1       0.342   1.763   2.710  0.00  0.00    -0.092 F 
ENDROOT
TORSDOF 0
ENDMDL
