MODEL 1
REMARK minimizedAffinity 3.47134566
REMARK minimizedRMSD -1
REMARK  0 active torsions:
REMARK  status: ('A' for Active; 'I' for Inactive)
ROOT
ATOM      1  C4' PXY d   1      -2.759  -0.791   0.259  0.00  0.00     0.077 C 
ATOM      2  C1' PXY d   1       2.057   2.067   1.693  0.00  0.00     0.077 C 
ATOM      3  C1  PXY d   1       0.790   1.318   1.330  0.00  0.00    -0.082 A 
ATOM      4  C2  PXY d   1       0.770   0.551   0.252  0.00  0.00     0.003 A 
ATOM      5  C3  PXY d   1      -0.377  -0.109  -0.109  0.00  0.00     0.003 A 
ATOM      6  C4  PXY d   1      -1.499  -0.023   0.670  0.00  0.00    -0.082 A 
ATOM      7  C5  PXY d   1      -1.484   0.750   1.777  0.00  0.00     0.003 A 
ATOM      8  C6  PXY d   1      -0.323   1.443   2.103  0.00  0.00     0.003 A 
ENDROOT
TORSDOF 0
ENDMDL
