MODEL 1
REMARK minimizedAffinity 7.76873732
REMARK minimizedRMSD -1
REMARK  0 active torsions:
REMARK  status: ('A' for Active; 'I' for Inactive)
ROOT
ATOM      1  C4' PXY d   1      -2.883  -1.164   0.897  0.00  0.00     0.077 C 
ATOM      2  C1' PXY d   1      -6.000  -6.000   0.343  0.00  0.00     0.077 C 
ATOM      3  C1  PXY d   1      -5.174  -4.738   0.495  0.00  0.00    -0.082 A 
ATOM      4  C2  PXY d   1      -5.758  -3.556   0.386  0.00  0.00     0.003 A 
ATOM      5  C3  PXY d   1      -5.020  -2.405   0.489  0.00  0.00     0.003 A 
ATOM      6  C4  PXY d   1      -3.679  -2.464   0.760  0.00  0.00    -0.082 A 
ATOM      7  C5  PXY d   1      -3.078  -3.666   0.884  0.00  0.00     0.003 A 
ATOM      8  C6  PXY d   1      -3.837  -4.823   0.735  0.00  0.00     0.003 A 
ENDROOT
TORSDOF 0
ENDMDL
