MODEL 1
REMARK minimizedAffinity 3.02287054
REMARK minimizedRMSD -1
REMARK  0 active torsions:
REMARK  status: ('A' for Active; 'I' for Inactive)
ROOT
ATOM      1  C4' PXY d   1      -1.312   3.774   3.891  0.00  0.00     0.077 C 
ATOM      2  C1' PXY d   1      -0.360  -0.291  -0.107  0.00  0.00     0.077 C 
ATOM      3  C1  PXY d   1      -0.622   0.777   0.937  0.00  0.00    -0.082 A 
ATOM      4  C2  PXY d   1       0.398   1.401   1.504  0.00  0.00     0.003 A 
ATOM      5  C3  PXY d   1       0.180   2.347   2.473  0.00  0.00     0.003 A 
ATOM      6  C4  PXY d   1      -1.096   2.696   2.826  0.00  0.00    -0.082 A 
ATOM      7  C5  PXY d   1      -2.142   2.072   2.244  0.00  0.00     0.003 A 
ATOM      8  C6  PXY d   1      -1.898   1.085   1.292  0.00  0.00     0.003 A 
ENDROOT
TORSDOF 0
ENDMDL
