MODEL 1
REMARK minimizedAffinity 6.89427805
REMARK minimizedRMSD -1
REMARK  0 active torsions:
REMARK  status: ('A' for Active; 'I' for Inactive)
ROOT
ATOM      1  C4' PXY d   1       2.630   1.976   1.922  0.00  0.00     0.077 C 
ATOM      2  C1' PXY d   1      -2.752  -0.013   1.224  0.00  0.00     0.077 C 
ATOM      3  C1  PXY d   1      -1.345   0.518   1.415  0.00  0.00    -0.082 A 
ATOM      4  C2  PXY d   1      -0.432   0.302   0.483  0.00  0.00     0.003 A 
ATOM      5  C3  PXY d   1       0.853   0.747   0.654  0.00  0.00     0.003 A 
ATOM      6  C4  PXY d   1       1.194   1.467   1.767  0.00  0.00    -0.082 A 
ATOM      7  C5  PXY d   1       0.266   1.701   2.719  0.00  0.00     0.003 A 
ATOM      8  C6  PXY d   1      -1.023   1.205   2.545  0.00  0.00     0.003 A 
ENDROOT
TORSDOF 0
ENDMDL
