MODEL 1
REMARK minimizedAffinity 2.66694927
REMARK minimizedRMSD -1
REMARK  0 active torsions:
REMARK  status: ('A' for Active; 'I' for Inactive)
ROOT
ATOM      1  C4' PXY d   1       0.085   1.707  -1.686  0.00  0.00     0.077 C 
ATOM      2  C1' PXY d   1      -1.461  -0.237   3.534  0.00  0.00     0.077 C 
ATOM      3  C1  PXY d   1      -1.061   0.262   2.160  0.00  0.00    -0.082 A 
ATOM      4  C2  PXY d   1      -0.036   1.090   2.037  0.00  0.00     0.003 A 
ATOM      5  C3  PXY d   1       0.319   1.577   0.806  0.00  0.00     0.003 A 
ATOM      6  C4  PXY d   1      -0.349   1.170  -0.319  0.00  0.00    -0.082 A 
ATOM      7  C5  PXY d   1      -1.389   0.317  -0.203  0.00  0.00     0.003 A 
ATOM      8  C6  PXY d   1      -1.759  -0.133   1.060  0.00  0.00     0.003 A 
ENDROOT
TORSDOF 0
ENDMDL
