MODEL 1
REMARK minimizedAffinity -0.576525211
REMARK minimizedRMSD -1
REMARK  0 active torsions:
REMARK  status: ('A' for Active; 'I' for Inactive)
ROOT
ATOM      1  C4' PXY d   1      -5.798  -5.991   2.311  0.00  0.00     0.077 C 
ATOM      2  C1' PXY d   1      -0.039  -5.988   2.813  0.00  0.00     0.077 C 
ATOM      3  C1  PXY d   1      -1.550  -5.994   2.693  0.00  0.00    -0.082 A 
ATOM      4  C2  PXY d   1      -2.111  -6.000   1.495  0.00  0.00     0.003 A 
ATOM      5  C3  PXY d   1      -3.476  -5.973   1.368  0.00  0.00     0.003 A 
ATOM      6  C4  PXY d   1      -4.276  -5.994   2.480  0.00  0.00    -0.082 A 
ATOM      7  C5  PXY d   1      -3.711  -5.999   3.706  0.00  0.00     0.003 A 
ATOM      8  C6  PXY d   1      -2.323  -5.985   3.813  0.00  0.00     0.003 A 
ENDROOT
TORSDOF 0
ENDMDL
