MODEL 1
REMARK minimizedAffinity 3.33774519
REMARK minimizedRMSD -1
REMARK  0 active torsions:
REMARK  status: ('A' for Active; 'I' for Inactive)
ROOT
ATOM      1  C4' PXY d   1      -1.717  -5.970   0.587  0.00  0.00     0.077 C 
ATOM      2  C1' PXY d   1       1.425  -5.994   5.438  0.00  0.00     0.077 C 
ATOM      3  C1  PXY d   1       0.591  -5.993   4.172  0.00  0.00    -0.082 A 
ATOM      4  C2  PXY d   1       1.191  -5.989   2.993  0.00  0.00     0.003 A 
ATOM      5  C3  PXY d   1       0.453  -5.956   1.839  0.00  0.00     0.003 A 
ATOM      6  C4  PXY d   1      -0.915  -5.980   1.891  0.00  0.00    -0.082 A 
ATOM      7  C5  PXY d   1      -1.536  -5.995   3.090  0.00  0.00     0.003 A 
ATOM      8  C6  PXY d   1      -0.767  -5.987   4.250  0.00  0.00     0.003 A 
ENDROOT
TORSDOF 0
ENDMDL
