MODEL 1
REMARK minimizedAffinity 4.51285982
REMARK minimizedRMSD -1
REMARK  0 active torsions:
REMARK  status: ('A' for Active; 'I' for Inactive)
ROOT
ATOM      1  C4' PXY d   1       4.418   1.756   2.305  0.00  0.00     0.077 C 
ATOM      2  C1' PXY d   1      -0.904  -0.367   1.540  0.00  0.00     0.077 C 
ATOM      3  C1  PXY d   1       0.496   0.178   1.744  0.00  0.00    -0.082 A 
ATOM      4  C2  PXY d   1       0.663   1.450   2.065  0.00  0.00     0.003 A 
ATOM      5  C3  PXY d   1       1.923   1.967   2.221  0.00  0.00     0.003 A 
ATOM      6  C4  PXY d   1       3.023   1.160   2.099  0.00  0.00    -0.082 A 
ATOM      7  C5  PXY d   1       2.861  -0.142   1.782  0.00  0.00     0.003 A 
ATOM      8  C6  PXY d   1       1.575  -0.637   1.588  0.00  0.00     0.003 A 
ENDROOT
TORSDOF 0
ENDMDL
