MODEL 1
REMARK minimizedAffinity 6.39938164
REMARK minimizedRMSD -1
REMARK  0 active torsions:
REMARK  status: ('A' for Active; 'I' for Inactive)
ROOT
ATOM      1  C4' PXY d   1       1.457  -0.244  -0.503  0.00  0.00     0.077 C 
ATOM      2  C1' PXY d   1      -2.389  -0.813   3.775  0.00  0.00     0.077 C 
ATOM      3  C1  PXY d   1      -1.381  -0.651   2.654  0.00  0.00    -0.082 A 
ATOM      4  C2  PXY d   1      -1.180  -1.647   1.806  0.00  0.00     0.003 A 
ATOM      5  C3  PXY d   1      -0.250  -1.529   0.806  0.00  0.00     0.003 A 
ATOM      6  C4  PXY d   1       0.443  -0.360   0.639  0.00  0.00    -0.082 A 
ATOM      7  C5  PXY d   1       0.236   0.665   1.493  0.00  0.00     0.003 A 
ATOM      8  C6  PXY d   1      -0.683   0.510   2.527  0.00  0.00     0.003 A 
ENDROOT
TORSDOF 0
ENDMDL
