MODEL 1
REMARK minimizedAffinity 6.48214912
REMARK minimizedRMSD -1
REMARK  0 active torsions:
REMARK  status: ('A' for Active; 'I' for Inactive)
ROOT
ATOM      1  C4' PXY d   1       1.675   1.973  -0.495  0.00  0.00     0.077 C 
ATOM      2  C1' PXY d   1      -1.582  -1.458   2.826  0.00  0.00     0.077 C 
ATOM      3  C1  PXY d   1      -0.721  -0.569   1.950  0.00  0.00    -0.082 A 
ATOM      4  C2  PXY d   1      -0.528   0.695   2.291  0.00  0.00     0.003 A 
ATOM      5  C3  PXY d   1       0.220   1.522   1.494  0.00  0.00     0.003 A 
ATOM      6  C4  PXY d   1       0.822   1.036   0.364  0.00  0.00    -0.082 A 
ATOM      7  C5  PXY d   1       0.638  -0.255   0.015  0.00  0.00     0.003 A 
ATOM      8  C6  PXY d   1      -0.159  -1.067   0.816  0.00  0.00     0.003 A 
ENDROOT
TORSDOF 0
ENDMDL
