MODEL 1
REMARK minimizedAffinity 0.245163456
REMARK minimizedRMSD -1
REMARK  0 active torsions:
REMARK  status: ('A' for Active; 'I' for Inactive)
ROOT
ATOM      1  C4' PXY d   1       2.559  -5.972   2.616  0.00  0.00     0.077 C 
ATOM      2  C1' PXY d   1      -3.161  -5.999   1.787  0.00  0.00     0.077 C 
ATOM      3  C1  PXY d   1      -1.659  -5.997   1.992  0.00  0.00    -0.082 A 
ATOM      4  C2  PXY d   1      -1.167  -5.993   3.221  0.00  0.00     0.003 A 
ATOM      5  C3  PXY d   1       0.188  -5.959   3.425  0.00  0.00     0.003 A 
ATOM      6  C4  PXY d   1       1.050  -5.983   2.361  0.00  0.00    -0.082 A 
ATOM      7  C5  PXY d   1       0.556  -5.999   1.105  0.00  0.00     0.003 A 
ATOM      8  C6  PXY d   1      -0.824  -5.992   0.919  0.00  0.00     0.003 A 
ENDROOT
TORSDOF 0
ENDMDL
