MODEL 1
REMARK minimizedAffinity 9.22776031
REMARK minimizedRMSD -1
REMARK  0 active torsions:
REMARK  status: ('A' for Active; 'I' for Inactive)
ROOT
ATOM      1  C4' PXY d   1      -1.512  -6.000   0.181  0.00  0.00     0.077 C 
ATOM      2  C1' PXY d   1       1.770  -5.965   4.940  0.00  0.00     0.077 C 
ATOM      3  C1  PXY d   1       0.919  -5.969   3.685  0.00  0.00    -0.082 A 
ATOM      4  C2  PXY d   1      -0.400  -5.964   3.789  0.00  0.00     0.003 A 
ATOM      5  C3  PXY d   1      -1.185  -5.999   2.665  0.00  0.00     0.003 A 
ATOM      6  C4  PXY d   1      -0.613  -5.987   1.421  0.00  0.00    -0.082 A 
ATOM      7  C5  PXY d   1       0.732  -5.981   1.306  0.00  0.00     0.003 A 
ATOM      8  C6  PXY d   1       1.510  -5.986   2.460  0.00  0.00     0.003 A 
ENDROOT
TORSDOF 0
ENDMDL
