MODEL 1
REMARK minimizedAffinity 6.29685402
REMARK minimizedRMSD -1
REMARK  0 active torsions:
REMARK  status: ('A' for Active; 'I' for Inactive)
ROOT
ATOM      1  C4' PXY d   1       2.527  -0.360  -2.759  0.00  0.00     0.077 C 
ATOM      2  C1' PXY d   1      -0.016   1.150   2.208  0.00  0.00     0.077 C 
ATOM      3  C1  PXY d   1       0.662   0.751   0.912  0.00  0.00    -0.082 A 
ATOM      4  C2  PXY d   1       0.238   1.262  -0.233  0.00  0.00     0.003 A 
ATOM      5  C3  PXY d   1       0.819   0.888  -1.417  0.00  0.00     0.003 A 
ATOM      6  C4  PXY d   1       1.879   0.022  -1.426  0.00  0.00    -0.082 A 
ATOM      7  C5  PXY d   1       2.324  -0.497  -0.261  0.00  0.00     0.003 A 
ATOM      8  C6  PXY d   1       1.694  -0.135   0.926  0.00  0.00     0.003 A 
ENDROOT
TORSDOF 0
ENDMDL
