MODEL 1
REMARK minimizedAffinity 10.3807058
REMARK minimizedRMSD -1
REMARK  0 active torsions:
REMARK  status: ('A' for Active; 'I' for Inactive)
ROOT
ATOM      1  C4' PXY d   1       0.253   1.335   1.286  0.00  0.00     0.077 C 
ATOM      2  C1' PXY d   1      -3.050  -2.256  -1.814  0.00  0.00     0.077 C 
ATOM      3  C1  PXY d   1      -2.180  -1.309  -1.012  0.00  0.00    -0.082 A 
ATOM      4  C2  PXY d   1      -1.758  -1.667   0.190  0.00  0.00     0.003 A 
ATOM      5  C3  PXY d   1      -0.997  -0.809   0.942  0.00  0.00     0.003 A 
ATOM      6  C4  PXY d   1      -0.619   0.406   0.437  0.00  0.00    -0.082 A 
ATOM      7  C5  PXY d   1      -1.037   0.774  -0.793  0.00  0.00     0.003 A 
ATOM      8  C6  PXY d   1      -1.843  -0.094  -1.524  0.00  0.00     0.003 A 
ENDROOT
TORSDOF 0
ENDMDL
