MODEL 1
REMARK minimizedAffinity 3.49952936
REMARK minimizedRMSD -1
REMARK  0 active torsions:
REMARK  status: ('A' for Active; 'I' for Inactive)
ROOT
ATOM      1  C4' PXY d   1      -1.033  -5.977   0.877  0.00  0.00     0.077 C 
ATOM      2  C1' PXY d   1       1.975  -5.998   5.814  0.00  0.00     0.077 C 
ATOM      3  C1  PXY d   1       1.176  -5.998   4.526  0.00  0.00    -0.082 A 
ATOM      4  C2  PXY d   1       1.809  -5.998   3.363  0.00  0.00     0.003 A 
ATOM      5  C3  PXY d   1       1.102  -5.966   2.189  0.00  0.00     0.003 A 
ATOM      6  C4  PXY d   1      -0.267  -5.987   2.203  0.00  0.00    -0.082 A 
ATOM      7  C5  PXY d   1      -0.920  -5.998   3.385  0.00  0.00     0.003 A 
ATOM      8  C6  PXY d   1      -0.184  -5.989   4.566  0.00  0.00     0.003 A 
ENDROOT
TORSDOF 0
ENDMDL
