MODEL 1
REMARK minimizedAffinity 4.23867559
REMARK minimizedRMSD -1
REMARK  0 active torsions:
REMARK  status: ('A' for Active; 'I' for Inactive)
ROOT
ATOM      1  C4' PXY d   1      -2.622  -5.994   2.386  0.00  0.00     0.077 C 
ATOM      2  C1' PXY d   1       3.088  -5.984   3.287  0.00  0.00     0.077 C 
ATOM      3  C1  PXY d   1       1.589  -5.992   3.062  0.00  0.00    -0.082 A 
ATOM      4  C2  PXY d   1       1.112  -5.999   1.828  0.00  0.00     0.003 A 
ATOM      5  C3  PXY d   1      -0.241  -5.974   1.607  0.00  0.00     0.003 A 
ATOM      6  C4  PXY d   1      -1.115  -5.995   2.660  0.00  0.00    -0.082 A 
ATOM      7  C5  PXY d   1      -0.637  -5.999   3.922  0.00  0.00     0.003 A 
ATOM      8  C6  PXY d   1       0.740  -5.983   4.126  0.00  0.00     0.003 A 
ENDROOT
TORSDOF 0
ENDMDL
