MODEL 1
REMARK minimizedAffinity 5.06014967
REMARK minimizedRMSD -1
REMARK  0 active torsions:
REMARK  status: ('A' for Active; 'I' for Inactive)
ROOT
ATOM      1  C4' PXY d   1       2.557  -5.966   6.000  0.00  0.00     0.077 C 
ATOM      2  C1' PXY d   1      -1.481  -5.998   1.864  0.00  0.00     0.077 C 
ATOM      3  C1  PXY d   1      -0.414  -5.995   2.941  0.00  0.00    -0.082 A 
ATOM      4  C2  PXY d   1      -0.769  -5.998   4.215  0.00  0.00     0.003 A 
ATOM      5  C3  PXY d   1       0.183  -5.962   5.201  0.00  0.00     0.003 A 
ATOM      6  C4  PXY d   1       1.514  -5.978   4.880  0.00  0.00    -0.082 A 
ATOM      7  C5  PXY d   1       1.885  -5.986   3.582  0.00  0.00     0.003 A 
ATOM      8  C6  PXY d   1       0.902  -5.980   2.596  0.00  0.00     0.003 A 
ENDROOT
TORSDOF 0
ENDMDL
