MODEL 1
REMARK minimizedAffinity 9.41919231
REMARK minimizedRMSD -1
REMARK  0 active torsions:
REMARK  status: ('A' for Active; 'I' for Inactive)
ROOT
ATOM      1  C4' PXY d   1       0.664  -2.622  -4.503  0.00  0.00     0.077 C 
ATOM      2  C1' PXY d   1      -4.742  -1.238  -2.994  0.00  0.00     0.077 C 
ATOM      3  C1  PXY d   1      -3.329  -1.612  -3.396  0.00  0.00    -0.082 A 
ATOM      4  C2  PXY d   1      -2.308  -1.192  -2.665  0.00  0.00     0.003 A 
ATOM      5  C3  PXY d   1      -1.022  -1.494  -3.033  0.00  0.00     0.003 A 
ATOM      6  C4  PXY d   1      -0.780  -2.277  -4.130  0.00  0.00    -0.082 A 
ATOM      7  C5  PXY d   1      -1.817  -2.718  -4.874  0.00  0.00     0.003 A 
ATOM      8  C6  PXY d   1      -3.113  -2.366  -4.507  0.00  0.00     0.003 A 
ENDROOT
TORSDOF 0
ENDMDL
