MODEL 1
REMARK minimizedAffinity 6.01405621
REMARK minimizedRMSD -1
REMARK  0 active torsions:
REMARK  status: ('A' for Active; 'I' for Inactive)
ROOT
ATOM      1  C4' PXY d   1       0.603  -2.844  -4.145  0.00  0.00     0.077 C 
ATOM      2  C1' PXY d   1      -4.612  -1.704  -1.927  0.00  0.00     0.077 C 
ATOM      3  C1  PXY d   1      -3.246  -2.016  -2.507  0.00  0.00    -0.082 A 
ATOM      4  C2  PXY d   1      -2.311  -1.080  -2.518  0.00  0.00     0.003 A 
ATOM      5  C3  PXY d   1      -1.081  -1.335  -3.068  0.00  0.00     0.003 A 
ATOM      6  C4  PXY d   1      -0.787  -2.577  -3.562  0.00  0.00    -0.082 A 
ATOM      7  C5  PXY d   1      -1.732  -3.541  -3.544  0.00  0.00     0.003 A 
ATOM      8  C6  PXY d   1      -2.988  -3.250  -3.020  0.00  0.00     0.003 A 
ENDROOT
TORSDOF 0
ENDMDL
