MODEL 1
REMARK minimizedAffinity 6.11521769
REMARK minimizedRMSD -1
REMARK  0 active torsions:
REMARK  status: ('A' for Active; 'I' for Inactive)
ROOT
ATOM      1  C4' PXY d   1       0.219  -2.878  -4.464  0.00  0.00     0.077 C 
ATOM      2  C1' PXY d   1      -4.998  -1.442  -2.429  0.00  0.00     0.077 C 
ATOM      3  C1  PXY d   1      -3.634  -1.831  -2.965  0.00  0.00    -0.082 A 
ATOM      4  C2  PXY d   1      -2.569  -1.127  -2.616  0.00  0.00     0.003 A 
ATOM      5  C3  PXY d   1      -1.333  -1.445  -3.116  0.00  0.00     0.003 A 
ATOM      6  C4  PXY d   1      -1.177  -2.527  -3.940  0.00  0.00    -0.082 A 
ATOM      7  C5  PXY d   1      -2.256  -3.257  -4.292  0.00  0.00     0.003 A 
ATOM      8  C6  PXY d   1      -3.509  -2.893  -3.806  0.00  0.00     0.003 A 
ENDROOT
TORSDOF 0
ENDMDL
