MODEL 1
REMARK minimizedAffinity 12.6079922
REMARK minimizedRMSD -1
REMARK  1 active torsions:
REMARK  status: ('A' for Active; 'I' for Inactive)
REMARK    1  A    between atoms: C1_2  and  C2_3 
ROOT
ATOM      1  C2  UNL d   1       3.915  -3.969  -4.214  0.00  0.00    -0.081 A 
ATOM      2  C3  UNL d   1       3.272  -4.785  -3.276  0.00  0.00     0.006 A 
ATOM      3  C4  UNL d   1       3.879  -5.069  -2.050  0.00  0.00     0.002 A 
ATOM      4  C5  UNL d   1       5.135  -4.535  -1.739  0.00  0.00    -0.080 A 
ATOM      5  C6  UNL d   1       5.784  -4.807  -0.415  0.00  0.00     0.076 C 
ATOM      6  C7  UNL d   1       5.785  -3.734  -2.684  0.00  0.00     0.002 A 
ATOM      7  C8  UNL d   1       5.179  -3.451  -3.910  0.00  0.00     0.006 A 
ENDROOT
BRANCH   1   8
ATOM      8  C1  UNL d   1       3.235  -3.609  -5.511  0.00  0.00     0.054 C 
ATOM      9  C   UNL d   1       2.530  -2.264  -5.410  0.00  0.00     0.018 C 
ENDBRANCH   1   8
TORSDOF 1
ENDMDL
