MODEL 1
REMARK minimizedAffinity 7.92283535
REMARK minimizedRMSD -1
REMARK  1 active torsions:
REMARK  status: ('A' for Active; 'I' for Inactive)
REMARK    1  A    between atoms: C1_2  and  C2_3 
ROOT
ATOM      1  C2  UNL d   1      -0.372   1.052  -0.345  0.00  0.00    -0.081 A 
ATOM      2  C3  UNL d   1      -0.265   1.360   1.017  0.00  0.00     0.006 A 
ATOM      3  C4  UNL d   1      -1.202   2.196   1.629  0.00  0.00     0.002 A 
ATOM      4  C5  UNL d   1      -2.264   2.731   0.893  0.00  0.00    -0.080 A 
ATOM      5  C6  UNL d   1      -3.294   3.605   1.545  0.00  0.00     0.076 C 
ATOM      6  C7  UNL d   1      -2.361   2.438  -0.472  0.00  0.00     0.002 A 
ATOM      7  C8  UNL d   1      -1.424   1.603  -1.084  0.00  0.00     0.006 A 
ENDROOT
BRANCH   1   8
ATOM      8  C1  UNL d   1       0.600   0.099  -0.993  0.00  0.00     0.054 C 
ATOM      9  C   UNL d   1      -0.072  -0.714  -2.091  0.00  0.00     0.018 C 
ENDBRANCH   1   8
TORSDOF 1
ENDMDL
