MODEL 1
REMARK minimizedAffinity 13.1308746
REMARK minimizedRMSD -1
REMARK  1 active torsions:
REMARK  status: ('A' for Active; 'I' for Inactive)
REMARK    1  A    between atoms: C1_2  and  C2_3 
ROOT
ATOM      1  C2  UNL d   1      -0.039   1.451  -0.612  0.00  0.00    -0.081 A 
ATOM      2  C3  UNL d   1      -0.027   1.456   0.788  0.00  0.00     0.006 A 
ATOM      3  C4  UNL d   1      -1.098   1.996   1.504  0.00  0.00     0.002 A 
ATOM      4  C5  UNL d   1      -2.202   2.533   0.832  0.00  0.00    -0.080 A 
ATOM      5  C6  UNL d   1      -3.372   3.088   1.589  0.00  0.00     0.076 C 
ATOM      6  C7  UNL d   1      -2.206   2.544  -0.566  0.00  0.00     0.002 A 
ATOM      7  C8  UNL d   1      -1.136   2.005  -1.283  0.00  0.00     0.006 A 
ENDROOT
BRANCH   1   8
ATOM      8  C1  UNL d   1       1.084   0.811  -1.387  0.00  0.00     0.054 C 
ATOM      9  C   UNL d   1       0.671  -0.544  -1.943  0.00  0.00     0.018 C 
ENDBRANCH   1   8
TORSDOF 1
ENDMDL
