MODEL 1
REMARK minimizedAffinity 9.31178474
REMARK minimizedRMSD -1
REMARK  1 active torsions:
REMARK  status: ('A' for Active; 'I' for Inactive)
REMARK    1  A    between atoms: C1_2  and  C2_3 
ROOT
ATOM      1  C2  UNL d   1      -1.905  -2.522   4.036  0.00  0.00    -0.081 A 
ATOM      2  C3  UNL d   1      -2.104  -2.947   5.355  0.00  0.00     0.006 A 
ATOM      3  C4  UNL d   1      -1.157  -3.755   5.989  0.00  0.00     0.002 A 
ATOM      4  C5  UNL d   1       0.006  -4.146   5.317  0.00  0.00    -0.080 A 
ATOM      5  C6  UNL d   1       1.044  -4.989   5.996  0.00  0.00     0.076 C 
ATOM      6  C7  UNL d   1       0.196  -3.737   3.993  0.00  0.00     0.002 A 
ATOM      7  C8  UNL d   1      -0.750  -2.928   3.359  0.00  0.00     0.006 A 
ENDROOT
BRANCH   1   8
ATOM      8  C1  UNL d   1      -2.893  -1.597   3.372  0.00  0.00     0.054 C 
ATOM      9  C   UNL d   1      -2.232  -0.291   2.952  0.00  0.00     0.018 C 
ENDBRANCH   1   8
TORSDOF 1
ENDMDL
