MODEL 1
REMARK minimizedAffinity 9.70333385
REMARK minimizedRMSD -1
REMARK  1 active torsions:
REMARK  status: ('A' for Active; 'I' for Inactive)
REMARK    1  A    between atoms: C1_2  and  C2_3 
ROOT
ATOM      1  C2  UNL d   1       3.643  -3.453  -4.458  0.00  0.00    -0.081 A 
ATOM      2  C3  UNL d   1       3.158  -4.431  -3.581  0.00  0.00     0.006 A 
ATOM      3  C4  UNL d   1       3.923  -4.844  -2.488  0.00  0.00     0.002 A 
ATOM      4  C5  UNL d   1       5.181  -4.281  -2.248  0.00  0.00    -0.080 A 
ATOM      5  C6  UNL d   1       5.999  -4.693  -1.061  0.00  0.00     0.076 C 
ATOM      6  C7  UNL d   1       5.673  -3.317  -3.134  0.00  0.00     0.002 A 
ATOM      7  C8  UNL d   1       4.909  -2.904  -4.228  0.00  0.00     0.006 A 
ENDROOT
BRANCH   1   8
ATOM      8  C1  UNL d   1       2.794  -2.960  -5.601  0.00  0.00     0.054 C 
ATOM      9  C   UNL d   1       2.075  -1.668  -5.239  0.00  0.00     0.018 C 
ENDBRANCH   1   8
TORSDOF 1
ENDMDL
