MODEL 1
REMARK minimizedAffinity 8.82352924
REMARK minimizedRMSD -1
REMARK  1 active torsions:
REMARK  status: ('A' for Active; 'I' for Inactive)
REMARK    1  A    between atoms: C1_2  and  C2_3 
ROOT
ATOM      1  C2  UNL d   1      -1.338   1.940  -0.617  0.00  0.00    -0.081 A 
ATOM      2  C3  UNL d   1      -1.872   1.206  -1.683  0.00  0.00     0.006 A 
ATOM      3  C4  UNL d   1      -1.029   0.543  -2.579  0.00  0.00     0.002 A 
ATOM      4  C5  UNL d   1       0.359   0.597  -2.419  0.00  0.00    -0.080 A 
ATOM      5  C6  UNL d   1       1.274  -0.135  -3.355  0.00  0.00     0.076 C 
ATOM      6  C7  UNL d   1       0.893   1.344  -1.363  0.00  0.00     0.002 A 
ATOM      7  C8  UNL d   1       0.052   2.007  -0.468  0.00  0.00     0.006 A 
ENDROOT
BRANCH   1   8
ATOM      8  C1  UNL d   1      -2.246   2.602   0.388  0.00  0.00     0.054 C 
ATOM      9  C   UNL d   1      -1.812   2.292   1.814  0.00  0.00     0.018 C 
ENDBRANCH   1   8
TORSDOF 1
ENDMDL
