MODEL 1
REMARK minimizedAffinity 2.99226809
REMARK minimizedRMSD -1
REMARK  1 active torsions:
REMARK  status: ('A' for Active; 'I' for Inactive)
REMARK    1  A    between atoms: C1_2  and  C2_3 
ROOT
ATOM      1  C2  UNL d   1       4.207  -3.273  -2.255  0.00  0.00    -0.081 A 
ATOM      2  C3  UNL d   1       5.564  -3.005  -2.040  0.00  0.00     0.006 A 
ATOM      3  C4  UNL d   1       6.000  -2.496  -0.814  0.00  0.00     0.002 A 
ATOM      4  C5  UNL d   1       5.088  -2.255   0.219  0.00  0.00    -0.080 A 
ATOM      5  C6  UNL d   1       5.546  -1.737   1.550  0.00  0.00     0.076 C 
ATOM      6  C7  UNL d   1       3.729  -2.506  -0.002  0.00  0.00     0.002 A 
ATOM      7  C8  UNL d   1       3.293  -3.014  -1.228  0.00  0.00     0.006 A 
ENDROOT
BRANCH   1   8
ATOM      8  C1  UNL d   1       3.743  -3.883  -3.553  0.00  0.00     0.054 C 
ATOM      9  C   UNL d   1       3.368  -5.347  -3.374  0.00  0.00     0.018 C 
ENDBRANCH   1   8
TORSDOF 1
ENDMDL
