MODEL 1
REMARK minimizedAffinity 7.23153543
REMARK minimizedRMSD -1
REMARK  1 active torsions:
REMARK  status: ('A' for Active; 'I' for Inactive)
REMARK    1  A    between atoms: C1_2  and  C2_3 
ROOT
ATOM      1  C2  UNL d   1       4.445  -2.192  -1.001  0.00  0.00    -0.081 A 
ATOM      2  C3  UNL d   1       3.263  -1.827  -0.346  0.00  0.00     0.006 A 
ATOM      3  C4  UNL d   1       2.076  -2.524  -0.584  0.00  0.00     0.002 A 
ATOM      4  C5  UNL d   1       2.054  -3.602  -1.475  0.00  0.00    -0.080 A 
ATOM      5  C6  UNL d   1       0.793  -4.379  -1.717  0.00  0.00     0.076 C 
ATOM      6  C7  UNL d   1       3.231  -3.957  -2.142  0.00  0.00     0.002 A 
ATOM      7  C8  UNL d   1       4.417  -3.260  -1.905  0.00  0.00     0.006 A 
ENDROOT
BRANCH   1   8
ATOM      8  C1  UNL d   1       5.741  -1.484  -0.697  0.00  0.00     0.054 C 
ATOM      9  C   UNL d   1       5.986  -1.399   0.803  0.00  0.00     0.018 C 
ENDBRANCH   1   8
TORSDOF 1
ENDMDL
