MODEL 1
REMARK minimizedAffinity 8.57963085
REMARK minimizedRMSD -1
REMARK  1 active torsions:
REMARK  status: ('A' for Active; 'I' for Inactive)
REMARK    1  A    between atoms: C1_2  and  C2_3 
ROOT
ATOM      1  C2  UNL d   1      -1.167  -0.506   2.957  0.00  0.00    -0.081 A 
ATOM      2  C3  UNL d   1       0.090  -0.351   3.555  0.00  0.00     0.006 A 
ATOM      3  C4  UNL d   1       0.672   0.915   3.662  0.00  0.00     0.002 A 
ATOM      4  C5  UNL d   1       0.005   2.046   3.179  0.00  0.00    -0.080 A 
ATOM      5  C6  UNL d   1       0.605   3.414   3.315  0.00  0.00     0.076 C 
ATOM      6  C7  UNL d   1      -1.243   1.888   2.566  0.00  0.00     0.002 A 
ATOM      7  C8  UNL d   1      -1.825   0.623   2.458  0.00  0.00     0.006 A 
ENDROOT
BRANCH   1   8
ATOM      8  C1  UNL d   1      -1.825  -1.861   2.898  0.00  0.00     0.054 C 
ATOM      9  C   UNL d   1      -1.737  -2.577   4.238  0.00  0.00     0.018 C 
ENDBRANCH   1   8
TORSDOF 1
ENDMDL
