MODEL 1
REMARK minimizedAffinity 12.1856642
REMARK minimizedRMSD -1
REMARK  1 active torsions:
REMARK  status: ('A' for Active; 'I' for Inactive)
REMARK    1  A    between atoms: C1_2  and  C2_3 
ROOT
ATOM      1  C2  UNL d   1      -1.326  -0.394   3.264  0.00  0.00    -0.081 A 
ATOM      2  C3  UNL d   1      -2.190   0.619   2.831  0.00  0.00     0.006 A 
ATOM      3  C4  UNL d   1      -1.695   1.717   2.123  0.00  0.00     0.002 A 
ATOM      4  C5  UNL d   1      -0.331   1.817   1.831  0.00  0.00    -0.080 A 
ATOM      5  C6  UNL d   1       0.209   2.976   1.047  0.00  0.00     0.076 C 
ATOM      6  C7  UNL d   1       0.535   0.814   2.280  0.00  0.00     0.002 A 
ATOM      7  C8  UNL d   1       0.041  -0.284   2.988  0.00  0.00     0.006 A 
ENDROOT
BRANCH   1   8
ATOM      8  C1  UNL d   1      -1.865  -1.611   3.971  0.00  0.00     0.054 C 
ATOM      9  C   UNL d   1      -0.879  -2.769   3.910  0.00  0.00     0.018 C 
ENDBRANCH   1   8
TORSDOF 1
ENDMDL
