MODEL 1
REMARK minimizedAffinity -4.25297308
REMARK minimizedRMSD -1
REMARK  0 active torsions:
REMARK  status: ('A' for Active; 'I' for Inactive)
ROOT
ATOM      1  N1  IND d   1      -1.207  -0.433   2.237  0.00  0.00    -0.196 N 
ATOM      2  C2  IND d   1      -0.985  -1.360   3.217  0.00  0.00     0.054 A 
ATOM      3  C3  IND d   1       0.151  -2.048   2.966  0.00  0.00    -0.031 A 
ATOM      4  C4  IND d   1       1.855  -1.751   1.059  0.00  0.00     0.051 A 
ATOM      5  C5  IND d   1       2.066  -1.056  -0.099  0.00  0.00    -0.031 A 
ATOM      6  C6  IND d   1       1.180  -0.097  -0.545  0.00  0.00     0.015 A 
ATOM      7  C7  IND d   1       0.051   0.213   0.159  0.00  0.00    -0.016 A 
ATOM      8  C8  IND d   1      -0.170  -0.496   1.332  0.00  0.00    -0.047 A 
ATOM      9  C9  IND d   1       0.704  -1.500   1.768  0.00  0.00    -0.096 A 
ATOM     10  HN1 IND d   1      -1.881   0.099   2.193  0.00  0.00     0.298 HD
ENDROOT
TORSDOF 0
ENDMDL
