MODEL 1
REMARK minimizedAffinity -2.5436573
REMARK minimizedRMSD -1
REMARK  0 active torsions:
REMARK  status: ('A' for Active; 'I' for Inactive)
ROOT
ATOM      1  N1  IND d   1      -1.873   0.438   0.495  0.00  0.00    -0.196 N 
ATOM      2  C2  IND d   1      -1.566   1.573  -0.202  0.00  0.00     0.054 A 
ATOM      3  C3  IND d   1      -0.279   1.537  -0.616  0.00  0.00    -0.031 A 
ATOM      4  C4  IND d   1       1.473  -0.330  -0.348  0.00  0.00     0.051 A 
ATOM      5  C5  IND d   1       1.671  -1.544   0.247  0.00  0.00    -0.031 A 
ATOM      6  C6  IND d   1       0.677  -2.174   0.967  0.00  0.00     0.015 A 
ATOM      7  C7  IND d   1      -0.561  -1.615   1.111  0.00  0.00    -0.016 A 
ATOM      8  C8  IND d   1      -0.764  -0.379   0.514  0.00  0.00    -0.047 A 
ATOM      9  C9  IND d   1       0.254   0.284  -0.183  0.00  0.00    -0.096 A 
ATOM     10  HN1 IND d   1      -2.632   0.263   0.861  0.00  0.00     0.298 HD
ENDROOT
TORSDOF 0
ENDMDL
