MODEL 1
REMARK minimizedAffinity -1.65557313
REMARK minimizedRMSD -1
REMARK  0 active torsions:
REMARK  status: ('A' for Active; 'I' for Inactive)
ROOT
ATOM      1  N1  IND d   1      -1.313   0.767   0.140  0.00  0.00    -0.196 N 
ATOM      2  C2  IND d   1      -1.866   0.157   1.231  0.00  0.00     0.054 A 
ATOM      3  C3  IND d   1      -0.969  -0.673   1.810  0.00  0.00    -0.031 A 
ATOM      4  C4  IND d   1       1.493  -1.106   1.195  0.00  0.00     0.051 A 
ATOM      5  C5  IND d   1       2.437  -0.807   0.253  0.00  0.00    -0.031 A 
ATOM      6  C6  IND d   1       2.174   0.052  -0.794  0.00  0.00     0.015 A 
ATOM      7  C7  IND d   1       0.956   0.655  -0.933  0.00  0.00    -0.016 A 
ATOM      8  C8  IND d   1      -0.007   0.348   0.018  0.00  0.00    -0.047 A 
ATOM      9  C9  IND d   1       0.240  -0.556   1.059  0.00  0.00    -0.096 A 
ATOM     10  HN1 IND d   1      -1.714   1.320  -0.382  0.00  0.00     0.298 HD
ENDROOT
TORSDOF 0
ENDMDL
