MODEL 1
REMARK minimizedAffinity -4.32572985
REMARK minimizedRMSD -1
REMARK  0 active torsions:
REMARK  status: ('A' for Active; 'I' for Inactive)
ROOT
ATOM      1  N1  IND d   1      -2.249   0.880  -0.163  0.00  0.00    -0.196 N 
ATOM      2  C2  IND d   1      -2.166   1.480  -1.388  0.00  0.00     0.054 A 
ATOM      3  C3  IND d   1      -0.966   1.227  -1.957  0.00  0.00    -0.031 A 
ATOM      4  C4  IND d   1       0.974  -0.233  -1.099  0.00  0.00     0.051 A 
ATOM      5  C5  IND d   1       1.378  -0.958  -0.013  0.00  0.00    -0.031 A 
ATOM      6  C6  IND d   1       0.577  -1.112   1.100  0.00  0.00     0.015 A 
ATOM      7  C7  IND d   1      -0.668  -0.555   1.164  0.00  0.00    -0.016 A 
ATOM      8  C8  IND d   1      -1.080   0.188   0.066  0.00  0.00    -0.047 A 
ATOM      9  C9  IND d   1      -0.254   0.383  -1.049  0.00  0.00    -0.096 A 
ATOM     10  HN1 IND d   1      -2.918   0.926   0.374  0.00  0.00     0.298 HD
ENDROOT
TORSDOF 0
ENDMDL
