MODEL 1
REMARK minimizedAffinity -4.07696486
REMARK minimizedRMSD -1
REMARK  0 active torsions:
REMARK  status: ('A' for Active; 'I' for Inactive)
ROOT
ATOM      1  N1  IND d   1       1.681  -1.773   1.208  0.00  0.00    -0.196 N 
ATOM      2  C2  IND d   1       2.281  -1.603  -0.008  0.00  0.00     0.054 A 
ATOM      3  C3  IND d   1       1.590  -0.710  -0.753  0.00  0.00    -0.031 A 
ATOM      4  C4  IND d   1      -0.495   0.669  -0.136  0.00  0.00     0.051 A 
ATOM      5  C5  IND d   1      -1.425   0.831   0.852  0.00  0.00    -0.031 A 
ATOM      6  C6  IND d   1      -1.366   0.121   2.033  0.00  0.00     0.015 A 
ATOM      7  C7  IND d   1      -0.362  -0.773   2.277  0.00  0.00    -0.016 A 
ATOM      8  C8  IND d   1       0.581  -0.946   1.274  0.00  0.00    -0.047 A 
ATOM      9  C9  IND d   1       0.502  -0.259   0.055  0.00  0.00    -0.096 A 
ATOM     10  HN1 IND d   1       1.945  -2.307   1.827  0.00  0.00     0.298 HD
ENDROOT
TORSDOF 0
ENDMDL
