MODEL 1
REMARK minimizedAffinity -4.50484848
REMARK minimizedRMSD -1
REMARK  0 active torsions:
REMARK  status: ('A' for Active; 'I' for Inactive)
ROOT
ATOM      1  N1  IND d   1       1.021  -1.175   1.915  0.00  0.00    -0.196 N 
ATOM      2  C2  IND d   1       2.281  -1.374   1.423  0.00  0.00     0.054 A 
ATOM      3  C3  IND d   1       2.301  -1.180   0.086  0.00  0.00    -0.031 A 
ATOM      4  C4  IND d   1       0.404  -0.433  -1.487  0.00  0.00     0.051 A 
ATOM      5  C5  IND d   1      -0.936  -0.165  -1.506  0.00  0.00    -0.031 A 
ATOM      6  C6  IND d   1      -1.707  -0.218  -0.363  0.00  0.00     0.015 A 
ATOM      7  C7  IND d   1      -1.162  -0.532   0.850  0.00  0.00    -0.016 A 
ATOM      8  C8  IND d   1       0.197  -0.812   0.872  0.00  0.00    -0.047 A 
ATOM      9  C9  IND d   1       0.976  -0.801  -0.292  0.00  0.00    -0.096 A 
ATOM     10  HN1 IND d   1       0.783  -1.263   2.736  0.00  0.00     0.298 HD
ENDROOT
TORSDOF 0
ENDMDL
