MODEL 1
REMARK minimizedAffinity -0.947687089
REMARK minimizedRMSD -1
REMARK  0 active torsions:
REMARK  status: ('A' for Active; 'I' for Inactive)
ROOT
ATOM      1  N1  IND d   1      -2.863   0.002  -2.166  0.00  0.00    -0.196 N 
ATOM      2  C2  IND d   1      -2.594   0.823  -3.226  0.00  0.00     0.054 A 
ATOM      3  C3  IND d   1      -1.515   1.593  -2.962  0.00  0.00    -0.031 A 
ATOM      4  C4  IND d   1       0.023   1.602  -0.897  0.00  0.00     0.051 A 
ATOM      5  C5  IND d   1       0.159   1.053   0.347  0.00  0.00    -0.031 A 
ATOM      6  C6  IND d   1      -0.722   0.105   0.826  0.00  0.00     0.015 A 
ATOM      7  C7  IND d   1      -1.769  -0.341   0.070  0.00  0.00    -0.016 A 
ATOM      8  C8  IND d   1      -1.914   0.220  -1.191  0.00  0.00    -0.047 A 
ATOM      9  C9  IND d   1      -1.049   1.213  -1.666  0.00  0.00    -0.096 A 
ATOM     10  HN1 IND d   1      -3.514  -0.557  -2.117  0.00  0.00     0.298 HD
ENDROOT
TORSDOF 0
ENDMDL
