MODEL 1
REMARK minimizedAffinity -5.66546154
REMARK minimizedRMSD -1
REMARK  0 active torsions:
REMARK  status: ('A' for Active; 'I' for Inactive)
ROOT
ATOM      1  N1  IND d   1       0.479  -0.096  -0.839  0.00  0.00    -0.196 N 
ATOM      2  C2  IND d   1       0.126  -1.026   0.099  0.00  0.00     0.054 A 
ATOM      3  C3  IND d   1      -1.199  -0.954   0.358  0.00  0.00    -0.031 A 
ATOM      4  C4  IND d   1      -2.995   0.546  -0.715  0.00  0.00     0.051 A 
ATOM      5  C5  IND d   1      -3.150   1.582  -1.593  0.00  0.00    -0.031 A 
ATOM      6  C6  IND d   1      -2.082   2.119  -2.282  0.00  0.00     0.015 A 
ATOM      7  C7  IND d   1      -0.815   1.632  -2.125  0.00  0.00    -0.016 A 
ATOM      8  C8  IND d   1      -0.653   0.586  -1.228  0.00  0.00    -0.047 A 
ATOM      9  C9  IND d   1      -1.727   0.064  -0.494  0.00  0.00    -0.096 A 
ATOM     10  HN1 IND d   1       1.274   0.040  -1.136  0.00  0.00     0.298 HD
ENDROOT
TORSDOF 0
ENDMDL
