MODEL 1
REMARK minimizedAffinity 7.14405584
REMARK minimizedRMSD -1
REMARK  0 active torsions:
REMARK  status: ('A' for Active; 'I' for Inactive)
ROOT
ATOM      1  N1  IND d   1      -1.877  -0.208  -0.555  0.00  0.00    -0.196 N 
ATOM      2  C2  IND d   1      -2.569  -0.911   0.392  0.00  0.00     0.054 A 
ATOM      3  C3  IND d   1      -3.854  -1.080   0.007  0.00  0.00    -0.031 A 
ATOM      4  C4  IND d   1      -5.012  -0.376  -2.181  0.00  0.00     0.051 A 
ATOM      5  C5  IND d   1      -4.799   0.323  -3.336  0.00  0.00    -0.031 A 
ATOM      6  C6  IND d   1      -3.576   0.890  -3.630  0.00  0.00     0.015 A 
ATOM      7  C7  IND d   1      -2.512   0.769  -2.782  0.00  0.00    -0.016 A 
ATOM      8  C8  IND d   1      -2.726   0.065  -1.605  0.00  0.00    -0.047 A 
ATOM      9  C9  IND d   1      -3.977  -0.476  -1.281  0.00  0.00    -0.096 A 
ATOM     10  HN1 IND d   1      -1.051   0.023  -0.504  0.00  0.00     0.298 HD
ENDROOT
TORSDOF 0
ENDMDL
