MODEL 1
REMARK minimizedAffinity 8.88228798
REMARK minimizedRMSD -1
REMARK  0 active torsions:
REMARK  status: ('A' for Active; 'I' for Inactive)
ROOT
ATOM      1  N1  IND d   1      -2.875  -4.191   1.021  0.00  0.00    -0.196 N 
ATOM      2  C2  IND d   1      -2.430  -4.982  -0.001  0.00  0.00     0.054 A 
ATOM      3  C3  IND d   1      -1.393  -4.392  -0.635  0.00  0.00    -0.031 A 
ATOM      4  C4  IND d   1      -0.197  -2.175  -0.102  0.00  0.00     0.051 A 
ATOM      5  C5  IND d   1      -0.267  -1.083   0.717  0.00  0.00    -0.031 A 
ATOM      6  C6  IND d   1      -1.228  -0.971   1.701  0.00  0.00     0.015 A 
ATOM      7  C7  IND d   1      -2.151  -1.955   1.911  0.00  0.00    -0.016 A 
ATOM      8  C8  IND d   1      -2.088  -3.062   1.077  0.00  0.00    -0.047 A 
ATOM      9  C9  IND d   1      -1.142  -3.163   0.048  0.00  0.00    -0.096 A 
ATOM     10  HN1 IND d   1      -3.536  -4.368   1.542  0.00  0.00     0.298 HD
ENDROOT
TORSDOF 0
ENDMDL
