MODEL 1
REMARK minimizedAffinity 3.07398653
REMARK minimizedRMSD -1
REMARK  0 active torsions:
REMARK  status: ('A' for Active; 'I' for Inactive)
ROOT
ATOM      1  N1  IND d   1       0.120  -1.012   3.259  0.00  0.00    -0.196 N 
ATOM      2  C2  IND d   1       0.886  -1.705   4.155  0.00  0.00     0.054 A 
ATOM      3  C3  IND d   1       2.094  -1.990   3.619  0.00  0.00    -0.031 A 
ATOM      4  C4  IND d   1       3.065  -1.330   1.328  0.00  0.00     0.051 A 
ATOM      5  C5  IND d   1       2.729  -0.726   0.149  0.00  0.00    -0.031 A 
ATOM      6  C6  IND d   1       1.481  -0.173  -0.057  0.00  0.00     0.015 A 
ATOM      7  C7  IND d   1       0.523  -0.193   0.917  0.00  0.00    -0.016 A 
ATOM      8  C8  IND d   1       0.859  -0.812   2.113  0.00  0.00    -0.047 A 
ATOM      9  C9  IND d   1       2.109  -1.412   2.313  0.00  0.00    -0.096 A 
ATOM     10  HN1 IND d   1      -0.687  -0.746   3.388  0.00  0.00     0.298 HD
ENDROOT
TORSDOF 0
ENDMDL
