MODEL 1
REMARK minimizedAffinity -2.34119296
REMARK minimizedRMSD -1
REMARK  0 active torsions:
REMARK  status: ('A' for Active; 'I' for Inactive)
ROOT
ATOM      1  N1  IND d   1       0.823   1.098  -0.315  0.00  0.00    -0.196 N 
ATOM      2  C2  IND d   1       1.915   1.169  -1.134  0.00  0.00     0.054 A 
ATOM      3  C3  IND d   1       2.801   0.196  -0.823  0.00  0.00    -0.031 A 
ATOM      4  C4  IND d   1       2.617  -1.683   0.927  0.00  0.00     0.051 A 
ATOM      5  C5  IND d   1       1.820  -2.138   1.940  0.00  0.00    -0.031 A 
ATOM      6  C6  IND d   1       0.625  -1.526   2.258  0.00  0.00     0.015 A 
ATOM      7  C7  IND d   1       0.174  -0.439   1.564  0.00  0.00    -0.016 A 
ATOM      8  C8  IND d   1       0.984   0.030   0.539  0.00  0.00    -0.047 A 
ATOM      9  C9  IND d   1       2.219  -0.561   0.239  0.00  0.00    -0.096 A 
ATOM     10  HN1 IND d   1       0.149   1.632  -0.331  0.00  0.00     0.298 HD
ENDROOT
TORSDOF 0
ENDMDL
