MODEL 1
REMARK minimizedAffinity -6.67229557
REMARK minimizedRMSD -1
REMARK  0 active torsions:
REMARK  status: ('A' for Active; 'I' for Inactive)
ROOT
ATOM      1  N1  IND d   1      -1.481   0.012   2.267  0.00  0.00    -0.196 N 
ATOM      2  C2  IND d   1      -1.472   0.957   1.280  0.00  0.00     0.054 A 
ATOM      3  C3  IND d   1      -0.486   0.700   0.392  0.00  0.00    -0.031 A 
ATOM      4  C4  IND d   1       1.166  -1.272   0.307  0.00  0.00     0.051 A 
ATOM      5  C5  IND d   1       1.569  -2.371   1.013  0.00  0.00    -0.031 A 
ATOM      6  C6  IND d   1       0.961  -2.741   2.195  0.00  0.00     0.015 A 
ATOM      7  C7  IND d   1      -0.084  -2.029   2.712  0.00  0.00    -0.016 A 
ATOM      8  C8  IND d   1      -0.490  -0.908   2.002  0.00  0.00    -0.047 A 
ATOM      9  C9  IND d   1       0.150  -0.504   0.824  0.00  0.00    -0.096 A 
ATOM     10  HN1 IND d   1      -2.015  -0.006   2.941  0.00  0.00     0.298 HD
ENDROOT
TORSDOF 0
ENDMDL
