MODEL 1
REMARK minimizedAffinity 1.0797478
REMARK minimizedRMSD -1
REMARK  0 active torsions:
REMARK  status: ('A' for Active; 'I' for Inactive)
ROOT
ATOM      1  N1  IND d   1      -0.611  -0.528   1.972  0.00  0.00    -0.196 N 
ATOM      2  C2  IND d   1      -1.466   0.486   1.638  0.00  0.00     0.054 A 
ATOM      3  C3  IND d   1      -0.877   1.326   0.757  0.00  0.00    -0.031 A 
ATOM      4  C4  IND d   1       1.444   1.174  -0.347  0.00  0.00     0.051 A 
ATOM      5  C5  IND d   1       2.600   0.445  -0.329  0.00  0.00    -0.031 A 
ATOM      6  C6  IND d   1       2.746  -0.670   0.471  0.00  0.00     0.015 A 
ATOM      7  C7  IND d   1       1.734  -1.106   1.278  0.00  0.00    -0.016 A 
ATOM      8  C8  IND d   1       0.561  -0.364   1.268  0.00  0.00    -0.047 A 
ATOM      9  C9  IND d   1       0.422   0.793   0.490  0.00  0.00    -0.096 A 
ATOM     10  HN1 IND d   1      -0.778  -1.162   2.529  0.00  0.00     0.298 HD
ENDROOT
TORSDOF 0
ENDMDL
