MODEL 1
REMARK minimizedAffinity -1.29367375
REMARK minimizedRMSD -1
REMARK  0 active torsions:
REMARK  status: ('A' for Active; 'I' for Inactive)
ROOT
ATOM      1  N1  IND d   1      -0.452   2.404  -2.016  0.00  0.00    -0.196 N 
ATOM      2  C2  IND d   1      -1.274   2.283  -3.102  0.00  0.00     0.054 A 
ATOM      3  C3  IND d   1      -2.196   1.317  -2.889  0.00  0.00    -0.031 A 
ATOM      4  C4  IND d   1      -2.604  -0.121  -0.793  0.00  0.00     0.051 A 
ATOM      5  C5  IND d   1      -2.086  -0.397   0.441  0.00  0.00    -0.031 A 
ATOM      6  C6  IND d   1      -0.976   0.261   0.930  0.00  0.00     0.015 A 
ATOM      7  C7  IND d   1      -0.347   1.233   0.205  0.00  0.00    -0.016 A 
ATOM      8  C8  IND d   1      -0.866   1.511  -1.052  0.00  0.00    -0.047 A 
ATOM      9  C9  IND d   1      -1.966   0.816  -1.571  0.00  0.00    -0.096 A 
ATOM     10  HN1 IND d   1       0.211   2.946  -1.948  0.00  0.00     0.298 HD
ENDROOT
TORSDOF 0
ENDMDL
