MODEL 1
REMARK minimizedAffinity 14.65096
REMARK minimizedRMSD -1
REMARK  0 active torsions:
REMARK  status: ('A' for Active; 'I' for Inactive)
ROOT
ATOM      1  C   UNL d   1       4.319  -1.905  -0.291  0.00  0.00     0.020 A 
ATOM      2  C1  UNL d   1       2.993  -1.868   0.138  0.00  0.00     0.020 A 
ATOM      3  C2  UNL d   1       2.550  -2.761   1.116  0.00  0.00     0.034 A 
ATOM      4  C3  UNL d   1       3.434  -3.695   1.669  0.00  0.00     0.017 A 
ATOM      5  C4  UNL d   1       4.765  -3.732   1.237  0.00  0.00     0.017 A 
ATOM      6  C5  UNL d   1       5.203  -2.835   0.258  0.00  0.00     0.034 A 
ATOM      7 Cl   UNL d   1       5.914  -4.856   1.872  0.00  0.00    -0.070 Cl
ATOM      8 Cl1  UNL d   1       2.818  -4.768   2.874  0.00  0.00    -0.070 Cl
ENDROOT
TORSDOF 0
ENDMDL
