MODEL 1
REMARK minimizedAffinity 8.65211868
REMARK minimizedRMSD -1
REMARK  0 active torsions:
REMARK  status: ('A' for Active; 'I' for Inactive)
ROOT
ATOM      1  C   UNL d   1      -2.019  -2.669   0.393  0.00  0.00     0.020 A 
ATOM      2  C1  UNL d   1      -1.521  -3.908  -0.007  0.00  0.00     0.020 A 
ATOM      3  C2  UNL d   1      -0.220  -4.282   0.338  0.00  0.00     0.034 A 
ATOM      4  C3  UNL d   1       0.586  -3.416   1.085  0.00  0.00     0.017 A 
ATOM      5  C4  UNL d   1       0.085  -2.173   1.487  0.00  0.00     0.017 A 
ATOM      6  C5  UNL d   1      -1.218  -1.803   1.139  0.00  0.00     0.034 A 
ATOM      7 Cl   UNL d   1       1.020  -1.051   2.410  0.00  0.00    -0.070 Cl
ATOM      8 Cl1  UNL d   1       2.185  -3.944   1.476  0.00  0.00    -0.070 Cl
ENDROOT
TORSDOF 0
ENDMDL
