MODEL 1
REMARK minimizedAffinity 6.48482895
REMARK minimizedRMSD -1
REMARK  0 active torsions:
REMARK  status: ('A' for Active; 'I' for Inactive)
ROOT
ATOM      1  C   UNL d   1       5.115  -5.023  -2.693  0.00  0.00     0.020 A 
ATOM      2  C1  UNL d   1       5.695  -4.496  -1.539  0.00  0.00     0.020 A 
ATOM      3  C2  UNL d   1       4.885  -4.056  -0.489  0.00  0.00     0.034 A 
ATOM      4  C3  UNL d   1       3.492  -4.142  -0.591  0.00  0.00     0.017 A 
ATOM      5  C4  UNL d   1       2.911  -4.670  -1.750  0.00  0.00     0.017 A 
ATOM      6  C5  UNL d   1       3.726  -5.109  -2.798  0.00  0.00     0.034 A 
ATOM      7 Cl   UNL d   1       1.200  -4.808  -1.949  0.00  0.00    -0.070 Cl
ATOM      8 Cl1  UNL d   1       2.553  -3.579   0.745  0.00  0.00    -0.070 Cl
ENDROOT
TORSDOF 0
ENDMDL
