MODEL 1
REMARK minimizedAffinity 8.53768444
REMARK minimizedRMSD -1
REMARK  0 active torsions:
REMARK  status: ('A' for Active; 'I' for Inactive)
ROOT
ATOM      1  C   UNL d   1       2.117  -1.213   1.721  0.00  0.00     0.020 A 
ATOM      2  C1  UNL d   1       1.502  -0.407   2.678  0.00  0.00     0.020 A 
ATOM      3  C2  UNL d   1       1.376  -0.859   3.994  0.00  0.00     0.034 A 
ATOM      4  C3  UNL d   1       1.866  -2.120   4.355  0.00  0.00     0.017 A 
ATOM      5  C4  UNL d   1       2.483  -2.927   3.393  0.00  0.00     0.017 A 
ATOM      6  C5  UNL d   1       2.606  -2.470   2.077  0.00  0.00     0.034 A 
ATOM      7 Cl   UNL d   1       3.111  -4.494   3.763  0.00  0.00    -0.070 Cl
ATOM      8 Cl1  UNL d   1       1.676  -2.614   6.000  0.00  0.00    -0.070 Cl
ENDROOT
TORSDOF 0
ENDMDL
