MODEL 1
REMARK minimizedAffinity 14.5727968
REMARK minimizedRMSD -1
REMARK  0 active torsions:
REMARK  status: ('A' for Active; 'I' for Inactive)
ROOT
ATOM      1  C   UNL d   1       1.821  -1.471   1.700  0.00  0.00     0.020 A 
ATOM      2  C1  UNL d   1       1.202  -0.658   2.649  0.00  0.00     0.020 A 
ATOM      3  C2  UNL d   1       1.085  -1.093   3.971  0.00  0.00     0.034 A 
ATOM      4  C3  UNL d   1       1.585  -2.345   4.347  0.00  0.00     0.017 A 
ATOM      5  C4  UNL d   1       2.206  -3.160   3.394  0.00  0.00     0.017 A 
ATOM      6  C5  UNL d   1       2.321  -2.719   2.072  0.00  0.00     0.034 A 
ATOM      7 Cl   UNL d   1       2.848  -4.717   3.783  0.00  0.00    -0.070 Cl
ATOM      8 Cl1  UNL d   1       1.405  -2.818   5.999  0.00  0.00    -0.070 Cl
ENDROOT
TORSDOF 0
ENDMDL
