MODEL 1
REMARK minimizedAffinity 8.65878677
REMARK minimizedRMSD -1
REMARK  0 active torsions:
REMARK  status: ('A' for Active; 'I' for Inactive)
ROOT
ATOM      1  C   UNL d   1      -4.044   5.246  -4.874  0.00  0.00     0.020 A 
ATOM      2  C1  UNL d   1      -3.344   4.231  -5.525  0.00  0.00     0.020 A 
ATOM      3  C2  UNL d   1      -3.137   3.006  -4.887  0.00  0.00     0.034 A 
ATOM      4  C3  UNL d   1      -3.629   2.793  -3.594  0.00  0.00     0.017 A 
ATOM      5  C4  UNL d   1      -4.332   3.812  -2.942  0.00  0.00     0.017 A 
ATOM      6  C5  UNL d   1      -4.537   5.037  -3.585  0.00  0.00     0.034 A 
ATOM      7 Cl   UNL d   1      -4.970   3.624  -1.347  0.00  0.00    -0.070 Cl
ATOM      8 Cl1  UNL d   1      -3.336   1.253  -2.866  0.00  0.00    -0.070 Cl
ENDROOT
TORSDOF 0
ENDMDL
