MODEL 1
REMARK minimizedAffinity 14.4757271
REMARK minimizedRMSD -1
REMARK  0 active torsions:
REMARK  status: ('A' for Active; 'I' for Inactive)
ROOT
ATOM      1  C   UNL d   1      -5.132   5.252  -5.262  0.00  0.00     0.020 A 
ATOM      2  C1  UNL d   1      -4.120   4.469  -5.815  0.00  0.00     0.020 A 
ATOM      3  C2  UNL d   1      -3.673   3.330  -5.142  0.00  0.00     0.034 A 
ATOM      4  C3  UNL d   1      -4.238   2.971  -3.913  0.00  0.00     0.017 A 
ATOM      5  C4  UNL d   1      -5.254   3.758  -3.359  0.00  0.00     0.017 A 
ATOM      6  C5  UNL d   1      -5.698   4.897  -4.037  0.00  0.00     0.034 A 
ATOM      7 Cl   UNL d   1      -6.000   3.379  -1.846  0.00  0.00    -0.070 Cl
ATOM      8 Cl1  UNL d   1      -3.636   1.549  -3.137  0.00  0.00    -0.070 Cl
ENDROOT
TORSDOF 0
ENDMDL
