MODEL 1
REMARK minimizedAffinity 13.0929317
REMARK minimizedRMSD -1
REMARK  0 active torsions:
REMARK  status: ('A' for Active; 'I' for Inactive)
ROOT
ATOM      1  C   UNL d   1      -2.020  -5.087  -0.665  0.00  0.00     0.020 A 
ATOM      2  C1  UNL d   1      -2.058  -4.161   0.376  0.00  0.00     0.020 A 
ATOM      3  C2  UNL d   1      -0.885  -3.526   0.789  0.00  0.00     0.034 A 
ATOM      4  C3  UNL d   1       0.332  -3.816   0.161  0.00  0.00     0.017 A 
ATOM      5  C4  UNL d   1       0.369  -4.746  -0.885  0.00  0.00     0.017 A 
ATOM      6  C5  UNL d   1      -0.809  -5.379  -1.294  0.00  0.00     0.034 A 
ATOM      7 Cl   UNL d   1       1.832  -5.156  -1.709  0.00  0.00    -0.070 Cl
ATOM      8 Cl1  UNL d   1       1.743  -2.993   0.723  0.00  0.00    -0.070 Cl
ENDROOT
TORSDOF 0
ENDMDL
