MODEL 1
REMARK minimizedAffinity 7.89951658
REMARK minimizedRMSD -1
REMARK  0 active torsions:
REMARK  status: ('A' for Active; 'I' for Inactive)
ROOT
ATOM      1  C   UNL d   1       2.248  -3.377   5.999  0.00  0.00     0.020 A 
ATOM      2  C1  UNL d   1       2.497  -4.028   4.791  0.00  0.00     0.020 A 
ATOM      3  C2  UNL d   1       2.250  -3.373   3.583  0.00  0.00     0.034 A 
ATOM      4  C3  UNL d   1       1.753  -2.065   3.579  0.00  0.00     0.017 A 
ATOM      5  C4  UNL d   1       1.504  -1.413   4.792  0.00  0.00     0.017 A 
ATOM      6  C5  UNL d   1       1.753  -2.073   6.000  0.00  0.00     0.034 A 
ATOM      7 Cl   UNL d   1       0.891   0.201   4.869  0.00  0.00    -0.070 Cl
ATOM      8 Cl1  UNL d   1       1.471  -1.316   2.048  0.00  0.00    -0.070 Cl
ENDROOT
TORSDOF 0
ENDMDL
