MODEL 1
REMARK minimizedAffinity 4.13654995
REMARK minimizedRMSD -1
REMARK  0 active torsions:
REMARK  status: ('A' for Active; 'I' for Inactive)
ROOT
ATOM      1  C   UNL d   1      -4.644   5.688  -3.477  0.00  0.00     0.020 A 
ATOM      2  C1  UNL d   1      -4.962   4.954  -2.335  0.00  0.00     0.020 A 
ATOM      3  C2  UNL d   1      -4.676   3.588  -2.280  0.00  0.00     0.034 A 
ATOM      4  C3  UNL d   1      -4.070   2.952  -3.370  0.00  0.00     0.017 A 
ATOM      5  C4  UNL d   1      -3.751   3.690  -4.516  0.00  0.00     0.017 A 
ATOM      6  C5  UNL d   1      -4.040   5.057  -4.565  0.00  0.00     0.034 A 
ATOM      7 Cl   UNL d   1      -3.003   2.974  -5.899  0.00  0.00    -0.070 Cl
ATOM      8 Cl1  UNL d   1      -3.745   1.261  -3.233  0.00  0.00    -0.070 Cl
ENDROOT
TORSDOF 0
ENDMDL
