MODEL 1
REMARK minimizedAffinity 15.7279148
REMARK minimizedRMSD -1
REMARK  0 active torsions:
REMARK  status: ('A' for Active; 'I' for Inactive)
ROOT
ATOM      1  C   UNL d   1       1.582  -0.208   1.355  0.00  0.00     0.020 A 
ATOM      2  C1  UNL d   1       2.132  -1.228   0.580  0.00  0.00     0.020 A 
ATOM      3  C2  UNL d   1       2.371  -2.483   1.146  0.00  0.00     0.034 A 
ATOM      4  C3  UNL d   1       2.060  -2.720   2.490  0.00  0.00     0.017 A 
ATOM      5  C4  UNL d   1       1.508  -1.695   3.267  0.00  0.00     0.017 A 
ATOM      6  C5  UNL d   1       1.270  -0.441   2.695  0.00  0.00     0.034 A 
ATOM      7 Cl   UNL d   1       1.098  -1.911   4.931  0.00  0.00    -0.070 Cl
ATOM      8 Cl1  UNL d   1       2.382  -4.295   3.124  0.00  0.00    -0.070 Cl
ENDROOT
TORSDOF 0
ENDMDL
