MODEL 1
REMARK minimizedAffinity 1.39242685
REMARK minimizedRMSD -1
REMARK  0 active torsions:
REMARK  status: ('A' for Active; 'I' for Inactive)
ROOT
ATOM      1  C   UNL d   1      -4.508   4.856  -2.280  0.00  0.00     0.020 A 
ATOM      2  C1  UNL d   1      -4.270   5.525  -3.480  0.00  0.00     0.020 A 
ATOM      3  C2  UNL d   1      -3.892   4.807  -4.616  0.00  0.00     0.034 A 
ATOM      4  C3  UNL d   1      -3.751   3.415  -4.555  0.00  0.00     0.017 A 
ATOM      5  C4  UNL d   1      -3.990   2.745  -3.350  0.00  0.00     0.017 A 
ATOM      6  C5  UNL d   1      -4.368   3.469  -2.215  0.00  0.00     0.034 A 
ATOM      7 Cl   UNL d   1      -3.836   1.030  -3.197  0.00  0.00    -0.070 Cl
ATOM      8 Cl1  UNL d   1      -3.281   2.591  -5.999  0.00  0.00    -0.070 Cl
ENDROOT
TORSDOF 0
ENDMDL
