MODEL 1
REMARK minimizedAffinity 8.56800461
REMARK minimizedRMSD -1
REMARK  0 active torsions:
REMARK  status: ('A' for Active; 'I' for Inactive)
ROOT
ATOM      1  C   UNL d   1       2.388  -0.871   0.944  0.00  0.00     0.020 A 
ATOM      2  C1  UNL d   1       1.249  -1.325   1.607  0.00  0.00     0.020 A 
ATOM      3  C2  UNL d   1       1.095  -2.687   1.878  0.00  0.00     0.034 A 
ATOM      4  C3  UNL d   1       2.082  -3.598   1.484  0.00  0.00     0.017 A 
ATOM      5  C4  UNL d   1       3.225  -3.141   0.819  0.00  0.00     0.017 A 
ATOM      6  C5  UNL d   1       3.374  -1.777   0.551  0.00  0.00     0.034 A 
ATOM      7 Cl   UNL d   1       4.485  -4.206   0.302  0.00  0.00    -0.070 Cl
ATOM      8 Cl1  UNL d   1       1.826  -5.267   1.851  0.00  0.00    -0.070 Cl
ENDROOT
TORSDOF 0
ENDMDL
