MODEL 1
REMARK minimizedAffinity -3.5430634
REMARK minimizedRMSD -1
REMARK  1 active torsions:
REMARK  status: ('A' for Active; 'I' for Inactive)
REMARK    1  A    between atoms: C1_2  and  C2_3 
ROOT
ATOM      1  C2  UNL d   1      -1.067  -0.930   0.580  0.00  0.00    -0.081 A 
ATOM      2  C3  UNL d   1      -1.965  -0.753  -0.480  0.00  0.00     0.006 A 
ATOM      3  C4  UNL d   1      -1.512  -0.311  -1.726  0.00  0.00     0.002 A 
ATOM      4  C5  UNL d   1      -0.154  -0.046  -1.934  0.00  0.00    -0.080 A 
ATOM      5  C6  UNL d   1       0.350   0.400  -3.274  0.00  0.00     0.076 C 
ATOM      6  C7  UNL d   1       0.740  -0.206  -0.870  0.00  0.00     0.002 A 
ATOM      7  C8  UNL d   1       0.288  -0.648   0.375  0.00  0.00     0.006 A 
ENDROOT
BRANCH   1   8
ATOM      8  C1  UNL d   1      -1.542  -1.469   1.905  0.00  0.00     0.054 C 
ATOM      9  C   UNL d   1      -0.612  -2.555   2.426  0.00  0.00     0.018 C 
ENDBRANCH   1   8
TORSDOF 1
ENDMDL
