MODEL 1
REMARK minimizedAffinity -4.94942284
REMARK minimizedRMSD -1
REMARK  1 active torsions:
REMARK  status: ('A' for Active; 'I' for Inactive)
REMARK    1  A    between atoms: C1_2  and  C2_3 
ROOT
ATOM      1  C2  UNL d   1      -0.881  -1.308   0.709  0.00  0.00    -0.081 A 
ATOM      2  C3  UNL d   1      -2.182  -1.030   0.273  0.00  0.00     0.006 A 
ATOM      3  C4  UNL d   1      -2.396  -0.222  -0.846  0.00  0.00     0.002 A 
ATOM      4  C5  UNL d   1      -1.314   0.315  -1.551  0.00  0.00    -0.080 A 
ATOM      5  C6  UNL d   1      -1.529   1.160  -2.772  0.00  0.00     0.076 C 
ATOM      6  C7  UNL d   1      -0.014   0.052  -1.105  0.00  0.00     0.002 A 
ATOM      7  C8  UNL d   1       0.200  -0.756   0.014  0.00  0.00     0.006 A 
ENDROOT
BRANCH   1   8
ATOM      8  C1  UNL d   1      -0.645  -2.232   1.877  0.00  0.00     0.054 C 
ATOM      9  C   UNL d   1       0.831  -2.572   2.024  0.00  0.00     0.018 C 
ENDBRANCH   1   8
TORSDOF 1
ENDMDL
