MODEL 1
REMARK minimizedAffinity -2.28501678
REMARK minimizedRMSD -1
REMARK  1 active torsions:
REMARK  status: ('A' for Active; 'I' for Inactive)
REMARK    1  A    between atoms: C1_2  and  C2_3 
ROOT
ATOM      1  C2  UNL d   1       0.774  -0.163  -0.007  0.00  0.00    -0.081 A 
ATOM      2  C3  UNL d   1       0.100  -0.739   1.076  0.00  0.00     0.006 A 
ATOM      3  C4  UNL d   1      -1.283  -0.926   1.032  0.00  0.00     0.002 A 
ATOM      4  C5  UNL d   1      -2.014  -0.548  -0.100  0.00  0.00    -0.080 A 
ATOM      5  C6  UNL d   1      -3.496  -0.771  -0.173  0.00  0.00     0.076 C 
ATOM      6  C7  UNL d   1      -1.344   0.043  -1.176  0.00  0.00     0.002 A 
ATOM      7  C8  UNL d   1       0.040   0.231  -1.131  0.00  0.00     0.006 A 
ENDROOT
BRANCH   1   8
ATOM      8  C1  UNL d   1       2.275  -0.019   0.012  0.00  0.00     0.054 C 
ATOM      9  C   UNL d   1       2.691   1.375   0.457  0.00  0.00     0.018 C 
ENDBRANCH   1   8
TORSDOF 1
ENDMDL
