MODEL 1
REMARK minimizedAffinity -2.98858118
REMARK minimizedRMSD -1
REMARK  1 active torsions:
REMARK  status: ('A' for Active; 'I' for Inactive)
REMARK    1  A    between atoms: C1_2  and  C2_3 
ROOT
ATOM      1  C2  UNL d   1       3.833   3.504  -0.876  0.00  0.00    -0.081 A 
ATOM      2  C3  UNL d   1       3.408   2.274  -1.393  0.00  0.00     0.006 A 
ATOM      3  C4  UNL d   1       2.488   1.491  -0.692  0.00  0.00     0.002 A 
ATOM      4  C5  UNL d   1       1.971   1.928   0.532  0.00  0.00    -0.080 A 
ATOM      5  C6  UNL d   1       0.960   1.111   1.280  0.00  0.00     0.076 C 
ATOM      6  C7  UNL d   1       2.409   3.148   1.058  0.00  0.00     0.002 A 
ATOM      7  C8  UNL d   1       3.329   3.932   0.358  0.00  0.00     0.006 A 
ENDROOT
BRANCH   1   8
ATOM      8  C1  UNL d   1       4.775   4.381  -1.660  0.00  0.00     0.054 C 
ATOM      9  C   UNL d   1       5.430   3.610  -2.797  0.00  0.00     0.018 C 
ENDBRANCH   1   8
TORSDOF 1
ENDMDL
