MODEL 1
REMARK minimizedAffinity -5.86535072
REMARK minimizedRMSD -1
REMARK  1 active torsions:
REMARK  status: ('A' for Active; 'I' for Inactive)
REMARK    1  A    between atoms: C1_2  and  C2_3 
ROOT
ATOM      1  C2  UNL d   1       0.579  -0.385   0.060  0.00  0.00    -0.081 A 
ATOM      2  C3  UNL d   1      -0.315   0.357  -0.722  0.00  0.00     0.006 A 
ATOM      3  C4  UNL d   1      -1.680   0.062  -0.709  0.00  0.00     0.002 A 
ATOM      4  C5  UNL d   1      -2.175  -0.973   0.092  0.00  0.00    -0.080 A 
ATOM      5  C6  UNL d   1      -3.643  -1.279   0.138  0.00  0.00     0.076 C 
ATOM      6  C7  UNL d   1      -1.280  -1.725   0.859  0.00  0.00     0.002 A 
ATOM      7  C8  UNL d   1       0.085  -1.432   0.846  0.00  0.00     0.006 A 
ENDROOT
BRANCH   1   8
ATOM      8  C1  UNL d   1       2.043  -0.028   0.097  0.00  0.00     0.054 C 
ATOM      9  C   UNL d   1       2.244   1.468   0.288  0.00  0.00     0.018 C 
ENDBRANCH   1   8
TORSDOF 1
ENDMDL
