MODEL 1
REMARK minimizedAffinity -4.47490549
REMARK minimizedRMSD -1
REMARK  1 active torsions:
REMARK  status: ('A' for Active; 'I' for Inactive)
REMARK    1  A    between atoms: C1_2  and  C2_3 
ROOT
ATOM      1  C2  UNL d   1       1.136   0.805   0.098  0.00  0.00    -0.081 A 
ATOM      2  C3  UNL d   1       0.642   1.177  -1.158  0.00  0.00     0.006 A 
ATOM      3  C4  UNL d   1      -0.596   0.706  -1.600  0.00  0.00     0.002 A 
ATOM      4  C5  UNL d   1      -1.365  -0.137  -0.791  0.00  0.00    -0.080 A 
ATOM      5  C6  UNL d   1      -2.710  -0.625  -1.240  0.00  0.00     0.076 C 
ATOM      6  C7  UNL d   1      -0.863  -0.523   0.457  0.00  0.00     0.002 A 
ATOM      7  C8  UNL d   1       0.375  -0.053   0.899  0.00  0.00     0.006 A 
ENDROOT
BRANCH   1   8
ATOM      8  C1  UNL d   1       2.442   1.363   0.604  0.00  0.00     0.054 C 
ATOM      9  C   UNL d   1       2.340   2.858   0.868  0.00  0.00     0.018 C 
ENDBRANCH   1   8
TORSDOF 1
ENDMDL
