MODEL 1
REMARK minimizedAffinity -4.24363613
REMARK minimizedRMSD -1
REMARK  1 active torsions:
REMARK  status: ('A' for Active; 'I' for Inactive)
REMARK    1  A    between atoms: C1_2  and  C2_3 
ROOT
ATOM      1  C2  UNL d   1       3.662   3.503  -0.922  0.00  0.00    -0.081 A 
ATOM      2  C3  UNL d   1       3.571   4.136   0.323  0.00  0.00     0.006 A 
ATOM      3  C4  UNL d   1       3.166   3.422   1.453  0.00  0.00     0.002 A 
ATOM      4  C5  UNL d   1       2.853   2.062   1.358  0.00  0.00    -0.080 A 
ATOM      5  C6  UNL d   1       2.445   1.276   2.570  0.00  0.00     0.076 C 
ATOM      6  C7  UNL d   1       2.927   1.433   0.111  0.00  0.00     0.002 A 
ATOM      7  C8  UNL d   1       3.331   2.147  -1.019  0.00  0.00     0.006 A 
ENDROOT
BRANCH   1   8
ATOM      8  C1  UNL d   1       4.161   4.254  -2.130  0.00  0.00     0.054 C 
ATOM      9  C   UNL d   1       4.784   3.312  -3.150  0.00  0.00     0.018 C 
ENDBRANCH   1   8
TORSDOF 1
ENDMDL
