MODEL 1
REMARK minimizedAffinity -4.19348097
REMARK minimizedRMSD -1
REMARK  1 active torsions:
REMARK  status: ('A' for Active; 'I' for Inactive)
REMARK    1  A    between atoms: C1_2  and  C2_3 
ROOT
ATOM      1  C2  UNL d   1       1.363   0.588   0.003  0.00  0.00    -0.081 A 
ATOM      2  C3  UNL d   1       0.607   1.176  -1.018  0.00  0.00     0.006 A 
ATOM      3  C4  UNL d   1      -0.698   0.745  -1.272  0.00  0.00     0.002 A 
ATOM      4  C5  UNL d   1      -1.270  -0.274  -0.504  0.00  0.00    -0.080 A 
ATOM      5  C6  UNL d   1      -2.680  -0.725  -0.746  0.00  0.00     0.076 C 
ATOM      6  C7  UNL d   1      -0.509  -0.874   0.505  0.00  0.00     0.002 A 
ATOM      7  C8  UNL d   1       0.795  -0.444   0.759  0.00  0.00     0.006 A 
ENDROOT
BRANCH   1   8
ATOM      8  C1  UNL d   1       2.746   1.094   0.322  0.00  0.00     0.054 C 
ATOM      9  C   UNL d   1       3.046   2.388  -0.421  0.00  0.00     0.018 C 
ENDBRANCH   1   8
TORSDOF 1
ENDMDL
