MODEL 1
REMARK minimizedAffinity -3.59488797
REMARK minimizedRMSD -1
REMARK  1 active torsions:
REMARK  status: ('A' for Active; 'I' for Inactive)
REMARK    1  A    between atoms: C1_2  and  C2_3 
ROOT
ATOM      1  C2  UNL d   1       0.490   0.460  -0.453  0.00  0.00    -0.081 A 
ATOM      2  C3  UNL d   1      -0.424   0.554  -1.509  0.00  0.00     0.006 A 
ATOM      3  C4  UNL d   1      -1.730   0.082  -1.359  0.00  0.00     0.002 A 
ATOM      4  C5  UNL d   1      -2.145  -0.486  -0.150  0.00  0.00    -0.080 A 
ATOM      5  C6  UNL d   1      -3.553  -0.970   0.034  0.00  0.00     0.076 C 
ATOM      6  C7  UNL d   1      -1.226  -0.596   0.899  0.00  0.00     0.002 A 
ATOM      7  C8  UNL d   1       0.080  -0.124   0.750  0.00  0.00     0.006 A 
ENDROOT
BRANCH   1   8
ATOM      8  C1  UNL d   1       1.880   1.028  -0.590  0.00  0.00     0.054 C 
ATOM      9  C   UNL d   1       2.190   2.009   0.531  0.00  0.00     0.018 C 
ENDBRANCH   1   8
TORSDOF 1
ENDMDL
