MODEL 1
REMARK minimizedAffinity -5.05144119
REMARK minimizedRMSD -1
REMARK  1 active torsions:
REMARK  status: ('A' for Active; 'I' for Inactive)
REMARK    1  A    between atoms: C1_2  and  C2_3 
ROOT
ATOM      1  C2  UNL d   1       1.082   0.438   0.036  0.00  0.00    -0.081 A 
ATOM      2  C3  UNL d   1       0.453   0.841  -1.148  0.00  0.00     0.006 A 
ATOM      3  C4  UNL d   1      -0.852   0.432  -1.431  0.00  0.00     0.002 A 
ATOM      4  C5  UNL d   1      -1.552  -0.381  -0.533  0.00  0.00    -0.080 A 
ATOM      5  C6  UNL d   1      -2.964  -0.803  -0.811  0.00  0.00     0.076 C 
ATOM      6  C7  UNL d   1      -0.917  -0.799   0.641  0.00  0.00     0.002 A 
ATOM      7  C8  UNL d   1       0.388  -0.390   0.925  0.00  0.00     0.006 A 
ENDROOT
BRANCH   1   8
ATOM      8  C1  UNL d   1       2.466   0.930   0.375  0.00  0.00     0.054 C 
ATOM      9  C   UNL d   1       2.501   1.576   1.752  0.00  0.00     0.018 C 
ENDBRANCH   1   8
TORSDOF 1
ENDMDL
