MODEL 1
REMARK minimizedAffinity 10.8786774
REMARK minimizedRMSD -1
REMARK  2 active torsions:
REMARK  status: ('A' for Active; 'I' for Inactive)
REMARK    1  A    between atoms: C1_2  and  C2_3 
REMARK    2  A    between atoms: C2_3  and  C3_4 
ROOT
ATOM      1  C3  UNL d   1      -0.988   3.377  -5.540  0.00  0.00    -0.075 A 
ATOM      2  C4  UNL d   1      -0.006   2.487  -6.000  0.00  0.00     0.002 A 
ATOM      3  C5  UNL d   1      -0.013   1.153  -5.593  0.00  0.00     0.002 A 
ATOM      4  C6  UNL d   1      -0.993   0.694  -4.716  0.00  0.00    -0.004 A 
ATOM      5  C7  UNL d   1      -1.964   1.572  -4.240  0.00  0.00     0.002 A 
ATOM      6  C8  UNL d   1      -1.962   2.907  -4.649  0.00  0.00     0.002 A 
ENDROOT
BRANCH   1   7
ATOM      7  C2  UNL d   1      -1.003   4.815  -6.000  0.00  0.00     0.056 C 
BRANCH   7   8
ATOM      8  C1  UNL d   1      -1.977   5.708  -5.223  0.00  0.00     0.007 C 
ATOM      9  C   UNL d   1      -3.262   6.000  -5.986  0.00  0.00     0.009 C 
ENDBRANCH   7   8
ENDBRANCH   1   7
TORSDOF 2
ENDMDL
