MODEL 1
REMARK minimizedAffinity 3.77338076
REMARK minimizedRMSD -1
REMARK  2 active torsions:
REMARK  status: ('A' for Active; 'I' for Inactive)
REMARK    1  A    between atoms: C1_2  and  C2_3 
REMARK    2  A    between atoms: C2_3  and  C3_4 
ROOT
ATOM      1  C3  UNL d   1      -2.028  -3.518   0.278  0.00  0.00    -0.075 A 
ATOM      2  C4  UNL d   1      -2.667  -2.782  -0.730  0.00  0.00     0.002 A 
ATOM      3  C5  UNL d   1      -3.502  -3.418  -1.649  0.00  0.00     0.002 A 
ATOM      4  C6  UNL d   1      -3.701  -4.795  -1.578  0.00  0.00    -0.004 A 
ATOM      5  C7  UNL d   1      -3.058  -5.538  -0.591  0.00  0.00     0.002 A 
ATOM      6  C8  UNL d   1      -2.225  -4.904   0.333  0.00  0.00     0.002 A 
ENDROOT
BRANCH   1   7
ATOM      7  C2  UNL d   1      -1.146  -2.831   1.294  0.00  0.00     0.056 C 
BRANCH   7   8
ATOM      8  C1  UNL d   1      -1.108  -1.306   1.157  0.00  0.00     0.007 C 
ATOM      9  C   UNL d   1       0.260  -0.773   0.750  0.00  0.00     0.009 C 
ENDBRANCH   7   8
ENDBRANCH   1   7
TORSDOF 2
ENDMDL
