MODEL 1
REMARK minimizedAffinity 0.572991431
REMARK minimizedRMSD -1
REMARK  2 active torsions:
REMARK  status: ('A' for Active; 'I' for Inactive)
REMARK    1  A    between atoms: C1_2  and  C2_3 
REMARK    2  A    between atoms: C2_3  and  C3_4 
ROOT
ATOM      1  C3  UNL d   1      -0.280  -0.823   0.157  0.00  0.00    -0.075 A 
ATOM      2  C4  UNL d   1      -0.304   0.062   1.244  0.00  0.00     0.002 A 
ATOM      3  C5  UNL d   1      -0.355   1.441   1.035  0.00  0.00     0.002 A 
ATOM      4  C6  UNL d   1      -0.372   1.951  -0.261  0.00  0.00    -0.004 A 
ATOM      5  C7  UNL d   1      -0.331   1.082  -1.349  0.00  0.00     0.002 A 
ATOM      6  C8  UNL d   1      -0.285  -0.298  -1.143  0.00  0.00     0.002 A 
ENDROOT
BRANCH   1   7
ATOM      7  C2  UNL d   1      -0.255  -2.316   0.376  0.00  0.00     0.056 C 
BRANCH   7   8
ATOM      8  C1  UNL d   1      -1.520  -2.870   1.041  0.00  0.00     0.007 C 
ATOM      9  C   UNL d   1      -2.089  -4.089   0.327  0.00  0.00     0.009 C 
ENDBRANCH   7   8
ENDBRANCH   1   7
TORSDOF 2
ENDMDL
