MODEL 1
REMARK minimizedAffinity 8.62809086
REMARK minimizedRMSD -1
REMARK  2 active torsions:
REMARK  status: ('A' for Active; 'I' for Inactive)
REMARK    1  A    between atoms: C1_2  and  C2_3 
REMARK    2  A    between atoms: C2_3  and  C3_4 
ROOT
ATOM      1  C3  UNL d   1      -2.533  -1.725   1.210  0.00  0.00    -0.075 A 
ATOM      2  C4  UNL d   1      -2.873  -2.014  -0.119  0.00  0.00     0.002 A 
ATOM      3  C5  UNL d   1      -2.621  -3.277  -0.657  0.00  0.00     0.002 A 
ATOM      4  C6  UNL d   1      -2.018  -4.261   0.123  0.00  0.00    -0.004 A 
ATOM      5  C7  UNL d   1      -1.661  -3.980   1.440  0.00  0.00     0.002 A 
ATOM      6  C8  UNL d   1      -1.916  -2.719   1.982  0.00  0.00     0.002 A 
ENDROOT
BRANCH   1   7
ATOM      7  C2  UNL d   1      -2.830  -0.370   1.807  0.00  0.00     0.056 C 
BRANCH   7   8
ATOM      8  C1  UNL d   1      -3.188   0.702   0.773  0.00  0.00     0.007 C 
ATOM      9  C   UNL d   1      -4.670   1.053   0.761  0.00  0.00     0.009 C 
ENDBRANCH   7   8
ENDBRANCH   1   7
TORSDOF 2
ENDMDL
