MODEL 1
REMARK minimizedAffinity 3.6728642
REMARK minimizedRMSD -1
REMARK  2 active torsions:
REMARK  status: ('A' for Active; 'I' for Inactive)
REMARK    1  A    between atoms: C1_2  and  C2_3 
REMARK    2  A    between atoms: C2_3  and  C3_4 
ROOT
ATOM      1  C3  UNL d   1       0.150   1.537  -3.740  0.00  0.00    -0.075 A 
ATOM      2  C4  UNL d   1       1.366   1.000  -4.186  0.00  0.00     0.002 A 
ATOM      3  C5  UNL d   1       2.494   1.024  -3.366  0.00  0.00     0.002 A 
ATOM      4  C6  UNL d   1       2.425   1.593  -2.097  0.00  0.00    -0.004 A 
ATOM      5  C7  UNL d   1       1.226   2.145  -1.649  0.00  0.00     0.002 A 
ATOM      6  C8  UNL d   1       0.094   2.118  -2.466  0.00  0.00     0.002 A 
ENDROOT
BRANCH   1   7
ATOM      7  C2  UNL d   1      -1.083   1.488  -4.611  0.00  0.00     0.056 C 
BRANCH   7   8
ATOM      8  C1  UNL d   1      -0.896   2.125  -5.992  0.00  0.00     0.007 C 
ATOM      9  C   UNL d   1      -0.891   3.648  -5.956  0.00  0.00     0.009 C 
ENDBRANCH   7   8
ENDBRANCH   1   7
TORSDOF 2
ENDMDL
