MODEL 1
REMARK minimizedAffinity 10.512435
REMARK minimizedRMSD -1
REMARK  2 active torsions:
REMARK  status: ('A' for Active; 'I' for Inactive)
REMARK    1  A    between atoms: C1_2  and  C2_3 
REMARK    2  A    between atoms: C2_3  and  C3_4 
ROOT
ATOM      1  C3  UNL d   1      -1.886  -5.331  -2.947  0.00  0.00    -0.075 A 
ATOM      2  C4  UNL d   1      -2.296  -5.952  -1.757  0.00  0.00     0.002 A 
ATOM      3  C5  UNL d   1      -3.279  -5.370  -0.957  0.00  0.00     0.002 A 
ATOM      4  C6  UNL d   1      -3.857  -4.158  -1.329  0.00  0.00    -0.004 A 
ATOM      5  C7  UNL d   1      -3.446  -3.524  -2.500  0.00  0.00     0.002 A 
ATOM      6  C8  UNL d   1      -2.465  -4.107  -3.305  0.00  0.00     0.002 A 
ENDROOT
BRANCH   1   7
ATOM      7  C2  UNL d   1      -0.844  -5.971  -3.832  0.00  0.00     0.056 C 
BRANCH   7   8
ATOM      8  C1  UNL d   1       0.564  -5.988  -3.227  0.00  0.00     0.007 C 
ATOM      9  C   UNL d   1       1.669  -5.999  -4.275  0.00  0.00     0.009 C 
ENDBRANCH   7   8
ENDBRANCH   1   7
TORSDOF 2
ENDMDL
