MODEL 1
REMARK minimizedAffinity 3.7916007
REMARK minimizedRMSD -1
REMARK  2 active torsions:
REMARK  status: ('A' for Active; 'I' for Inactive)
REMARK    1  A    between atoms: C1_2  and  C2_3 
REMARK    2  A    between atoms: C2_3  and  C3_4 
ROOT
ATOM      1  C3  UNL d   1       2.274   2.624   1.810  0.00  0.00    -0.075 A 
ATOM      2  C4  UNL d   1       2.567   1.458   1.087  0.00  0.00     0.002 A 
ATOM      3  C5  UNL d   1       1.544   0.601   0.679  0.00  0.00     0.002 A 
ATOM      4  C6  UNL d   1       0.219   0.892   0.997  0.00  0.00    -0.004 A 
ATOM      5  C7  UNL d   1      -0.082   2.039   1.729  0.00  0.00     0.002 A 
ATOM      6  C8  UNL d   1       0.939   2.900   2.134  0.00  0.00     0.002 A 
ENDROOT
BRANCH   1   7
ATOM      7  C2  UNL d   1       3.373   3.571   2.228  0.00  0.00     0.056 C 
BRANCH   7   8
ATOM      8  C1  UNL d   1       4.763   3.178   1.715  0.00  0.00     0.007 C 
ATOM      9  C   UNL d   1       5.734   2.817   2.831  0.00  0.00     0.009 C 
ENDBRANCH   7   8
ENDBRANCH   1   7
TORSDOF 2
ENDMDL
