MODEL 1
REMARK minimizedAffinity 3.7377274
REMARK minimizedRMSD -1
REMARK  2 active torsions:
REMARK  status: ('A' for Active; 'I' for Inactive)
REMARK    1  A    between atoms: C1_2  and  C2_3 
REMARK    2  A    between atoms: C2_3  and  C3_4 
ROOT
ATOM      1  C3  UNL d   1      -1.590  -5.164  -3.351  0.00  0.00    -0.075 A 
ATOM      2  C4  UNL d   1      -2.593  -5.995  -2.833  0.00  0.00     0.002 A 
ATOM      3  C5  UNL d   1      -3.648  -5.457  -2.096  0.00  0.00     0.002 A 
ATOM      4  C6  UNL d   1      -3.708  -4.085  -1.859  0.00  0.00    -0.004 A 
ATOM      5  C7  UNL d   1      -2.707  -3.252  -2.354  0.00  0.00     0.002 A 
ATOM      6  C8  UNL d   1      -1.653  -3.787  -3.096  0.00  0.00     0.002 A 
ENDROOT
BRANCH   1   7
ATOM      7  C2  UNL d   1      -0.461  -5.736  -4.175  0.00  0.00     0.056 C 
BRANCH   7   8
ATOM      8  C1  UNL d   1       0.926  -5.539  -3.555  0.00  0.00     0.007 C 
ATOM      9  C   UNL d   1       2.060  -5.997  -4.462  0.00  0.00     0.009 C 
ENDBRANCH   7   8
ENDBRANCH   1   7
TORSDOF 2
ENDMDL
