MODEL 1
REMARK minimizedAffinity 4.69141674
REMARK minimizedRMSD -1
REMARK  2 active torsions:
REMARK  status: ('A' for Active; 'I' for Inactive)
REMARK    1  A    between atoms: C1_2  and  C2_3 
REMARK    2  A    between atoms: C2_3  and  C3_4 
ROOT
ATOM      1  C3  UNL d   1       4.264   5.941   3.112  0.00  0.00    -0.075 A 
ATOM      2  C4  UNL d   1       5.616   6.000   2.747  0.00  0.00     0.002 A 
ATOM      3  C5  UNL d   1       5.988   5.980   1.402  0.00  0.00     0.002 A 
ATOM      4  C6  UNL d   1       5.015   5.892   0.408  0.00  0.00    -0.004 A 
ATOM      5  C7  UNL d   1       3.669   5.816   0.761  0.00  0.00     0.002 A 
ATOM      6  C8  UNL d   1       3.294   5.840   2.105  0.00  0.00     0.002 A 
ENDROOT
BRANCH   1   7
ATOM      7  C2  UNL d   1       3.853   5.991   4.565  0.00  0.00     0.056 C 
BRANCH   7   8
ATOM      8  C1  UNL d   1       2.623   5.140   4.895  0.00  0.00     0.007 C 
ATOM      9  C   UNL d   1       1.453   5.957   5.429  0.00  0.00     0.009 C 
ENDBRANCH   7   8
ENDBRANCH   1   7
TORSDOF 2
ENDMDL
