MODEL 1
REMARK minimizedAffinity -2.01879382
REMARK minimizedRMSD -1
REMARK  2 active torsions:
REMARK  status: ('A' for Active; 'I' for Inactive)
REMARK    1  A    between atoms: C1_2  and  C2_3 
REMARK    2  A    between atoms: C2_3  and  C3_4 
ROOT
ATOM      1  C3  UNL d   1      -5.942   4.443  -4.165  0.00  0.00    -0.075 A 
ATOM      2  C4  UNL d   1      -5.970   3.325  -5.011  0.00  0.00     0.002 A 
ATOM      3  C5  UNL d   1      -6.000   2.036  -4.481  0.00  0.00     0.002 A 
ATOM      4  C6  UNL d   1      -5.991   1.847  -3.100  0.00  0.00    -0.004 A 
ATOM      5  C7  UNL d   1      -5.947   2.950  -2.250  0.00  0.00     0.002 A 
ATOM      6  C8  UNL d   1      -5.922   4.241  -2.779  0.00  0.00     0.002 A 
ENDROOT
BRANCH   1   7
ATOM      7  C2  UNL d   1      -5.940   5.842  -4.733  0.00  0.00     0.056 C 
BRANCH   7   8
ATOM      8  C1  UNL d   1      -5.092   6.000  -6.000  0.00  0.00     0.007 C 
ATOM      9  C   UNL d   1      -3.844   5.127  -6.000  0.00  0.00     0.009 C 
ENDBRANCH   7   8
ENDBRANCH   1   7
TORSDOF 2
ENDMDL
