MODEL 1
REMARK minimizedAffinity 10.6075649
REMARK minimizedRMSD -1
REMARK  2 active torsions:
REMARK  status: ('A' for Active; 'I' for Inactive)
REMARK    1  A    between atoms: C1_2  and  C2_3 
REMARK    2  A    between atoms: C2_3  and  C3_4 
ROOT
ATOM      1  C3  UNL d   1       5.603   3.613  -0.329  0.00  0.00    -0.075 A 
ATOM      2  C4  UNL d   1       4.883   4.816  -0.293  0.00  0.00     0.002 A 
ATOM      3  C5  UNL d   1       4.543   5.401   0.927  0.00  0.00     0.002 A 
ATOM      4  C6  UNL d   1       4.909   4.788   2.124  0.00  0.00    -0.004 A 
ATOM      5  C7  UNL d   1       5.610   3.585   2.100  0.00  0.00     0.002 A 
ATOM      6  C8  UNL d   1       5.956   2.999   0.880  0.00  0.00     0.002 A 
ENDROOT
BRANCH   1   7
ATOM      7  C2  UNL d   1       6.000   2.989  -1.646  0.00  0.00     0.056 C 
BRANCH   7   8
ATOM      8  C1  UNL d   1       4.894   3.016  -2.706  0.00  0.00     0.007 C 
ATOM      9  C   UNL d   1       4.552   1.635  -3.251  0.00  0.00     0.009 C 
ENDBRANCH   7   8
ENDBRANCH   1   7
TORSDOF 2
ENDMDL
