MODEL 1
REMARK minimizedAffinity -5.5915184
REMARK minimizedRMSD -1
REMARK  1 active torsions:
REMARK  status: ('A' for Active; 'I' for Inactive)
REMARK    1  A    between atoms: C1_2  and  C2_3 
ROOT
ATOM      1  C2  UNL d   1      -1.432   0.653   3.302  0.00  0.00    -0.077 A 
ATOM      2  C3  UNL d   1      -1.742   1.892   3.880  0.00  0.00     0.002 A 
ATOM      3  C4  UNL d   1      -0.729   2.803   4.184  0.00  0.00     0.002 A 
ATOM      4  C5  UNL d   1       0.600   2.486   3.911  0.00  0.00    -0.004 A 
ATOM      5  C6  UNL d   1       0.919   1.256   3.338  0.00  0.00     0.002 A 
ATOM      6  C7  UNL d   1      -0.092   0.343   3.034  0.00  0.00     0.002 A 
ENDROOT
BRANCH   1   7
ATOM      7  C1  UNL d   1      -2.527  -0.311   2.928  0.00  0.00     0.055 C 
ATOM      8  C   UNL d   1      -3.065  -0.024   1.534  0.00  0.00     0.019 C 
ENDBRANCH   1   7
TORSDOF 1
ENDMDL
