MODEL 1
REMARK minimizedAffinity -6.01062346
REMARK minimizedRMSD -1
REMARK  1 active torsions:
REMARK  status: ('A' for Active; 'I' for Inactive)
REMARK    1  A    between atoms: C1_2  and  C2_3 
ROOT
ATOM      1  C2  UNL d   1      -1.268  -0.077   0.276  0.00  0.00    -0.077 A 
ATOM      2  C3  UNL d   1      -2.568   0.133   0.756  0.00  0.00     0.002 A 
ATOM      3  C4  UNL d   1      -2.828   0.101   2.128  0.00  0.00     0.002 A 
ATOM      4  C5  UNL d   1      -1.793  -0.137   3.029  0.00  0.00    -0.004 A 
ATOM      5  C6  UNL d   1      -0.497  -0.349   2.561  0.00  0.00     0.002 A 
ATOM      6  C7  UNL d   1      -0.235  -0.319   1.191  0.00  0.00     0.002 A 
ENDROOT
BRANCH   1   7
ATOM      7  C1  UNL d   1      -0.977   0.006  -1.200  0.00  0.00     0.055 C 
ATOM      8  C   UNL d   1       0.521  -0.019  -1.471  0.00  0.00     0.019 C 
ENDBRANCH   1   7
TORSDOF 1
ENDMDL
