MODEL 1
REMARK minimizedAffinity -4.50560665
REMARK minimizedRMSD -1
REMARK  1 active torsions:
REMARK  status: ('A' for Active; 'I' for Inactive)
REMARK    1  A    between atoms: C1_2  and  C2_3 
ROOT
ATOM      1  C2  UNL d   1       0.300   0.300  -0.149  0.00  0.00    -0.077 A 
ATOM      2  C3  UNL d   1      -1.005  -0.126   0.139  0.00  0.00     0.002 A 
ATOM      3  C4  UNL d   1      -1.372  -0.441   1.449  0.00  0.00     0.002 A 
ATOM      4  C5  UNL d   1      -0.442  -0.331   2.481  0.00  0.00    -0.004 A 
ATOM      5  C6  UNL d   1       0.858   0.090   2.204  0.00  0.00     0.002 A 
ATOM      6  C7  UNL d   1       1.227   0.405   0.895  0.00  0.00     0.002 A 
ENDROOT
BRANCH   1   7
ATOM      7  C1  UNL d   1       0.683   0.688  -1.553  0.00  0.00     0.055 C 
ATOM      8  C   UNL d   1       0.749  -0.529  -2.465  0.00  0.00     0.019 C 
ENDBRANCH   1   7
TORSDOF 1
ENDMDL
