MODEL 1
REMARK minimizedAffinity -1.4919579
REMARK minimizedRMSD -1
REMARK  1 active torsions:
REMARK  status: ('A' for Active; 'I' for Inactive)
REMARK    1  A    between atoms: C1_2  and  C2_3 
ROOT
ATOM      1  C2  UNL d   1      -0.321  -0.295  -1.095  0.00  0.00    -0.077 A 
ATOM      2  C3  UNL d   1      -1.690  -0.003  -1.011  0.00  0.00     0.002 A 
ATOM      3  C4  UNL d   1      -2.343  -0.026   0.223  0.00  0.00     0.002 A 
ATOM      4  C5  UNL d   1      -1.635  -0.337   1.382  0.00  0.00    -0.004 A 
ATOM      5  C6  UNL d   1      -0.274  -0.631   1.309  0.00  0.00     0.002 A 
ATOM      6  C7  UNL d   1       0.380  -0.610   0.076  0.00  0.00     0.002 A 
ENDROOT
BRANCH   1   7
ATOM      7  C1  UNL d   1       0.395  -0.223  -2.418  0.00  0.00     0.055 C 
ATOM      8  C   UNL d   1       0.431  -1.581  -3.103  0.00  0.00     0.019 C 
ENDBRANCH   1   7
TORSDOF 1
ENDMDL
