MODEL 1
REMARK minimizedAffinity -4.31391048
REMARK minimizedRMSD -1
REMARK  1 active torsions:
REMARK  status: ('A' for Active; 'I' for Inactive)
REMARK    1  A    between atoms: C1_2  and  C2_3 
ROOT
ATOM      1  C2  UNL d   1       0.306  -0.000   1.305  0.00  0.00    -0.077 A 
ATOM      2  C3  UNL d   1       0.093   0.338  -0.039  0.00  0.00     0.002 A 
ATOM      3  C4  UNL d   1      -1.164   0.161  -0.621  0.00  0.00     0.002 A 
ATOM      4  C5  UNL d   1      -2.218  -0.350   0.134  0.00  0.00    -0.004 A 
ATOM      5  C6  UNL d   1      -2.015  -0.692   1.470  0.00  0.00     0.002 A 
ATOM      6  C7  UNL d   1      -0.760  -0.517   2.054  0.00  0.00     0.002 A 
ENDROOT
BRANCH   1   7
ATOM      7  C1  UNL d   1       1.647   0.236   1.948  0.00  0.00     0.055 C 
ATOM      8  C   UNL d   1       1.594   1.398   2.929  0.00  0.00     0.019 C 
ENDBRANCH   1   7
TORSDOF 1
ENDMDL
