MODEL 1
REMARK minimizedAffinity -5.44036865
REMARK minimizedRMSD -1
REMARK  1 active torsions:
REMARK  status: ('A' for Active; 'I' for Inactive)
REMARK    1  A    between atoms: C1_2  and  C2_3 
ROOT
ATOM      1  C2  UNL d   1      -0.392   0.271   0.112  0.00  0.00    -0.077 A 
ATOM      2  C3  UNL d   1      -1.555  -0.224   0.718  0.00  0.00     0.002 A 
ATOM      3  C4  UNL d   1      -1.533  -0.644   2.050  0.00  0.00     0.002 A 
ATOM      4  C5  UNL d   1      -0.353  -0.570   2.786  0.00  0.00    -0.004 A 
ATOM      5  C6  UNL d   1       0.810  -0.081   2.192  0.00  0.00     0.002 A 
ATOM      6  C7  UNL d   1       0.790   0.339   0.861  0.00  0.00     0.002 A 
ENDROOT
BRANCH   1   7
ATOM      7  C1  UNL d   1      -0.425   0.771  -1.308  0.00  0.00     0.055 C 
ATOM      8  C   UNL d   1       0.589   0.040  -2.176  0.00  0.00     0.019 C 
ENDBRANCH   1   7
TORSDOF 1
ENDMDL
