MODEL 1
REMARK minimizedAffinity 2.46292877
REMARK minimizedRMSD -1
REMARK  1 active torsions:
REMARK  status: ('A' for Active; 'I' for Inactive)
REMARK    1  A    between atoms: C1_2  and  C2_3 
ROOT
ATOM      1  C2  UNL d   1       0.607   0.943   1.965  0.00  0.00    -0.077 A 
ATOM      2  C3  UNL d   1       1.558   0.033   2.448  0.00  0.00     0.002 A 
ATOM      3  C4  UNL d   1       1.196  -1.287   2.725  0.00  0.00     0.002 A 
ATOM      4  C5  UNL d   1      -0.116  -1.709   2.517  0.00  0.00    -0.004 A 
ATOM      5  C6  UNL d   1      -1.069  -0.811   2.039  0.00  0.00     0.002 A 
ATOM      6  C7  UNL d   1      -0.709   0.508   1.763  0.00  0.00     0.002 A 
ENDROOT
BRANCH   1   7
ATOM      7  C1  UNL d   1       1.007   2.353   1.620  0.00  0.00     0.055 C 
ATOM      8  C   UNL d   1       1.467   2.460   0.173  0.00  0.00     0.019 C 
ENDBRANCH   1   7
TORSDOF 1
ENDMDL
