MODEL 1
REMARK minimizedAffinity -1.13644302
REMARK minimizedRMSD -1
REMARK  1 active torsions:
REMARK  status: ('A' for Active; 'I' for Inactive)
REMARK    1  A    between atoms: C1_2  and  C2_3 
ROOT
ATOM      1  C2  UNL d   1      -1.635  -0.150   2.280  0.00  0.00    -0.077 A 
ATOM      2  C3  UNL d   1      -1.090  -1.280   2.906  0.00  0.00     0.002 A 
ATOM      3  C4  UNL d   1       0.293  -1.418   3.035  0.00  0.00     0.002 A 
ATOM      4  C5  UNL d   1       1.142  -0.428   2.544  0.00  0.00    -0.004 A 
ATOM      5  C6  UNL d   1       0.610   0.699   1.918  0.00  0.00     0.002 A 
ATOM      6  C7  UNL d   1      -0.773   0.838   1.788  0.00  0.00     0.002 A 
ENDROOT
BRANCH   1   7
ATOM      7  C1  UNL d   1      -3.129   0.024   2.184  0.00  0.00     0.055 C 
ATOM      8  C   UNL d   1      -3.502   1.007   1.085  0.00  0.00     0.019 C 
ENDBRANCH   1   7
TORSDOF 1
ENDMDL
