MODEL 1
REMARK minimizedAffinity 1.38466036
REMARK minimizedRMSD -1
REMARK  1 active torsions:
REMARK  status: ('A' for Active; 'I' for Inactive)
REMARK    1  A    between atoms: C1_2  and  C2_3 
ROOT
ATOM      1  C2  UNL d   1      -1.216   0.108   1.677  0.00  0.00    -0.077 A 
ATOM      2  C3  UNL d   1      -0.520   0.894   2.605  0.00  0.00     0.002 A 
ATOM      3  C4  UNL d   1       0.749   0.513   3.044  0.00  0.00     0.002 A 
ATOM      4  C5  UNL d   1       1.335  -0.654   2.556  0.00  0.00    -0.004 A 
ATOM      5  C6  UNL d   1       0.650  -1.444   1.634  0.00  0.00     0.002 A 
ATOM      6  C7  UNL d   1      -0.619  -1.064   1.195  0.00  0.00     0.002 A 
ENDROOT
BRANCH   1   7
ATOM      7  C1  UNL d   1      -2.564   0.544   1.165  0.00  0.00     0.055 C 
ATOM      8  C   UNL d   1      -3.484   0.951   2.307  0.00  0.00     0.019 C 
ENDBRANCH   1   7
TORSDOF 1
ENDMDL
