MODEL 1
REMARK minimizedAffinity 0.0502221361
REMARK minimizedRMSD -1
REMARK  1 active torsions:
REMARK  status: ('A' for Active; 'I' for Inactive)
REMARK    1  A    between atoms: C1_2  and  C2_3 
ROOT
ATOM      1  C2  UNL d   1       2.083   1.150  -5.433  0.00  0.00    -0.077 A 
ATOM      2  C3  UNL d   1       1.372   1.913  -4.496  0.00  0.00     0.002 A 
ATOM      3  C4  UNL d   1       1.906   3.106  -4.006  0.00  0.00     0.002 A 
ATOM      4  C5  UNL d   1       3.150   3.549  -4.451  0.00  0.00    -0.004 A 
ATOM      5  C6  UNL d   1       3.866   2.797  -5.381  0.00  0.00     0.002 A 
ATOM      6  C7  UNL d   1       3.334   1.603  -5.871  0.00  0.00     0.002 A 
ENDROOT
BRANCH   1   7
ATOM      7  C1  UNL d   1       1.488  -0.113  -5.999  0.00  0.00     0.055 C 
ATOM      8  C   UNL d   1       1.735  -1.302  -5.082  0.00  0.00     0.019 C 
ENDBRANCH   1   7
TORSDOF 1
ENDMDL
