MODEL 1
REMARK minimizedAffinity -3.89313245
REMARK minimizedRMSD -1
REMARK  1 active torsions:
REMARK  status: ('A' for Active; 'I' for Inactive)
REMARK    1  A    between atoms: C1_2  and  C2_3 
ROOT
ATOM      1  C2  UNL d   1       1.990   3.001   1.792  0.00  0.00    -0.077 A 
ATOM      2  C3  UNL d   1       2.565   1.759   1.487  0.00  0.00     0.002 A 
ATOM      3  C4  UNL d   1       1.837   0.797   0.785  0.00  0.00     0.002 A 
ATOM      4  C5  UNL d   1       0.532   1.068   0.378  0.00  0.00    -0.004 A 
ATOM      5  C6  UNL d   1      -0.050   2.299   0.678  0.00  0.00     0.002 A 
ATOM      6  C7  UNL d   1       0.676   3.262   1.380  0.00  0.00     0.002 A 
ENDROOT
BRANCH   1   7
ATOM      7  C1  UNL d   1       2.790   4.059   2.505  0.00  0.00     0.055 C 
ATOM      8  C   UNL d   1       3.186   5.185   1.561  0.00  0.00     0.019 C 
ENDBRANCH   1   7
TORSDOF 1
ENDMDL
