MODEL 1
REMARK minimizedAffinity 7.58575583
REMARK minimizedRMSD -1
REMARK  1 active torsions:
REMARK  status: ('A' for Active; 'I' for Inactive)
REMARK    1  A    between atoms: C1_2  and  C2_3 
ROOT
ATOM      1  C2  UNL d   1       3.082   2.805   1.734  0.00  0.00    -0.077 A 
ATOM      2  C3  UNL d   1       3.369   1.883   0.718  0.00  0.00     0.002 A 
ATOM      3  C4  UNL d   1       2.494   0.826   0.456  0.00  0.00     0.002 A 
ATOM      4  C5  UNL d   1       1.326   0.685   1.202  0.00  0.00    -0.004 A 
ATOM      5  C6  UNL d   1       1.033   1.597   2.216  0.00  0.00     0.002 A 
ATOM      6  C7  UNL d   1       1.907   2.652   2.480  0.00  0.00     0.002 A 
ENDROOT
BRANCH   1   7
ATOM      7  C1  UNL d   1       3.999   3.974   1.986  0.00  0.00     0.055 C 
ATOM      8  C   UNL d   1       5.270   3.868   1.156  0.00  0.00     0.019 C 
ENDBRANCH   1   7
TORSDOF 1
ENDMDL
