MODEL 1
REMARK minimizedAffinity 4.56079388
REMARK minimizedRMSD -1
REMARK  1 active torsions:
REMARK  status: ('A' for Active; 'I' for Inactive)
REMARK    1  A    between atoms: C1_2  and  C2_3 
ROOT
ATOM      1  C2  UNL d   1       0.955   2.668   2.226  0.00  0.00    -0.077 A 
ATOM      2  C3  UNL d   1       0.278   2.715   1.000  0.00  0.00     0.002 A 
ATOM      3  C4  UNL d   1      -1.118   2.731   0.964  0.00  0.00     0.002 A 
ATOM      4  C5  UNL d   1      -1.847   2.703   2.151  0.00  0.00    -0.004 A 
ATOM      5  C6  UNL d   1      -1.183   2.653   3.376  0.00  0.00     0.002 A 
ATOM      6  C7  UNL d   1       0.212   2.637   3.413  0.00  0.00     0.002 A 
ENDROOT
BRANCH   1   7
ATOM      7  C1  UNL d   1       2.461   2.701   2.269  0.00  0.00     0.055 C 
ATOM      8  C   UNL d   1       2.973   4.076   2.672  0.00  0.00     0.019 C 
ENDBRANCH   1   7
TORSDOF 1
ENDMDL
