MODEL 1
REMARK minimizedAffinity 1.72078609
REMARK minimizedRMSD -1
REMARK  1 active torsions:
REMARK  status: ('A' for Active; 'I' for Inactive)
REMARK    1  A    between atoms: C1_2  and  C2_3 
ROOT
ATOM      1  C2  UNL d   1       1.385   1.629   1.012  0.00  0.00    -0.077 A 
ATOM      2  C3  UNL d   1       0.476   1.997   2.014  0.00  0.00     0.002 A 
ATOM      3  C4  UNL d   1      -0.893   2.036   1.745  0.00  0.00     0.002 A 
ATOM      4  C5  UNL d   1      -1.366   1.703   0.477  0.00  0.00    -0.004 A 
ATOM      5  C6  UNL d   1      -0.470   1.338  -0.526  0.00  0.00     0.002 A 
ATOM      6  C7  UNL d   1       0.899   1.300  -0.260  0.00  0.00     0.002 A 
ENDROOT
BRANCH   1   7
ATOM      7  C1  UNL d   1       2.858   1.540   1.313  0.00  0.00     0.055 C 
ATOM      8  C   UNL d   1       3.390   2.852   1.871  0.00  0.00     0.019 C 
ENDBRANCH   1   7
TORSDOF 1
ENDMDL
