MODEL 1
REMARK minimizedAffinity 4.59134197
REMARK minimizedRMSD -1
REMARK  1 active torsions:
REMARK  status: ('A' for Active; 'I' for Inactive)
REMARK    1  A    between atoms: C1_2  and  C2_3 
ROOT
ATOM      1  C2  UNL d   1       0.847   1.459   1.150  0.00  0.00    -0.077 A 
ATOM      2  C3  UNL d   1       1.743   2.006   2.079  0.00  0.00     0.002 A 
ATOM      3  C4  UNL d   1       1.269   2.692   3.199  0.00  0.00     0.002 A 
ATOM      4  C5  UNL d   1      -0.102   2.834   3.402  0.00  0.00    -0.004 A 
ATOM      5  C6  UNL d   1      -1.002   2.295   2.483  0.00  0.00     0.002 A 
ATOM      6  C7  UNL d   1      -0.529   1.610   1.363  0.00  0.00     0.002 A 
ENDROOT
BRANCH   1   7
ATOM      7  C1  UNL d   1       1.356   0.677  -0.032  0.00  0.00     0.055 C 
ATOM      8  C   UNL d   1       1.808   1.601  -1.154  0.00  0.00     0.019 C 
ENDBRANCH   1   7
TORSDOF 1
ENDMDL
