MODEL 1
REMARK minimizedAffinity 1.61608636
REMARK minimizedRMSD -1
REMARK  1 active torsions:
REMARK  status: ('A' for Active; 'I' for Inactive)
REMARK    1  A    between atoms: C1_2  and  C2_3 
ROOT
ATOM      1  C2  UNL d   1       4.162   5.999   3.460  0.00  0.00    -0.077 A 
ATOM      2  C3  UNL d   1       3.150   5.988   2.490  0.00  0.00     0.002 A 
ATOM      3  C4  UNL d   1       3.473   5.979   1.132  0.00  0.00     0.002 A 
ATOM      4  C5  UNL d   1       4.807   5.977   0.732  0.00  0.00    -0.004 A 
ATOM      5  C6  UNL d   1       5.822   5.990   1.688  0.00  0.00     0.002 A 
ATOM      6  C7  UNL d   1       5.500   6.000   3.046  0.00  0.00     0.002 A 
ENDROOT
BRANCH   1   7
ATOM      7  C1  UNL d   1       3.816   5.958   4.925  0.00  0.00     0.055 C 
ATOM      8  C   UNL d   1       5.067   5.996   5.791  0.00  0.00     0.019 C 
ENDBRANCH   1   7
TORSDOF 1
ENDMDL
