MODEL 1
REMARK minimizedAffinity 5.00718594
REMARK minimizedRMSD -1
REMARK  1 active torsions:
REMARK  status: ('A' for Active; 'I' for Inactive)
REMARK    1  A    between atoms: C1_2  and  C2_3 
ROOT
ATOM      1  C2  UNL d   1       1.040   1.541   0.907  0.00  0.00    -0.077 A 
ATOM      2  C3  UNL d   1       1.706   2.350   1.838  0.00  0.00     0.002 A 
ATOM      3  C4  UNL d   1       0.982   3.144   2.729  0.00  0.00     0.002 A 
ATOM      4  C5  UNL d   1      -0.411   3.133   2.702  0.00  0.00    -0.004 A 
ATOM      5  C6  UNL d   1      -1.083   2.333   1.779  0.00  0.00     0.002 A 
ATOM      6  C7  UNL d   1      -0.361   1.540   0.886  0.00  0.00     0.002 A 
ENDROOT
BRANCH   1   7
ATOM      7  C1  UNL d   1       1.818   0.647  -0.023  0.00  0.00     0.055 C 
ATOM      8  C   UNL d   1       1.889   1.234  -1.425  0.00  0.00     0.019 C 
ENDBRANCH   1   7
TORSDOF 1
ENDMDL
