MODEL 1
REMARK minimizedAffinity 1.90940523
REMARK minimizedRMSD -1
REMARK  1 active torsions:
REMARK  status: ('A' for Active; 'I' for Inactive)
REMARK    1  A    between atoms: C1_2  and  C2_3 
ROOT
ATOM      1  C2  UNL d   1       1.303   1.203   0.814  0.00  0.00    -0.077 A 
ATOM      2  C3  UNL d   1      -0.092   1.284   0.927  0.00  0.00     0.002 A 
ATOM      3  C4  UNL d   1      -0.676   2.087   1.909  0.00  0.00     0.002 A 
ATOM      4  C5  UNL d   1       0.127   2.818   2.781  0.00  0.00    -0.004 A 
ATOM      5  C6  UNL d   1       1.516   2.742   2.679  0.00  0.00     0.002 A 
ATOM      6  C7  UNL d   1       2.101   1.939   1.699  0.00  0.00     0.002 A 
ENDROOT
BRANCH   1   7
ATOM      7  C1  UNL d   1       1.934   0.375  -0.275  0.00  0.00     0.055 C 
ATOM      8  C   UNL d   1       2.040   1.160  -1.575  0.00  0.00     0.019 C 
ENDBRANCH   1   7
TORSDOF 1
ENDMDL
