MODEL 1
REMARK minimizedAffinity 0.34698534
REMARK minimizedRMSD -1
REMARK  1 active torsions:
REMARK  status: ('A' for Active; 'I' for Inactive)
REMARK    1  A    between atoms: C1_2  and  C2_3 
ROOT
ATOM      1  C2  UNL d   1      -4.091   1.752  -3.478  0.00  0.00    -0.077 A 
ATOM      2  C3  UNL d   1      -5.064   2.624  -2.969  0.00  0.00     0.002 A 
ATOM      3  C4  UNL d   1      -5.516   2.489  -1.655  0.00  0.00     0.002 A 
ATOM      4  C5  UNL d   1      -4.998   1.486  -0.838  0.00  0.00    -0.004 A 
ATOM      5  C6  UNL d   1      -4.031   0.613  -1.335  0.00  0.00     0.002 A 
ATOM      6  C7  UNL d   1      -3.579   0.745  -2.649  0.00  0.00     0.002 A 
ENDROOT
BRANCH   1   7
ATOM      7  C1  UNL d   1      -3.567   1.927  -4.879  0.00  0.00     0.055 C 
ATOM      8  C   UNL d   1      -3.344   3.396  -5.207  0.00  0.00     0.019 C 
ENDBRANCH   1   7
TORSDOF 1
ENDMDL
