MODEL 1
REMARK minimizedAffinity 3.26757193
REMARK minimizedRMSD -1
REMARK  1 active torsions:
REMARK  status: ('A' for Active; 'I' for Inactive)
REMARK    1  A    between atoms: C1_2  and  C2_3 
ROOT
ATOM      1  C2  UNL d   1       0.848   1.912   1.233  0.00  0.00    -0.077 A 
ATOM      2  C3  UNL d   1       1.881   2.583   1.903  0.00  0.00     0.002 A 
ATOM      3  C4  UNL d   1       1.634   3.224   3.119  0.00  0.00     0.002 A 
ATOM      4  C5  UNL d   1       0.357   3.197   3.676  0.00  0.00    -0.004 A 
ATOM      5  C6  UNL d   1      -0.677   2.534   3.016  0.00  0.00     0.002 A 
ATOM      6  C7  UNL d   1      -0.433   1.894   1.800  0.00  0.00     0.002 A 
ENDROOT
BRANCH   1   7
ATOM      7  C1  UNL d   1       1.123   1.179  -0.054  0.00  0.00     0.055 C 
ATOM      8  C   UNL d   1       2.425   0.395   0.023  0.00  0.00     0.019 C 
ENDBRANCH   1   7
TORSDOF 1
ENDMDL
