MODEL 1
REMARK minimizedAffinity 3.540833
REMARK minimizedRMSD -1
REMARK  1 active torsions:
REMARK  status: ('A' for Active; 'I' for Inactive)
REMARK    1  A    between atoms: N_2  and  C1_3 
ROOT
ATOM      1  C1  UNL d   1      -0.946  -2.955  -5.081  0.00  0.00     0.143 A 
ATOM      2  C2  UNL d   1       0.082  -2.507  -5.916  0.00  0.00    -0.057 A 
ATOM      3  C3  UNL d   1       0.431  -1.152  -5.976  0.00  0.00     0.033 A 
ATOM      4  C4  UNL d   1      -0.265  -0.215  -5.221  0.00  0.00    -0.042 A 
ATOM      5  C5  UNL d   1      -1.308  -0.634  -4.402  0.00  0.00     0.033 A 
ATOM      6  C6  UNL d   1      -1.647  -1.989  -4.341  0.00  0.00    -0.057 A 
ENDROOT
BRANCH   1   7
ATOM      7  N   UNL d   1      -1.405  -4.274  -5.050  0.00  0.00    -0.732 N 
ATOM      8  C   UNL d   1      -0.937  -5.195  -4.036  0.00  0.00     0.284 C 
ATOM      9  H3  UNL d   1      -2.401  -4.344  -5.247  0.00  0.00     0.395 HD
ENDBRANCH   1   7
TORSDOF 1
ENDMDL
