MODEL 1
REMARK minimizedAffinity 1.57034039
REMARK minimizedRMSD -1
REMARK  1 active torsions:
REMARK  status: ('A' for Active; 'I' for Inactive)
REMARK    1  A    between atoms: N_2  and  C1_3 
ROOT
ATOM      1  C1  UNL d   1      -5.991   3.555  -1.091  0.00  0.00     0.143 A 
ATOM      2  C2  UNL d   1      -5.983   3.568   0.307  0.00  0.00    -0.057 A 
ATOM      3  C3  UNL d   1      -6.000   4.772   1.022  0.00  0.00     0.033 A 
ATOM      4  C4  UNL d   1      -5.996   5.988   0.348  0.00  0.00    -0.042 A 
ATOM      5  C5  UNL d   1      -5.978   5.999  -1.042  0.00  0.00     0.033 A 
ATOM      6  C6  UNL d   1      -5.968   4.794  -1.751  0.00  0.00    -0.057 A 
ENDROOT
BRANCH   1   7
ATOM      7  N   UNL d   1      -5.875   2.393  -1.859  0.00  0.00    -0.732 N 
ATOM      8  C   UNL d   1      -4.936   1.356  -1.489  0.00  0.00     0.284 C 
ATOM      9  H3  UNL d   1      -6.778   2.044  -2.174  0.00  0.00     0.395 HD
ENDBRANCH   1   7
TORSDOF 1
ENDMDL
