MODEL 1
REMARK minimizedAffinity 3.72053552
REMARK minimizedRMSD -1
REMARK  1 active torsions:
REMARK  status: ('A' for Active; 'I' for Inactive)
REMARK    1  A    between atoms: N_2  and  C1_3 
ROOT
ATOM      1  C1  UNL d   1      -1.579  -1.461   0.471  0.00  0.00     0.143 A 
ATOM      2  C2  UNL d   1      -2.555  -2.203   1.145  0.00  0.00    -0.057 A 
ATOM      3  C3  UNL d   1      -3.155  -1.722   2.315  0.00  0.00     0.033 A 
ATOM      4  C4  UNL d   1      -2.766  -0.498   2.850  0.00  0.00    -0.042 A 
ATOM      5  C5  UNL d   1      -1.780   0.245   2.211  0.00  0.00     0.033 A 
ATOM      6  C6  UNL d   1      -1.190  -0.238   1.039  0.00  0.00    -0.057 A 
ENDROOT
BRANCH   1   7
ATOM      7  N   UNL d   1      -0.876  -1.930  -0.641  0.00  0.00    -0.732 N 
ATOM      8  C   UNL d   1      -1.537  -2.086  -1.919  0.00  0.00     0.284 C 
ATOM      9  H3  UNL d   1       0.061  -1.536  -0.703  0.00  0.00     0.395 HD
ENDBRANCH   1   7
TORSDOF 1
ENDMDL
