MODEL 1
REMARK minimizedAffinity 2.94671249
REMARK minimizedRMSD -1
REMARK  1 active torsions:
REMARK  status: ('A' for Active; 'I' for Inactive)
REMARK    1  A    between atoms: N_2  and  C1_3 
ROOT
ATOM      1  C1  UNL d   1       0.553  -0.080   2.405  0.00  0.00     0.143 A 
ATOM      2  C2  UNL d   1      -0.263  -0.358   3.507  0.00  0.00    -0.057 A 
ATOM      3  C3  UNL d   1      -1.653  -0.203   3.439  0.00  0.00     0.033 A 
ATOM      4  C4  UNL d   1      -2.251   0.263   2.273  0.00  0.00    -0.042 A 
ATOM      5  C5  UNL d   1      -1.457   0.570   1.173  0.00  0.00     0.033 A 
ATOM      6  C6  UNL d   1      -0.070   0.407   1.245  0.00  0.00    -0.057 A 
ENDROOT
BRANCH   1   7
ATOM      7  N   UNL d   1       1.949  -0.120   2.440  0.00  0.00    -0.732 N 
ATOM      8  C   UNL d   1       2.697  -0.726   1.360  0.00  0.00     0.284 C 
ATOM      9  H3  UNL d   1       2.353   0.745   2.792  0.00  0.00     0.395 HD
ENDBRANCH   1   7
TORSDOF 1
ENDMDL
