MODEL 1
REMARK minimizedAffinity 10.5167322
REMARK minimizedRMSD -1
REMARK  1 active torsions:
REMARK  status: ('A' for Active; 'I' for Inactive)
REMARK    1  A    between atoms: N_2  and  C1_3 
ROOT
ATOM      1  C1  UNL d   1      -2.916   0.946   1.115  0.00  0.00     0.143 A 
ATOM      2  C2  UNL d   1      -2.900  -0.439   0.921  0.00  0.00    -0.057 A 
ATOM      3  C3  UNL d   1      -1.889  -1.237   1.470  0.00  0.00     0.033 A 
ATOM      4  C4  UNL d   1      -0.857  -0.658   2.201  0.00  0.00    -0.042 A 
ATOM      5  C5  UNL d   1      -0.840   0.720   2.386  0.00  0.00     0.033 A 
ATOM      6  C6  UNL d   1      -1.855   1.511   1.841  0.00  0.00    -0.057 A 
ENDROOT
BRANCH   1   7
ATOM      7  N   UNL d   1      -3.839   1.805   0.513  0.00  0.00    -0.732 N 
ATOM      8  C   UNL d   1      -4.568   1.393  -0.667  0.00  0.00     0.284 C 
ATOM      9  H3  UNL d   1      -4.401   2.310   1.194  0.00  0.00     0.395 HD
ENDBRANCH   1   7
TORSDOF 1
ENDMDL
