MODEL 1
REMARK minimizedAffinity 9.04523277
REMARK minimizedRMSD -1
REMARK  1 active torsions:
REMARK  status: ('A' for Active; 'I' for Inactive)
REMARK    1  A    between atoms: N_2  and  C1_3 
ROOT
ATOM      1  C1  UNL d   1      -3.039   1.075   0.826  0.00  0.00     0.143 A 
ATOM      2  C2  UNL d   1      -2.673  -0.252   0.575  0.00  0.00    -0.057 A 
ATOM      3  C3  UNL d   1      -1.691  -0.891   1.342  0.00  0.00     0.033 A 
ATOM      4  C4  UNL d   1      -1.035  -0.203   2.357  0.00  0.00    -0.042 A 
ATOM      5  C5  UNL d   1      -1.366   1.125   2.607  0.00  0.00     0.033 A 
ATOM      6  C6  UNL d   1      -2.352   1.755   1.843  0.00  0.00    -0.057 A 
ENDROOT
BRANCH   1   7
ATOM      7  N   UNL d   1      -3.938   1.796   0.035  0.00  0.00    -0.732 N 
ATOM      8  C   UNL d   1      -4.830   1.113  -0.876  0.00  0.00     0.284 C 
ATOM      9  H3  UNL d   1      -4.370   2.565   0.542  0.00  0.00     0.395 HD
ENDBRANCH   1   7
TORSDOF 1
ENDMDL
