MODEL 1
REMARK minimizedAffinity 5.05979729
REMARK minimizedRMSD -1
REMARK  1 active torsions:
REMARK  status: ('A' for Active; 'I' for Inactive)
REMARK    1  A    between atoms: N_2  and  C1_3 
ROOT
ATOM      1  C1  UNL d   1       1.128  -0.183   1.801  0.00  0.00     0.143 A 
ATOM      2  C2  UNL d   1       0.524  -0.718   0.659  0.00  0.00    -0.057 A 
ATOM      3  C3  UNL d   1      -0.869  -0.785   0.538  0.00  0.00     0.033 A 
ATOM      4  C4  UNL d   1      -1.685  -0.342   1.573  0.00  0.00    -0.042 A 
ATOM      5  C5  UNL d   1      -1.107   0.171   2.729  0.00  0.00     0.033 A 
ATOM      6  C6  UNL d   1       0.285   0.241   2.841  0.00  0.00    -0.057 A 
ENDROOT
BRANCH   1   7
ATOM      7  N   UNL d   1       2.507  -0.180   2.023  0.00  0.00    -0.732 N 
ATOM      8  C   UNL d   1       3.344  -1.225   1.474  0.00  0.00     0.284 C 
ATOM      9  H3  UNL d   1       2.909   0.752   1.957  0.00  0.00     0.395 HD
ENDBRANCH   1   7
TORSDOF 1
ENDMDL
