MODEL 1
REMARK minimizedAffinity 5.26711416
REMARK minimizedRMSD -1
REMARK  0 active torsions:
REMARK  status: ('A' for Active; 'I' for Inactive)
ROOT
ATOM      1  N1  IND d   1       1.549  -5.807  -4.175  0.00  0.00    -0.196 N 
ATOM      2  C2  IND d   1       1.536  -5.858  -5.541  0.00  0.00     0.054 A 
ATOM      3  C3  IND d   1       0.268  -5.970  -5.996  0.00  0.00    -0.031 A 
ATOM      4  C4  IND d   1      -1.946  -5.986  -4.683  0.00  0.00     0.051 A 
ATOM      5  C5  IND d   1      -2.443  -5.999  -3.410  0.00  0.00    -0.031 A 
ATOM      6  C6  IND d   1      -1.619  -5.944  -2.304  0.00  0.00     0.015 A 
ATOM      7  C7  IND d   1      -0.261  -5.864  -2.432  0.00  0.00    -0.016 A 
ATOM      8  C8  IND d   1       0.248  -5.857  -3.723  0.00  0.00    -0.047 A 
ATOM      9  C9  IND d   1      -0.581  -5.955  -4.848  0.00  0.00    -0.096 A 
ATOM     10  HN1 IND d   1       2.250  -5.753  -3.681  0.00  0.00     0.298 HD
ENDROOT
TORSDOF 0
ENDMDL
