MODEL 1
REMARK minimizedAffinity -3.06803203
REMARK minimizedRMSD -1
REMARK  0 active torsions:
REMARK  status: ('A' for Active; 'I' for Inactive)
ROOT
ATOM      1  N1  IND d   1      -0.926  -5.994  -3.159  0.00  0.00    -0.196 N 
ATOM      2  C2  IND d   1      -1.885  -5.970  -4.133  0.00  0.00     0.054 A 
ATOM      3  C3  IND d   1      -1.313  -5.930  -5.357  0.00  0.00    -0.031 A 
ATOM      4  C4  IND d   1       1.179  -5.998  -6.000  0.00  0.00     0.051 A 
ATOM      5  C5  IND d   1       2.433  -5.984  -5.455  0.00  0.00    -0.031 A 
ATOM      6  C6  IND d   1       2.635  -5.976  -4.090  0.00  0.00     0.015 A 
ATOM      7  C7  IND d   1       1.586  -5.993  -3.215  0.00  0.00    -0.016 A 
ATOM      8  C8  IND d   1       0.312  -5.999  -3.764  0.00  0.00    -0.047 A 
ATOM      9  C9  IND d   1       0.100  -5.964  -5.148  0.00  0.00    -0.096 A 
ATOM     10  HN1 IND d   1      -1.071  -6.004  -2.312  0.00  0.00     0.298 HD
ENDROOT
TORSDOF 0
ENDMDL
