MODEL 1
REMARK minimizedAffinity 0.778322458
REMARK minimizedRMSD -1
REMARK  0 active torsions:
REMARK  status: ('A' for Active; 'I' for Inactive)
ROOT
ATOM      1  N1  IND d   1      -1.140  -5.642  -5.179  0.00  0.00    -0.196 N 
ATOM      2  C2  IND d   1      -1.707  -5.706  -3.937  0.00  0.00     0.054 A 
ATOM      3  C3  IND d   1      -0.754  -5.878  -2.993  0.00  0.00    -0.031 A 
ATOM      4  C4  IND d   1       1.806  -5.978  -3.253  0.00  0.00     0.051 A 
ATOM      5  C5  IND d   1       2.792  -6.000  -4.198  0.00  0.00    -0.031 A 
ATOM      6  C6  IND d   1       2.513  -5.899  -5.546  0.00  0.00     0.015 A 
ATOM      7  C7  IND d   1       1.232  -5.760  -6.000  0.00  0.00    -0.016 A 
ATOM      8  C8  IND d   1       0.227  -5.744  -5.043  0.00  0.00    -0.047 A 
ATOM      9  C9  IND d   1       0.501  -5.889  -3.677  0.00  0.00    -0.096 A 
ATOM     10  HN1 IND d   1      -1.566  -5.552  -5.921  0.00  0.00     0.298 HD
ENDROOT
TORSDOF 0
ENDMDL
