MODEL 1
REMARK minimizedAffinity 3.72737575
REMARK minimizedRMSD -1
REMARK  0 active torsions:
REMARK  status: ('A' for Active; 'I' for Inactive)
ROOT
ATOM      1  N1  IND d   1      -0.231  -5.950  -1.963  0.00  0.00    -0.196 N 
ATOM      2  C2  IND d   1      -1.593  -5.998  -2.075  0.00  0.00     0.054 A 
ATOM      3  C3  IND d   1      -1.958  -5.988  -3.376  0.00  0.00    -0.031 A 
ATOM      4  C4  IND d   1      -0.487  -5.999  -5.489  0.00  0.00     0.051 A 
ATOM      5  C5  IND d   1       0.816  -5.922  -5.894  0.00  0.00    -0.031 A 
ATOM      6  C6  IND d   1       1.858  -5.852  -4.992  0.00  0.00     0.015 A 
ATOM      7  C7  IND d   1       1.635  -5.868  -3.644  0.00  0.00    -0.016 A 
ATOM      8  C8  IND d   1       0.313  -5.939  -3.229  0.00  0.00    -0.047 A 
ATOM      9  C9  IND d   1      -0.751  -5.967  -4.140  0.00  0.00    -0.096 A 
ATOM     10  HN1 IND d   1       0.212  -5.931  -1.226  0.00  0.00     0.298 HD
ENDROOT
TORSDOF 0
ENDMDL
