MODEL 1
REMARK minimizedAffinity 6.91006041
REMARK minimizedRMSD -1
REMARK  0 active torsions:
REMARK  status: ('A' for Active; 'I' for Inactive)
ROOT
ATOM      1  N1  IND d   1      -2.239  -5.953  -4.385  0.00  0.00    -0.196 N 
ATOM      2  C2  IND d   1      -2.335  -5.961  -3.022  0.00  0.00     0.054 A 
ATOM      3  C3  IND d   1      -1.103  -5.998  -2.464  0.00  0.00    -0.031 A 
ATOM      4  C4  IND d   1       1.207  -5.949  -3.598  0.00  0.00     0.051 A 
ATOM      5  C5  IND d   1       1.805  -5.978  -4.827  0.00  0.00    -0.031 A 
ATOM      6  C6  IND d   1       1.070  -5.998  -5.995  0.00  0.00     0.015 A 
ATOM      7  C7  IND d   1      -0.296  -5.978  -5.978  0.00  0.00    -0.016 A 
ATOM      8  C8  IND d   1      -0.906  -5.956  -4.732  0.00  0.00    -0.047 A 
ATOM      9  C9  IND d   1      -0.166  -5.979  -3.542  0.00  0.00    -0.096 A 
ATOM     10  HN1 IND d   1      -2.901  -5.948  -4.935  0.00  0.00     0.298 HD
ENDROOT
TORSDOF 0
ENDMDL
