MODEL 1
REMARK minimizedAffinity 3.16737127
REMARK minimizedRMSD -1
REMARK  0 active torsions:
REMARK  status: ('A' for Active; 'I' for Inactive)
ROOT
ATOM      1  N1  IND d   1      -0.506  -5.992  -1.849  0.00  0.00    -0.196 N 
ATOM      2  C2  IND d   1      -1.847  -5.999  -1.580  0.00  0.00     0.054 A 
ATOM      3  C3  IND d   1      -2.557  -5.962  -2.730  0.00  0.00    -0.031 A 
ATOM      4  C4  IND d   1      -1.727  -5.988  -5.167  0.00  0.00     0.051 A 
ATOM      5  C5  IND d   1      -0.585  -5.944  -5.916  0.00  0.00    -0.031 A 
ATOM      6  C6  IND d   1       0.667  -5.915  -5.337  0.00  0.00     0.015 A 
ATOM      7  C7  IND d   1       0.824  -5.941  -3.980  0.00  0.00    -0.016 A 
ATOM      8  C8  IND d   1      -0.333  -5.980  -3.216  0.00  0.00    -0.047 A 
ATOM      9  C9  IND d   1      -1.607  -5.966  -3.797  0.00  0.00    -0.096 A 
ATOM     10  HN1 IND d   1       0.123  -5.994  -1.263  0.00  0.00     0.298 HD
ENDROOT
TORSDOF 0
ENDMDL
