MODEL 1
REMARK minimizedAffinity -2.0488553
REMARK minimizedRMSD -1
REMARK  0 active torsions:
REMARK  status: ('A' for Active; 'I' for Inactive)
ROOT
ATOM      1  N1  IND d   1      -1.620  -5.578  -2.193  0.00  0.00    -0.196 N 
ATOM      2  C2  IND d   1      -2.945  -5.830  -2.417  0.00  0.00     0.054 A 
ATOM      3  C3  IND d   1      -3.176  -5.996  -3.738  0.00  0.00    -0.031 A 
ATOM      4  C4  IND d   1      -1.510  -6.000  -5.701  0.00  0.00     0.051 A 
ATOM      5  C5  IND d   1      -0.195  -5.777  -5.998  0.00  0.00    -0.031 A 
ATOM      6  C6  IND d   1       0.732  -5.473  -5.022  0.00  0.00     0.015 A 
ATOM      7  C7  IND d   1       0.378  -5.391  -3.705  0.00  0.00    -0.016 A 
ATOM      8  C8  IND d   1      -0.958  -5.610  -3.401  0.00  0.00    -0.047 A 
ATOM      9  C9  IND d   1      -1.911  -5.877  -4.392  0.00  0.00    -0.096 A 
ATOM     10  HN1 IND d   1      -1.261  -5.425  -1.427  0.00  0.00     0.298 HD
ENDROOT
TORSDOF 0
ENDMDL
