MODEL 1
REMARK minimizedAffinity -2.454952
REMARK minimizedRMSD -1
REMARK  0 active torsions:
REMARK  status: ('A' for Active; 'I' for Inactive)
ROOT
ATOM      1  N1  IND d   1      -1.448  -5.650  -5.998  0.00  0.00    -0.196 N 
ATOM      2  C2  IND d   1      -0.086  -5.584  -5.912  0.00  0.00     0.054 A 
ATOM      3  C3  IND d   1       0.307  -5.635  -4.619  0.00  0.00    -0.031 A 
ATOM      4  C4  IND d   1      -1.110  -5.929  -2.490  0.00  0.00     0.051 A 
ATOM      5  C5  IND d   1      -2.405  -5.998  -2.059  0.00  0.00    -0.031 A 
ATOM      6  C6  IND d   1      -3.469  -5.957  -2.937  0.00  0.00     0.015 A 
ATOM      7  C7  IND d   1      -3.276  -5.855  -4.286  0.00  0.00    -0.016 A 
ATOM      8  C8  IND d   1      -1.962  -5.778  -4.727  0.00  0.00    -0.047 A 
ATOM      9  C9  IND d   1      -0.880  -5.777  -3.837  0.00  0.00    -0.096 A 
ATOM     10  HN1 IND d   1      -1.907  -5.617  -6.725  0.00  0.00     0.298 HD
ENDROOT
TORSDOF 0
ENDMDL
