MODEL 1
REMARK minimizedAffinity -0.180996999
REMARK minimizedRMSD -1
REMARK  0 active torsions:
REMARK  status: ('A' for Active; 'I' for Inactive)
ROOT
ATOM      1  N1  IND d   1      -0.806  -5.902  -6.000  0.00  0.00    -0.196 N 
ATOM      2  C2  IND d   1       0.560  -5.851  -6.000  0.00  0.00     0.054 A 
ATOM      3  C3  IND d   1       1.030  -5.831  -4.733  0.00  0.00    -0.031 A 
ATOM      4  C4  IND d   1      -0.257  -5.976  -2.508  0.00  0.00     0.051 A 
ATOM      5  C5  IND d   1      -1.524  -6.000  -1.996  0.00  0.00    -0.031 A 
ATOM      6  C6  IND d   1      -2.639  -5.994  -2.809  0.00  0.00     0.015 A 
ATOM      7  C7  IND d   1      -2.528  -5.976  -4.171  0.00  0.00    -0.016 A 
ATOM      8  C8  IND d   1      -1.243  -5.946  -4.694  0.00  0.00    -0.047 A 
ATOM      9  C9  IND d   1      -0.108  -5.908  -3.873  0.00  0.00    -0.096 A 
ATOM     10  HN1 IND d   1      -1.308  -5.905  -6.698  0.00  0.00     0.298 HD
ENDROOT
TORSDOF 0
ENDMDL
