MODEL 1
REMARK minimizedAffinity -1.5160923
REMARK minimizedRMSD -1
REMARK  0 active torsions:
REMARK  status: ('A' for Active; 'I' for Inactive)
ROOT
ATOM      1  N1  IND d   1      -0.026  -5.946  -5.993  0.00  0.00    -0.196 N 
ATOM      2  C2  IND d   1       1.330  -5.899  -5.829  0.00  0.00     0.054 A 
ATOM      3  C3  IND d   1       1.644  -5.865  -4.514  0.00  0.00    -0.031 A 
ATOM      4  C4  IND d   1       0.097  -5.982  -2.460  0.00  0.00     0.051 A 
ATOM      5  C5  IND d   1      -1.223  -5.997  -2.105  0.00  0.00    -0.031 A 
ATOM      6  C6  IND d   1      -2.231  -5.999  -3.047  0.00  0.00     0.015 A 
ATOM      7  C7  IND d   1      -1.956  -5.997  -4.385  0.00  0.00    -0.016 A 
ATOM      8  C8  IND d   1      -0.617  -5.975  -4.749  0.00  0.00    -0.047 A 
ATOM      9  C9  IND d   1       0.410  -5.930  -3.798  0.00  0.00    -0.096 A 
ATOM     10  HN1 IND d   1      -0.440  -5.957  -6.747  0.00  0.00     0.298 HD
ENDROOT
TORSDOF 0
ENDMDL
