MODEL 1
REMARK minimizedAffinity 10.9004526
REMARK minimizedRMSD -1
REMARK  0 active torsions:
REMARK  status: ('A' for Active; 'I' for Inactive)
ROOT
ATOM      1  N1  IND d   1       0.198   2.618   0.515  0.00  0.00    -0.196 N 
ATOM      2  C2  IND d   1       0.940   3.736   0.254  0.00  0.00     0.054 A 
ATOM      3  C3  IND d   1       2.232   3.402   0.038  0.00  0.00    -0.031 A 
ATOM      4  C4  IND d   1       3.330   1.075  -0.035  0.00  0.00     0.051 A 
ATOM      5  C5  IND d   1       3.064  -0.249   0.178  0.00  0.00    -0.031 A 
ATOM      6  C6  IND d   1       1.803  -0.694   0.519  0.00  0.00     0.015 A 
ATOM      7  C7  IND d   1       0.754   0.171   0.648  0.00  0.00    -0.016 A 
ATOM      8  C8  IND d   1       1.022   1.517   0.439  0.00  0.00    -0.047 A 
ATOM      9  C9  IND d   1       2.309   1.979   0.135  0.00  0.00    -0.096 A 
ATOM     10  HN1 IND d   1      -0.643   2.605   0.696  0.00  0.00     0.298 HD
ENDROOT
TORSDOF 0
ENDMDL
