MODEL 1
REMARK minimizedAffinity -0.885022044
REMARK minimizedRMSD -1
REMARK  0 active torsions:
REMARK  status: ('A' for Active; 'I' for Inactive)
ROOT
ATOM      1  N1  IND d   1       0.008  -5.996  -6.000  0.00  0.00    -0.196 N 
ATOM      2  C2  IND d   1       1.371  -5.971  -5.899  0.00  0.00     0.054 A 
ATOM      3  C3  IND d   1       1.746  -5.929  -4.601  0.00  0.00    -0.031 A 
ATOM      4  C4  IND d   1       0.294  -5.995  -2.476  0.00  0.00     0.051 A 
ATOM      5  C5  IND d   1      -1.007  -5.982  -2.060  0.00  0.00    -0.031 A 
ATOM      6  C6  IND d   1      -2.058  -5.976  -2.954  0.00  0.00     0.015 A 
ATOM      7  C7  IND d   1      -1.846  -5.994  -4.303  0.00  0.00    -0.016 A 
ATOM      8  C8  IND d   1      -0.525  -6.000  -4.730  0.00  0.00    -0.047 A 
ATOM      9  C9  IND d   1       0.546  -5.963  -3.827  0.00  0.00    -0.096 A 
ATOM     10  HN1 IND d   1      -0.441  -6.007  -6.733  0.00  0.00     0.298 HD
ENDROOT
TORSDOF 0
ENDMDL
