MODEL 1
REMARK minimizedAffinity 1.05182409
REMARK minimizedRMSD -1
REMARK  0 active torsions:
REMARK  status: ('A' for Active; 'I' for Inactive)
ROOT
ATOM      1  N1  IND d   1       0.442  -5.990  -2.425  0.00  0.00    -0.196 N 
ATOM      2  C2  IND d   1       1.740  -5.986  -2.855  0.00  0.00     0.054 A 
ATOM      3  C3  IND d   1       1.787  -5.999  -4.206  0.00  0.00    -0.031 A 
ATOM      4  C4  IND d   1      -0.141  -5.926  -5.911  0.00  0.00     0.051 A 
ATOM      5  C5  IND d   1      -1.505  -5.958  -5.997  0.00  0.00    -0.031 A 
ATOM      6  C6  IND d   1      -2.305  -5.999  -4.874  0.00  0.00     0.015 A 
ATOM      7  C7  IND d   1      -1.770  -6.000  -3.617  0.00  0.00    -0.016 A 
ATOM      8  C8  IND d   1      -0.385  -5.975  -3.526  0.00  0.00    -0.047 A 
ATOM      9  C9  IND d   1       0.433  -5.976  -4.663  0.00  0.00    -0.096 A 
ATOM     10  HN1 IND d   1       0.186  -6.000  -1.604  0.00  0.00     0.298 HD
ENDROOT
TORSDOF 0
ENDMDL
