MODEL 1
REMARK minimizedAffinity 4.75872755
REMARK minimizedRMSD -1
REMARK  0 active torsions:
REMARK  status: ('A' for Active; 'I' for Inactive)
ROOT
ATOM      1  N1  IND d   1      -1.364  -5.996  -2.413  0.00  0.00    -0.196 N 
ATOM      2  C2  IND d   1      -2.664  -5.980  -2.834  0.00  0.00     0.054 A 
ATOM      3  C3  IND d   1      -2.721  -5.940  -4.184  0.00  0.00    -0.031 A 
ATOM      4  C4  IND d   1      -0.805  -5.998  -5.903  0.00  0.00     0.051 A 
ATOM      5  C5  IND d   1       0.558  -5.977  -5.999  0.00  0.00    -0.031 A 
ATOM      6  C6  IND d   1       1.367  -5.964  -4.881  0.00  0.00     0.015 A 
ATOM      7  C7  IND d   1       0.840  -5.983  -3.620  0.00  0.00    -0.016 A 
ATOM      8  C8  IND d   1      -0.544  -5.997  -3.520  0.00  0.00    -0.047 A 
ATOM      9  C9  IND d   1      -1.370  -5.967  -4.650  0.00  0.00    -0.096 A 
ATOM     10  HN1 IND d   1      -1.102  -6.005  -1.594  0.00  0.00     0.298 HD
ENDROOT
TORSDOF 0
ENDMDL
