MODEL 1
REMARK minimizedAffinity 5.29346943
REMARK minimizedRMSD -1
REMARK  1 active torsions:
REMARK  status: ('A' for Active; 'I' for Inactive)
REMARK    1  A    between atoms: C1_2  and  C2_3 
ROOT
ATOM      1  C2  UNL d   1       3.348   1.269   0.958  0.00  0.00    -0.076 A 
ATOM      2  C3  UNL d   1       3.391   0.097   0.181  0.00  0.00     0.004 A 
ATOM      3  C4  UNL d   1       2.640  -0.017  -0.987  0.00  0.00    -0.003 A 
ATOM      4  C5  UNL d   1       1.833   1.038  -1.398  0.00  0.00     0.000 A 
ATOM      5  C6  UNL d   1       1.791   2.214  -0.650  0.00  0.00     0.000 A 
ATOM      6  C7  UNL d   1       2.555   2.352   0.522  0.00  0.00    -0.073 A 
ATOM      7  C8  UNL d   1       2.467   3.640   1.293  0.00  0.00     0.078 C 
ENDROOT
BRANCH   1   8
ATOM      8  C1  UNL d   1       4.163   1.325   2.230  0.00  0.00     0.053 C 
ATOM      9  C   UNL d   1       5.652   1.484   1.961  0.00  0.00     0.018 C 
ENDBRANCH   1   8
TORSDOF 1
ENDMDL
