MODEL 1
REMARK minimizedAffinity 12.072423
REMARK minimizedRMSD -1
REMARK  1 active torsions:
REMARK  status: ('A' for Active; 'I' for Inactive)
REMARK    1  A    between atoms: C1_2  and  C2_3 
ROOT
ATOM      1  C2  UNL d   1       1.116   4.161  -3.725  0.00  0.00    -0.076 A 
ATOM      2  C3  UNL d   1      -0.235   4.508  -3.897  0.00  0.00     0.004 A 
ATOM      3  C4  UNL d   1      -0.657   5.215  -5.022  0.00  0.00    -0.003 A 
ATOM      4  C5  UNL d   1       0.267   5.586  -5.993  0.00  0.00     0.000 A 
ATOM      5  C6  UNL d   1       1.608   5.235  -5.848  0.00  0.00     0.000 A 
ATOM      6  C7  UNL d   1       2.047   4.508  -4.728  0.00  0.00    -0.073 A 
ATOM      7  C8  UNL d   1       3.507   4.162  -4.618  0.00  0.00     0.078 C 
ENDROOT
BRANCH   1   8
ATOM      8  C1  UNL d   1       1.519   3.418  -2.472  0.00  0.00     0.053 C 
ATOM      9  C   UNL d   1       1.260   1.922  -2.572  0.00  0.00     0.018 C 
ENDBRANCH   1   8
TORSDOF 1
ENDMDL
