MODEL 1
REMARK minimizedAffinity 0.128630519
REMARK minimizedRMSD -1
REMARK  1 active torsions:
REMARK  status: ('A' for Active; 'I' for Inactive)
REMARK    1  A    between atoms: C1_2  and  C2_3 
ROOT
ATOM      1  C2  UNL d   1      -2.676  -4.225  -1.147  0.00  0.00    -0.076 A 
ATOM      2  C3  UNL d   1      -2.466  -5.234  -0.191  0.00  0.00     0.004 A 
ATOM      3  C4  UNL d   1      -3.223  -5.283   0.978  0.00  0.00    -0.003 A 
ATOM      4  C5  UNL d   1      -4.202  -4.324   1.211  0.00  0.00     0.000 A 
ATOM      5  C6  UNL d   1      -4.437  -3.326   0.266  0.00  0.00     0.000 A 
ATOM      6  C7  UNL d   1      -3.694  -3.272  -0.926  0.00  0.00    -0.073 A 
ATOM      7  C8  UNL d   1      -3.984  -2.170  -1.908  0.00  0.00     0.078 C 
ENDROOT
BRANCH   1   8
ATOM      8  C1  UNL d   1      -1.807  -4.206  -2.384  0.00  0.00     0.053 C 
ATOM      9  C   UNL d   1      -2.204  -5.274  -3.391  0.00  0.00     0.018 C 
ENDBRANCH   1   8
TORSDOF 1
ENDMDL
