MODEL 1
REMARK minimizedAffinity 9.66562843
REMARK minimizedRMSD -1
REMARK  1 active torsions:
REMARK  status: ('A' for Active; 'I' for Inactive)
REMARK    1  A    between atoms: C1_2  and  C2_3 
ROOT
ATOM      1  C2  UNL d   1       1.632  -0.296   0.821  0.00  0.00    -0.076 A 
ATOM      2  C3  UNL d   1       0.284  -0.636   1.027  0.00  0.00     0.004 A 
ATOM      3  C4  UNL d   1      -0.073  -1.644   1.921  0.00  0.00    -0.003 A 
ATOM      4  C5  UNL d   1       0.912  -2.329   2.623  0.00  0.00     0.000 A 
ATOM      5  C6  UNL d   1       2.254  -1.993   2.444  0.00  0.00     0.000 A 
ATOM      6  C7  UNL d   1       2.630  -0.968   1.560  0.00  0.00    -0.073 A 
ATOM      7  C8  UNL d   1       4.092  -0.652   1.401  0.00  0.00     0.078 C 
ENDROOT
BRANCH   1   8
ATOM      8  C1  UNL d   1       1.961   0.788  -0.181  0.00  0.00     0.053 C 
ATOM      9  C   UNL d   1       1.628   2.179   0.335  0.00  0.00     0.018 C 
ENDBRANCH   1   8
TORSDOF 1
ENDMDL
