MODEL 1
REMARK minimizedAffinity 9.91780758
REMARK minimizedRMSD -1
REMARK  1 active torsions:
REMARK  status: ('A' for Active; 'I' for Inactive)
REMARK    1  A    between atoms: C1_2  and  C2_3 
ROOT
ATOM      1  C2  UNL d   1       2.393   1.562   0.259  0.00  0.00    -0.076 A 
ATOM      2  C3  UNL d   1       1.363   2.343   0.811  0.00  0.00     0.004 A 
ATOM      3  C4  UNL d   1       0.430   2.981  -0.004  0.00  0.00    -0.003 A 
ATOM      4  C5  UNL d   1       0.511   2.848  -1.386  0.00  0.00     0.000 A 
ATOM      5  C6  UNL d   1       1.516   2.063  -1.951  0.00  0.00     0.000 A 
ATOM      6  C7  UNL d   1       2.455   1.400  -1.142  0.00  0.00    -0.073 A 
ATOM      7  C8  UNL d   1       3.521   0.572  -1.804  0.00  0.00     0.078 C 
ENDROOT
BRANCH   1   8
ATOM      8  C1  UNL d   1       3.392   0.917   1.192  0.00  0.00     0.053 C 
ATOM      9  C   UNL d   1       3.189  -0.586   1.314  0.00  0.00     0.018 C 
ENDBRANCH   1   8
TORSDOF 1
ENDMDL
