MODEL 1
REMARK minimizedAffinity 10.8358355
REMARK minimizedRMSD -1
REMARK  1 active torsions:
REMARK  status: ('A' for Active; 'I' for Inactive)
REMARK    1  A    between atoms: C1_2  and  C2_3 
ROOT
ATOM      1  C2  UNL d   1      -5.953  -2.067  -4.144  0.00  0.00    -0.076 A 
ATOM      2  C3  UNL d   1      -5.923  -1.792  -5.522  0.00  0.00     0.004 A 
ATOM      3  C4  UNL d   1      -5.910  -0.480  -5.992  0.00  0.00    -0.003 A 
ATOM      4  C5  UNL d   1      -5.924   0.579  -5.091  0.00  0.00     0.000 A 
ATOM      5  C6  UNL d   1      -5.936   0.325  -3.720  0.00  0.00     0.000 A 
ATOM      6  C7  UNL d   1      -5.933  -0.992  -3.229  0.00  0.00    -0.073 A 
ATOM      7  C8  UNL d   1      -5.952  -1.208  -1.741  0.00  0.00     0.078 C 
ENDROOT
BRANCH   1   8
ATOM      8  C1  UNL d   1      -5.994  -3.510  -3.694  0.00  0.00     0.053 C 
ATOM      9  C   UNL d   1      -6.000  -4.484  -4.861  0.00  0.00     0.018 C 
ENDBRANCH   1   8
TORSDOF 1
ENDMDL
