MODEL 1
REMARK minimizedAffinity 9.34714794
REMARK minimizedRMSD -1
REMARK  1 active torsions:
REMARK  status: ('A' for Active; 'I' for Inactive)
REMARK    1  A    between atoms: C1_2  and  C2_3 
ROOT
ATOM      1  C2  UNL d   1      -5.855   1.288  -2.855  0.00  0.00    -0.076 A 
ATOM      2  C3  UNL d   1      -5.730   0.085  -2.139  0.00  0.00     0.004 A 
ATOM      3  C4  UNL d   1      -5.573   0.087  -0.754  0.00  0.00    -0.003 A 
ATOM      4  C5  UNL d   1      -5.540   1.293  -0.062  0.00  0.00     0.000 A 
ATOM      5  C6  UNL d   1      -5.682   2.495  -0.754  0.00  0.00     0.000 A 
ATOM      6  C7  UNL d   1      -5.856   2.510  -2.148  0.00  0.00    -0.073 A 
ATOM      7  C8  UNL d   1      -5.997   3.836  -2.844  0.00  0.00     0.078 C 
ENDROOT
BRANCH   1   8
ATOM      8  C1  UNL d   1      -5.995   1.225  -4.359  0.00  0.00     0.053 C 
ATOM      9  C   UNL d   1      -5.929  -0.199  -4.891  0.00  0.00     0.018 C 
ENDBRANCH   1   8
TORSDOF 1
ENDMDL
