MODEL 1
REMARK minimizedAffinity 6.73145723
REMARK minimizedRMSD -1
REMARK  1 active torsions:
REMARK  status: ('A' for Active; 'I' for Inactive)
REMARK    1  A    between atoms: C1_2  and  C2_3 
ROOT
ATOM      1  C2  UNL d   1      -3.395  -0.143   2.960  0.00  0.00    -0.076 A 
ATOM      2  C3  UNL d   1      -2.443  -0.708   2.093  0.00  0.00     0.004 A 
ATOM      3  C4  UNL d   1      -1.175  -1.062   2.553  0.00  0.00    -0.003 A 
ATOM      4  C5  UNL d   1      -0.839  -0.857   3.887  0.00  0.00     0.000 A 
ATOM      5  C6  UNL d   1      -1.778  -0.315   4.764  0.00  0.00     0.000 A 
ATOM      6  C7  UNL d   1      -3.065   0.032   4.321  0.00  0.00    -0.073 A 
ATOM      7  C8  UNL d   1      -4.035   0.619   5.309  0.00  0.00     0.078 C 
ENDROOT
BRANCH   1   8
ATOM      8  C1  UNL d   1      -4.744   0.246   2.399  0.00  0.00     0.053 C 
ATOM      9  C   UNL d   1      -4.854  -0.023   0.906  0.00  0.00     0.018 C 
ENDBRANCH   1   8
TORSDOF 1
ENDMDL
