MODEL 1
REMARK minimizedAffinity -0.73948729
REMARK minimizedRMSD -1
REMARK  1 active torsions:
REMARK  status: ('A' for Active; 'I' for Inactive)
REMARK    1  A    between atoms: C1_2  and  C2_3 
ROOT
ATOM      1  C2  UNL d   1      -3.247  -1.092   3.246  0.00  0.00    -0.076 A 
ATOM      2  C3  UNL d   1      -4.167  -1.235   4.299  0.00  0.00     0.004 A 
ATOM      3  C4  UNL d   1      -3.844  -0.832   5.593  0.00  0.00    -0.003 A 
ATOM      4  C5  UNL d   1      -2.596  -0.278   5.856  0.00  0.00     0.000 A 
ATOM      5  C6  UNL d   1      -1.678  -0.112   4.820  0.00  0.00     0.000 A 
ATOM      6  C7  UNL d   1      -1.993  -0.498   3.506  0.00  0.00    -0.073 A 
ATOM      7  C8  UNL d   1      -0.963  -0.302   2.428  0.00  0.00     0.078 C 
ENDROOT
BRANCH   1   8
ATOM      8  C1  UNL d   1      -3.643  -1.572   1.868  0.00  0.00     0.053 C 
ATOM      9  C   UNL d   1      -4.627  -0.635   1.184  0.00  0.00     0.018 C 
ENDBRANCH   1   8
TORSDOF 1
ENDMDL
