MODEL 1
REMARK minimizedAffinity 12.678237
REMARK minimizedRMSD -1
REMARK  1 active torsions:
REMARK  status: ('A' for Active; 'I' for Inactive)
REMARK    1  A    between atoms: C1_2  and  C2_3 
ROOT
ATOM      1  C2  UNL d   1      -4.085  -0.288   3.607  0.00  0.00    -0.076 A 
ATOM      2  C3  UNL d   1      -2.834   0.326   3.422  0.00  0.00     0.004 A 
ATOM      3  C4  UNL d   1      -2.101   0.803   4.507  0.00  0.00    -0.003 A 
ATOM      4  C5  UNL d   1      -2.607   0.674   5.796  0.00  0.00     0.000 A 
ATOM      5  C6  UNL d   1      -3.838   0.052   6.000  0.00  0.00     0.000 A 
ATOM      6  C7  UNL d   1      -4.582  -0.449   4.918  0.00  0.00    -0.073 A 
ATOM      7  C8  UNL d   1      -5.907  -1.106   5.195  0.00  0.00     0.078 C 
ENDROOT
BRANCH   1   8
ATOM      8  C1  UNL d   1      -4.846  -0.762   2.390  0.00  0.00     0.053 C 
ATOM      9  C   UNL d   1      -4.898  -2.278   2.289  0.00  0.00     0.018 C 
ENDBRANCH   1   8
TORSDOF 1
ENDMDL
