MODEL 1
REMARK minimizedAffinity 0.922781527
REMARK minimizedRMSD -1
REMARK  1 active torsions:
REMARK  status: ('A' for Active; 'I' for Inactive)
REMARK    1  A    between atoms: C1_2  and  C2_3 
ROOT
ATOM      1  C2  UNL d   1      -2.478  -0.267   3.614  0.00  0.00    -0.076 A 
ATOM      2  C3  UNL d   1      -1.878   0.149   4.815  0.00  0.00     0.004 A 
ATOM      3  C4  UNL d   1      -2.620   0.244   5.992  0.00  0.00    -0.003 A 
ATOM      4  C5  UNL d   1      -3.973  -0.076   5.986  0.00  0.00     0.000 A 
ATOM      5  C6  UNL d   1      -4.580  -0.508   4.807  0.00  0.00     0.000 A 
ATOM      6  C7  UNL d   1      -3.843  -0.625   3.616  0.00  0.00    -0.073 A 
ATOM      7  C8  UNL d   1      -4.551  -1.089   2.373  0.00  0.00     0.078 C 
ENDROOT
BRANCH   1   8
ATOM      8  C1  UNL d   1      -1.630  -0.325   2.363  0.00  0.00     0.053 C 
ATOM      9  C   UNL d   1      -1.043  -1.707   2.121  0.00  0.00     0.018 C 
ENDBRANCH   1   8
TORSDOF 1
ENDMDL
