MODEL 1
REMARK minimizedAffinity 10.2583466
REMARK minimizedRMSD -1
REMARK  1 active torsions:
REMARK  status: ('A' for Active; 'I' for Inactive)
REMARK    1  A    between atoms: C1_2  and  C2_3 
ROOT
ATOM      1  C2  UNL d   1       0.220   4.278  -3.574  0.00  0.00    -0.076 A 
ATOM      2  C3  UNL d   1       0.604   3.695  -4.794  0.00  0.00     0.004 A 
ATOM      3  C4  UNL d   1       0.034   4.109  -5.997  0.00  0.00    -0.003 A 
ATOM      4  C5  UNL d   1      -0.928   5.112  -6.000  0.00  0.00     0.000 A 
ATOM      5  C6  UNL d   1      -1.308   5.713  -4.800  0.00  0.00     0.000 A 
ATOM      6  C7  UNL d   1      -0.732   5.319  -3.580  0.00  0.00    -0.073 A 
ATOM      7  C8  UNL d   1      -1.184   5.998  -2.316  0.00  0.00     0.078 C 
ENDROOT
BRANCH   1   8
ATOM      8  C1  UNL d   1       0.853   3.769  -2.298  0.00  0.00     0.053 C 
ATOM      9  C   UNL d   1       1.151   2.279  -2.349  0.00  0.00     0.018 C 
ENDBRANCH   1   8
TORSDOF 1
ENDMDL
