MODEL 1
REMARK minimizedAffinity 10.1595592
REMARK minimizedRMSD -1
REMARK  1 active torsions:
REMARK  status: ('A' for Active; 'I' for Inactive)
REMARK    1  A    between atoms: C1_2  and  C2_3 
ROOT
ATOM      1  C2  UNL d   1       4.848   3.735   2.646  0.00  0.00    -0.076 A 
ATOM      2  C3  UNL d   1       5.999   3.005   2.990  0.00  0.00     0.004 A 
ATOM      3  C4  UNL d   1       6.000   1.612   2.961  0.00  0.00    -0.003 A 
ATOM      4  C5  UNL d   1       4.850   0.925   2.586  0.00  0.00     0.000 A 
ATOM      5  C6  UNL d   1       3.704   1.634   2.224  0.00  0.00     0.000 A 
ATOM      6  C7  UNL d   1       3.692   3.039   2.233  0.00  0.00    -0.073 A 
ATOM      7  C8  UNL d   1       2.427   3.752   1.839  0.00  0.00     0.078 C 
ENDROOT
BRANCH   1   8
ATOM      8  C1  UNL d   1       4.898   5.245   2.723  0.00  0.00     0.053 C 
ATOM      9  C   UNL d   1       4.861   5.757   4.155  0.00  0.00     0.018 C 
ENDBRANCH   1   8
TORSDOF 1
ENDMDL
