MODEL 1
REMARK minimizedAffinity 5.95597839
REMARK minimizedRMSD -1
REMARK  1 active torsions:
REMARK  status: ('A' for Active; 'I' for Inactive)
REMARK    1  A    between atoms: C1_2  and  C2_3 
ROOT
ATOM      1  C2  UNL d   1       2.123   3.272  -3.241  0.00  0.00    -0.076 A 
ATOM      2  C3  UNL d   1       1.319   2.435  -2.448  0.00  0.00     0.004 A 
ATOM      3  C4  UNL d   1       1.872   1.364  -1.747  0.00  0.00    -0.003 A 
ATOM      4  C5  UNL d   1       3.237   1.113  -1.828  0.00  0.00     0.000 A 
ATOM      5  C6  UNL d   1       4.052   1.944  -2.597  0.00  0.00     0.000 A 
ATOM      6  C7  UNL d   1       3.514   3.037  -3.296  0.00  0.00    -0.073 A 
ATOM      7  C8  UNL d   1       4.438   3.897  -4.115  0.00  0.00     0.078 C 
ENDROOT
BRANCH   1   8
ATOM      8  C1  UNL d   1       1.464   4.402  -4.000  0.00  0.00     0.053 C 
ATOM      9  C   UNL d   1       0.130   3.995  -4.608  0.00  0.00     0.018 C 
ENDBRANCH   1   8
TORSDOF 1
ENDMDL
