MODEL 1
REMARK minimizedAffinity 0.747816145
REMARK minimizedRMSD -1
REMARK  1 active torsions:
REMARK  status: ('A' for Active; 'I' for Inactive)
REMARK    1  A    between atoms: C1_2  and  C2_3 
ROOT
ATOM      1  C2  UNL d   1      -2.412  -0.858   3.399  0.00  0.00    -0.076 A 
ATOM      2  C3  UNL d   1      -2.491  -1.532   2.168  0.00  0.00     0.004 A 
ATOM      3  C4  UNL d   1      -3.669  -2.161   1.769  0.00  0.00    -0.003 A 
ATOM      4  C5  UNL d   1      -4.787  -2.126   2.594  0.00  0.00     0.000 A 
ATOM      5  C6  UNL d   1      -4.732  -1.447   3.811  0.00  0.00     0.000 A 
ATOM      6  C7  UNL d   1      -3.557  -0.793   4.221  0.00  0.00    -0.073 A 
ATOM      7  C8  UNL d   1      -3.551  -0.081   5.546  0.00  0.00     0.078 C 
ENDROOT
BRANCH   1   8
ATOM      8  C1  UNL d   1      -1.099  -0.218   3.791  0.00  0.00     0.053 C 
ATOM      9  C   UNL d   1       0.013  -1.237   3.981  0.00  0.00     0.018 C 
ENDBRANCH   1   8
TORSDOF 1
ENDMDL
