MODEL 1
REMARK minimizedAffinity 3.14993262
REMARK minimizedRMSD -1
REMARK  1 active torsions:
REMARK  status: ('A' for Active; 'I' for Inactive)
REMARK    1  A    between atoms: C1_2  and  C2_3 
ROOT
ATOM      1  C2  UNL d   1      -2.815  -1.161   2.456  0.00  0.00    -0.076 A 
ATOM      2  C3  UNL d   1      -2.932  -1.935   1.288  0.00  0.00     0.004 A 
ATOM      3  C4  UNL d   1      -4.043  -2.750   1.076  0.00  0.00    -0.003 A 
ATOM      4  C5  UNL d   1      -5.055  -2.803   2.027  0.00  0.00     0.000 A 
ATOM      5  C6  UNL d   1      -4.964  -2.029   3.183  0.00  0.00     0.000 A 
ATOM      6  C7  UNL d   1      -3.858  -1.190   3.406  0.00  0.00    -0.073 A 
ATOM      7  C8  UNL d   1      -3.809  -0.381   4.673  0.00  0.00     0.078 C 
ENDROOT
BRANCH   1   8
ATOM      8  C1  UNL d   1      -1.574  -0.317   2.644  0.00  0.00     0.053 C 
ATOM      9  C   UNL d   1      -0.374  -1.137   3.093  0.00  0.00     0.018 C 
ENDBRANCH   1   8
TORSDOF 1
ENDMDL
