MODEL 1
REMARK minimizedAffinity 4.06456184
REMARK minimizedRMSD -1
REMARK  0 active torsions:
REMARK  status: ('A' for Active; 'I' for Inactive)
ROOT
ATOM      1  C   UNL d   1       0.751   0.422  -1.398  0.00  0.00     0.077 C 
ATOM      2  C1  UNL d   1       0.778   0.629   0.087  0.00  0.00    -0.074 A 
ATOM      3  C2  UNL d   1       0.248   1.789   0.661  0.00  0.00    -0.005 A 
ATOM      4  C3  UNL d   1       0.271   1.962   2.045  0.00  0.00     0.006 A 
ATOM      5  C4  UNL d   1       0.824   0.980   2.867  0.00  0.00    -0.005 A 
ATOM      6  C5  UNL d   1       1.359  -0.186   2.311  0.00  0.00    -0.074 A 
ATOM      7  C6  UNL d   1       1.948  -1.257   3.181  0.00  0.00     0.077 C 
ATOM      8  C7  UNL d   1       1.325  -0.357   0.920  0.00  0.00    -0.001 A 
ENDROOT
TORSDOF 0
ENDMDL
