MODEL 1
REMARK minimizedAffinity 1.6262157
REMARK minimizedRMSD -1
REMARK  0 active torsions:
REMARK  status: ('A' for Active; 'I' for Inactive)
ROOT
ATOM      1  C   UNL d   1       0.352   4.660  -0.800  0.00  0.00     0.077 C 
ATOM      2  C1  UNL d   1       0.323   3.232  -0.341  0.00  0.00    -0.074 A 
ATOM      3  C2  UNL d   1       0.015   2.198  -1.230  0.00  0.00    -0.005 A 
ATOM      4  C3  UNL d   1       0.000   0.874  -0.792  0.00  0.00     0.006 A 
ATOM      5  C4  UNL d   1       0.294   0.572   0.539  0.00  0.00    -0.005 A 
ATOM      6  C5  UNL d   1       0.605   1.593   1.442  0.00  0.00    -0.074 A 
ATOM      7  C6  UNL d   1       0.932   1.284   2.873  0.00  0.00     0.077 C 
ATOM      8  C7  UNL d   1       0.624   2.920   0.992  0.00  0.00    -0.001 A 
ENDROOT
TORSDOF 0
ENDMDL
