MODEL 1
REMARK minimizedAffinity 0.106107675
REMARK minimizedRMSD -1
REMARK  0 active torsions:
REMARK  status: ('A' for Active; 'I' for Inactive)
ROOT
ATOM      1  C   UNL d   1       0.752   1.821   2.587  0.00  0.00     0.077 C 
ATOM      2  C1  UNL d   1       0.630   2.307   1.173  0.00  0.00    -0.074 A 
ATOM      3  C2  UNL d   1       0.527   1.405   0.109  0.00  0.00    -0.005 A 
ATOM      4  C3  UNL d   1       0.404   1.872  -1.199  0.00  0.00     0.006 A 
ATOM      5  C4  UNL d   1       0.384   3.243  -1.457  0.00  0.00    -0.005 A 
ATOM      6  C5  UNL d   1       0.485   4.160  -0.406  0.00  0.00    -0.074 A 
ATOM      7  C6  UNL d   1       0.455   5.637  -0.665  0.00  0.00     0.077 C 
ATOM      8  C7  UNL d   1       0.601   3.683   0.906  0.00  0.00    -0.001 A 
ENDROOT
TORSDOF 0
ENDMDL
