MODEL 1
REMARK minimizedAffinity 0.963222265
REMARK minimizedRMSD -1
REMARK  0 active torsions:
REMARK  status: ('A' for Active; 'I' for Inactive)
ROOT
ATOM      1  C   UNL d   1       0.247  -0.282   1.721  0.00  0.00     0.077 C 
ATOM      2  C1  UNL d   1       0.669   1.151   1.845  0.00  0.00    -0.074 A 
ATOM      3  C2  UNL d   1       1.222   1.638   3.035  0.00  0.00    -0.005 A 
ATOM      4  C3  UNL d   1       1.619   2.971   3.132  0.00  0.00     0.006 A 
ATOM      5  C4  UNL d   1       1.467   3.831   2.043  0.00  0.00    -0.005 A 
ATOM      6  C5  UNL d   1       0.916   3.362   0.846  0.00  0.00    -0.074 A 
ATOM      7  C6  UNL d   1       0.755   4.271  -0.337  0.00  0.00     0.077 C 
ATOM      8  C7  UNL d   1       0.527   2.019   0.754  0.00  0.00    -0.001 A 
ENDROOT
TORSDOF 0
ENDMDL
