MODEL 1
REMARK minimizedAffinity 3.64555025
REMARK minimizedRMSD -1
REMARK  0 active torsions:
REMARK  status: ('A' for Active; 'I' for Inactive)
ROOT
ATOM      1  C   UNL d   1       0.592   0.532   1.093  0.00  0.00     0.077 C 
ATOM      2  C1  UNL d   1       0.523   1.729   0.193  0.00  0.00    -0.074 A 
ATOM      3  C2  UNL d   1       0.140   1.601  -1.146  0.00  0.00    -0.005 A 
ATOM      4  C3  UNL d   1       0.072   2.725  -1.969  0.00  0.00     0.006 A 
ATOM      5  C4  UNL d   1       0.386   3.987  -1.463  0.00  0.00    -0.005 A 
ATOM      6  C5  UNL d   1       0.770   4.135  -0.126  0.00  0.00    -0.074 A 
ATOM      7  C6  UNL d   1       1.101   5.485   0.437  0.00  0.00     0.077 C 
ATOM      8  C7  UNL d   1       0.829   3.002   0.696  0.00  0.00    -0.001 A 
ENDROOT
TORSDOF 0
ENDMDL
