MODEL 1
REMARK minimizedAffinity 3.55914521
REMARK minimizedRMSD -1
REMARK  0 active torsions:
REMARK  status: ('A' for Active; 'I' for Inactive)
ROOT
ATOM      1  C   UNL d   1       0.595   4.962  -0.403  0.00  0.00     0.077 C 
ATOM      2  C1  UNL d   1       0.464   3.489  -0.153  0.00  0.00    -0.074 A 
ATOM      3  C2  UNL d   1       0.330   2.589  -1.215  0.00  0.00    -0.005 A 
ATOM      4  C3  UNL d   1       0.218   1.221  -0.968  0.00  0.00     0.006 A 
ATOM      5  C4  UNL d   1       0.239   0.740   0.342  0.00  0.00    -0.005 A 
ATOM      6  C5  UNL d   1       0.373   1.624   1.417  0.00  0.00    -0.074 A 
ATOM      7  C6  UNL d   1       0.406   1.123   2.830  0.00  0.00     0.077 C 
ATOM      8  C7  UNL d   1       0.491   2.997   1.160  0.00  0.00    -0.001 A 
ENDROOT
TORSDOF 0
ENDMDL
