MODEL 1
REMARK minimizedAffinity -2.70424938
REMARK minimizedRMSD -1
REMARK  0 active torsions:
REMARK  status: ('A' for Active; 'I' for Inactive)
ROOT
ATOM      1  C   UNL d   1       0.635   1.823   2.286  0.00  0.00     0.077 C 
ATOM      2  C1  UNL d   1       1.129   2.989   1.481  0.00  0.00    -0.074 A 
ATOM      3  C2  UNL d   1       2.231   3.739   1.905  0.00  0.00    -0.005 A 
ATOM      4  C3  UNL d   1       2.685   4.814   1.141  0.00  0.00     0.006 A 
ATOM      5  C4  UNL d   1       2.043   5.149  -0.052  0.00  0.00    -0.005 A 
ATOM      6  C5  UNL d   1       0.941   4.410  -0.492  0.00  0.00    -0.074 A 
ATOM      7  C6  UNL d   1       0.246   4.750  -1.777  0.00  0.00     0.077 C 
ATOM      8  C7  UNL d   1       0.495   3.327   0.278  0.00  0.00    -0.001 A 
ENDROOT
TORSDOF 0
ENDMDL
