MODEL 1
REMARK minimizedAffinity 1.25866032
REMARK minimizedRMSD -1
REMARK  0 active torsions:
REMARK  status: ('A' for Active; 'I' for Inactive)
ROOT
ATOM      1  C   UNL d   1       0.976  -0.493   3.225  0.00  0.00     0.077 C 
ATOM      2  C1  UNL d   1       0.696   0.498   2.134  0.00  0.00    -0.074 A 
ATOM      3  C2  UNL d   1       0.608   1.866   2.411  0.00  0.00    -0.005 A 
ATOM      4  C3  UNL d   1       0.356   2.776   1.385  0.00  0.00     0.006 A 
ATOM      5  C4  UNL d   1       0.189   2.329   0.074  0.00  0.00    -0.005 A 
ATOM      6  C5  UNL d   1       0.274   0.965  -0.222  0.00  0.00    -0.074 A 
ATOM      7  C6  UNL d   1       0.107   0.468  -1.627  0.00  0.00     0.077 C 
ATOM      8  C7  UNL d   1       0.535   0.057   0.813  0.00  0.00    -0.001 A 
ENDROOT
TORSDOF 0
ENDMDL
