MODEL 1
REMARK minimizedAffinity -2.96930742
REMARK minimizedRMSD -1
REMARK  0 active torsions:
REMARK  status: ('A' for Active; 'I' for Inactive)
ROOT
ATOM      1  C   UNL d   1      -2.635   4.277  -3.846  0.00  0.00     0.077 C 
ATOM      2  C1  UNL d   1      -1.579   4.069  -2.801  0.00  0.00    -0.074 A 
ATOM      3  C2  UNL d   1      -0.779   5.131  -2.366  0.00  0.00    -0.005 A 
ATOM      4  C3  UNL d   1       0.192   4.924  -1.387  0.00  0.00     0.006 A 
ATOM      5  C4  UNL d   1       0.373   3.656  -0.833  0.00  0.00    -0.005 A 
ATOM      6  C5  UNL d   1      -0.419   2.583  -1.254  0.00  0.00    -0.074 A 
ATOM      7  C6  UNL d   1      -0.244   1.216  -0.662  0.00  0.00     0.077 C 
ATOM      8  C7  UNL d   1      -1.397   2.800  -2.234  0.00  0.00    -0.001 A 
ENDROOT
TORSDOF 0
ENDMDL
