MODEL 1
REMARK minimizedAffinity 4.15074062
REMARK minimizedRMSD -1
REMARK  0 active torsions:
REMARK  status: ('A' for Active; 'I' for Inactive)
ROOT
ATOM      1  C   UNL d   1       0.769   4.890  -0.236  0.00  0.00     0.077 C 
ATOM      2  C1  UNL d   1       1.115   3.969   0.896  0.00  0.00    -0.074 A 
ATOM      3  C2  UNL d   1       2.068   4.332   1.852  0.00  0.00    -0.005 A 
ATOM      4  C3  UNL d   1       2.373   3.469   2.905  0.00  0.00     0.006 A 
ATOM      5  C4  UNL d   1       1.728   2.236   3.012  0.00  0.00    -0.005 A 
ATOM      6  C5  UNL d   1       0.771   1.856   2.065  0.00  0.00    -0.074 A 
ATOM      7  C6  UNL d   1       0.062   0.539   2.171  0.00  0.00     0.077 C 
ATOM      8  C7  UNL d   1       0.466   2.732   1.014  0.00  0.00    -0.001 A 
ENDROOT
TORSDOF 0
ENDMDL
