MODEL 1
REMARK minimizedAffinity -6.3676424
REMARK minimizedRMSD -1
REMARK  0 active torsions:
REMARK  status: ('A' for Active; 'I' for Inactive)
ROOT
ATOM      1  C   UNL d   1      -0.127   5.965  -1.220  0.00  0.00     0.077 C 
ATOM      2  C1  UNL d   1      -0.330   4.492  -1.024  0.00  0.00    -0.074 A 
ATOM      3  C2  UNL d   1      -0.578   3.650  -2.112  0.00  0.00    -0.005 A 
ATOM      4  C3  UNL d   1      -0.755   2.280  -1.916  0.00  0.00     0.006 A 
ATOM      5  C4  UNL d   1      -0.686   1.740  -0.631  0.00  0.00    -0.005 A 
ATOM      6  C5  UNL d   1      -0.438   2.567   0.470  0.00  0.00    -0.074 A 
ATOM      7  C6  UNL d   1      -0.351   2.001   1.856  0.00  0.00     0.077 C 
ATOM      8  C7  UNL d   1      -0.254   3.941   0.263  0.00  0.00    -0.001 A 
ENDROOT
TORSDOF 0
ENDMDL
