MODEL 1
REMARK minimizedAffinity -1.2844981
REMARK minimizedRMSD -1
REMARK  0 active torsions:
REMARK  status: ('A' for Active; 'I' for Inactive)
ROOT
ATOM      1  C   UNL d   1       0.542   1.528   2.782  0.00  0.00     0.077 C 
ATOM      2  C1  UNL d   1       0.467   1.806   1.310  0.00  0.00    -0.074 A 
ATOM      3  C2  UNL d   1       0.310   0.765   0.389  0.00  0.00    -0.005 A 
ATOM      4  C3  UNL d   1       0.233   1.040  -0.976  0.00  0.00     0.006 A 
ATOM      5  C4  UNL d   1       0.311   2.356  -1.434  0.00  0.00    -0.005 A 
ATOM      6  C5  UNL d   1       0.466   3.409  -0.527  0.00  0.00    -0.074 A 
ATOM      7  C6  UNL d   1       0.542   4.830  -1.002  0.00  0.00     0.077 C 
ATOM      8  C7  UNL d   1       0.536   3.126   0.843  0.00  0.00    -0.001 A 
ENDROOT
TORSDOF 0
ENDMDL
