MODEL 1
REMARK minimizedAffinity 1.85375285
REMARK minimizedRMSD -1
REMARK  0 active torsions:
REMARK  status: ('A' for Active; 'I' for Inactive)
ROOT
ATOM      1  N1  IND d   1       0.571  -1.818  -1.506  0.00  0.00    -0.196 N 
ATOM      2  C2  IND d   1      -0.663  -1.794  -0.917  0.00  0.00     0.054 A 
ATOM      3  C3  IND d   1      -0.746  -0.769  -0.040  0.00  0.00    -0.031 A 
ATOM      4  C4  IND d   1       0.986   1.054   0.514  0.00  0.00     0.051 A 
ATOM      5  C5  IND d   1       2.275   1.429   0.257  0.00  0.00    -0.031 A 
ATOM      6  C6  IND d   1       3.077   0.729  -0.621  0.00  0.00     0.015 A 
ATOM      7  C7  IND d   1       2.614  -0.372  -1.286  0.00  0.00    -0.016 A 
ATOM      8  C8  IND d   1       1.308  -0.760  -1.022  0.00  0.00    -0.047 A 
ATOM      9  C9  IND d   1       0.503  -0.078  -0.100  0.00  0.00    -0.096 A 
ATOM     10  HN1 IND d   1       0.841  -2.396  -2.082  0.00  0.00     0.298 HD
ENDROOT
TORSDOF 0
ENDMDL
