MODEL 1
REMARK minimizedAffinity 9.24810123
REMARK minimizedRMSD -1
REMARK  0 active torsions:
REMARK  status: ('A' for Active; 'I' for Inactive)
ROOT
ATOM      1  N1  IND d   1       5.679   1.616  -2.063  0.00  0.00    -0.196 N 
ATOM      2  C2  IND d   1       6.000   2.540  -1.108  0.00  0.00     0.054 A 
ATOM      3  C3  IND d   1       5.063   2.553  -0.133  0.00  0.00    -0.031 A 
ATOM      4  C4  IND d   1       2.975   1.073   0.148  0.00  0.00     0.051 A 
ATOM      5  C5  IND d   1       2.244   0.110  -0.489  0.00  0.00    -0.031 A 
ATOM      6  C6  IND d   1       2.630  -0.413  -1.706  0.00  0.00     0.015 A 
ATOM      7  C7  IND d   1       3.773   0.001  -2.329  0.00  0.00    -0.016 A 
ATOM      8  C8  IND d   1       4.514   0.985  -1.689  0.00  0.00    -0.047 A 
ATOM      9  C9  IND d   1       4.104   1.550  -0.475  0.00  0.00    -0.096 A 
ATOM     10  HN1 IND d   1       6.130   1.457  -2.778  0.00  0.00     0.298 HD
ENDROOT
TORSDOF 0
ENDMDL
