MODEL 1
REMARK minimizedAffinity 0.53209424
REMARK minimizedRMSD -1
REMARK  0 active torsions:
REMARK  status: ('A' for Active; 'I' for Inactive)
ROOT
ATOM      1  N1  IND d   1      -0.685   1.427  -1.287  0.00  0.00    -0.196 N 
ATOM      2  C2  IND d   1      -0.249   0.144  -1.472  0.00  0.00     0.054 A 
ATOM      3  C3  IND d   1       0.744  -0.145  -0.602  0.00  0.00    -0.031 A 
ATOM      4  C4  IND d   1       1.742   1.300   1.280  0.00  0.00     0.051 A 
ATOM      5  C5  IND d   1       1.694   2.557   1.814  0.00  0.00    -0.031 A 
ATOM      6  C6  IND d   1       0.830   3.521   1.333  0.00  0.00     0.015 A 
ATOM      7  C7  IND d   1      -0.028   3.258   0.304  0.00  0.00    -0.016 A 
ATOM      8  C8  IND d   1       0.023   1.984  -0.245  0.00  0.00    -0.047 A 
ATOM      9  C9  IND d   1       0.927   1.016   0.210  0.00  0.00    -0.096 A 
ATOM     10  HN1 IND d   1      -1.298   1.820  -1.745  0.00  0.00     0.298 HD
ENDROOT
TORSDOF 0
ENDMDL
