MODEL 1
REMARK minimizedAffinity 16.1600132
REMARK minimizedRMSD -1
REMARK  0 active torsions:
REMARK  status: ('A' for Active; 'I' for Inactive)
ROOT
ATOM      1  N1  IND d   1       5.534   2.398  -0.455  0.00  0.00    -0.196 N 
ATOM      2  C2  IND d   1       5.999   2.571  -1.729  0.00  0.00     0.054 A 
ATOM      3  C3  IND d   1       5.318   1.783  -2.590  0.00  0.00    -0.031 A 
ATOM      4  C4  IND d   1       3.333   0.206  -2.143  0.00  0.00     0.051 A 
ATOM      5  C5  IND d   1       2.577  -0.314  -1.131  0.00  0.00    -0.031 A 
ATOM      6  C6  IND d   1       2.769   0.054   0.186  0.00  0.00     0.015 A 
ATOM      7  C7  IND d   1       3.723   0.967   0.538  0.00  0.00    -0.016 A 
ATOM      8  C8  IND d   1       4.497   1.491  -0.487  0.00  0.00    -0.047 A 
ATOM      9  C9  IND d   1       4.335   1.090  -1.819  0.00  0.00    -0.096 A 
ATOM     10  HN1 IND d   1       5.838   2.789   0.248  0.00  0.00     0.298 HD
ENDROOT
TORSDOF 0
ENDMDL
