MODEL 1
REMARK minimizedAffinity 11.9869032
REMARK minimizedRMSD -1
REMARK  0 active torsions:
REMARK  status: ('A' for Active; 'I' for Inactive)
ROOT
ATOM      1  N1  IND d   1       4.497   4.145   3.926  0.00  0.00    -0.196 N 
ATOM      2  C2  IND d   1       4.832   4.146   5.252  0.00  0.00     0.054 A 
ATOM      3  C3  IND d   1       3.805   3.681   5.997  0.00  0.00    -0.031 A 
ATOM      4  C4  IND d   1       1.518   2.770   5.244  0.00  0.00     0.051 A 
ATOM      5  C5  IND d   1       0.738   2.603   4.134  0.00  0.00    -0.031 A 
ATOM      6  C6  IND d   1       1.180   2.946   2.873  0.00  0.00     0.015 A 
ATOM      7  C7  IND d   1       2.430   3.460   2.672  0.00  0.00    -0.016 A 
ATOM      8  C8  IND d   1       3.223   3.638   3.797  0.00  0.00    -0.047 A 
ATOM      9  C9  IND d   1       2.763   3.332   5.085  0.00  0.00    -0.096 A 
ATOM     10  HN1 IND d   1       4.997   4.417   3.282  0.00  0.00     0.298 HD
ENDROOT
TORSDOF 0
ENDMDL
