MODEL 1
REMARK minimizedAffinity 7.53273582
REMARK minimizedRMSD -1
REMARK  0 active torsions:
REMARK  status: ('A' for Active; 'I' for Inactive)
ROOT
ATOM      1  N1  IND d   1       1.123   2.970   4.869  0.00  0.00    -0.196 N 
ATOM      2  C2  IND d   1       0.796   2.722   3.565  0.00  0.00     0.054 A 
ATOM      3  C3  IND d   1       1.849   2.982   2.758  0.00  0.00    -0.031 A 
ATOM      4  C4  IND d   1       4.235   3.726   3.373  0.00  0.00     0.051 A 
ATOM      5  C5  IND d   1       5.002   4.116   4.435  0.00  0.00    -0.031 A 
ATOM      6  C6  IND d   1       4.505   4.143   5.722  0.00  0.00     0.015 A 
ATOM      7  C7  IND d   1       3.221   3.767   5.998  0.00  0.00    -0.016 A 
ATOM      8  C8  IND d   1       2.438   3.376   4.921  0.00  0.00    -0.047 A 
ATOM      9  C9  IND d   1       2.923   3.388   3.607  0.00  0.00    -0.096 A 
ATOM     10  HN1 IND d   1       0.595   2.887   5.543  0.00  0.00     0.298 HD
ENDROOT
TORSDOF 0
ENDMDL
