MODEL 1
REMARK minimizedAffinity 10.3365202
REMARK minimizedRMSD -1
REMARK  0 active torsions:
REMARK  status: ('A' for Active; 'I' for Inactive)
ROOT
ATOM      1  N1  IND d   1       1.306   2.668   6.000  0.00  0.00    -0.196 N 
ATOM      2  C2  IND d   1       0.431   2.242   5.039  0.00  0.00     0.054 A 
ATOM      3  C3  IND d   1       0.925   2.498   3.807  0.00  0.00    -0.031 A 
ATOM      4  C4  IND d   1       3.193   3.515   3.133  0.00  0.00     0.051 A 
ATOM      5  C5  IND d   1       4.314   4.091   3.660  0.00  0.00    -0.031 A 
ATOM      6  C6  IND d   1       4.495   4.223   5.022  0.00  0.00     0.015 A 
ATOM      7  C7  IND d   1       3.562   3.770   5.911  0.00  0.00    -0.016 A 
ATOM      8  C8  IND d   1       2.419   3.191   5.379  0.00  0.00    -0.047 A 
ATOM      9  C9  IND d   1       2.210   3.093   3.997  0.00  0.00    -0.096 A 
ATOM     10  HN1 IND d   1       1.181   2.617   6.849  0.00  0.00     0.298 HD
ENDROOT
TORSDOF 0
ENDMDL
