MODEL 1
REMARK minimizedAffinity 7.54112196
REMARK minimizedRMSD -1
REMARK  0 active torsions:
REMARK  status: ('A' for Active; 'I' for Inactive)
ROOT
ATOM      1  N1  IND d   1       5.323   2.031  -0.447  0.00  0.00    -0.196 N 
ATOM      2  C2  IND d   1       5.999   2.344  -1.593  0.00  0.00     0.054 A 
ATOM      3  C3  IND d   1       5.496   1.651  -2.639  0.00  0.00    -0.031 A 
ATOM      4  C4  IND d   1       3.498   0.029  -2.718  0.00  0.00     0.051 A 
ATOM      5  C5  IND d   1       2.589  -0.599  -1.914  0.00  0.00    -0.031 A 
ATOM      6  C6  IND d   1       2.541  -0.376  -0.553  0.00  0.00     0.015 A 
ATOM      7  C7  IND d   1       3.399   0.496   0.056  0.00  0.00    -0.016 A 
ATOM      8  C8  IND d   1       4.328   1.131  -0.756  0.00  0.00    -0.047 A 
ATOM      9  C9  IND d   1       4.409   0.876  -2.131  0.00  0.00    -0.096 A 
ATOM     10  HN1 IND d   1       5.492   2.345   0.336  0.00  0.00     0.298 HD
ENDROOT
TORSDOF 0
ENDMDL
