MODEL 1
REMARK minimizedAffinity -4.2567997
REMARK minimizedRMSD -1
REMARK  0 active torsions:
REMARK  status: ('A' for Active; 'I' for Inactive)
ROOT
ATOM      1  N1  IND d   1       4.446   5.034   3.766  0.00  0.00    -0.196 N 
ATOM      2  C2  IND d   1       5.015   5.424   4.946  0.00  0.00     0.054 A 
ATOM      3  C3  IND d   1       4.274   4.993   5.991  0.00  0.00    -0.031 A 
ATOM      4  C4  IND d   1       2.145   3.545   5.999  0.00  0.00     0.051 A 
ATOM      5  C5  IND d   1       1.227   2.975   5.163  0.00  0.00    -0.031 A 
ATOM      6  C6  IND d   1       1.339   3.061   3.790  0.00  0.00     0.015 A 
ATOM      7  C7  IND d   1       2.384   3.714   3.200  0.00  0.00    -0.016 A 
ATOM      8  C8  IND d   1       3.314   4.301   4.046  0.00  0.00    -0.047 A 
ATOM      9  C9  IND d   1       3.182   4.253   5.440  0.00  0.00    -0.096 A 
ATOM     10  HN1 IND d   1       4.744   5.217   2.980  0.00  0.00     0.298 HD
ENDROOT
TORSDOF 0
ENDMDL
