MODEL 1
REMARK minimizedAffinity 5.52535725
REMARK minimizedRMSD -1
REMARK  0 active torsions:
REMARK  status: ('A' for Active; 'I' for Inactive)
ROOT
ATOM      1  N1  IND d   1       0.003   1.039  -1.047  0.00  0.00    -0.196 N 
ATOM      2  C2  IND d   1      -0.849   0.146  -1.635  0.00  0.00     0.054 A 
ATOM      3  C3  IND d   1      -2.131   0.453  -1.336  0.00  0.00    -0.031 A 
ATOM      4  C4  IND d   1      -3.065   2.435   0.017  0.00  0.00     0.051 A 
ATOM      5  C5  IND d   1      -2.673   3.497   0.782  0.00  0.00    -0.031 A 
ATOM      6  C6  IND d   1      -1.342   3.802   0.978  0.00  0.00     0.015 A 
ATOM      7  C7  IND d   1      -0.349   3.059   0.405  0.00  0.00    -0.016 A 
ATOM      8  C8  IND d   1      -0.743   1.975  -0.367  0.00  0.00    -0.047 A 
ATOM      9  C9  IND d   1      -2.092   1.636  -0.535  0.00  0.00    -0.096 A 
ATOM     10  HN1 IND d   1       0.862   1.018  -1.094  0.00  0.00     0.298 HD
ENDROOT
TORSDOF 0
ENDMDL
