MODEL 1
REMARK minimizedAffinity 7.97893715
REMARK minimizedRMSD -1
REMARK  0 active torsions:
REMARK  status: ('A' for Active; 'I' for Inactive)
ROOT
ATOM      1  N1  IND d   1       4.858   1.940  -3.071  0.00  0.00    -0.196 N 
ATOM      2  C2  IND d   1       5.967   2.610  -2.634  0.00  0.00     0.054 A 
ATOM      3  C3  IND d   1       6.000   2.635  -1.283  0.00  0.00    -0.031 A 
ATOM      4  C4  IND d   1       4.393   1.552   0.412  0.00  0.00     0.051 A 
ATOM      5  C5  IND d   1       3.213   0.867   0.492  0.00  0.00    -0.031 A 
ATOM      6  C6  IND d   1       2.508   0.495  -0.634  0.00  0.00     0.015 A 
ATOM      7  C7  IND d   1       2.965   0.785  -1.889  0.00  0.00    -0.016 A 
ATOM      8  C8  IND d   1       4.160   1.487  -1.973  0.00  0.00    -0.047 A 
ATOM      9  C9  IND d   1       4.857   1.905  -0.833  0.00  0.00    -0.096 A 
ATOM     10  HN1 IND d   1       4.635   1.821  -3.892  0.00  0.00     0.298 HD
ENDROOT
TORSDOF 0
ENDMDL
