MODEL 1
REMARK minimizedAffinity 6.90229177
REMARK minimizedRMSD -1
REMARK  1 active torsions:
REMARK  status: ('A' for Active; 'I' for Inactive)
REMARK    1  A    between atoms: C1_2  and  C2_3 
ROOT
ATOM      1  C2  UNL d   1      -0.567  -1.146   3.187  0.00  0.00    -0.077 A 
ATOM      2  C3  UNL d   1      -1.151  -1.785   2.085  0.00  0.00     0.002 A 
ATOM      3  C4  UNL d   1      -0.554  -1.708   0.825  0.00  0.00     0.002 A 
ATOM      4  C5  UNL d   1       0.632  -0.997   0.657  0.00  0.00    -0.004 A 
ATOM      5  C6  UNL d   1       1.221  -0.357   1.746  0.00  0.00     0.002 A 
ATOM      6  C7  UNL d   1       0.625  -0.432   3.006  0.00  0.00     0.002 A 
ENDROOT
BRANCH   1   7
ATOM      7  C1  UNL d   1      -1.183  -1.269   4.556  0.00  0.00     0.055 C 
ATOM      8  C   UNL d   1      -1.649  -2.692   4.828  0.00  0.00     0.019 C 
ENDBRANCH   1   7
TORSDOF 1
ENDMDL
