MODEL 1
REMARK minimizedAffinity 8.39455986
REMARK minimizedRMSD -1
REMARK  1 active torsions:
REMARK  status: ('A' for Active; 'I' for Inactive)
REMARK    1  A    between atoms: C1_2  and  C2_3 
ROOT
ATOM      1  C2  UNL d   1      -1.468  -5.134  -2.818  0.00  0.00    -0.077 A 
ATOM      2  C3  UNL d   1      -1.580  -5.163  -4.215  0.00  0.00     0.002 A 
ATOM      3  C4  UNL d   1      -0.508  -5.591  -5.001  0.00  0.00     0.002 A 
ATOM      4  C5  UNL d   1       0.681  -5.998  -4.398  0.00  0.00    -0.004 A 
ATOM      5  C6  UNL d   1       0.802  -5.970  -3.010  0.00  0.00     0.002 A 
ATOM      6  C7  UNL d   1      -0.267  -5.542  -2.223  0.00  0.00     0.002 A 
ENDROOT
BRANCH   1   7
ATOM      7  C1  UNL d   1      -2.640  -4.719  -1.967  0.00  0.00     0.055 C 
ATOM      8  C   UNL d   1      -3.440  -5.927  -1.500  0.00  0.00     0.019 C 
ENDBRANCH   1   7
TORSDOF 1
ENDMDL
