MODEL 1
REMARK minimizedAffinity 12.4001293
REMARK minimizedRMSD -1
REMARK  1 active torsions:
REMARK  status: ('A' for Active; 'I' for Inactive)
REMARK    1  A    between atoms: C1_2  and  C2_3 
ROOT
ATOM      1  C2  UNL d   1      -0.638  -1.292   3.966  0.00  0.00    -0.077 A 
ATOM      2  C3  UNL d   1       0.550  -0.640   3.609  0.00  0.00     0.002 A 
ATOM      3  C4  UNL d   1       0.821  -0.348   2.270  0.00  0.00     0.002 A 
ATOM      4  C5  UNL d   1      -0.094  -0.702   1.280  0.00  0.00    -0.004 A 
ATOM      5  C6  UNL d   1      -1.277  -1.353   1.625  0.00  0.00     0.002 A 
ATOM      6  C7  UNL d   1      -1.549  -1.646   2.962  0.00  0.00     0.002 A 
ENDROOT
BRANCH   1   7
ATOM      7  C1  UNL d   1      -0.954  -1.563   5.414  0.00  0.00     0.055 C 
ATOM      8  C   UNL d   1      -1.164  -3.049   5.666  0.00  0.00     0.019 C 
ENDBRANCH   1   7
TORSDOF 1
ENDMDL
