MODEL 1
REMARK minimizedAffinity 5.05218029
REMARK minimizedRMSD -1
REMARK  1 active torsions:
REMARK  status: ('A' for Active; 'I' for Inactive)
REMARK    1  A    between atoms: C1_2  and  C2_3 
ROOT
ATOM      1  C2  UNL d   1       4.319   0.468  -2.009  0.00  0.00    -0.077 A 
ATOM      2  C3  UNL d   1       3.792   1.698  -1.591  0.00  0.00     0.002 A 
ATOM      3  C4  UNL d   1       2.637   1.741  -0.808  0.00  0.00     0.002 A 
ATOM      4  C5  UNL d   1       2.003   0.559  -0.433  0.00  0.00    -0.004 A 
ATOM      5  C6  UNL d   1       2.518  -0.669  -0.845  0.00  0.00     0.002 A 
ATOM      6  C7  UNL d   1       3.672  -0.714  -1.629  0.00  0.00     0.002 A 
ENDROOT
BRANCH   1   7
ATOM      7  C1  UNL d   1       5.593   0.417  -2.813  0.00  0.00     0.055 C 
ATOM      8  C   UNL d   1       5.999  -1.018  -3.115  0.00  0.00     0.019 C 
ENDBRANCH   1   7
TORSDOF 1
ENDMDL
