MODEL 1
REMARK minimizedAffinity 11.0251093
REMARK minimizedRMSD -1
REMARK  1 active torsions:
REMARK  status: ('A' for Active; 'I' for Inactive)
REMARK    1  A    between atoms: C1_2  and  C2_3 
ROOT
ATOM      1  C2  UNL d   1       4.807  -3.193   5.726  0.00  0.00    -0.077 A 
ATOM      2  C3  UNL d   1       3.616  -3.906   5.926  0.00  0.00     0.002 A 
ATOM      3  C4  UNL d   1       3.619  -5.302   5.919  0.00  0.00     0.002 A 
ATOM      4  C5  UNL d   1       4.810  -5.997   5.717  0.00  0.00    -0.004 A 
ATOM      5  C6  UNL d   1       5.999  -5.297   5.516  0.00  0.00     0.002 A 
ATOM      6  C7  UNL d   1       5.998  -3.901   5.521  0.00  0.00     0.002 A 
ENDROOT
BRANCH   1   7
ATOM      7  C1  UNL d   1       4.814  -1.687   5.782  0.00  0.00     0.055 C 
ATOM      8  C   UNL d   1       3.885  -1.090   4.736  0.00  0.00     0.019 C 
ENDBRANCH   1   7
TORSDOF 1
ENDMDL
