MODEL 1
REMARK minimizedAffinity 3.29554081
REMARK minimizedRMSD -1
REMARK  1 active torsions:
REMARK  status: ('A' for Active; 'I' for Inactive)
REMARK    1  A    between atoms: C1_2  and  C2_3 
ROOT
ATOM      1  C2  UNL d   1       0.775  -0.806   1.219  0.00  0.00    -0.077 A 
ATOM      2  C3  UNL d   1       0.341  -0.617   2.538  0.00  0.00     0.002 A 
ATOM      3  C4  UNL d   1      -0.808  -1.259   3.003  0.00  0.00     0.002 A 
ATOM      4  C5  UNL d   1      -1.530  -2.098   2.157  0.00  0.00    -0.004 A 
ATOM      5  C6  UNL d   1      -1.108  -2.292   0.842  0.00  0.00     0.002 A 
ATOM      6  C7  UNL d   1       0.040  -1.649   0.375  0.00  0.00     0.002 A 
ENDROOT
BRANCH   1   7
ATOM      7  C1  UNL d   1       2.041  -0.152   0.730  0.00  0.00     0.055 C 
ATOM      8  C   UNL d   1       3.200  -0.409   1.682  0.00  0.00     0.019 C 
ENDBRANCH   1   7
TORSDOF 1
ENDMDL
