MODEL 1
REMARK minimizedAffinity 12.1765127
REMARK minimizedRMSD -1
REMARK  1 active torsions:
REMARK  status: ('A' for Active; 'I' for Inactive)
REMARK    1  A    between atoms: C1_2  and  C2_3 
ROOT
ATOM      1  C2  UNL d   1      -0.702   3.933  -3.379  0.00  0.00    -0.077 A 
ATOM      2  C3  UNL d   1      -1.902   3.293  -3.719  0.00  0.00     0.002 A 
ATOM      3  C4  UNL d   1      -1.925   2.323  -4.723  0.00  0.00     0.002 A 
ATOM      4  C5  UNL d   1      -0.751   1.981  -5.391  0.00  0.00    -0.004 A 
ATOM      5  C6  UNL d   1       0.447   2.613  -5.061  0.00  0.00     0.002 A 
ATOM      6  C7  UNL d   1       0.472   3.584  -4.059  0.00  0.00     0.002 A 
ENDROOT
BRANCH   1   7
ATOM      7  C1  UNL d   1      -0.666   4.944  -2.262  0.00  0.00     0.055 C 
ATOM      8  C   UNL d   1      -1.751   5.997  -2.434  0.00  0.00     0.019 C 
ENDBRANCH   1   7
TORSDOF 1
ENDMDL
