MODEL 1
REMARK minimizedAffinity 3.26111937
REMARK minimizedRMSD -1
REMARK  1 active torsions:
REMARK  status: ('A' for Active; 'I' for Inactive)
REMARK    1  A    between atoms: C1_2  and  C2_3 
ROOT
ATOM      1  C2  UNL d   1       1.689  -0.979   1.383  0.00  0.00    -0.077 A 
ATOM      2  C3  UNL d   1       0.785   0.092   1.411  0.00  0.00     0.002 A 
ATOM      3  C4  UNL d   1      -0.589  -0.145   1.490  0.00  0.00     0.002 A 
ATOM      4  C5  UNL d   1      -1.070  -1.451   1.545  0.00  0.00    -0.004 A 
ATOM      5  C6  UNL d   1      -0.180  -2.523   1.516  0.00  0.00     0.002 A 
ATOM      6  C7  UNL d   1       1.194  -2.288   1.436  0.00  0.00     0.002 A 
ENDROOT
BRANCH   1   7
ATOM      7  C1  UNL d   1       3.173  -0.725   1.347  0.00  0.00     0.055 C 
ATOM      8  C   UNL d   1       3.685  -0.247   2.698  0.00  0.00     0.019 C 
ENDBRANCH   1   7
TORSDOF 1
ENDMDL
