MODEL 1
REMARK minimizedAffinity 13.0321341
REMARK minimizedRMSD -1
REMARK  1 active torsions:
REMARK  status: ('A' for Active; 'I' for Inactive)
REMARK    1  A    between atoms: C1_2  and  C2_3 
ROOT
ATOM      1  C2  UNL d   1      -1.524  -4.880  -2.937  0.00  0.00    -0.077 A 
ATOM      2  C3  UNL d   1      -1.734  -3.775  -2.099  0.00  0.00     0.002 A 
ATOM      3  C4  UNL d   1      -2.771  -3.785  -1.165  0.00  0.00     0.002 A 
ATOM      4  C5  UNL d   1      -3.603  -4.897  -1.056  0.00  0.00    -0.004 A 
ATOM      5  C6  UNL d   1      -3.404  -5.999  -1.887  0.00  0.00     0.002 A 
ATOM      6  C7  UNL d   1      -2.369  -5.991  -2.822  0.00  0.00     0.002 A 
ENDROOT
BRANCH   1   7
ATOM      7  C1  UNL d   1      -0.376  -4.891  -3.912  0.00  0.00     0.055 C 
ATOM      8  C   UNL d   1      -0.535  -6.000  -4.942  0.00  0.00     0.019 C 
ENDBRANCH   1   7
TORSDOF 1
ENDMDL
