MODEL 1
REMARK minimizedAffinity 6.83657598
REMARK minimizedRMSD -1
REMARK  1 active torsions:
REMARK  status: ('A' for Active; 'I' for Inactive)
REMARK    1  A    between atoms: C1_2  and  C2_3 
ROOT
ATOM      1  C2  UNL d   1      -0.654   4.128  -3.292  0.00  0.00    -0.077 A 
ATOM      2  C3  UNL d   1       0.319   3.350  -3.934  0.00  0.00     0.002 A 
ATOM      3  C4  UNL d   1      -0.053   2.238  -4.692  0.00  0.00     0.002 A 
ATOM      4  C5  UNL d   1      -1.398   1.897  -4.819  0.00  0.00    -0.004 A 
ATOM      5  C6  UNL d   1      -2.373   2.664  -4.183  0.00  0.00     0.002 A 
ATOM      6  C7  UNL d   1      -2.003   3.775  -3.424  0.00  0.00     0.002 A 
ENDROOT
BRANCH   1   7
ATOM      7  C1  UNL d   1      -0.258   5.357  -2.515  0.00  0.00     0.055 C 
ATOM      8  C   UNL d   1      -1.463   5.997  -1.841  0.00  0.00     0.019 C 
ENDBRANCH   1   7
TORSDOF 1
ENDMDL
