MODEL 1
REMARK minimizedAffinity 1.3449024
REMARK minimizedRMSD -1
REMARK  3 active torsions:
REMARK  status: ('A' for Active; 'I' for Inactive)
REMARK    1  A    between atoms: C3'_2  and  C2'_3 
REMARK    2  A    between atoms: C2'_3  and  C1'_4 
REMARK    3  A    between atoms: C1'_4  and  C1_5 
ROOT
ATOM      1  C1  N4B d   1      -4.035  -0.432   0.980  0.00  0.00    -0.075 A 
ATOM      2  C2  N4B d   1      -4.619   0.389  -0.010  0.00  0.00     0.002 A 
ATOM      3  C3  N4B d   1      -5.599  -0.114  -0.828  0.00  0.00     0.002 A 
ATOM      4  C4  N4B d   1      -5.997  -1.436  -0.690  0.00  0.00    -0.004 A 
ATOM      5  C5  N4B d   1      -5.446  -2.215   0.285  0.00  0.00     0.002 A 
ATOM      6  C6  N4B d   1      -4.462  -1.721   1.118  0.00  0.00     0.002 A 
ENDROOT
BRANCH   1   7
ATOM      7  C1' N4B d   1      -2.899   0.048   1.842  0.00  0.00     0.057 C 
BRANCH   7   8
ATOM      8  C2' N4B d   1      -2.906  -0.725   3.157  0.00  0.00     0.009 C 
BRANCH   8   9
ATOM      9  C3' N4B d   1      -1.793  -0.275   4.087  0.00  0.00     0.004 C 
ATOM     10  C4' N4B d   1      -1.777  -1.032   5.382  0.00  0.00     0.003 C 
ENDBRANCH   8   9
ENDBRANCH   7   8
ENDBRANCH   1   7
TORSDOF 3
ENDMDL
