MODEL 1
REMARK minimizedAffinity 17.2510509
REMARK minimizedRMSD -1
REMARK  3 active torsions:
REMARK  status: ('A' for Active; 'I' for Inactive)
REMARK    1  A    between atoms: C3'_2  and  C2'_3 
REMARK    2  A    between atoms: C2'_3  and  C1'_4 
REMARK    3  A    between atoms: C1'_4  and  C1_5 
ROOT
ATOM      1  C1  N4B d   1      -4.886   0.786  -0.949  0.00  0.00    -0.075 A 
ATOM      2  C2  N4B d   1      -5.633  -0.403  -0.798  0.00  0.00     0.002 A 
ATOM      3  C3  N4B d   1      -5.404  -1.225   0.277  0.00  0.00     0.002 A 
ATOM      4  C4  N4B d   1      -4.424  -0.891   1.200  0.00  0.00    -0.004 A 
ATOM      5  C5  N4B d   1      -3.724   0.271   1.060  0.00  0.00     0.002 A 
ATOM      6  C6  N4B d   1      -3.947   1.110  -0.013  0.00  0.00     0.002 A 
ENDROOT
BRANCH   1   7
ATOM      7  C1' N4B d   1      -5.041   1.673  -2.154  0.00  0.00     0.057 C 
BRANCH   7   8
ATOM      8  C2' N4B d   1      -4.443   3.043  -1.847  0.00  0.00     0.009 C 
BRANCH   8   9
ATOM      9  C3' N4B d   1      -4.702   4.040  -2.964  0.00  0.00     0.004 C 
ATOM     10  C4' N4B d   1      -5.999   3.791  -3.675  0.00  0.00     0.003 C 
ENDBRANCH   8   9
ENDBRANCH   7   8
ENDBRANCH   1   7
TORSDOF 3
ENDMDL
