MODEL 1
REMARK minimizedAffinity 17.862587
REMARK minimizedRMSD -1
REMARK  3 active torsions:
REMARK  status: ('A' for Active; 'I' for Inactive)
REMARK    1  A    between atoms: C3'_2  and  C2'_3 
REMARK    2  A    between atoms: C2'_3  and  C1'_4 
REMARK    3  A    between atoms: C1'_4  and  C1_5 
ROOT
ATOM      1  C1  N4B d   1      -3.530  -1.123  -1.583  0.00  0.00    -0.075 A 
ATOM      2  C2  N4B d   1      -3.653   0.051  -0.807  0.00  0.00     0.002 A 
ATOM      3  C3  N4B d   1      -4.885   0.632  -0.634  0.00  0.00     0.002 A 
ATOM      4  C4  N4B d   1      -5.999   0.072  -1.238  0.00  0.00    -0.004 A 
ATOM      5  C5  N4B d   1      -5.876  -1.076  -1.965  0.00  0.00     0.002 A 
ATOM      6  C6  N4B d   1      -4.645  -1.674  -2.145  0.00  0.00     0.002 A 
ENDROOT
BRANCH   1   7
ATOM      7  C1' N4B d   1      -2.192  -1.747  -1.872  0.00  0.00     0.057 C 
BRANCH   7   8
ATOM      8  C2' N4B d   1      -1.885  -2.793  -0.805  0.00  0.00     0.009 C 
BRANCH   8   9
ATOM      9  C3' N4B d   1      -1.311  -4.065  -1.404  0.00  0.00     0.004 C 
ATOM     10  C4' N4B d   1      -1.146  -5.160  -0.392  0.00  0.00     0.003 C 
ENDBRANCH   8   9
ENDBRANCH   7   8
ENDBRANCH   1   7
TORSDOF 3
ENDMDL
