MODEL 1
REMARK minimizedAffinity 14.6320019
REMARK minimizedRMSD -1
REMARK  3 active torsions:
REMARK  status: ('A' for Active; 'I' for Inactive)
REMARK    1  A    between atoms: C3'_2  and  C2'_3 
REMARK    2  A    between atoms: C2'_3  and  C1'_4 
REMARK    3  A    between atoms: C1'_4  and  C1_5 
ROOT
ATOM      1  C1  N4B d   1      -5.950   4.700  -2.179  0.00  0.00    -0.075 A 
ATOM      2  C2  N4B d   1      -5.982   5.168  -3.511  0.00  0.00     0.002 A 
ATOM      3  C3  N4B d   1      -5.862   4.282  -4.553  0.00  0.00     0.002 A 
ATOM      4  C4  N4B d   1      -5.691   2.932  -4.289  0.00  0.00    -0.004 A 
ATOM      5  C5  N4B d   1      -5.686   2.484  -3.000  0.00  0.00     0.002 A 
ATOM      6  C6  N4B d   1      -5.809   3.363  -1.943  0.00  0.00     0.002 A 
ENDROOT
BRANCH   1   7
ATOM      7  C1' N4B d   1      -5.991   5.640  -1.005  0.00  0.00     0.057 C 
BRANCH   7   8
ATOM      8  C2' N4B d   1      -5.819   4.841   0.283  0.00  0.00     0.009 C 
BRANCH   8   9
ATOM      9  C3' N4B d   1      -6.000   5.707   1.518  0.00  0.00     0.004 C 
ATOM     10  C4' N4B d   1      -5.889   4.928   2.795  0.00  0.00     0.003 C 
ENDBRANCH   8   9
ENDBRANCH   7   8
ENDBRANCH   1   7
TORSDOF 3
ENDMDL
