MODEL 1
REMARK minimizedAffinity -1.46034718
REMARK minimizedRMSD -1
REMARK  0 active torsions:
REMARK  status: ('A' for Active; 'I' for Inactive)
ROOT
ATOM      1  C2' OXE d   1       0.247  -0.704  -0.133  0.00  0.00     0.078 C 
ATOM      2  C1' OXE d   1      -1.202  -0.032   2.176  0.00  0.00     0.078 C 
ATOM      3  C1  OXE d   1      -0.726   1.093   1.291  0.00  0.00    -0.078 A 
ATOM      4  C2  OXE d   1       0.023   0.758   0.189  0.00  0.00    -0.078 A 
ATOM      5  C3  OXE d   1       0.440   1.753  -0.690  0.00  0.00     0.003 A 
ATOM      6  C4  OXE d   1       0.236   3.103  -0.380  0.00  0.00    -0.002 A 
ATOM      7  C5  OXE d   1      -0.489   3.469   0.759  0.00  0.00    -0.002 A 
ATOM      8  C6  OXE d   1      -1.013   2.477   1.580  0.00  0.00     0.003 A 
ENDROOT
TORSDOF 0
ENDMDL
