MODEL 1
REMARK minimizedAffinity -1.08755803
REMARK minimizedRMSD -1
REMARK  0 active torsions:
REMARK  status: ('A' for Active; 'I' for Inactive)
ROOT
ATOM      1  C2' OXE d   1       0.410   0.579  -1.280  0.00  0.00     0.078 C 
ATOM      2  C1' OXE d   1       0.989  -1.238   0.781  0.00  0.00     0.078 C 
ATOM      3  C1  OXE d   1       0.740  -1.795  -0.598  0.00  0.00    -0.078 A 
ATOM      4  C2  OXE d   1       0.412  -0.902  -1.591  0.00  0.00    -0.078 A 
ATOM      5  C3  OXE d   1       0.226  -1.357  -2.893  0.00  0.00     0.003 A 
ATOM      6  C4  OXE d   1       0.219  -2.730  -3.170  0.00  0.00    -0.002 A 
ATOM      7  C5  OXE d   1       0.512  -3.658  -2.166  0.00  0.00    -0.002 A 
ATOM      8  C6  OXE d   1       0.816  -3.205  -0.887  0.00  0.00     0.003 A 
ENDROOT
TORSDOF 0
ENDMDL
