MODEL 1
REMARK minimizedAffinity -1.76939571
REMARK minimizedRMSD -1
REMARK  0 active torsions:
REMARK  status: ('A' for Active; 'I' for Inactive)
ROOT
ATOM      1  C2' OXE d   1      -1.129   4.139   1.158  0.00  0.00     0.078 C 
ATOM      2  C1' OXE d   1       0.146   3.440  -1.243  0.00  0.00     0.078 C 
ATOM      3  C1  OXE d   1      -0.245   2.326  -0.303  0.00  0.00    -0.078 A 
ATOM      4  C2  OXE d   1      -0.826   2.681   0.890  0.00  0.00    -0.078 A 
ATOM      5  C3  OXE d   1      -1.256   1.690   1.769  0.00  0.00     0.003 A 
ATOM      6  C4  OXE d   1      -0.962   0.344   1.518  0.00  0.00    -0.002 A 
ATOM      7  C5  OXE d   1      -0.335  -0.036   0.326  0.00  0.00    -0.002 A 
ATOM      8  C6  OXE d   1      -0.009   0.937  -0.612  0.00  0.00     0.003 A 
ENDROOT
TORSDOF 0
ENDMDL
