MODEL 1
REMARK minimizedAffinity -3.43376064
REMARK minimizedRMSD -1
REMARK  0 active torsions:
REMARK  status: ('A' for Active; 'I' for Inactive)
ROOT
ATOM      1  C2' OXE d   1      -1.327   1.757   1.920  0.00  0.00     0.078 C 
ATOM      2  C1' OXE d   1      -0.116   3.602   0.186  0.00  0.00     0.078 C 
ATOM      3  C1  OXE d   1       0.201   2.141  -0.009  0.00  0.00    -0.078 A 
ATOM      4  C2  OXE d   1      -0.359   1.249   0.873  0.00  0.00    -0.078 A 
ATOM      5  C3  OXE d   1      -0.143  -0.116   0.705  0.00  0.00     0.003 A 
ATOM      6  C4  OXE d   1       0.762  -0.577  -0.259  0.00  0.00    -0.002 A 
ATOM      7  C5  OXE d   1       1.374   0.318  -1.143  0.00  0.00    -0.002 A 
ATOM      8  C6  OXE d   1       1.073   1.673  -1.059  0.00  0.00     0.003 A 
ENDROOT
TORSDOF 0
ENDMDL
