MODEL 1
REMARK minimizedAffinity -1.17708731
REMARK minimizedRMSD -1
REMARK  0 active torsions:
REMARK  status: ('A' for Active; 'I' for Inactive)
ROOT
ATOM      1  C2' OXE d   1      -0.008   0.688  -0.832  0.00  0.00     0.078 C 
ATOM      2  C1' OXE d   1       0.523  -1.127   1.243  0.00  0.00     0.078 C 
ATOM      3  C1  OXE d   1       0.480  -1.663  -0.166  0.00  0.00    -0.078 A 
ATOM      4  C2  OXE d   1       0.174  -0.776  -1.171  0.00  0.00    -0.078 A 
ATOM      5  C3  OXE d   1       0.175  -1.207  -2.494  0.00  0.00     0.003 A 
ATOM      6  C4  OXE d   1       0.334  -2.565  -2.798  0.00  0.00    -0.002 A 
ATOM      7  C5  OXE d   1       0.608  -3.491  -1.786  0.00  0.00    -0.002 A 
ATOM      8  C6  OXE d   1       0.726  -3.050  -0.472  0.00  0.00     0.003 A 
ENDROOT
TORSDOF 0
ENDMDL
