MODEL 1
REMARK minimizedAffinity -3.76199365
REMARK minimizedRMSD -1
REMARK  0 active torsions:
REMARK  status: ('A' for Active; 'I' for Inactive)
ROOT
ATOM      1  C2' OXE d   1       0.980  -1.520  -0.448  0.00  0.00     0.078 C 
ATOM      2  C1' OXE d   1       1.546   1.064  -1.387  0.00  0.00     0.078 C 
ATOM      3  C1  OXE d   1       0.677   0.936  -0.162  0.00  0.00    -0.078 A 
ATOM      4  C2  OXE d   1       0.366  -0.334   0.263  0.00  0.00    -0.078 A 
ATOM      5  C3  OXE d   1      -0.387  -0.508   1.420  0.00  0.00     0.003 A 
ATOM      6  C4  OXE d   1      -0.959   0.594   2.067  0.00  0.00    -0.002 A 
ATOM      7  C5  OXE d   1      -0.689   1.894   1.627  0.00  0.00    -0.002 A 
ATOM      8  C6  OXE d   1       0.160   2.084   0.542  0.00  0.00     0.003 A 
ENDROOT
TORSDOF 0
ENDMDL
