MODEL 1
REMARK minimizedAffinity -1.39322495
REMARK minimizedRMSD -1
REMARK  0 active torsions:
REMARK  status: ('A' for Active; 'I' for Inactive)
ROOT
ATOM      1  C2' OXE d   1       0.957  -0.815   0.985  0.00  0.00     0.078 C 
ATOM      2  C1' OXE d   1       2.359   0.110  -1.264  0.00  0.00     0.078 C 
ATOM      3  C1  OXE d   1       1.536  -1.145  -1.416  0.00  0.00    -0.078 A 
ATOM      4  C2  OXE d   1       0.891  -1.616  -0.298  0.00  0.00    -0.078 A 
ATOM      5  C3  OXE d   1       0.075  -2.739  -0.395  0.00  0.00     0.003 A 
ATOM      6  C4  OXE d   1       0.027  -3.480  -1.582  0.00  0.00    -0.002 A 
ATOM      7  C5  OXE d   1       0.709  -3.040  -2.722  0.00  0.00    -0.002 A 
ATOM      8  C6  OXE d   1       1.432  -1.853  -2.667  0.00  0.00     0.003 A 
ENDROOT
TORSDOF 0
ENDMDL
