MODEL 1
REMARK minimizedAffinity -1.06797397
REMARK minimizedRMSD -1
REMARK  0 active torsions:
REMARK  status: ('A' for Active; 'I' for Inactive)
ROOT
ATOM      1  C2' OXE d   1       0.206   0.400  -1.672  0.00  0.00     0.078 C 
ATOM      2  C1' OXE d   1       1.438  -1.050   0.391  0.00  0.00     0.078 C 
ATOM      3  C1  OXE d   1       1.048  -1.798  -0.858  0.00  0.00    -0.078 A 
ATOM      4  C2  OXE d   1       0.404  -1.091  -1.844  0.00  0.00    -0.078 A 
ATOM      5  C3  OXE d   1       0.071  -1.721  -3.040  0.00  0.00     0.003 A 
ATOM      6  C4  OXE d   1       0.248  -3.102  -3.186  0.00  0.00    -0.002 A 
ATOM      7  C5  OXE d   1       0.867  -3.849  -2.179  0.00  0.00    -0.002 A 
ATOM      8  C6  OXE d   1       1.311  -3.206  -1.028  0.00  0.00     0.003 A 
ENDROOT
TORSDOF 0
ENDMDL
