MODEL 1
REMARK minimizedAffinity -0.638834953
REMARK minimizedRMSD -1
REMARK  0 active torsions:
REMARK  status: ('A' for Active; 'I' for Inactive)
ROOT
ATOM      1  C2' OXE d   1       0.409  -0.550   0.450  0.00  0.00     0.078 C 
ATOM      2  C1' OXE d   1       1.605   0.504  -1.861  0.00  0.00     0.078 C 
ATOM      3  C1  OXE d   1       0.975  -0.864  -1.955  0.00  0.00    -0.078 A 
ATOM      4  C2  OXE d   1       0.433  -1.391  -0.808  0.00  0.00    -0.078 A 
ATOM      5  C3  OXE d   1      -0.209  -2.625  -0.853  0.00  0.00     0.003 A 
ATOM      6  C4  OXE d   1      -0.173  -3.401  -2.017  0.00  0.00    -0.002 A 
ATOM      7  C5  OXE d   1       0.409  -2.899  -3.187  0.00  0.00    -0.002 A 
ATOM      8  C6  OXE d   1       0.948  -1.618  -3.184  0.00  0.00     0.003 A 
ENDROOT
TORSDOF 0
ENDMDL
