MODEL 1
REMARK minimizedAffinity -1.05624437
REMARK minimizedRMSD -1
REMARK  0 active torsions:
REMARK  status: ('A' for Active; 'I' for Inactive)
ROOT
ATOM      1  C2' OXE d   1       2.169  -3.340   0.056  0.00  0.00     0.078 C 
ATOM      2  C1' OXE d   1       1.462  -0.688  -0.534  0.00  0.00     0.078 C 
ATOM      3  C1  OXE d   1       0.839  -1.784  -1.364  0.00  0.00    -0.078 A 
ATOM      4  C2  OXE d   1       1.227  -3.075  -1.099  0.00  0.00    -0.078 A 
ATOM      5  C3  OXE d   1       0.643  -4.127  -1.798  0.00  0.00     0.003 A 
ATOM      6  C4  OXE d   1      -0.220  -3.873  -2.871  0.00  0.00    -0.002 A 
ATOM      7  C5  OXE d   1      -0.597  -2.563  -3.184  0.00  0.00    -0.002 A 
ATOM      8  C6  OXE d   1      -0.111  -1.512  -2.414  0.00  0.00     0.003 A 
ENDROOT
TORSDOF 0
ENDMDL
