MODEL 1
REMARK minimizedAffinity -2.49417901
REMARK minimizedRMSD -1
REMARK  0 active torsions:
REMARK  status: ('A' for Active; 'I' for Inactive)
ROOT
ATOM      1  C2' OXE d   1       1.260  -0.042  -1.064  0.00  0.00     0.078 C 
ATOM      2  C1' OXE d   1       0.242   2.531  -0.593  0.00  0.00     0.078 C 
ATOM      3  C1  OXE d   1      -0.175   1.427   0.346  0.00  0.00    -0.078 A 
ATOM      4  C2  OXE d   1       0.291   0.161   0.081  0.00  0.00    -0.078 A 
ATOM      5  C3  OXE d   1      -0.019  -0.883   0.947  0.00  0.00     0.003 A 
ATOM      6  C4  OXE d   1      -0.924  -0.688   1.997  0.00  0.00    -0.002 A 
ATOM      7  C5  OXE d   1      -1.441   0.584   2.261  0.00  0.00    -0.002 A 
ATOM      8  C6  OXE d   1      -1.044   1.659   1.473  0.00  0.00     0.003 A 
ENDROOT
TORSDOF 0
ENDMDL
