MODEL 1
REMARK minimizedAffinity -2.1819644
REMARK minimizedRMSD -1
REMARK  0 active torsions:
REMARK  status: ('A' for Active; 'I' for Inactive)
ROOT
ATOM      1  C2' OXE d   1       0.845  -0.859  -0.782  0.00  0.00     0.078 C 
ATOM      2  C1' OXE d   1      -0.105  -1.159   1.842  0.00  0.00     0.078 C 
ATOM      3  C1  OXE d   1      -0.215   0.204   1.206  0.00  0.00    -0.078 A 
ATOM      4  C2  OXE d   1       0.295   0.353  -0.061  0.00  0.00    -0.078 A 
ATOM      5  C3  OXE d   1       0.170   1.576  -0.715  0.00  0.00     0.003 A 
ATOM      6  C4  OXE d   1      -0.330   2.694  -0.037  0.00  0.00    -0.002 A 
ATOM      7  C5  OXE d   1      -0.819   2.573   1.268  0.00  0.00    -0.002 A 
ATOM      8  C6  OXE d   1      -0.807   1.328   1.888  0.00  0.00     0.003 A 
ENDROOT
TORSDOF 0
ENDMDL
