MODEL 1
REMARK minimizedAffinity -1.57159662
REMARK minimizedRMSD -1
REMARK  0 active torsions:
REMARK  status: ('A' for Active; 'I' for Inactive)
ROOT
ATOM      1  C2' OXE d   1       1.845  -0.682  -2.021  0.00  0.00     0.078 C 
ATOM      2  C1' OXE d   1       0.770  -1.566  -4.459  0.00  0.00     0.078 C 
ATOM      3  C1  OXE d   1       0.660  -2.484  -3.267  0.00  0.00    -0.078 A 
ATOM      4  C2  OXE d   1       1.230  -2.063  -2.090  0.00  0.00    -0.078 A 
ATOM      5  C3  OXE d   1       1.109  -2.847  -0.946  0.00  0.00     0.003 A 
ATOM      6  C4  OXE d   1       0.547  -4.127  -1.020  0.00  0.00    -0.002 A 
ATOM      7  C5  OXE d   1      -0.004  -4.592  -2.219  0.00  0.00    -0.002 A 
ATOM      8  C6  OXE d   1       0.006  -3.768  -3.339  0.00  0.00     0.003 A 
ENDROOT
TORSDOF 0
ENDMDL
