MODEL 1
REMARK minimizedAffinity -2.3871367
REMARK minimizedRMSD -1
REMARK  0 active torsions:
REMARK  status: ('A' for Active; 'I' for Inactive)
ROOT
ATOM      1  C2' OXE d   1       2.116  -3.343  -1.453  0.00  0.00     0.078 C 
ATOM      2  C1' OXE d   1      -0.454  -3.420  -2.581  0.00  0.00     0.078 C 
ATOM      3  C1  OXE d   1      -0.087  -2.217  -1.747  0.00  0.00    -0.078 A 
ATOM      4  C2  OXE d   1       1.156  -2.210  -1.160  0.00  0.00    -0.078 A 
ATOM      5  C3  OXE d   1       1.565  -1.101  -0.426  0.00  0.00     0.003 A 
ATOM      6  C4  OXE d   1       0.668  -0.062  -0.152  0.00  0.00    -0.002 A 
ATOM      7  C5  OXE d   1      -0.616  -0.068  -0.707  0.00  0.00    -0.002 A 
ATOM      8  C6  OXE d   1      -0.994  -1.116  -1.540  0.00  0.00     0.003 A 
ENDROOT
TORSDOF 0
ENDMDL
