MODEL 1
REMARK minimizedAffinity -4.00707769
REMARK minimizedRMSD -1
REMARK  0 active torsions:
REMARK  status: ('A' for Active; 'I' for Inactive)
ROOT
ATOM      1  C2' OXE d   1       0.094   2.800  -1.235  0.00  0.00     0.078 C 
ATOM      2  C1' OXE d   1      -1.407   2.882   1.135  0.00  0.00     0.078 C 
ATOM      3  C1  OXE d   1      -0.728   1.584   0.777  0.00  0.00    -0.078 A 
ATOM      4  C2  OXE d   1      -0.034   1.539  -0.408  0.00  0.00    -0.078 A 
ATOM      5  C3  OXE d   1       0.657   0.383  -0.759  0.00  0.00     0.003 A 
ATOM      6  C4  OXE d   1       0.526  -0.782   0.006  0.00  0.00    -0.002 A 
ATOM      7  C5  OXE d   1      -0.209  -0.769   1.197  0.00  0.00    -0.002 A 
ATOM      8  C6  OXE d   1      -0.805   0.414   1.617  0.00  0.00     0.003 A 
ENDROOT
TORSDOF 0
ENDMDL
