MODEL 1
REMARK minimizedAffinity -2.90817118
REMARK minimizedRMSD -1
REMARK  0 active torsions:
REMARK  status: ('A' for Active; 'I' for Inactive)
ROOT
ATOM      1  C2' OXE d   1       0.383  -1.460  -1.157  0.00  0.00     0.078 C 
ATOM      2  C1' OXE d   1       1.266   1.186  -1.464  0.00  0.00     0.078 C 
ATOM      3  C1  OXE d   1       0.408   0.866  -0.265  0.00  0.00    -0.078 A 
ATOM      4  C2  OXE d   1      -0.058  -0.422  -0.148  0.00  0.00    -0.078 A 
ATOM      5  C3  OXE d   1      -0.808  -0.784   0.967  0.00  0.00     0.003 A 
ATOM      6  C4  OXE d   1      -1.220   0.184   1.890  0.00  0.00    -0.002 A 
ATOM      7  C5  OXE d   1      -0.789   1.510   1.768  0.00  0.00    -0.002 A 
ATOM      8  C6  OXE d   1       0.059   1.857   0.722  0.00  0.00     0.003 A 
ENDROOT
TORSDOF 0
ENDMDL
