MODEL 1
REMARK minimizedAffinity 0.428954989
REMARK minimizedRMSD -1
REMARK  0 active torsions:
REMARK  status: ('A' for Active; 'I' for Inactive)
ROOT
ATOM      1  C2' OXE d   1       0.338  -1.560  -0.626  0.00  0.00     0.078 C 
ATOM      2  C1' OXE d   1       0.942   1.138  -1.116  0.00  0.00     0.078 C 
ATOM      3  C1  OXE d   1       0.181   0.805   0.143  0.00  0.00    -0.078 A 
ATOM      4  C2  OXE d   1      -0.151  -0.512   0.351  0.00  0.00    -0.078 A 
ATOM      5  C3  OXE d   1      -0.805  -0.881   1.523  0.00  0.00     0.003 A 
ATOM      6  C4  OXE d   1      -1.263   0.095   2.417  0.00  0.00    -0.002 A 
ATOM      7  C5  OXE d   1      -0.970   1.446   2.203  0.00  0.00    -0.002 A 
ATOM      8  C6  OXE d   1      -0.214   1.813   1.095  0.00  0.00     0.003 A 
ENDROOT
TORSDOF 0
ENDMDL
