MODEL 1
REMARK minimizedAffinity -4.80920553
REMARK minimizedRMSD -1
REMARK  0 active torsions:
REMARK  status: ('A' for Active; 'I' for Inactive)
ROOT
ATOM      1  C2' OXE d   1       0.682  -0.643  -0.640  0.00  0.00     0.078 C 
ATOM      2  C1' OXE d   1      -0.513  -1.221   1.834  0.00  0.00     0.078 C 
ATOM      3  C1  OXE d   1      -0.699   0.165   1.269  0.00  0.00    -0.078 A 
ATOM      4  C2  OXE d   1      -0.072   0.453   0.081  0.00  0.00    -0.078 A 
ATOM      5  C3  OXE d   1      -0.256   1.700  -0.511  0.00  0.00     0.003 A 
ATOM      6  C4  OXE d   1      -0.947   2.711   0.167  0.00  0.00    -0.002 A 
ATOM      7  C5  OXE d   1      -1.560   2.451   1.397  0.00  0.00    -0.002 A 
ATOM      8  C6  OXE d   1      -1.482   1.174   1.940  0.00  0.00     0.003 A 
ENDROOT
TORSDOF 0
ENDMDL
