MODEL 1
REMARK minimizedAffinity -3.81402349
REMARK minimizedRMSD -1
REMARK  0 active torsions:
REMARK  status: ('A' for Active; 'I' for Inactive)
ROOT
ATOM      1  C   UNL d   1       0.838   0.037   1.239  0.00  0.00     0.172 C 
ATOM      2  N   UNL d   1      -0.427  -0.601   0.960  0.00  0.00    -0.070 N 
ATOM      3  C1  UNL d   1      -0.916  -1.715   1.588  0.00  0.00    -0.004 A 
ATOM      4  C2  UNL d   1      -2.145  -2.006   1.038  0.00  0.00    -0.047 A 
ATOM      5  C3  UNL d   1      -2.404  -1.033   0.043  0.00  0.00    -0.047 A 
ATOM      6  C4  UNL d   1      -1.325  -0.176   0.016  0.00  0.00    -0.004 A 
ENDROOT
TORSDOF 0
ENDMDL
