MODEL 1
REMARK minimizedAffinity 1.01179731
REMARK minimizedRMSD -1
REMARK  0 active torsions:
REMARK  status: ('A' for Active; 'I' for Inactive)
ROOT
ATOM      1  C   UNL d   1       0.728   0.136  -1.396  0.00  0.00     0.172 C 
ATOM      2  N   UNL d   1       0.313  -0.499  -0.168  0.00  0.00    -0.070 N 
ATOM      3  C1  UNL d   1       1.129  -1.181   0.694  0.00  0.00    -0.004 A 
ATOM      4  C2  UNL d   1       0.355  -1.632   1.742  0.00  0.00    -0.047 A 
ATOM      5  C3  UNL d   1      -0.973  -1.208   1.500  0.00  0.00    -0.047 A 
ATOM      6  C4  UNL d   1      -0.971  -0.509   0.312  0.00  0.00    -0.004 A 
ENDROOT
TORSDOF 0
ENDMDL
