MODEL 1
REMARK minimizedAffinity -3.18011403
REMARK minimizedRMSD -1
REMARK  0 active torsions:
REMARK  status: ('A' for Active; 'I' for Inactive)
ROOT
ATOM      1  C   UNL d   1       2.067   3.332   1.054  0.00  0.00     0.172 C 
ATOM      2  N   UNL d   1       1.532   2.006   1.251  0.00  0.00    -0.070 N 
ATOM      3  C1  UNL d   1       1.423   1.038   0.288  0.00  0.00    -0.004 A 
ATOM      4  C2  UNL d   1       0.866  -0.079   0.873  0.00  0.00    -0.047 A 
ATOM      5  C3  UNL d   1       0.631   0.229   2.235  0.00  0.00    -0.047 A 
ATOM      6  C4  UNL d   1       1.053   1.526   2.441  0.00  0.00    -0.004 A 
ENDROOT
TORSDOF 0
ENDMDL
