MODEL 1
REMARK minimizedAffinity -2.73846793
REMARK minimizedRMSD -1
REMARK  0 active torsions:
REMARK  status: ('A' for Active; 'I' for Inactive)
ROOT
ATOM      1  C   UNL d   1       0.356  -1.841   1.296  0.00  0.00     0.172 C 
ATOM      2  N   UNL d   1      -0.048  -1.008   0.187  0.00  0.00    -0.070 N 
ATOM      3  C1  UNL d   1      -1.164  -1.193  -0.585  0.00  0.00    -0.004 A 
ATOM      4  C2  UNL d   1      -1.193  -0.192  -1.531  0.00  0.00    -0.047 A 
ATOM      5  C3  UNL d   1      -0.055   0.623  -1.321  0.00  0.00    -0.047 A 
ATOM      6  C4  UNL d   1       0.636   0.095  -0.251  0.00  0.00    -0.004 A 
ENDROOT
TORSDOF 0
ENDMDL
