MODEL 1
REMARK minimizedAffinity -1.43035471
REMARK minimizedRMSD -1
REMARK  0 active torsions:
REMARK  status: ('A' for Active; 'I' for Inactive)
ROOT
ATOM      1  C   UNL d   1      -0.026  -1.121   1.502  0.00  0.00     0.172 C 
ATOM      2  N   UNL d   1      -0.538  -0.627   0.245  0.00  0.00    -0.070 N 
ATOM      3  C1  UNL d   1       0.038   0.349  -0.523  0.00  0.00    -0.004 A 
ATOM      4  C2  UNL d   1      -0.752   0.531  -1.637  0.00  0.00    -0.047 A 
ATOM      5  C3  UNL d   1      -1.842  -0.366  -1.535  0.00  0.00    -0.047 A 
ATOM      6  C4  UNL d   1      -1.684  -1.071  -0.360  0.00  0.00    -0.004 A 
ENDROOT
TORSDOF 0
ENDMDL
