MODEL 1
REMARK minimizedAffinity -0.885930777
REMARK minimizedRMSD -1
REMARK  0 active torsions:
REMARK  status: ('A' for Active; 'I' for Inactive)
ROOT
ATOM      1  C   UNL d   1      -2.214  -0.760  -1.369  0.00  0.00     0.172 C 
ATOM      2  N   UNL d   1      -1.067  -0.080  -0.815  0.00  0.00    -0.070 N 
ATOM      3  C1  UNL d   1      -1.065   1.184  -0.289  0.00  0.00    -0.004 A 
ATOM      4  C2  UNL d   1       0.217   1.465   0.131  0.00  0.00    -0.047 A 
ATOM      5  C3  UNL d   1       1.014   0.331  -0.154  0.00  0.00    -0.047 A 
ATOM      6  C4  UNL d   1       0.194  -0.611  -0.740  0.00  0.00    -0.004 A 
ENDROOT
TORSDOF 0
ENDMDL
