MODEL 1
REMARK minimizedAffinity -3.82907104
REMARK minimizedRMSD -1
REMARK  0 active torsions:
REMARK  status: ('A' for Active; 'I' for Inactive)
ROOT
ATOM      1  C   UNL d   1      -0.663   0.365   0.379  0.00  0.00     0.172 C 
ATOM      2  N   UNL d   1      -1.451  -0.844   0.442  0.00  0.00    -0.070 N 
ATOM      3  C1  UNL d   1      -1.266  -1.872   1.327  0.00  0.00    -0.004 A 
ATOM      4  C2  UNL d   1      -2.217  -2.833   1.062  0.00  0.00    -0.047 A 
ATOM      5  C3  UNL d   1      -3.001  -2.366  -0.019  0.00  0.00    -0.047 A 
ATOM      6  C4  UNL d   1      -2.505  -1.132  -0.384  0.00  0.00    -0.004 A 
ENDROOT
TORSDOF 0
ENDMDL
