MODEL 1
REMARK minimizedAffinity -3.11904192
REMARK minimizedRMSD -1
REMARK  0 active torsions:
REMARK  status: ('A' for Active; 'I' for Inactive)
ROOT
ATOM      1  C   UNL d   1       1.963   2.518   1.758  0.00  0.00     0.172 C 
ATOM      2  N   UNL d   1       1.191   1.398   1.273  0.00  0.00    -0.070 N 
ATOM      3  C1  UNL d   1       1.694   0.311   0.608  0.00  0.00    -0.004 A 
ATOM      4  C2  UNL d   1       0.641  -0.530   0.318  0.00  0.00    -0.047 A 
ATOM      5  C3  UNL d   1      -0.535   0.073   0.824  0.00  0.00    -0.047 A 
ATOM      6  C4  UNL d   1      -0.165   1.266   1.410  0.00  0.00    -0.004 A 
ENDROOT
TORSDOF 0
ENDMDL
