MODEL 1
REMARK minimizedAffinity -3.77610064
REMARK minimizedRMSD -1
REMARK  0 active torsions:
REMARK  status: ('A' for Active; 'I' for Inactive)
ROOT
ATOM      1  C   UNL d   1       0.116   0.061   1.060  0.00  0.00     0.172 C 
ATOM      2  N   UNL d   1      -1.096  -0.359   0.397  0.00  0.00    -0.070 N 
ATOM      3  C1  UNL d   1      -1.631   0.211  -0.727  0.00  0.00    -0.004 A 
ATOM      4  C2  UNL d   1      -2.784  -0.476  -1.041  0.00  0.00    -0.047 A 
ATOM      5  C3  UNL d   1      -2.948  -1.494  -0.072  0.00  0.00    -0.047 A 
ATOM      6  C4  UNL d   1      -1.889  -1.399   0.806  0.00  0.00    -0.004 A 
ENDROOT
TORSDOF 0
ENDMDL
