MODEL 1
REMARK minimizedAffinity -3.91939592
REMARK minimizedRMSD -1
REMARK  0 active torsions:
REMARK  status: ('A' for Active; 'I' for Inactive)
ROOT
ATOM      1  C   UNL d   1       0.421  -0.215   0.850  0.00  0.00     0.172 C 
ATOM      2  N   UNL d   1      -0.897  -0.483   0.324  0.00  0.00    -0.070 N 
ATOM      3  C1  UNL d   1      -1.345  -0.138  -0.923  0.00  0.00    -0.004 A 
ATOM      4  C2  UNL d   1      -2.649  -0.569  -1.038  0.00  0.00    -0.047 A 
ATOM      5  C3  UNL d   1      -2.997  -1.194   0.183  0.00  0.00    -0.047 A 
ATOM      6  C4  UNL d   1      -1.894  -1.126   1.008  0.00  0.00    -0.004 A 
ENDROOT
TORSDOF 0
ENDMDL
