MODEL 1
REMARK minimizedAffinity -3.64943838
REMARK minimizedRMSD -1
REMARK  0 active torsions:
REMARK  status: ('A' for Active; 'I' for Inactive)
ROOT
ATOM      1  C   UNL d   1       0.954  -0.140   1.362  0.00  0.00     0.172 C 
ATOM      2  N   UNL d   1      -0.244  -0.284   0.569  0.00  0.00    -0.070 N 
ATOM      3  C1  UNL d   1      -1.366  -0.977   0.937  0.00  0.00    -0.004 A 
ATOM      4  C2  UNL d   1      -2.281  -0.874  -0.089  0.00  0.00    -0.047 A 
ATOM      5  C3  UNL d   1      -1.687  -0.093  -1.109  0.00  0.00    -0.047 A 
ATOM      6  C4  UNL d   1      -0.427   0.259  -0.675  0.00  0.00    -0.004 A 
ENDROOT
TORSDOF 0
ENDMDL
