MODEL 1
REMARK minimizedAffinity -2.83335543
REMARK minimizedRMSD -1
REMARK  0 active torsions:
REMARK  status: ('A' for Active; 'I' for Inactive)
ROOT
ATOM      1  C   UNL d   1       0.867  -0.770   1.486  0.00  0.00     0.172 C 
ATOM      2  N   UNL d   1       1.529   0.495   1.271  0.00  0.00    -0.070 N 
ATOM      3  C1  UNL d   1       1.581   1.531   2.165  0.00  0.00    -0.004 A 
ATOM      4  C2  UNL d   1       2.302   2.553   1.585  0.00  0.00    -0.047 A 
ATOM      5  C3  UNL d   1       2.696   2.116   0.298  0.00  0.00    -0.047 A 
ATOM      6  C4  UNL d   1       2.204   0.839   0.129  0.00  0.00    -0.004 A 
ENDROOT
TORSDOF 0
ENDMDL
