MODEL 1
REMARK minimizedAffinity -3.53179765
REMARK minimizedRMSD -1
REMARK  0 active torsions:
REMARK  status: ('A' for Active; 'I' for Inactive)
ROOT
ATOM      1  C   UNL d   1      -2.016  -0.744  -0.961  0.00  0.00     0.172 C 
ATOM      2  N   UNL d   1      -0.768  -0.712  -0.235  0.00  0.00    -0.070 N 
ATOM      3  C1  UNL d   1      -0.415  -1.556   0.784  0.00  0.00    -0.004 A 
ATOM      4  C2  UNL d   1       0.847  -1.201   1.208  0.00  0.00    -0.047 A 
ATOM      5  C3  UNL d   1       1.267  -0.105   0.418  0.00  0.00    -0.047 A 
ATOM      6  C4  UNL d   1       0.248   0.177  -0.468  0.00  0.00    -0.004 A 
ENDROOT
TORSDOF 0
ENDMDL
