MODEL 1
REMARK minimizedAffinity -0.234247327
REMARK minimizedRMSD -1
REMARK  0 active torsions:
REMARK  status: ('A' for Active; 'I' for Inactive)
ROOT
ATOM      1  C   UNL d   1      -2.254  -2.252  -0.746  0.00  0.00     0.172 C 
ATOM      2  N   UNL d   1      -1.382  -1.140  -1.043  0.00  0.00    -0.070 N 
ATOM      3  C1  UNL d   1      -0.110  -0.973  -0.565  0.00  0.00    -0.004 A 
ATOM      4  C2  UNL d   1       0.383   0.207  -1.079  0.00  0.00    -0.047 A 
ATOM      5  C3  UNL d   1      -0.629   0.769  -1.894  0.00  0.00    -0.047 A 
ATOM      6  C4  UNL d   1      -1.710  -0.085  -1.853  0.00  0.00    -0.004 A 
ENDROOT
TORSDOF 0
ENDMDL
