MODEL 1
REMARK minimizedAffinity -3.43791246
REMARK minimizedRMSD -1
REMARK  0 active torsions:
REMARK  status: ('A' for Active; 'I' for Inactive)
ROOT
ATOM      1  C   UNL d   1       2.321  -5.973  -0.743  0.00  0.00     0.078 C 
ATOM      2  C1  UNL d   1       2.478  -5.986  -2.234  0.00  0.00    -0.077 A 
ATOM      3  C2  UNL d   1       3.747  -5.998  -2.826  0.00  0.00    -0.001 A 
ATOM      4  C3  UNL d   1       3.879  -5.999  -4.215  0.00  0.00     0.003 A 
ATOM      5  C4  UNL d   1       2.745  -5.988  -5.025  0.00  0.00    -0.005 A 
ATOM      6  C5  UNL d   1       1.478  -5.973  -4.446  0.00  0.00     0.003 A 
ATOM      7  C6  UNL d   1       1.344  -5.972  -3.057  0.00  0.00    -0.001 A 
ENDROOT
TORSDOF 0
ENDMDL
