MODEL 1
REMARK minimizedAffinity 6.88826275
REMARK minimizedRMSD -1
REMARK  0 active torsions:
REMARK  status: ('A' for Active; 'I' for Inactive)
ROOT
ATOM      1  C   UNL d   1       4.342  -3.307   4.849  0.00  0.00     0.078 C 
ATOM      2  C1  UNL d   1       3.193  -2.873   3.990  0.00  0.00    -0.077 A 
ATOM      3  C2  UNL d   1       3.249  -1.680   3.258  0.00  0.00    -0.001 A 
ATOM      4  C3  UNL d   1       2.168  -1.284   2.470  0.00  0.00     0.003 A 
ATOM      5  C4  UNL d   1       1.022  -2.073   2.407  0.00  0.00    -0.005 A 
ATOM      6  C5  UNL d   1       0.955  -3.260   3.133  0.00  0.00     0.003 A 
ATOM      7  C6  UNL d   1       2.035  -3.659   3.922  0.00  0.00    -0.001 A 
ENDROOT
TORSDOF 0
ENDMDL
