MODEL 1
REMARK minimizedAffinity 3.57253361
REMARK minimizedRMSD -1
REMARK  0 active torsions:
REMARK  status: ('A' for Active; 'I' for Inactive)
ROOT
ATOM      1  C   UNL d   1      -1.844   0.915   0.368  0.00  0.00     0.078 C 
ATOM      2  C1  UNL d   1      -2.981   1.887   0.469  0.00  0.00    -0.077 A 
ATOM      3  C2  UNL d   1      -4.018   1.692   1.389  0.00  0.00    -0.001 A 
ATOM      4  C3  UNL d   1      -5.075   2.600   1.465  0.00  0.00     0.003 A 
ATOM      5  C4  UNL d   1      -5.107   3.709   0.622  0.00  0.00    -0.005 A 
ATOM      6  C5  UNL d   1      -4.080   3.911  -0.299  0.00  0.00     0.003 A 
ATOM      7  C6  UNL d   1      -3.022   3.004  -0.376  0.00  0.00    -0.001 A 
ENDROOT
TORSDOF 0
ENDMDL
