MODEL 1
REMARK minimizedAffinity 2.51392674
REMARK minimizedRMSD -1
REMARK  0 active torsions:
REMARK  status: ('A' for Active; 'I' for Inactive)
ROOT
ATOM      1  C   UNL d   1       1.861  -1.115   2.337  0.00  0.00     0.078 C 
ATOM      2  C1  UNL d   1       2.287  -2.259   3.209  0.00  0.00    -0.077 A 
ATOM      3  C2  UNL d   1       1.397  -3.291   3.529  0.00  0.00    -0.001 A 
ATOM      4  C3  UNL d   1       1.803  -4.344   4.350  0.00  0.00     0.003 A 
ATOM      5  C4  UNL d   1       3.101  -4.375   4.857  0.00  0.00    -0.005 A 
ATOM      6  C5  UNL d   1       3.993  -3.352   4.545  0.00  0.00     0.003 A 
ATOM      7  C6  UNL d   1       3.588  -2.297   3.725  0.00  0.00    -0.001 A 
ENDROOT
TORSDOF 0
ENDMDL
