MODEL 1
REMARK minimizedAffinity 3.3536458
REMARK minimizedRMSD -1
REMARK  0 active torsions:
REMARK  status: ('A' for Active; 'I' for Inactive)
ROOT
ATOM      1  C   UNL d   1       5.929  -2.954   4.072  0.00  0.00     0.078 C 
ATOM      2  C1  UNL d   1       4.455  -3.139   3.869  0.00  0.00    -0.077 A 
ATOM      3  C2  UNL d   1       3.852  -4.388   4.060  0.00  0.00    -0.001 A 
ATOM      4  C3  UNL d   1       2.480  -4.548   3.858  0.00  0.00     0.003 A 
ATOM      5  C4  UNL d   1       1.700  -3.463   3.463  0.00  0.00    -0.005 A 
ATOM      6  C5  UNL d   1       2.291  -2.216   3.268  0.00  0.00     0.003 A 
ATOM      7  C6  UNL d   1       3.663  -2.055   3.470  0.00  0.00    -0.001 A 
ENDROOT
TORSDOF 0
ENDMDL
