MODEL 1
REMARK minimizedAffinity 2.49088573
REMARK minimizedRMSD -1
REMARK  0 active torsions:
REMARK  status: ('A' for Active; 'I' for Inactive)
ROOT
ATOM      1  C   UNL d   1       1.334  -4.839   5.887  0.00  0.00     0.078 C 
ATOM      2  C1  UNL d   1       1.655  -3.924   4.742  0.00  0.00    -0.077 A 
ATOM      3  C2  UNL d   1       1.768  -4.415   3.436  0.00  0.00    -0.001 A 
ATOM      4  C3  UNL d   1       2.076  -3.553   2.382  0.00  0.00     0.003 A 
ATOM      5  C4  UNL d   1       2.275  -2.195   2.624  0.00  0.00    -0.005 A 
ATOM      6  C5  UNL d   1       2.166  -1.698   3.921  0.00  0.00     0.003 A 
ATOM      7  C6  UNL d   1       1.858  -2.558   4.976  0.00  0.00    -0.001 A 
ENDROOT
TORSDOF 0
ENDMDL
