MODEL 1
REMARK minimizedAffinity 7.09377337
REMARK minimizedRMSD -1
REMARK  0 active torsions:
REMARK  status: ('A' for Active; 'I' for Inactive)
ROOT
ATOM      1  C   UNL d   1       3.360  -5.269   4.326  0.00  0.00     0.078 C 
ATOM      2  C1  UNL d   1       2.772  -4.071   3.642  0.00  0.00    -0.077 A 
ATOM      3  C2  UNL d   1       1.789  -4.213   2.656  0.00  0.00    -0.001 A 
ATOM      4  C3  UNL d   1       1.257  -3.090   2.021  0.00  0.00     0.003 A 
ATOM      5  C4  UNL d   1       1.704  -1.815   2.364  0.00  0.00    -0.005 A 
ATOM      6  C5  UNL d   1       2.684  -1.663   3.343  0.00  0.00     0.003 A 
ATOM      7  C6  UNL d   1       3.217  -2.786   3.979  0.00  0.00    -0.001 A 
ENDROOT
TORSDOF 0
ENDMDL
