MODEL 1
REMARK minimizedAffinity -1.63813317
REMARK minimizedRMSD -1
REMARK  0 active torsions:
REMARK  status: ('A' for Active; 'I' for Inactive)
ROOT
ATOM      1  C   UNL d   1       4.127  -5.987  -1.702  0.00  0.00     0.078 C 
ATOM      2  C1  UNL d   1       3.975  -5.998  -3.194  0.00  0.00    -0.077 A 
ATOM      3  C2  UNL d   1       5.096  -6.000  -4.033  0.00  0.00    -0.001 A 
ATOM      4  C3  UNL d   1       4.940  -6.000  -5.420  0.00  0.00     0.003 A 
ATOM      5  C4  UNL d   1       3.664  -5.997  -5.980  0.00  0.00    -0.005 A 
ATOM      6  C5  UNL d   1       2.543  -5.994  -5.154  0.00  0.00     0.003 A 
ATOM      7  C6  UNL d   1       2.697  -5.993  -3.766  0.00  0.00    -0.001 A 
ENDROOT
TORSDOF 0
ENDMDL
