MODEL 1
REMARK minimizedAffinity -6.2041564
REMARK minimizedRMSD -1
REMARK  1 active torsions:
REMARK  status: ('A' for Active; 'I' for Inactive)
REMARK    1  A    between atoms: C1_2  and  C2_3 
ROOT
ATOM      1  C2  UNL d   1      -0.193   1.285   1.010  0.00  0.00    -0.073 A 
ATOM      2  C3  UNL d   1      -0.652   2.083   2.065  0.00  0.00    -0.002 A 
ATOM      3  C4  UNL d   1      -1.170   3.354   1.814  0.00  0.00     0.004 A 
ATOM      4  C5  UNL d   1      -1.242   3.837   0.507  0.00  0.00    -0.004 A 
ATOM      5  C6  UNL d   1      -0.799   3.051  -0.561  0.00  0.00    -0.075 A 
ATOM      6  C7  UNL d   1      -0.866   3.558  -1.972  0.00  0.00     0.076 C 
ATOM      7  C8  UNL d   1      -0.277   1.777  -0.301  0.00  0.00     0.001 A 
ENDROOT
BRANCH   1   8
ATOM      8  C1  UNL d   1       0.361  -0.090   1.276  0.00  0.00     0.053 C 
ATOM      9  C   UNL d   1       0.764  -0.800  -0.007  0.00  0.00     0.018 C 
ENDBRANCH   1   8
TORSDOF 1
ENDMDL
