MODEL 1
REMARK minimizedAffinity -2.80329466
REMARK minimizedRMSD -1
REMARK  1 active torsions:
REMARK  status: ('A' for Active; 'I' for Inactive)
REMARK    1  A    between atoms: C1_2  and  C2_3 
ROOT
ATOM      1  C2  UNL d   1      -0.684  -1.610  -1.629  0.00  0.00    -0.073 A 
ATOM      2  C3  UNL d   1      -0.767  -0.791  -2.760  0.00  0.00    -0.002 A 
ATOM      3  C4  UNL d   1      -0.450   0.565  -2.673  0.00  0.00     0.004 A 
ATOM      4  C5  UNL d   1      -0.041   1.114  -1.458  0.00  0.00    -0.004 A 
ATOM      5  C6  UNL d   1       0.060   0.309  -0.319  0.00  0.00    -0.075 A 
ATOM      6  C7  UNL d   1       0.497   0.884   0.996  0.00  0.00     0.076 C 
ATOM      7  C8  UNL d   1      -0.263  -1.051  -0.414  0.00  0.00     0.001 A 
ENDROOT
BRANCH   1   8
ATOM      8  C1  UNL d   1      -1.020  -3.076  -1.719  0.00  0.00     0.053 C 
ATOM      9  C   UNL d   1      -1.921  -3.383  -2.904  0.00  0.00     0.018 C 
ENDBRANCH   1   8
TORSDOF 1
ENDMDL
