MODEL 1
REMARK minimizedAffinity -2.33623838
REMARK minimizedRMSD -1
REMARK  1 active torsions:
REMARK  status: ('A' for Active; 'I' for Inactive)
REMARK    1  A    between atoms: C1_2  and  C2_3 
ROOT
ATOM      1  C2  UNL d   1      -0.505   1.063  -0.528  0.00  0.00    -0.073 A 
ATOM      2  C3  UNL d   1      -1.585   1.946  -0.414  0.00  0.00    -0.002 A 
ATOM      3  C4  UNL d   1      -2.038   2.347   0.844  0.00  0.00     0.004 A 
ATOM      4  C5  UNL d   1      -1.413   1.876   1.998  0.00  0.00    -0.004 A 
ATOM      5  C6  UNL d   1      -0.324   1.003   1.905  0.00  0.00    -0.075 A 
ATOM      6  C7  UNL d   1       0.358   0.486   3.137  0.00  0.00     0.076 C 
ATOM      7  C8  UNL d   1       0.123   0.603   0.638  0.00  0.00     0.001 A 
ENDROOT
BRANCH   1   8
ATOM      8  C1  UNL d   1      -0.009   0.632  -1.884  0.00  0.00     0.053 C 
ATOM      9  C   UNL d   1       0.108   1.803  -2.846  0.00  0.00     0.018 C 
ENDBRANCH   1   8
TORSDOF 1
ENDMDL
