MODEL 1
REMARK minimizedAffinity -3.62952113
REMARK minimizedRMSD -1
REMARK  1 active torsions:
REMARK  status: ('A' for Active; 'I' for Inactive)
REMARK    1  A    between atoms: C1_2  and  C2_3 
ROOT
ATOM      1  C2  UNL d   1      -0.853  -3.842  -1.567  0.00  0.00    -0.073 A 
ATOM      2  C3  UNL d   1      -0.173  -2.629  -1.723  0.00  0.00    -0.002 A 
ATOM      3  C4  UNL d   1       1.051  -2.420  -1.085  0.00  0.00     0.004 A 
ATOM      4  C5  UNL d   1       1.610  -3.422  -0.293  0.00  0.00    -0.004 A 
ATOM      5  C6  UNL d   1       0.951  -4.646  -0.135  0.00  0.00    -0.075 A 
ATOM      6  C7  UNL d   1       1.538  -5.734   0.715  0.00  0.00     0.076 C 
ATOM      7  C8  UNL d   1      -0.278  -4.847  -0.776  0.00  0.00     0.001 A 
ENDROOT
BRANCH   1   8
ATOM      8  C1  UNL d   1      -2.171  -4.074  -2.259  0.00  0.00     0.053 C 
ATOM      9  C   UNL d   1      -2.053  -3.949  -3.769  0.00  0.00     0.018 C 
ENDBRANCH   1   8
TORSDOF 1
ENDMDL
