MODEL 1
REMARK minimizedAffinity -2.90634918
REMARK minimizedRMSD -1
REMARK  1 active torsions:
REMARK  status: ('A' for Active; 'I' for Inactive)
REMARK    1  A    between atoms: C1_2  and  C2_3 
ROOT
ATOM      1  C2  UNL d   1       0.467  -0.236  -0.505  0.00  0.00    -0.073 A 
ATOM      2  C3  UNL d   1       0.558   0.678  -1.561  0.00  0.00    -0.002 A 
ATOM      3  C4  UNL d   1      -0.469   1.594  -1.790  0.00  0.00     0.004 A 
ATOM      4  C5  UNL d   1      -1.592   1.611  -0.963  0.00  0.00    -0.004 A 
ATOM      5  C6  UNL d   1      -1.696   0.713   0.105  0.00  0.00    -0.075 A 
ATOM      6  C7  UNL d   1      -2.898   0.717   1.002  0.00  0.00     0.076 C 
ATOM      7  C8  UNL d   1      -0.662  -0.206   0.326  0.00  0.00     0.001 A 
ENDROOT
BRANCH   1   8
ATOM      8  C1  UNL d   1       1.576  -1.224  -0.250  0.00  0.00     0.053 C 
ATOM      9  C   UNL d   1       2.691  -0.624   0.592  0.00  0.00     0.018 C 
ENDBRANCH   1   8
TORSDOF 1
ENDMDL
