MODEL 1
REMARK minimizedAffinity 2.32720923
REMARK minimizedRMSD -1
REMARK  1 active torsions:
REMARK  status: ('A' for Active; 'I' for Inactive)
REMARK    1  A    between atoms: C1_2  and  C2_3 
ROOT
ATOM      1  C2  UNL d   1      -0.113   1.800  -1.053  0.00  0.00    -0.073 A 
ATOM      2  C3  UNL d   1       0.778   2.202  -2.055  0.00  0.00    -0.002 A 
ATOM      3  C4  UNL d   1       0.871   1.482  -3.246  0.00  0.00     0.004 A 
ATOM      4  C5  UNL d   1       0.071   0.358  -3.451  0.00  0.00    -0.004 A 
ATOM      5  C6  UNL d   1      -0.834  -0.053  -2.467  0.00  0.00    -0.075 A 
ATOM      6  C7  UNL d   1      -1.700  -1.261  -2.672  0.00  0.00     0.076 C 
ATOM      7  C8  UNL d   1      -0.920   0.674  -1.272  0.00  0.00     0.001 A 
ENDROOT
BRANCH   1   8
ATOM      8  C1  UNL d   1      -0.223   2.579   0.232  0.00  0.00     0.053 C 
ATOM      9  C   UNL d   1      -1.403   2.124   1.076  0.00  0.00     0.018 C 
ENDBRANCH   1   8
TORSDOF 1
ENDMDL
