MODEL 1
REMARK minimizedAffinity 14.1003819
REMARK minimizedRMSD -1
REMARK  1 active torsions:
REMARK  status: ('A' for Active; 'I' for Inactive)
REMARK    1  A    between atoms: C1_2  and  C2_3 
ROOT
ATOM      1  C2  UNL d   1       1.515  -3.390  -3.297  0.00  0.00    -0.073 A 
ATOM      2  C3  UNL d   1       0.366  -3.020  -4.004  0.00  0.00    -0.002 A 
ATOM      3  C4  UNL d   1       0.227  -3.361  -5.350  0.00  0.00     0.004 A 
ATOM      4  C5  UNL d   1       1.229  -4.081  -6.000  0.00  0.00    -0.004 A 
ATOM      5  C6  UNL d   1       2.380  -4.471  -5.306  0.00  0.00    -0.075 A 
ATOM      6  C7  UNL d   1       3.468  -5.244  -5.991  0.00  0.00     0.076 C 
ATOM      7  C8  UNL d   1       2.514  -4.122  -3.956  0.00  0.00     0.001 A 
ENDROOT
BRANCH   1   8
ATOM      8  C1  UNL d   1       1.668  -3.030  -1.842  0.00  0.00     0.053 C 
ATOM      9  C   UNL d   1       1.535  -4.244  -0.936  0.00  0.00     0.018 C 
ENDBRANCH   1   8
TORSDOF 1
ENDMDL
