MODEL 1
REMARK minimizedAffinity 5.9286561
REMARK minimizedRMSD -1
REMARK  1 active torsions:
REMARK  status: ('A' for Active; 'I' for Inactive)
REMARK    1  A    between atoms: C1_2  and  C2_3 
ROOT
ATOM      1  C2  UNL d   1      -0.491   2.882   1.054  0.00  0.00    -0.073 A 
ATOM      2  C3  UNL d   1      -1.872   2.655   1.043  0.00  0.00    -0.002 A 
ATOM      3  C4  UNL d   1      -2.474   1.927   2.070  0.00  0.00     0.004 A 
ATOM      4  C5  UNL d   1      -1.705   1.424   3.119  0.00  0.00    -0.004 A 
ATOM      5  C6  UNL d   1      -0.325   1.650   3.153  0.00  0.00    -0.075 A 
ATOM      6  C7  UNL d   1       0.517   1.113   4.274  0.00  0.00     0.076 C 
ATOM      7  C8  UNL d   1       0.273   2.380   2.118  0.00  0.00     0.001 A 
ENDROOT
BRANCH   1   8
ATOM      8  C1  UNL d   1       0.164   3.673  -0.049  0.00  0.00     0.053 C 
ATOM      9  C   UNL d   1      -0.405   3.325  -1.415  0.00  0.00     0.018 C 
ENDBRANCH   1   8
TORSDOF 1
ENDMDL
