MODEL 1
REMARK minimizedAffinity 5.43617296
REMARK minimizedRMSD -1
REMARK  1 active torsions:
REMARK  status: ('A' for Active; 'I' for Inactive)
REMARK    1  A    between atoms: C1_2  and  C2_3 
ROOT
ATOM      1  C2  UNL d   1      -1.769   5.311   0.735  0.00  0.00    -0.073 A 
ATOM      2  C3  UNL d   1      -1.138   5.987  -0.316  0.00  0.00    -0.002 A 
ATOM      3  C4  UNL d   1      -0.154   5.350  -1.073  0.00  0.00     0.004 A 
ATOM      4  C5  UNL d   1       0.204   4.031  -0.794  0.00  0.00    -0.004 A 
ATOM      5  C6  UNL d   1      -0.424   3.335   0.244  0.00  0.00    -0.075 A 
ATOM      6  C7  UNL d   1      -0.049   1.917   0.560  0.00  0.00     0.076 C 
ATOM      7  C8  UNL d   1      -1.409   3.982   1.003  0.00  0.00     0.001 A 
ENDROOT
BRANCH   1   8
ATOM      8  C1  UNL d   1      -2.836   5.992   1.552  0.00  0.00     0.053 C 
ATOM      9  C   UNL d   1      -4.180   6.000   0.841  0.00  0.00     0.018 C 
ENDBRANCH   1   8
TORSDOF 1
ENDMDL
