MODEL 1
REMARK minimizedAffinity 7.28687429
REMARK minimizedRMSD -1
REMARK  1 active torsions:
REMARK  status: ('A' for Active; 'I' for Inactive)
REMARK    1  A    between atoms: C1_2  and  C2_3 
ROOT
ATOM      1  C2  UNL d   1      -0.858   4.221  -2.020  0.00  0.00    -0.073 A 
ATOM      2  C3  UNL d   1      -1.266   5.380  -1.350  0.00  0.00    -0.002 A 
ATOM      3  C4  UNL d   1      -1.219   5.442   0.044  0.00  0.00     0.004 A 
ATOM      4  C5  UNL d   1      -0.757   4.351   0.780  0.00  0.00    -0.004 A 
ATOM      5  C6  UNL d   1      -0.334   3.188   0.127  0.00  0.00    -0.075 A 
ATOM      6  C7  UNL d   1       0.163   2.005   0.905  0.00  0.00     0.076 C 
ATOM      7  C8  UNL d   1      -0.387   3.132  -1.272  0.00  0.00     0.001 A 
ENDROOT
BRANCH   1   8
ATOM      8  C1  UNL d   1      -0.902   4.151  -3.525  0.00  0.00     0.053 C 
ATOM      9  C   UNL d   1      -1.729   2.975  -4.017  0.00  0.00     0.018 C 
ENDBRANCH   1   8
TORSDOF 1
ENDMDL
