MODEL 1
REMARK minimizedAffinity 4.60687304
REMARK minimizedRMSD -1
REMARK  1 active torsions:
REMARK  status: ('A' for Active; 'I' for Inactive)
REMARK    1  A    between atoms: C1_2  and  C2_3 
ROOT
ATOM      1  C2  UNL d   1      -0.286   2.813  -0.718  0.00  0.00    -0.073 A 
ATOM      2  C3  UNL d   1       0.285   3.770  -1.566  0.00  0.00    -0.002 A 
ATOM      3  C4  UNL d   1      -0.206   3.948  -2.859  0.00  0.00     0.004 A 
ATOM      4  C5  UNL d   1      -1.276   3.178  -3.316  0.00  0.00    -0.004 A 
ATOM      5  C6  UNL d   1      -1.867   2.225  -2.480  0.00  0.00    -0.075 A 
ATOM      6  C7  UNL d   1      -3.017   1.387  -2.957  0.00  0.00     0.076 C 
ATOM      7  C8  UNL d   1      -1.366   2.050  -1.183  0.00  0.00     0.001 A 
ENDROOT
BRANCH   1   8
ATOM      8  C1  UNL d   1       0.238   2.622   0.682  0.00  0.00     0.053 C 
ATOM      9  C   UNL d   1      -0.517   1.534   1.429  0.00  0.00     0.018 C 
ENDBRANCH   1   8
TORSDOF 1
ENDMDL
