MODEL 1
REMARK minimizedAffinity 16.0156059
REMARK minimizedRMSD -1
REMARK  1 active torsions:
REMARK  status: ('A' for Active; 'I' for Inactive)
REMARK    1  A    between atoms: C1_2  and  C2_3 
ROOT
ATOM      1  C2  UNL d   1       1.935  -3.829  -0.400  0.00  0.00    -0.073 A 
ATOM      2  C3  UNL d   1       0.769  -4.014  -1.153  0.00  0.00    -0.002 A 
ATOM      3  C4  UNL d   1       0.783  -4.831  -2.284  0.00  0.00     0.004 A 
ATOM      4  C5  UNL d   1       1.958  -5.475  -2.671  0.00  0.00    -0.004 A 
ATOM      5  C6  UNL d   1       3.130  -5.312  -1.925  0.00  0.00    -0.075 A 
ATOM      6  C7  UNL d   1       4.403  -5.996  -2.328  0.00  0.00     0.076 C 
ATOM      7  C8  UNL d   1       3.109  -4.488  -0.791  0.00  0.00     0.001 A 
ENDROOT
BRANCH   1   8
ATOM      8  C1  UNL d   1       1.923  -2.953   0.826  0.00  0.00     0.053 C 
ATOM      9  C   UNL d   1       3.025  -1.906   0.789  0.00  0.00     0.018 C 
ENDBRANCH   1   8
TORSDOF 1
ENDMDL
