MODEL 1
REMARK minimizedAffinity 9.58222294
REMARK minimizedRMSD -1
REMARK  1 active torsions:
REMARK  status: ('A' for Active; 'I' for Inactive)
REMARK    1  A    between atoms: C1_2  and  C2_3 
ROOT
ATOM      1  C2  UNL d   1       2.241  -3.668  -0.439  0.00  0.00    -0.073 A 
ATOM      2  C3  UNL d   1       1.070  -3.916  -1.164  0.00  0.00    -0.002 A 
ATOM      3  C4  UNL d   1       1.074  -4.828  -2.220  0.00  0.00     0.004 A 
ATOM      4  C5  UNL d   1       2.246  -5.506  -2.557  0.00  0.00    -0.004 A 
ATOM      5  C6  UNL d   1       3.423  -5.280  -1.837  0.00  0.00    -0.075 A 
ATOM      6  C7  UNL d   1       4.693  -6.000  -2.188  0.00  0.00     0.076 C 
ATOM      7  C8  UNL d   1       3.411  -4.361  -0.779  0.00  0.00     0.001 A 
ENDROOT
BRANCH   1   8
ATOM      8  C1  UNL d   1       2.239  -2.688   0.706  0.00  0.00     0.053 C 
ATOM      9  C   UNL d   1       3.509  -1.853   0.743  0.00  0.00     0.018 C 
ENDBRANCH   1   8
TORSDOF 1
ENDMDL
