MODEL 1
REMARK minimizedAffinity -4.97663593
REMARK minimizedRMSD -1
REMARK  1 active torsions:
REMARK  status: ('A' for Active; 'I' for Inactive)
REMARK    1  A    between atoms: C1_2  and  C2_3 
ROOT
ATOM      1  C2  UNL d   1      -0.893   2.194   1.828  0.00  0.00    -0.073 A 
ATOM      2  C3  UNL d   1      -1.149   1.281   0.799  0.00  0.00    -0.002 A 
ATOM      3  C4  UNL d   1      -0.803   1.587  -0.518  0.00  0.00     0.004 A 
ATOM      4  C5  UNL d   1      -0.192   2.804  -0.818  0.00  0.00    -0.004 A 
ATOM      5  C6  UNL d   1       0.083   3.725   0.198  0.00  0.00    -0.075 A 
ATOM      6  C7  UNL d   1       0.738   5.040  -0.109  0.00  0.00     0.076 C 
ATOM      7  C8  UNL d   1      -0.269   3.411   1.517  0.00  0.00     0.001 A 
ENDROOT
BRANCH   1   8
ATOM      8  C1  UNL d   1      -1.258   1.865   3.252  0.00  0.00     0.053 C 
ATOM      9  C   UNL d   1      -0.216   2.366   4.238  0.00  0.00     0.018 C 
ENDBRANCH   1   8
TORSDOF 1
ENDMDL
