MODEL 1
REMARK minimizedAffinity 17.638319
REMARK minimizedRMSD -1
REMARK  1 active torsions:
REMARK  status: ('A' for Active; 'I' for Inactive)
REMARK    1  A    between atoms: C1_2  and  C2_3 
ROOT
ATOM      1  C2  UNL d   1      -5.264   5.302   0.729  0.00  0.00    -0.073 A 
ATOM      2  C3  UNL d   1      -5.605   5.581  -0.599  0.00  0.00    -0.002 A 
ATOM      3  C4  UNL d   1      -4.951   4.931  -1.647  0.00  0.00     0.004 A 
ATOM      4  C5  UNL d   1      -3.957   3.991  -1.377  0.00  0.00    -0.004 A 
ATOM      5  C6  UNL d   1      -3.610   3.689  -0.057  0.00  0.00    -0.075 A 
ATOM      6  C7  UNL d   1      -2.541   2.682   0.250  0.00  0.00     0.076 C 
ATOM      7  C8  UNL d   1      -4.269   4.348   0.990  0.00  0.00     0.001 A 
ENDROOT
BRANCH   1   8
ATOM      8  C1  UNL d   1      -5.971   5.997   1.864  0.00  0.00     0.053 C 
ATOM      9  C   UNL d   1      -5.140   6.000   3.137  0.00  0.00     0.018 C 
ENDBRANCH   1   8
TORSDOF 1
ENDMDL
