MODEL 1
REMARK minimizedAffinity 17.8843288
REMARK minimizedRMSD -1
REMARK  1 active torsions:
REMARK  status: ('A' for Active; 'I' for Inactive)
REMARK    1  A    between atoms: C1_2  and  C2_3 
ROOT
ATOM      1  C2  UNL d   1       4.841  -3.965   1.764  0.00  0.00    -0.073 A 
ATOM      2  C3  UNL d   1       5.858  -3.096   2.174  0.00  0.00    -0.002 A 
ATOM      3  C4  UNL d   1       5.625  -1.722   2.246  0.00  0.00     0.004 A 
ATOM      4  C5  UNL d   1       4.372  -1.204   1.916  0.00  0.00    -0.004 A 
ATOM      5  C6  UNL d   1       3.339  -2.058   1.515  0.00  0.00    -0.075 A 
ATOM      6  C7  UNL d   1       1.987  -1.516   1.154  0.00  0.00     0.076 C 
ATOM      7  C8  UNL d   1       3.582  -3.436   1.442  0.00  0.00     0.001 A 
ENDROOT
BRANCH   1   8
ATOM      8  C1  UNL d   1       5.086  -5.450   1.690  0.00  0.00     0.053 C 
ATOM      9  C   UNL d   1       5.647  -6.000   2.992  0.00  0.00     0.018 C 
ENDBRANCH   1   8
TORSDOF 1
ENDMDL
