MODEL 1
REMARK minimizedAffinity 16.214262
REMARK minimizedRMSD -1
REMARK  1 active torsions:
REMARK  status: ('A' for Active; 'I' for Inactive)
REMARK    1  A    between atoms: C1_2  and  C2_3 
ROOT
ATOM      1  C2  UNL d   1       1.745  -3.922  -1.119  0.00  0.00    -0.073 A 
ATOM      2  C3  UNL d   1       1.069  -4.469  -2.216  0.00  0.00    -0.002 A 
ATOM      3  C4  UNL d   1       1.647  -5.501  -2.957  0.00  0.00     0.004 A 
ATOM      4  C5  UNL d   1       2.901  -6.000  -2.607  0.00  0.00    -0.004 A 
ATOM      5  C6  UNL d   1       3.587  -5.474  -1.507  0.00  0.00    -0.075 A 
ATOM      6  C7  UNL d   1       4.939  -5.999  -1.119  0.00  0.00     0.076 C 
ATOM      7  C8  UNL d   1       3.002  -4.437  -0.769  0.00  0.00     0.001 A 
ENDROOT
BRANCH   1   8
ATOM      8  C1  UNL d   1       1.123  -2.813  -0.312  0.00  0.00     0.053 C 
ATOM      9  C   UNL d   1       2.144  -2.100   0.560  0.00  0.00     0.018 C 
ENDBRANCH   1   8
TORSDOF 1
ENDMDL
