MODEL 1
REMARK minimizedAffinity 10.4187422
REMARK minimizedRMSD -1
REMARK  1 active torsions:
REMARK  status: ('A' for Active; 'I' for Inactive)
REMARK    1  A    between atoms: C1_2  and  C2_3 
ROOT
ATOM      1  C2  UNL d   1      -0.814   3.020  -1.957  0.00  0.00    -0.073 A 
ATOM      2  C3  UNL d   1       0.184   4.000  -1.949  0.00  0.00    -0.002 A 
ATOM      3  C4  UNL d   1       1.058   4.107  -0.866  0.00  0.00     0.004 A 
ATOM      4  C5  UNL d   1       0.947   3.232   0.215  0.00  0.00    -0.004 A 
ATOM      5  C6  UNL d   1      -0.037   2.238   0.220  0.00  0.00    -0.075 A 
ATOM      6  C7  UNL d   1      -0.171   1.291   1.376  0.00  0.00     0.076 C 
ATOM      7  C8  UNL d   1      -0.912   2.139  -0.870  0.00  0.00     0.001 A 
ENDROOT
BRANCH   1   8
ATOM      8  C1  UNL d   1      -1.756   2.896  -3.127  0.00  0.00     0.053 C 
ATOM      9  C   UNL d   1      -1.440   3.902  -4.222  0.00  0.00     0.018 C 
ENDBRANCH   1   8
TORSDOF 1
ENDMDL
