MODEL 1
REMARK minimizedAffinity 8.44222641
REMARK minimizedRMSD -1
REMARK  1 active torsions:
REMARK  status: ('A' for Active; 'I' for Inactive)
REMARK    1  A    between atoms: C1_2  and  C2_3 
ROOT
ATOM      1  C2  UNL d   1      -0.694   2.739  -0.967  0.00  0.00    -0.073 A 
ATOM      2  C3  UNL d   1      -0.722   3.376  -2.213  0.00  0.00    -0.002 A 
ATOM      3  C4  UNL d   1      -1.590   2.933  -3.212  0.00  0.00     0.004 A 
ATOM      4  C5  UNL d   1      -2.444   1.856  -2.973  0.00  0.00    -0.004 A 
ATOM      5  C6  UNL d   1      -2.440   1.215  -1.730  0.00  0.00    -0.075 A 
ATOM      6  C7  UNL d   1      -3.350   0.053  -1.458  0.00  0.00     0.076 C 
ATOM      7  C8  UNL d   1      -1.563   1.663  -0.734  0.00  0.00     0.001 A 
ENDROOT
BRANCH   1   8
ATOM      8  C1  UNL d   1       0.237   3.218   0.116  0.00  0.00     0.053 C 
ATOM      9  C   UNL d   1       1.334   4.117  -0.431  0.00  0.00     0.018 C 
ENDBRANCH   1   8
TORSDOF 1
ENDMDL
