MODEL 1
REMARK minimizedAffinity -2.89840722
REMARK minimizedRMSD -1
REMARK  1 active torsions:
REMARK  status: ('A' for Active; 'I' for Inactive)
REMARK    1  A    between atoms: C1_2  and  C2_3 
ROOT
ATOM      1  C2  UNL d   1      -0.701   1.110   1.491  0.00  0.00    -0.081 A 
ATOM      2  C3  UNL d   1      -0.513   1.360   0.126  0.00  0.00     0.006 A 
ATOM      3  C4  UNL d   1       0.038   0.381  -0.704  0.00  0.00     0.002 A 
ATOM      4  C5  UNL d   1       0.403  -0.866  -0.185  0.00  0.00    -0.080 A 
ATOM      5  C6  UNL d   1       0.967  -1.937  -1.071  0.00  0.00     0.076 C 
ATOM      6  C7  UNL d   1       0.231  -1.110   1.182  0.00  0.00     0.002 A 
ATOM      7  C8  UNL d   1      -0.319  -0.131   2.012  0.00  0.00     0.006 A 
ENDROOT
BRANCH   1   8
ATOM      8  C1  UNL d   1      -1.354   2.141   2.375  0.00  0.00     0.054 C 
ATOM      9  C   UNL d   1      -0.450   2.526   3.537  0.00  0.00     0.018 C 
ENDBRANCH   1   8
TORSDOF 1
ENDMDL
