MODEL 1
REMARK minimizedAffinity -4.78808784
REMARK minimizedRMSD -1
REMARK  1 active torsions:
REMARK  status: ('A' for Active; 'I' for Inactive)
REMARK    1  A    between atoms: C1_2  and  C2_3 
ROOT
ATOM      1  C2  UNL d   1       0.831   0.331  -0.494  0.00  0.00    -0.081 A 
ATOM      2  C3  UNL d   1       0.058   1.346  -1.072  0.00  0.00     0.006 A 
ATOM      3  C4  UNL d   1      -1.036   1.879  -0.386  0.00  0.00     0.002 A 
ATOM      4  C5  UNL d   1      -1.371   1.413   0.889  0.00  0.00    -0.080 A 
ATOM      5  C6  UNL d   1      -2.525   1.998   1.648  0.00  0.00     0.076 C 
ATOM      6  C7  UNL d   1      -0.609   0.387   1.459  0.00  0.00     0.002 A 
ATOM      7  C8  UNL d   1       0.484  -0.147   0.774  0.00  0.00     0.006 A 
ENDROOT
BRANCH   1   8
ATOM      8  C1  UNL d   1       2.050  -0.201  -1.203  0.00  0.00     0.054 C 
ATOM      9  C   UNL d   1       2.289  -1.666  -0.868  0.00  0.00     0.018 C 
ENDBRANCH   1   8
TORSDOF 1
ENDMDL
