MODEL 1
REMARK minimizedAffinity -2.74685454
REMARK minimizedRMSD -1
REMARK  1 active torsions:
REMARK  status: ('A' for Active; 'I' for Inactive)
REMARK    1  A    between atoms: C1_2  and  C2_3 
ROOT
ATOM      1  C2  UNL d   1       0.682  -1.067  -1.120  0.00  0.00    -0.081 A 
ATOM      2  C3  UNL d   1      -0.530  -0.822  -0.463  0.00  0.00     0.006 A 
ATOM      3  C4  UNL d   1      -1.040   0.475  -0.377  0.00  0.00     0.002 A 
ATOM      4  C5  UNL d   1      -0.351   1.548  -0.954  0.00  0.00    -0.080 A 
ATOM      5  C6  UNL d   1      -0.902   2.942  -0.896  0.00  0.00     0.076 C 
ATOM      6  C7  UNL d   1       0.868   1.306  -1.595  0.00  0.00     0.002 A 
ATOM      7  C8  UNL d   1       1.379   0.009  -1.680  0.00  0.00     0.006 A 
ENDROOT
BRANCH   1   8
ATOM      8  C1  UNL d   1       1.202  -2.474  -1.270  0.00  0.00     0.054 C 
ATOM      9  C   UNL d   1       0.523  -3.194  -2.426  0.00  0.00     0.018 C 
ENDBRANCH   1   8
TORSDOF 1
ENDMDL
