MODEL 1
REMARK minimizedAffinity -2.96534681
REMARK minimizedRMSD -1
REMARK  1 active torsions:
REMARK  status: ('A' for Active; 'I' for Inactive)
REMARK    1  A    between atoms: C1_2  and  C2_3 
ROOT
ATOM      1  C2  UNL d   1      -0.334  -0.648  -0.370  0.00  0.00    -0.081 A 
ATOM      2  C3  UNL d   1      -0.920  -0.892   0.878  0.00  0.00     0.006 A 
ATOM      3  C4  UNL d   1      -1.565   0.135   1.570  0.00  0.00     0.002 A 
ATOM      4  C5  UNL d   1      -1.642   1.420   1.024  0.00  0.00    -0.080 A 
ATOM      5  C6  UNL d   1      -2.358   2.525   1.743  0.00  0.00     0.076 C 
ATOM      6  C7  UNL d   1      -1.041   1.669  -0.215  0.00  0.00     0.002 A 
ATOM      7  C8  UNL d   1      -0.396   0.642  -0.908  0.00  0.00     0.006 A 
ENDROOT
BRANCH   1   8
ATOM      8  C1  UNL d   1       0.306  -1.769  -1.149  0.00  0.00     0.054 C 
ATOM      9  C   UNL d   1      -0.713  -2.491  -2.018  0.00  0.00     0.018 C 
ENDBRANCH   1   8
TORSDOF 1
ENDMDL
