MODEL 1
REMARK minimizedAffinity -3.9291153
REMARK minimizedRMSD -1
REMARK  1 active torsions:
REMARK  status: ('A' for Active; 'I' for Inactive)
REMARK    1  A    between atoms: C1_2  and  C2_3 
ROOT
ATOM      1  C2  UNL d   1       0.337  -0.797  -0.950  0.00  0.00    -0.081 A 
ATOM      2  C3  UNL d   1       0.565   0.540  -1.295  0.00  0.00     0.006 A 
ATOM      3  C4  UNL d   1      -0.254   1.552  -0.787  0.00  0.00     0.002 A 
ATOM      4  C5  UNL d   1      -1.309   1.244   0.079  0.00  0.00    -0.080 A 
ATOM      5  C6  UNL d   1      -2.177   2.323   0.654  0.00  0.00     0.076 C 
ATOM      6  C7  UNL d   1      -1.547  -0.094   0.410  0.00  0.00     0.002 A 
ATOM      7  C8  UNL d   1      -0.729  -1.106  -0.098  0.00  0.00     0.006 A 
ENDROOT
BRANCH   1   8
ATOM      8  C1  UNL d   1       1.258  -1.884  -1.443  0.00  0.00     0.054 C 
ATOM      9  C   UNL d   1       0.486  -3.148  -1.791  0.00  0.00     0.018 C 
ENDBRANCH   1   8
TORSDOF 1
ENDMDL
