MODEL 1
REMARK minimizedAffinity -3.64770722
REMARK minimizedRMSD -1
REMARK  1 active torsions:
REMARK  status: ('A' for Active; 'I' for Inactive)
REMARK    1  A    between atoms: C1_2  and  C2_3 
ROOT
ATOM      1  C2  UNL d   1       0.764  -0.565  -0.446  0.00  0.00    -0.081 A 
ATOM      2  C3  UNL d   1       0.556  -0.574   0.938  0.00  0.00     0.006 A 
ATOM      3  C4  UNL d   1      -0.334   0.327   1.527  0.00  0.00     0.002 A 
ATOM      4  C5  UNL d   1      -1.037   1.247   0.741  0.00  0.00    -0.080 A 
ATOM      5  C6  UNL d   1      -2.018   2.199   1.356  0.00  0.00     0.076 C 
ATOM      6  C7  UNL d   1      -0.817   1.267  -0.641  0.00  0.00     0.002 A 
ATOM      7  C8  UNL d   1       0.074   0.367  -1.230  0.00  0.00     0.006 A 
ENDROOT
BRANCH   1   8
ATOM      8  C1  UNL d   1       1.674  -1.579  -1.092  0.00  0.00     0.054 C 
ATOM      9  C   UNL d   1       0.911  -2.468  -2.063  0.00  0.00     0.018 C 
ENDBRANCH   1   8
TORSDOF 1
ENDMDL
