MODEL 1
REMARK minimizedAffinity -0.691775203
REMARK minimizedRMSD -1
REMARK  1 active torsions:
REMARK  status: ('A' for Active; 'I' for Inactive)
REMARK    1  A    between atoms: C1_2  and  C2_3 
ROOT
ATOM      1  C2  UNL d   1      -0.379  -0.428  -1.104  0.00  0.00    -0.081 A 
ATOM      2  C3  UNL d   1      -0.956  -1.269  -2.064  0.00  0.00     0.006 A 
ATOM      3  C4  UNL d   1      -0.452  -2.555  -2.273  0.00  0.00     0.002 A 
ATOM      4  C5  UNL d   1       0.631  -3.024  -1.521  0.00  0.00    -0.080 A 
ATOM      5  C6  UNL d   1       1.162  -4.413  -1.714  0.00  0.00     0.076 C 
ATOM      6  C7  UNL d   1       1.219  -2.177  -0.575  0.00  0.00     0.002 A 
ATOM      7  C8  UNL d   1       0.716  -0.891  -0.366  0.00  0.00     0.006 A 
ENDROOT
BRANCH   1   8
ATOM      8  C1  UNL d   1      -0.961   0.936  -0.832  0.00  0.00     0.054 C 
ATOM      9  C   UNL d   1       0.013   2.040  -1.217  0.00  0.00     0.018 C 
ENDBRANCH   1   8
TORSDOF 1
ENDMDL
