MODEL 1
REMARK minimizedAffinity 0.696098804
REMARK minimizedRMSD -1
REMARK  1 active torsions:
REMARK  status: ('A' for Active; 'I' for Inactive)
REMARK    1  A    between atoms: C1_2  and  C2_3 
ROOT
ATOM      1  C2  UNL d   1      -4.748  -2.160   2.611  0.00  0.00    -0.081 A 
ATOM      2  C3  UNL d   1      -5.258  -2.122   3.914  0.00  0.00     0.006 A 
ATOM      3  C4  UNL d   1      -4.398  -2.179   5.013  0.00  0.00     0.002 A 
ATOM      4  C5  UNL d   1      -3.014  -2.268   4.827  0.00  0.00    -0.080 A 
ATOM      5  C6  UNL d   1      -2.077  -2.300   5.998  0.00  0.00     0.076 C 
ATOM      6  C7  UNL d   1      -2.505  -2.324   3.525  0.00  0.00     0.002 A 
ATOM      7  C8  UNL d   1      -3.365  -2.267   2.426  0.00  0.00     0.006 A 
ENDROOT
BRANCH   1   8
ATOM      8  C1  UNL d   1      -5.668  -2.033   1.423  0.00  0.00     0.054 C 
ATOM      9  C   UNL d   1      -5.511  -0.681   0.743  0.00  0.00     0.018 C 
ENDBRANCH   1   8
TORSDOF 1
ENDMDL
