MODEL 1
REMARK minimizedAffinity 2.42802691
REMARK minimizedRMSD -1
REMARK  1 active torsions:
REMARK  status: ('A' for Active; 'I' for Inactive)
REMARK    1  A    between atoms: C1_2  and  C2_3 
ROOT
ATOM      1  C2  UNL d   1       1.003  -1.073  -1.004  0.00  0.00    -0.081 A 
ATOM      2  C3  UNL d   1       0.310  -0.926  -2.212  0.00  0.00     0.006 A 
ATOM      3  C4  UNL d   1      -0.088  -2.049  -2.941  0.00  0.00     0.002 A 
ATOM      4  C5  UNL d   1       0.193  -3.336  -2.471  0.00  0.00    -0.080 A 
ATOM      5  C6  UNL d   1      -0.255  -4.551  -3.229  0.00  0.00     0.076 C 
ATOM      6  C7  UNL d   1       0.901  -3.483  -1.273  0.00  0.00     0.002 A 
ATOM      7  C8  UNL d   1       1.300  -2.360  -0.544  0.00  0.00     0.006 A 
ENDROOT
BRANCH   1   8
ATOM      8  C1  UNL d   1       1.377   0.135  -0.183  0.00  0.00     0.054 C 
ATOM      9  C   UNL d   1       1.178   1.422  -0.970  0.00  0.00     0.018 C 
ENDBRANCH   1   8
TORSDOF 1
ENDMDL
