MODEL 1
REMARK minimizedAffinity -4.88715839
REMARK minimizedRMSD -1
REMARK  1 active torsions:
REMARK  status: ('A' for Active; 'I' for Inactive)
REMARK    1  A    between atoms: C1_2  and  C2_3 
ROOT
ATOM      1  C2  UNL d   1      -0.677   0.680   1.523  0.00  0.00    -0.081 A 
ATOM      2  C3  UNL d   1      -0.080  -0.539   1.867  0.00  0.00     0.006 A 
ATOM      3  C4  UNL d   1       0.422  -1.386   0.876  0.00  0.00     0.002 A 
ATOM      4  C5  UNL d   1       0.343  -1.025  -0.474  0.00  0.00    -0.080 A 
ATOM      5  C6  UNL d   1       0.905  -1.911  -1.545  0.00  0.00     0.076 C 
ATOM      6  C7  UNL d   1      -0.270   0.185  -0.818  0.00  0.00     0.002 A 
ATOM      7  C8  UNL d   1      -0.772   1.032   0.172  0.00  0.00     0.006 A 
ENDROOT
BRANCH   1   8
ATOM      8  C1  UNL d   1      -1.162   1.625   2.593  0.00  0.00     0.054 C 
ATOM      9  C   UNL d   1      -0.024   2.053   3.509  0.00  0.00     0.018 C 
ENDBRANCH   1   8
TORSDOF 1
ENDMDL
