MODEL 1
REMARK minimizedAffinity -3.83206844
REMARK minimizedRMSD -1
REMARK  1 active torsions:
REMARK  status: ('A' for Active; 'I' for Inactive)
REMARK    1  A    between atoms: C1_2  and  C2_3 
ROOT
ATOM      1  C2  UNL d   1       0.023  -0.667  -0.740  0.00  0.00    -0.081 A 
ATOM      2  C3  UNL d   1       0.643  -0.874   0.499  0.00  0.00     0.006 A 
ATOM      3  C4  UNL d   1       0.276  -0.113   1.611  0.00  0.00     0.002 A 
ATOM      4  C5  UNL d   1      -0.722   0.862   1.506  0.00  0.00    -0.080 A 
ATOM      5  C6  UNL d   1      -1.147   1.664   2.699  0.00  0.00     0.076 C 
ATOM      6  C7  UNL d   1      -1.329   1.081   0.264  0.00  0.00     0.002 A 
ATOM      7  C8  UNL d   1      -0.962   0.321  -0.848  0.00  0.00     0.006 A 
ENDROOT
BRANCH   1   8
ATOM      8  C1  UNL d   1       0.372  -1.530  -1.925  0.00  0.00     0.054 C 
ATOM      9  C   UNL d   1       1.509  -2.487  -1.598  0.00  0.00     0.018 C 
ENDBRANCH   1   8
TORSDOF 1
ENDMDL
