MODEL 1
REMARK minimizedAffinity -5.11680841
REMARK minimizedRMSD -1
REMARK  1 active torsions:
REMARK  status: ('A' for Active; 'I' for Inactive)
REMARK    1  A    between atoms: C1_2  and  C2_3 
ROOT
ATOM      1  C2  UNL d   1       0.581  -2.068  -1.217  0.00  0.00    -0.081 A 
ATOM      2  C3  UNL d   1       1.476  -1.058  -0.845  0.00  0.00     0.006 A 
ATOM      3  C4  UNL d   1       1.117  -0.115   0.122  0.00  0.00     0.002 A 
ATOM      4  C5  UNL d   1      -0.138  -0.172   0.736  0.00  0.00    -0.080 A 
ATOM      5  C6  UNL d   1      -0.525   0.816   1.797  0.00  0.00     0.076 C 
ATOM      6  C7  UNL d   1      -1.039  -1.171   0.351  0.00  0.00     0.002 A 
ATOM      7  C8  UNL d   1      -0.681  -2.113  -0.615  0.00  0.00     0.006 A 
ENDROOT
BRANCH   1   8
ATOM      8  C1  UNL d   1       0.989  -3.125  -2.212  0.00  0.00     0.054 C 
ATOM      9  C   UNL d   1      -0.125  -3.405  -3.211  0.00  0.00     0.018 C 
ENDBRANCH   1   8
TORSDOF 1
ENDMDL
