MODEL 1
REMARK minimizedAffinity -4.86804247
REMARK minimizedRMSD -1
REMARK  1 active torsions:
REMARK  status: ('A' for Active; 'I' for Inactive)
REMARK    1  A    between atoms: C1_2  and  C2_3 
ROOT
ATOM      1  C2  UNL d   1       0.312  -0.603  -0.350  0.00  0.00    -0.081 A 
ATOM      2  C3  UNL d   1      -0.323   0.619  -0.607  0.00  0.00     0.006 A 
ATOM      3  C4  UNL d   1      -0.841   1.382   0.442  0.00  0.00     0.002 A 
ATOM      4  C5  UNL d   1      -0.726   0.941   1.765  0.00  0.00    -0.080 A 
ATOM      5  C6  UNL d   1      -1.251   1.765   2.903  0.00  0.00     0.076 C 
ATOM      6  C7  UNL d   1      -0.107  -0.288   2.020  0.00  0.00     0.002 A 
ATOM      7  C8  UNL d   1       0.411  -1.051   0.971  0.00  0.00     0.006 A 
ENDROOT
BRANCH   1   8
ATOM      8  C1  UNL d   1       0.929  -1.397  -1.473  0.00  0.00     0.054 C 
ATOM      9  C   UNL d   1      -0.099  -2.296  -2.144  0.00  0.00     0.018 C 
ENDBRANCH   1   8
TORSDOF 1
ENDMDL
