MODEL 1
REMARK minimizedAffinity -3.36622763
REMARK minimizedRMSD -1
REMARK  0 active torsions:
REMARK  status: ('A' for Active; 'I' for Inactive)
ROOT
ATOM      1  C   UNL d   1      -0.990   0.425  -0.145  0.00  0.00     0.078 C 
ATOM      2  C1  UNL d   1       0.401  -0.134  -0.117  0.00  0.00    -0.077 A 
ATOM      3  C2  UNL d   1       1.506   0.694   0.115  0.00  0.00    -0.001 A 
ATOM      4  C3  UNL d   1       2.797   0.162   0.129  0.00  0.00     0.003 A 
ATOM      5  C4  UNL d   1       2.994  -1.200  -0.090  0.00  0.00    -0.005 A 
ATOM      6  C5  UNL d   1       1.901  -2.032  -0.324  0.00  0.00     0.003 A 
ATOM      7  C6  UNL d   1       0.610  -1.501  -0.338  0.00  0.00    -0.001 A 
ENDROOT
TORSDOF 0
ENDMDL
