MODEL 1
REMARK minimizedAffinity -3.50099111
REMARK minimizedRMSD -1
REMARK  0 active torsions:
REMARK  status: ('A' for Active; 'I' for Inactive)
ROOT
ATOM      1  C   UNL d   1       2.520  -1.805   0.955  0.00  0.00     0.078 C 
ATOM      2  C1  UNL d   1       1.316  -1.097   0.408  0.00  0.00    -0.077 A 
ATOM      3  C2  UNL d   1       1.147   0.281   0.586  0.00  0.00    -0.001 A 
ATOM      4  C3  UNL d   1       0.017   0.925   0.079  0.00  0.00     0.003 A 
ATOM      5  C4  UNL d   1      -0.953   0.199  -0.607  0.00  0.00    -0.005 A 
ATOM      6  C5  UNL d   1      -0.795  -1.174  -0.787  0.00  0.00     0.003 A 
ATOM      7  C6  UNL d   1       0.334  -1.820  -0.282  0.00  0.00    -0.001 A 
ENDROOT
TORSDOF 0
ENDMDL
