MODEL 1
REMARK minimizedAffinity -4.41252089
REMARK minimizedRMSD -1
REMARK  0 active torsions:
REMARK  status: ('A' for Active; 'I' for Inactive)
ROOT
ATOM      1  C   UNL d   1       3.201  -1.078   0.679  0.00  0.00     0.078 C 
ATOM      2  C1  UNL d   1       1.829  -0.666   0.235  0.00  0.00    -0.077 A 
ATOM      3  C2  UNL d   1       0.894  -1.617  -0.192  0.00  0.00    -0.001 A 
ATOM      4  C3  UNL d   1      -0.376  -1.219  -0.612  0.00  0.00     0.003 A 
ATOM      5  C4  UNL d   1      -0.723   0.131  -0.609  0.00  0.00    -0.005 A 
ATOM      6  C5  UNL d   1       0.202   1.084  -0.188  0.00  0.00     0.003 A 
ATOM      7  C6  UNL d   1       1.473   0.688   0.232  0.00  0.00    -0.001 A 
ENDROOT
TORSDOF 0
ENDMDL
