MODEL 1
REMARK minimizedAffinity -4.07788658
REMARK minimizedRMSD -1
REMARK  0 active torsions:
REMARK  status: ('A' for Active; 'I' for Inactive)
ROOT
ATOM      1  C   UNL d   1       2.978  -1.361   1.543  0.00  0.00     0.078 C 
ATOM      2  C1  UNL d   1       1.841  -0.898   0.681  0.00  0.00    -0.077 A 
ATOM      3  C2  UNL d   1       1.293   0.381   0.836  0.00  0.00    -0.001 A 
ATOM      4  C3  UNL d   1       0.229   0.796   0.034  0.00  0.00     0.003 A 
ATOM      5  C4  UNL d   1      -0.297  -0.063  -0.928  0.00  0.00    -0.005 A 
ATOM      6  C5  UNL d   1       0.240  -1.339  -1.089  0.00  0.00     0.003 A 
ATOM      7  C6  UNL d   1       1.304  -1.755  -0.287  0.00  0.00    -0.001 A 
ENDROOT
TORSDOF 0
ENDMDL
