MODEL 1
REMARK minimizedAffinity -3.49439526
REMARK minimizedRMSD -1
REMARK  0 active torsions:
REMARK  status: ('A' for Active; 'I' for Inactive)
ROOT
ATOM      1  C   UNL d   1      -1.419   1.081   0.124  0.00  0.00     0.078 C 
ATOM      2  C1  UNL d   1      -0.267   0.126   0.026  0.00  0.00    -0.077 A 
ATOM      3  C2  UNL d   1       1.045   0.551   0.270  0.00  0.00    -0.001 A 
ATOM      4  C3  UNL d   1       2.109  -0.346   0.166  0.00  0.00     0.003 A 
ATOM      5  C4  UNL d   1       1.872  -1.674  -0.183  0.00  0.00    -0.005 A 
ATOM      6  C5  UNL d   1       0.571  -2.106  -0.430  0.00  0.00     0.003 A 
ATOM      7  C6  UNL d   1      -0.495  -1.210  -0.326  0.00  0.00    -0.001 A 
ENDROOT
TORSDOF 0
ENDMDL
