MODEL 1
REMARK minimizedAffinity -4.48302841
REMARK minimizedRMSD -1
REMARK  1 active torsions:
REMARK  status: ('A' for Active; 'I' for Inactive)
REMARK    1  A    between atoms: C1_2  and  C2_3 
ROOT
ATOM      1  C2  UNL d   1       1.682   2.987  -1.258  0.00  0.00    -0.073 A 
ATOM      2  C3  UNL d   1       1.494   1.916  -2.139  0.00  0.00    -0.002 A 
ATOM      3  C4  UNL d   1       1.110   0.664  -1.657  0.00  0.00     0.004 A 
ATOM      4  C5  UNL d   1       0.902   0.472  -0.291  0.00  0.00    -0.004 A 
ATOM      5  C6  UNL d   1       1.073   1.533   0.605  0.00  0.00    -0.075 A 
ATOM      6  C7  UNL d   1       0.855   1.342   2.077  0.00  0.00     0.076 C 
ATOM      7  C8  UNL d   1       1.462   2.786   0.113  0.00  0.00     0.001 A 
ENDROOT
BRANCH   1   8
ATOM      8  C1  UNL d   1       2.091   4.341  -1.775  0.00  0.00     0.053 C 
ATOM      9  C   UNL d   1       2.073   5.398  -0.682  0.00  0.00     0.018 C 
ENDBRANCH   1   8
TORSDOF 1
ENDMDL
