MODEL 1
REMARK minimizedAffinity -2.52287221
REMARK minimizedRMSD -1
REMARK  1 active torsions:
REMARK  status: ('A' for Active; 'I' for Inactive)
REMARK    1  A    between atoms: C1_2  and  C2_3 
ROOT
ATOM      1  C2  UNL d   1       1.417   2.573  -1.633  0.00  0.00    -0.073 A 
ATOM      2  C3  UNL d   1       1.143   1.389  -2.327  0.00  0.00    -0.002 A 
ATOM      3  C4  UNL d   1       0.961   0.192  -1.634  0.00  0.00     0.004 A 
ATOM      4  C5  UNL d   1       1.043   0.167  -0.241  0.00  0.00    -0.004 A 
ATOM      5  C6  UNL d   1       1.304   1.342   0.471  0.00  0.00    -0.075 A 
ATOM      6  C7  UNL d   1       1.398   1.332   1.968  0.00  0.00     0.076 C 
ATOM      7  C8  UNL d   1       1.488   2.540  -0.233  0.00  0.00     0.001 A 
ENDROOT
BRANCH   1   8
ATOM      8  C1  UNL d   1       1.608   3.869  -2.377  0.00  0.00     0.053 C 
ATOM      9  C   UNL d   1       2.019   5.003  -1.450  0.00  0.00     0.018 C 
ENDBRANCH   1   8
TORSDOF 1
ENDMDL
