MODEL 1
REMARK minimizedAffinity 3.98658395
REMARK minimizedRMSD -1
REMARK  1 active torsions:
REMARK  status: ('A' for Active; 'I' for Inactive)
REMARK    1  A    between atoms: C1_2  and  C2_3 
ROOT
ATOM      1  C2  UNL d   1       1.734   3.660   0.705  0.00  0.00    -0.073 A 
ATOM      2  C3  UNL d   1       1.862   5.009   0.358  0.00  0.00    -0.002 A 
ATOM      3  C4  UNL d   1       1.726   5.411  -0.972  0.00  0.00     0.004 A 
ATOM      4  C5  UNL d   1       1.454   4.470  -1.965  0.00  0.00    -0.004 A 
ATOM      5  C6  UNL d   1       1.311   3.118  -1.636  0.00  0.00    -0.075 A 
ATOM      6  C7  UNL d   1       1.021   2.093  -2.693  0.00  0.00     0.076 C 
ATOM      7  C8  UNL d   1       1.452   2.722  -0.299  0.00  0.00     0.001 A 
ENDROOT
BRANCH   1   8
ATOM      8  C1  UNL d   1       1.874   3.222   2.140  0.00  0.00     0.053 C 
ATOM      9  C   UNL d   1       2.011   4.405   3.086  0.00  0.00     0.018 C 
ENDBRANCH   1   8
TORSDOF 1
ENDMDL
