MODEL 1
REMARK minimizedAffinity -1.77476847
REMARK minimizedRMSD -1
REMARK  1 active torsions:
REMARK  status: ('A' for Active; 'I' for Inactive)
REMARK    1  A    between atoms: C1_2  and  C2_3 
ROOT
ATOM      1  C2  UNL d   1       1.168   3.118  -0.799  0.00  0.00    -0.073 A 
ATOM      2  C3  UNL d   1       0.842   2.971   0.553  0.00  0.00    -0.002 A 
ATOM      3  C4  UNL d   1       0.605   1.703   1.088  0.00  0.00     0.004 A 
ATOM      4  C5  UNL d   1       0.699   0.571   0.278  0.00  0.00    -0.004 A 
ATOM      5  C6  UNL d   1       1.035   0.697  -1.073  0.00  0.00    -0.075 A 
ATOM      6  C7  UNL d   1       1.138  -0.511  -1.958  0.00  0.00     0.076 C 
ATOM      7  C8  UNL d   1       1.269   1.973  -1.603  0.00  0.00     0.001 A 
ENDROOT
BRANCH   1   8
ATOM      8  C1  UNL d   1       1.431   4.483  -1.380  0.00  0.00     0.053 C 
ATOM      9  C   UNL d   1       1.362   5.574  -0.323  0.00  0.00     0.018 C 
ENDBRANCH   1   8
TORSDOF 1
ENDMDL
