MODEL 1
REMARK minimizedAffinity -3.02651191
REMARK minimizedRMSD -1
REMARK  1 active torsions:
REMARK  status: ('A' for Active; 'I' for Inactive)
REMARK    1  A    between atoms: C1_2  and  C2_3 
ROOT
ATOM      1  C2  UNL d   1       1.213  -0.200  -0.919  0.00  0.00    -0.073 A 
ATOM      2  C3  UNL d   1       1.312  -0.091   0.473  0.00  0.00    -0.002 A 
ATOM      3  C4  UNL d   1       1.466   1.160   1.072  0.00  0.00     0.004 A 
ATOM      4  C5  UNL d   1       1.515   2.313   0.289  0.00  0.00    -0.004 A 
ATOM      5  C6  UNL d   1       1.406   2.225  -1.103  0.00  0.00    -0.075 A 
ATOM      6  C7  UNL d   1       1.459   3.456  -1.960  0.00  0.00     0.076 C 
ATOM      7  C8  UNL d   1       1.255   0.965  -1.698  0.00  0.00     0.001 A 
ENDROOT
BRANCH   1   8
ATOM      8  C1  UNL d   1       1.041  -1.548  -1.570  0.00  0.00     0.053 C 
ATOM      9  C   UNL d   1       1.492  -2.681  -0.663  0.00  0.00     0.018 C 
ENDBRANCH   1   8
TORSDOF 1
ENDMDL
