MODEL 1
REMARK minimizedAffinity 3.41666198
REMARK minimizedRMSD -1
REMARK  1 active torsions:
REMARK  status: ('A' for Active; 'I' for Inactive)
REMARK    1  A    between atoms: C1_2  and  C2_3 
ROOT
ATOM      1  C2  UNL d   1       1.456   2.169  -1.466  0.00  0.00    -0.073 A 
ATOM      2  C3  UNL d   1       1.615   3.211  -2.387  0.00  0.00    -0.002 A 
ATOM      3  C4  UNL d   1       1.553   4.540  -1.966  0.00  0.00     0.004 A 
ATOM      4  C5  UNL d   1       1.340   4.841  -0.621  0.00  0.00    -0.004 A 
ATOM      5  C6  UNL d   1       1.191   3.814   0.317  0.00  0.00    -0.075 A 
ATOM      6  C7  UNL d   1       0.959   4.121   1.767  0.00  0.00     0.076 C 
ATOM      7  C8  UNL d   1       1.252   2.482  -0.114  0.00  0.00     0.001 A 
ENDROOT
BRANCH   1   8
ATOM      8  C1  UNL d   1       1.529   0.733  -1.915  0.00  0.00     0.053 C 
ATOM      9  C   UNL d   1       1.869  -0.206  -0.769  0.00  0.00     0.018 C 
ENDBRANCH   1   8
TORSDOF 1
ENDMDL
