MODEL 1
REMARK minimizedAffinity 0.183092654
REMARK minimizedRMSD -1
REMARK  1 active torsions:
REMARK  status: ('A' for Active; 'I' for Inactive)
REMARK    1  A    between atoms: C1_2  and  C2_3 
ROOT
ATOM      1  C2  UNL d   1       0.775  -1.796  -1.468  0.00  0.00    -0.073 A 
ATOM      2  C3  UNL d   1       1.247  -1.815  -0.151  0.00  0.00    -0.002 A 
ATOM      3  C4  UNL d   1       1.724  -0.646   0.444  0.00  0.00     0.004 A 
ATOM      4  C5  UNL d   1       1.728   0.553  -0.269  0.00  0.00    -0.004 A 
ATOM      5  C6  UNL d   1       1.250   0.595  -1.582  0.00  0.00    -0.075 A 
ATOM      6  C7  UNL d   1       1.249   1.876  -2.363  0.00  0.00     0.076 C 
ATOM      7  C8  UNL d   1       0.774  -0.584  -2.173  0.00  0.00     0.001 A 
ENDROOT
BRANCH   1   8
ATOM      8  C1  UNL d   1       0.252  -3.054  -2.112  0.00  0.00     0.053 C 
ATOM      9  C   UNL d   1      -0.536  -3.910  -1.134  0.00  0.00     0.018 C 
ENDBRANCH   1   8
TORSDOF 1
ENDMDL
