MODEL 1
REMARK minimizedAffinity -4.91185284
REMARK minimizedRMSD -1
REMARK  1 active torsions:
REMARK  status: ('A' for Active; 'I' for Inactive)
REMARK    1  A    between atoms: C1_2  and  C2_3 
ROOT
ATOM      1  C2  UNL d   1       1.311   3.173  -0.856  0.00  0.00    -0.073 A 
ATOM      2  C3  UNL d   1       1.320   3.336   0.534  0.00  0.00    -0.002 A 
ATOM      3  C4  UNL d   1       1.129   2.237   1.373  0.00  0.00     0.004 A 
ATOM      4  C5  UNL d   1       0.933   0.967   0.833  0.00  0.00    -0.004 A 
ATOM      5  C6  UNL d   1       0.932   0.782  -0.554  0.00  0.00    -0.075 A 
ATOM      6  C7  UNL d   1       0.721  -0.578  -1.151  0.00  0.00     0.076 C 
ATOM      7  C8  UNL d   1       1.122   1.890  -1.390  0.00  0.00     0.001 A 
ENDROOT
BRANCH   1   8
ATOM      8  C1  UNL d   1       1.523   4.355  -1.767  0.00  0.00     0.053 C 
ATOM      9  C   UNL d   1       1.953   5.596  -0.999  0.00  0.00     0.018 C 
ENDBRANCH   1   8
TORSDOF 1
ENDMDL
