MODEL 1
REMARK minimizedAffinity -1.27288485
REMARK minimizedRMSD -1
REMARK  1 active torsions:
REMARK  status: ('A' for Active; 'I' for Inactive)
REMARK    1  A    between atoms: C1_2  and  C2_3 
ROOT
ATOM      1  C2  UNL d   1       0.629  -0.552  -1.546  0.00  0.00    -0.073 A 
ATOM      2  C3  UNL d   1       1.881  -0.795  -0.970  0.00  0.00    -0.002 A 
ATOM      3  C4  UNL d   1       2.075  -0.610   0.399  0.00  0.00     0.004 A 
ATOM      4  C5  UNL d   1       1.020  -0.187   1.207  0.00  0.00    -0.004 A 
ATOM      5  C6  UNL d   1      -0.242   0.050   0.652  0.00  0.00    -0.075 A 
ATOM      6  C7  UNL d   1      -1.387   0.507   1.506  0.00  0.00     0.076 C 
ATOM      7  C8  UNL d   1      -0.428  -0.136  -0.725  0.00  0.00     0.001 A 
ENDROOT
BRANCH   1   8
ATOM      8  C1  UNL d   1       0.413  -0.757  -3.023  0.00  0.00     0.053 C 
ATOM      9  C   UNL d   1       1.065   0.338  -3.852  0.00  0.00     0.018 C 
ENDBRANCH   1   8
TORSDOF 1
ENDMDL
