MODEL 1
REMARK minimizedAffinity -3.85379505
REMARK minimizedRMSD -1
REMARK  1 active torsions:
REMARK  status: ('A' for Active; 'I' for Inactive)
REMARK    1  A    between atoms: C1_2  and  C2_3 
ROOT
ATOM      1  C2  UNL d   1       0.262   0.712  -1.282  0.00  0.00    -0.073 A 
ATOM      2  C3  UNL d   1       1.145  -0.320  -0.946  0.00  0.00    -0.002 A 
ATOM      3  C4  UNL d   1       1.335  -0.679   0.389  0.00  0.00     0.004 A 
ATOM      4  C5  UNL d   1       0.640  -0.015   1.400  0.00  0.00    -0.004 A 
ATOM      5  C6  UNL d   1      -0.256   1.011   1.083  0.00  0.00    -0.075 A 
ATOM      6  C7  UNL d   1      -1.010   1.737   2.159  0.00  0.00     0.076 C 
ATOM      7  C8  UNL d   1      -0.439   1.367  -0.260  0.00  0.00     0.001 A 
ENDROOT
BRANCH   1   8
ATOM      8  C1  UNL d   1       0.048   1.098  -2.723  0.00  0.00     0.053 C 
ATOM      9  C   UNL d   1       1.360   1.384  -3.437  0.00  0.00     0.018 C 
ENDBRANCH   1   8
TORSDOF 1
ENDMDL
