MODEL 1
REMARK minimizedAffinity -3.2163589
REMARK minimizedRMSD -1
REMARK  1 active torsions:
REMARK  status: ('A' for Active; 'I' for Inactive)
REMARK    1  A    between atoms: C1_2  and  C2_3 
ROOT
ATOM      1  C2  UNL d   1       0.136   0.228   1.221  0.00  0.00    -0.073 A 
ATOM      2  C3  UNL d   1       1.204  -0.633   1.498  0.00  0.00    -0.002 A 
ATOM      3  C4  UNL d   1       1.834  -1.329   0.465  0.00  0.00     0.004 A 
ATOM      4  C5  UNL d   1       1.408  -1.166  -0.853  0.00  0.00    -0.004 A 
ATOM      5  C6  UNL d   1       0.350  -0.302  -1.151  0.00  0.00    -0.075 A 
ATOM      6  C7  UNL d   1      -0.123  -0.118  -2.563  0.00  0.00     0.076 C 
ATOM      7  C8  UNL d   1      -0.280   0.391  -0.108  0.00  0.00     0.001 A 
ENDROOT
BRANCH   1   8
ATOM      8  C1  UNL d   1      -0.544   0.986   2.332  0.00  0.00     0.053 C 
ATOM      9  C   UNL d   1      -1.616   0.154   3.017  0.00  0.00     0.018 C 
ENDBRANCH   1   8
TORSDOF 1
ENDMDL
