MODEL 1
REMARK minimizedAffinity -2.57804585
REMARK minimizedRMSD -1
REMARK  0 active torsions:
REMARK  status: ('A' for Active; 'I' for Inactive)
ROOT
ATOM      1  C4' PXY d   1      -3.305   5.988  -5.976  0.00  0.00     0.077 C 
ATOM      2  C1' PXY d   1       1.230   2.403  -5.996  0.00  0.00     0.077 C 
ATOM      3  C1  PXY d   1       0.048   3.353  -5.985  0.00  0.00    -0.082 A 
ATOM      4  C2  PXY d   1      -1.182   2.866  -5.973  0.00  0.00     0.003 A 
ATOM      5  C3  PXY d   1      -2.262   3.710  -5.996  0.00  0.00     0.003 A 
ATOM      6  C4  PXY d   1      -2.082   5.067  -5.978  0.00  0.00    -0.082 A 
ATOM      7  C5  PXY d   1      -0.830   5.571  -5.980  0.00  0.00     0.003 A 
ATOM      8  C6  PXY d   1       0.254   4.698  -5.998  0.00  0.00     0.003 A 
ENDROOT
TORSDOF 0
ENDMDL
