MODEL 1
REMARK minimizedAffinity -2.3120544
REMARK minimizedRMSD -1
REMARK  0 active torsions:
REMARK  status: ('A' for Active; 'I' for Inactive)
ROOT
ATOM      1  C4' PXY d   1      -2.338   3.757  -5.977  0.00  0.00     0.077 C 
ATOM      2  C1' PXY d   1       3.132   5.625  -5.998  0.00  0.00     0.077 C 
ATOM      3  C1  PXY d   1       1.701   5.124  -5.998  0.00  0.00    -0.082 A 
ATOM      4  C2  PXY d   1       0.704   5.993  -5.998  0.00  0.00     0.003 A 
ATOM      5  C3  PXY d   1      -0.596   5.557  -5.965  0.00  0.00     0.003 A 
ATOM      6  C4  PXY d   1      -0.878   4.217  -5.987  0.00  0.00    -0.082 A 
ATOM      7  C5  PXY d   1       0.134   3.325  -5.998  0.00  0.00     0.003 A 
ATOM      8  C6  PXY d   1       1.447   3.787  -5.989  0.00  0.00     0.003 A 
ENDROOT
TORSDOF 0
ENDMDL
