MODEL 1
REMARK minimizedAffinity -3.09908509
REMARK minimizedRMSD -1
REMARK  0 active torsions:
REMARK  status: ('A' for Active; 'I' for Inactive)
ROOT
ATOM      1  C4' PXY d   1      -3.876   3.771  -5.985  0.00  0.00     0.077 C 
ATOM      2  C1' PXY d   1       1.715   5.241  -5.988  0.00  0.00     0.077 C 
ATOM      3  C1  PXY d   1       0.246   4.867  -5.982  0.00  0.00    -0.082 A 
ATOM      4  C2  PXY d   1      -0.105   3.591  -5.968  0.00  0.00     0.003 A 
ATOM      5  C3  PXY d   1      -1.428   3.235  -5.995  0.00  0.00     0.003 A 
ATOM      6  C4  PXY d   1      -2.404   4.195  -5.982  0.00  0.00    -0.082 A 
ATOM      7  C5  PXY d   1      -2.055   5.499  -5.986  0.00  0.00     0.003 A 
ATOM      8  C6  PXY d   1      -0.706   5.839  -6.000  0.00  0.00     0.003 A 
ENDROOT
TORSDOF 0
ENDMDL
