MODEL 1
REMARK minimizedAffinity 1.19062495
REMARK minimizedRMSD -1
REMARK  0 active torsions:
REMARK  status: ('A' for Active; 'I' for Inactive)
ROOT
ATOM      1  C4' PXY d   1      -3.145   5.930  -6.000  0.00  0.00     0.077 C 
ATOM      2  C1' PXY d   1       1.771   2.888  -5.980  0.00  0.00     0.077 C 
ATOM      3  C1  PXY d   1       0.476   3.676  -5.990  0.00  0.00    -0.082 A 
ATOM      4  C2  PXY d   1       0.514   4.998  -6.000  0.00  0.00     0.003 A 
ATOM      5  C3  PXY d   1      -0.647   5.726  -5.977  0.00  0.00     0.003 A 
ATOM      6  C4  PXY d   1      -1.862   5.094  -5.998  0.00  0.00    -0.082 A 
ATOM      7  C5  PXY d   1      -1.909   3.745  -6.000  0.00  0.00     0.003 A 
ATOM      8  C6  PXY d   1      -0.719   3.024  -5.981  0.00  0.00     0.003 A 
ENDROOT
TORSDOF 0
ENDMDL
