MODEL 1
REMARK minimizedAffinity -3.28333521
REMARK minimizedRMSD -1
REMARK  0 active torsions:
REMARK  status: ('A' for Active; 'I' for Inactive)
ROOT
ATOM      1  C4' PXY d   1      -2.782   3.358  -5.971  0.00  0.00     0.077 C 
ATOM      2  C1' PXY d   1       2.838   4.712  -6.000  0.00  0.00     0.077 C 
ATOM      3  C1  PXY d   1       1.367   4.345  -5.998  0.00  0.00    -0.082 A 
ATOM      4  C2  PXY d   1       0.454   5.303  -5.996  0.00  0.00     0.003 A 
ATOM      5  C3  PXY d   1      -0.880   4.989  -5.961  0.00  0.00     0.003 A 
ATOM      6  C4  PXY d   1      -1.285   3.682  -5.983  0.00  0.00    -0.082 A 
ATOM      7  C5  PXY d   1      -0.360   2.699  -5.995  0.00  0.00     0.003 A 
ATOM      8  C6  PXY d   1       0.990   3.038  -5.989  0.00  0.00     0.003 A 
ENDROOT
TORSDOF 0
ENDMDL
