MODEL 1
REMARK minimizedAffinity -2.2513032
REMARK minimizedRMSD -1
REMARK  0 active torsions:
REMARK  status: ('A' for Active; 'I' for Inactive)
ROOT
ATOM      1  C4' PXY d   1       2.561   4.800  -5.999  0.00  0.00     0.077 C 
ATOM      2  C1' PXY d   1      -2.956   3.077  -5.933  0.00  0.00     0.077 C 
ATOM      3  C1  PXY d   1      -1.513   3.540  -5.955  0.00  0.00    -0.082 A 
ATOM      4  C2  PXY d   1      -0.538   2.645  -5.953  0.00  0.00     0.003 A 
ATOM      5  C3  PXY d   1       0.773   3.047  -5.941  0.00  0.00     0.003 A 
ATOM      6  C4  PXY d   1       1.090   4.378  -5.986  0.00  0.00    -0.082 A 
ATOM      7  C5  PXY d   1       0.101   5.297  -5.999  0.00  0.00     0.003 A 
ATOM      8  C6  PXY d   1      -1.223   4.870  -5.969  0.00  0.00     0.003 A 
ENDROOT
TORSDOF 0
ENDMDL
