MODEL 1
REMARK minimizedAffinity -2.24881291
REMARK minimizedRMSD -1
REMARK  0 active torsions:
REMARK  status: ('A' for Active; 'I' for Inactive)
ROOT
ATOM      1  C4' PXY d   1      -2.738   6.000  -6.000  0.00  0.00     0.077 C 
ATOM      2  C1' PXY d   1       1.421   1.986  -5.965  0.00  0.00     0.077 C 
ATOM      3  C1  PXY d   1       0.322   3.030  -5.979  0.00  0.00    -0.082 A 
ATOM      4  C2  PXY d   1       0.640   4.314  -5.999  0.00  0.00     0.003 A 
ATOM      5  C3  PXY d   1      -0.341   5.272  -5.980  0.00  0.00     0.003 A 
ATOM      6  C4  PXY d   1      -1.662   4.911  -5.994  0.00  0.00    -0.082 A 
ATOM      7  C5  PXY d   1      -1.994   3.603  -5.985  0.00  0.00     0.003 A 
ATOM      8  C6  PXY d   1      -0.984   2.646  -5.963  0.00  0.00     0.003 A 
ENDROOT
TORSDOF 0
ENDMDL
