MODEL 1
REMARK minimizedAffinity -0.991392553
REMARK minimizedRMSD -1
REMARK  0 active torsions:
REMARK  status: ('A' for Active; 'I' for Inactive)
ROOT
ATOM      1  C4' PXY d   1       5.826   4.885  -5.933  0.00  0.00     0.077 C 
ATOM      2  C1' PXY d   1       0.047   4.797  -6.000  0.00  0.00     0.077 C 
ATOM      3  C1  PXY d   1       1.562   4.809  -5.977  0.00  0.00    -0.082 A 
ATOM      4  C2  PXY d   1       2.208   5.963  -5.986  0.00  0.00     0.003 A 
ATOM      5  C3  PXY d   1       3.579   5.991  -5.998  0.00  0.00     0.003 A 
ATOM      6  C4  PXY d   1       4.296   4.826  -5.946  0.00  0.00    -0.082 A 
ATOM      7  C5  PXY d   1       3.644   3.644  -5.925  0.00  0.00     0.003 A 
ATOM      8  C6  PXY d   1       2.253   3.636  -5.955  0.00  0.00     0.003 A 
ENDROOT
TORSDOF 0
ENDMDL
