MODEL 1
REMARK minimizedAffinity -3.16846251
REMARK minimizedRMSD -1
REMARK  0 active torsions:
REMARK  status: ('A' for Active; 'I' for Inactive)
ROOT
ATOM      1  C4' PXY d   1      -3.750   3.412  -5.982  0.00  0.00     0.077 C 
ATOM      2  C1' PXY d   1       1.885   4.702  -5.997  0.00  0.00     0.077 C 
ATOM      3  C1  PXY d   1       0.410   4.352  -5.999  0.00  0.00    -0.082 A 
ATOM      4  C2  PXY d   1      -0.492   5.320  -6.000  0.00  0.00     0.003 A 
ATOM      5  C3  PXY d   1      -1.830   5.022  -5.968  0.00  0.00     0.003 A 
ATOM      6  C4  PXY d   1      -2.250   3.719  -5.990  0.00  0.00    -0.082 A 
ATOM      7  C5  PXY d   1      -1.336   2.725  -6.000  0.00  0.00     0.003 A 
ATOM      8  C6  PXY d   1       0.018   3.049  -5.990  0.00  0.00     0.003 A 
ENDROOT
TORSDOF 0
ENDMDL
