MODEL 1
REMARK minimizedAffinity -2.00957847
REMARK minimizedRMSD -1
REMARK  0 active torsions:
REMARK  status: ('A' for Active; 'I' for Inactive)
ROOT
ATOM      1  C4' PXY d   1       2.471   5.607  -5.999  0.00  0.00     0.077 C 
ATOM      2  C1' PXY d   1      -2.458   2.586  -5.979  0.00  0.00     0.077 C 
ATOM      3  C1  PXY d   1      -1.171   3.388  -5.989  0.00  0.00    -0.082 A 
ATOM      4  C2  PXY d   1      -0.008   2.759  -5.998  0.00  0.00     0.003 A 
ATOM      5  C3  PXY d   1       1.165   3.468  -5.976  0.00  0.00     0.003 A 
ATOM      6  C4  PXY d   1       1.147   4.837  -5.998  0.00  0.00    -0.082 A 
ATOM      7  C5  PXY d   1      -0.036   5.487  -5.999  0.00  0.00     0.003 A 
ATOM      8  C6  PXY d   1      -1.216   4.748  -5.981  0.00  0.00     0.003 A 
ENDROOT
TORSDOF 0
ENDMDL
