MODEL 1
REMARK minimizedAffinity -1.06170332
REMARK minimizedRMSD -1
REMARK  0 active torsions:
REMARK  status: ('A' for Active; 'I' for Inactive)
ROOT
ATOM      1  C4' PXY d   1      -2.830   3.135  -5.972  0.00  0.00     0.077 C 
ATOM      2  C1' PXY d   1       2.555   5.238  -6.000  0.00  0.00     0.077 C 
ATOM      3  C1  PXY d   1       1.138   4.697  -5.987  0.00  0.00    -0.082 A 
ATOM      4  C2  PXY d   1       0.937   3.390  -5.975  0.00  0.00     0.003 A 
ATOM      5  C3  PXY d   1      -0.337   2.884  -5.996  0.00  0.00     0.003 A 
ATOM      6  C4  PXY d   1      -1.417   3.725  -5.975  0.00  0.00    -0.082 A 
ATOM      7  C5  PXY d   1      -1.220   5.061  -5.977  0.00  0.00     0.003 A 
ATOM      8  C6  PXY d   1       0.081   5.554  -5.997  0.00  0.00     0.003 A 
ENDROOT
TORSDOF 0
ENDMDL
