MODEL 1
REMARK minimizedAffinity -1.16483283
REMARK minimizedRMSD -1
REMARK  0 active torsions:
REMARK  status: ('A' for Active; 'I' for Inactive)
ROOT
ATOM      1  C4' PXY d   1      -4.081   3.727  -5.978  0.00  0.00     0.077 C 
ATOM      2  C1' PXY d   1       1.598   4.808  -6.000  0.00  0.00     0.077 C 
ATOM      3  C1  PXY d   1       0.106   4.536  -5.989  0.00  0.00    -0.082 A 
ATOM      4  C2  PXY d   1      -0.331   3.287  -5.978  0.00  0.00     0.003 A 
ATOM      5  C3  PXY d   1      -1.676   3.023  -6.000  0.00  0.00     0.003 A 
ATOM      6  C4  PXY d   1      -2.584   4.048  -5.980  0.00  0.00    -0.082 A 
ATOM      7  C5  PXY d   1      -2.146   5.325  -5.981  0.00  0.00     0.003 A 
ATOM      8  C6  PXY d   1      -0.776   5.572  -6.000  0.00  0.00     0.003 A 
ENDROOT
TORSDOF 0
ENDMDL
