MODEL 1
REMARK minimizedAffinity -4.12629938
REMARK minimizedRMSD -1
REMARK  0 active torsions:
REMARK  status: ('A' for Active; 'I' for Inactive)
ROOT
ATOM      1  C4' PXY d   1      -1.211   3.385  -5.963  0.00  0.00     0.077 C 
ATOM      2  C1' PXY d   1       4.434   4.632  -5.981  0.00  0.00     0.077 C 
ATOM      3  C1  PXY d   1       2.951   4.316  -5.971  0.00  0.00    -0.082 A 
ATOM      4  C2  PXY d   1       2.550   3.055  -5.959  0.00  0.00     0.003 A 
ATOM      5  C3  PXY d   1       1.213   2.752  -5.983  0.00  0.00     0.003 A 
ATOM      6  C4  PXY d   1       0.276   3.750  -5.964  0.00  0.00    -0.082 A 
ATOM      7  C5  PXY d   1       0.677   5.039  -5.965  0.00  0.00     0.003 A 
ATOM      8  C6  PXY d   1       2.039   5.326  -5.983  0.00  0.00     0.003 A 
ENDROOT
TORSDOF 0
ENDMDL
