MODEL 1
REMARK minimizedAffinity -2.08000255
REMARK minimizedRMSD -1
REMARK  0 active torsions:
REMARK  status: ('A' for Active; 'I' for Inactive)
ROOT
ATOM      1  C4' PXY d   1      -2.837   3.405  -5.974  0.00  0.00     0.077 C 
ATOM      2  C1' PXY d   1       2.856   4.409  -5.994  0.00  0.00     0.077 C 
ATOM      3  C1  PXY d   1       1.365   4.134  -5.994  0.00  0.00    -0.082 A 
ATOM      4  C2  PXY d   1       0.513   5.146  -5.997  0.00  0.00     0.003 A 
ATOM      5  C3  PXY d   1      -0.838   4.916  -5.965  0.00  0.00     0.003 A 
ATOM      6  C4  PXY d   1      -1.323   3.635  -5.983  0.00  0.00    -0.082 A 
ATOM      7  C5  PXY d   1      -0.460   2.597  -5.991  0.00  0.00     0.003 A 
ATOM      8  C6  PXY d   1       0.908   2.853  -5.982  0.00  0.00     0.003 A 
ENDROOT
TORSDOF 0
ENDMDL
