MODEL 1
REMARK minimizedAffinity -2.88349414
REMARK minimizedRMSD -1
REMARK  0 active torsions:
REMARK  status: ('A' for Active; 'I' for Inactive)
ROOT
ATOM      1  C4' PXY d   1      -2.991   6.000  -5.996  0.00  0.00     0.077 C 
ATOM      2  C1' PXY d   1       1.190   2.009  -5.960  0.00  0.00     0.077 C 
ATOM      3  C1  PXY d   1       0.085   3.047  -5.975  0.00  0.00    -0.082 A 
ATOM      4  C2  PXY d   1       0.396   4.333  -6.000  0.00  0.00     0.003 A 
ATOM      5  C3  PXY d   1      -0.590   5.285  -5.981  0.00  0.00     0.003 A 
ATOM      6  C4  PXY d   1      -1.909   4.917  -5.990  0.00  0.00    -0.082 A 
ATOM      7  C5  PXY d   1      -2.234   3.607  -5.975  0.00  0.00     0.003 A 
ATOM      8  C6  PXY d   1      -1.218   2.656  -5.953  0.00  0.00     0.003 A 
ENDROOT
TORSDOF 0
ENDMDL
