MODEL 1
REMARK minimizedAffinity -3.49005628
REMARK minimizedRMSD -1
REMARK  0 active torsions:
REMARK  status: ('A' for Active; 'I' for Inactive)
ROOT
ATOM      1  C4' PXY d   1      -2.738   3.385  -5.977  0.00  0.00     0.077 C 
ATOM      2  C1' PXY d   1       2.712   5.312  -5.999  0.00  0.00     0.077 C 
ATOM      3  C1  PXY d   1       1.287   4.795  -5.998  0.00  0.00    -0.082 A 
ATOM      4  C2  PXY d   1       0.280   5.654  -5.999  0.00  0.00     0.003 A 
ATOM      5  C3  PXY d   1      -1.015   5.204  -5.966  0.00  0.00     0.003 A 
ATOM      6  C4  PXY d   1      -1.283   3.861  -5.987  0.00  0.00    -0.082 A 
ATOM      7  C5  PXY d   1      -0.261   2.979  -5.997  0.00  0.00     0.003 A 
ATOM      8  C6  PXY d   1       1.047   3.456  -5.989  0.00  0.00     0.003 A 
ENDROOT
TORSDOF 0
ENDMDL
