MODEL 1
REMARK minimizedAffinity 2.49313641
REMARK minimizedRMSD -1
REMARK  0 active torsions:
REMARK  status: ('A' for Active; 'I' for Inactive)
ROOT
ATOM      1  C4' PXY d   1       3.730   4.905  -5.995  0.00  0.00     0.077 C 
ATOM      2  C1' PXY d   1      -1.372   2.188  -5.984  0.00  0.00     0.077 C 
ATOM      3  C1  PXY d   1      -0.039   2.911  -5.992  0.00  0.00    -0.082 A 
ATOM      4  C2  PXY d   1       1.084   2.212  -5.999  0.00  0.00     0.003 A 
ATOM      5  C3  PXY d   1       2.298   2.850  -5.974  0.00  0.00     0.003 A 
ATOM      6  C4  PXY d   1       2.362   4.217  -5.996  0.00  0.00    -0.082 A 
ATOM      7  C5  PXY d   1       1.221   4.937  -6.000  0.00  0.00     0.003 A 
ATOM      8  C6  PXY d   1      -0.001   4.271  -5.984  0.00  0.00     0.003 A 
ENDROOT
TORSDOF 0
ENDMDL
