MODEL 1
REMARK minimizedAffinity 1.56620884
REMARK minimizedRMSD -1
REMARK  0 active torsions:
REMARK  status: ('A' for Active; 'I' for Inactive)
ROOT
ATOM      1  C4' PXY d   1      -1.053   4.441  -5.919  0.00  0.00     0.077 C 
ATOM      2  C1' PXY d   1       4.697   5.042  -5.918  0.00  0.00     0.077 C 
ATOM      3  C1  PXY d   1       3.188   4.897  -5.914  0.00  0.00    -0.082 A 
ATOM      4  C2  PXY d   1       2.647   3.692  -5.835  0.00  0.00     0.003 A 
ATOM      5  C3  PXY d   1       1.285   3.540  -5.862  0.00  0.00     0.003 A 
ATOM      6  C4  PXY d   1       0.466   4.636  -5.917  0.00  0.00    -0.082 A 
ATOM      7  C5  PXY d   1       1.010   5.869  -5.987  0.00  0.00     0.003 A 
ATOM      8  C6  PXY d   1       2.396   6.000  -6.000  0.00  0.00     0.003 A 
ENDROOT
TORSDOF 0
ENDMDL
