MODEL 1
REMARK minimizedAffinity -2.11789012
REMARK minimizedRMSD -1
REMARK  0 active torsions:
REMARK  status: ('A' for Active; 'I' for Inactive)
ROOT
ATOM      1  O1  BZF d   1       2.378  -1.935   1.528  0.00  0.00    -0.204 OA
ATOM      2  C2  BZF d   1       1.330  -2.835   1.505  0.00  0.00     0.174 A 
ATOM      3  C3  BZF d   1       1.789  -4.101   1.432  0.00  0.00    -0.012 A 
ATOM      4  C3A BZF d   1       3.214  -3.990   1.500  0.00  0.00    -0.107 A 
ATOM      5  C4  BZF d   1       4.228  -4.904   1.491  0.00  0.00     0.055 A 
ATOM      6  C5  BZF d   1       5.514  -4.464   1.498  0.00  0.00    -0.016 A 
ATOM      7  C6  BZF d   1       5.821  -3.119   1.509  0.00  0.00     0.022 A 
ATOM      8  C7  BZF d   1       4.848  -2.175   1.524  0.00  0.00     0.029 A 
ATOM      9  C7A BZF d   1       3.548  -2.617   1.550  0.00  0.00     0.058 A 
ENDROOT
TORSDOF 0
ENDMDL
