MODEL 1
REMARK minimizedAffinity -2.15850163
REMARK minimizedRMSD -1
REMARK  0 active torsions:
REMARK  status: ('A' for Active; 'I' for Inactive)
ROOT
ATOM      1  O1  BZF d   1       0.501   5.233   3.889  0.00  0.00    -0.204 OA
ATOM      2  C2  BZF d   1       1.177   5.672   5.011  0.00  0.00     0.174 A 
ATOM      3  C3  BZF d   1       0.313   6.000   5.993  0.00  0.00    -0.012 A 
ATOM      4  C3A BZF d   1      -0.981   5.662   5.484  0.00  0.00    -0.107 A 
ATOM      5  C4  BZF d   1      -2.243   5.741   6.000  0.00  0.00     0.055 A 
ATOM      6  C5  BZF d   1      -3.299   5.398   5.217  0.00  0.00    -0.016 A 
ATOM      7  C6  BZF d   1      -3.131   4.979   3.914  0.00  0.00     0.022 A 
ATOM      8  C7  BZF d   1      -1.898   4.880   3.359  0.00  0.00     0.029 A 
ATOM      9  C7A BZF d   1      -0.826   5.194   4.159  0.00  0.00     0.058 A 
ENDROOT
TORSDOF 0
ENDMDL
