MODEL 1
REMARK minimizedAffinity 4.91999674
REMARK minimizedRMSD -1
REMARK  0 active torsions:
REMARK  status: ('A' for Active; 'I' for Inactive)
ROOT
ATOM      1  O1  BZF d   1       0.615  -4.235   1.495  0.00  0.00    -0.204 OA
ATOM      2  C2  BZF d   1      -0.578  -3.700   1.942  0.00  0.00     0.174 A 
ATOM      3  C3  BZF d   1      -0.511  -2.354   1.988  0.00  0.00    -0.012 A 
ATOM      4  C3A BZF d   1       0.774  -2.022   1.455  0.00  0.00    -0.107 A 
ATOM      5  C4  BZF d   1       1.420  -0.840   1.228  0.00  0.00     0.055 A 
ATOM      6  C5  BZF d   1       2.697  -0.864   0.765  0.00  0.00    -0.016 A 
ATOM      7  C6  BZF d   1       3.360  -2.050   0.524  0.00  0.00     0.022 A 
ATOM      8  C7  BZF d   1       2.759  -3.247   0.729  0.00  0.00     0.029 A 
ATOM      9  C7A BZF d   1       1.457  -3.226   1.166  0.00  0.00     0.058 A 
ENDROOT
TORSDOF 0
ENDMDL
