MODEL 1
REMARK minimizedAffinity -0.739368796
REMARK minimizedRMSD -1
REMARK  0 active torsions:
REMARK  status: ('A' for Active; 'I' for Inactive)
ROOT
ATOM      1  O1  BZF d   1      -2.165   5.395   3.780  0.00  0.00    -0.204 OA
ATOM      2  C2  BZF d   1      -2.899   5.637   4.924  0.00  0.00     0.174 A 
ATOM      3  C3  BZF d   1      -2.085   5.843   5.980  0.00  0.00    -0.012 A 
ATOM      4  C3A BZF d   1      -0.759   5.813   5.444  0.00  0.00    -0.107 A 
ATOM      5  C4  BZF d   1       0.480   5.971   5.996  0.00  0.00     0.055 A 
ATOM      6  C5  BZF d   1       1.578   5.811   5.211  0.00  0.00    -0.016 A 
ATOM      7  C6  BZF d   1       1.474   5.488   3.874  0.00  0.00     0.022 A 
ATOM      8  C7  BZF d   1       0.266   5.326   3.281  0.00  0.00     0.029 A 
ATOM      9  C7A BZF d   1      -0.846   5.520   4.064  0.00  0.00     0.058 A 
ENDROOT
TORSDOF 0
ENDMDL
