MODEL 1
REMARK minimizedAffinity 0.874565303
REMARK minimizedRMSD -1
REMARK  0 active torsions:
REMARK  status: ('A' for Active; 'I' for Inactive)
ROOT
ATOM      1  O1  BZF d   1      -2.834   5.389   3.823  0.00  0.00    -0.204 OA
ATOM      2  C2  BZF d   1      -3.556   5.709   4.957  0.00  0.00     0.174 A 
ATOM      3  C3  BZF d   1      -2.732   5.944   5.998  0.00  0.00    -0.012 A 
ATOM      4  C3A BZF d   1      -1.409   5.850   5.460  0.00  0.00    -0.107 A 
ATOM      5  C4  BZF d   1      -0.164   6.000   5.999  0.00  0.00     0.055 A 
ATOM      6  C5  BZF d   1       0.925   5.769   5.220  0.00  0.00    -0.016 A 
ATOM      7  C6  BZF d   1       0.806   5.383   3.901  0.00  0.00     0.022 A 
ATOM      8  C7  BZF d   1      -0.409   5.227   3.320  0.00  0.00     0.029 A 
ATOM      9  C7A BZF d   1      -1.511   5.491   4.096  0.00  0.00     0.058 A 
ENDROOT
TORSDOF 0
ENDMDL
