MODEL 1
REMARK minimizedAffinity 4.18430185
REMARK minimizedRMSD -1
REMARK  0 active torsions:
REMARK  status: ('A' for Active; 'I' for Inactive)
ROOT
ATOM      1  O1  BZF d   1      -2.330   3.632   3.762  0.00  0.00    -0.204 OA
ATOM      2  C2  BZF d   1      -2.808   3.090   4.939  0.00  0.00     0.174 A 
ATOM      3  C3  BZF d   1      -2.086   3.525   5.993  0.00  0.00    -0.012 A 
ATOM      4  C3A BZF d   1      -1.155   4.465   5.449  0.00  0.00    -0.107 A 
ATOM      5  C4  BZF d   1      -0.180   5.246   6.000  0.00  0.00     0.055 A 
ATOM      6  C5  BZF d   1       0.603   5.999   5.183  0.00  0.00    -0.016 A 
ATOM      7  C6  BZF d   1       0.442   5.991   3.813  0.00  0.00     0.022 A 
ATOM      8  C7  BZF d   1      -0.515   5.236   3.221  0.00  0.00     0.029 A 
ATOM      9  C7A BZF d   1      -1.329   4.499   4.046  0.00  0.00     0.058 A 
ENDROOT
TORSDOF 0
ENDMDL
