MODEL 1
REMARK minimizedAffinity 4.59316301
REMARK minimizedRMSD -1
REMARK  0 active torsions:
REMARK  status: ('A' for Active; 'I' for Inactive)
ROOT
ATOM      1  O1  BZF d   1      -2.101   5.374   3.945  0.00  0.00    -0.204 OA
ATOM      2  C2  BZF d   1      -2.763   4.799   5.013  0.00  0.00     0.174 A 
ATOM      3  C3  BZF d   1      -1.888   4.398   5.957  0.00  0.00    -0.012 A 
ATOM      4  C3A BZF d   1      -0.605   4.827   5.490  0.00  0.00    -0.107 A 
ATOM      5  C4  BZF d   1       0.659   4.735   5.998  0.00  0.00     0.055 A 
ATOM      6  C5  BZF d   1       1.703   5.191   5.257  0.00  0.00    -0.016 A 
ATOM      7  C6  BZF d   1       1.521   5.739   4.005  0.00  0.00     0.022 A 
ATOM      8  C7  BZF d   1       0.285   5.856   3.461  0.00  0.00     0.029 A 
ATOM      9  C7A BZF d   1      -0.776   5.427   4.220  0.00  0.00     0.058 A 
ENDROOT
TORSDOF 0
ENDMDL
