MODEL 1
REMARK minimizedAffinity -3.71116638
REMARK minimizedRMSD -1
REMARK  0 active torsions:
REMARK  status: ('A' for Active; 'I' for Inactive)
ROOT
ATOM      1  C1  BNZ d   1       0.439  -0.370   0.621  0.00  0.00     0.000 A 
ATOM      2  C2  BNZ d   1       0.216  -0.193   1.961  0.00  0.00     0.000 A 
ATOM      3  C3  BNZ d   1      -0.973   0.307   2.413  0.00  0.00     0.000 A 
ATOM      4  C4  BNZ d   1      -1.921   0.667   1.525  0.00  0.00     0.000 A 
ATOM      5  C5  BNZ d   1      -1.708   0.504   0.170  0.00  0.00     0.000 A 
ATOM      6  C6  BNZ d   1      -0.525  -0.037  -0.279  0.00  0.00     0.000 A 
ENDROOT
TORSDOF 0
ENDMDL
