MODEL 1
REMARK minimizedAffinity -3.53476238
REMARK minimizedRMSD -1
REMARK  0 active torsions:
REMARK  status: ('A' for Active; 'I' for Inactive)
ROOT
ATOM      1  C1  BNZ d   1      -2.042   0.300   2.537  0.00  0.00     0.000 A 
ATOM      2  C2  BNZ d   1      -2.112  -0.113   1.234  0.00  0.00     0.000 A 
ATOM      3  C3  BNZ d   1      -1.314   0.450   0.277  0.00  0.00     0.000 A 
ATOM      4  C4  BNZ d   1      -0.478   1.452   0.617  0.00  0.00     0.000 A 
ATOM      5  C5  BNZ d   1      -0.403   1.887   1.926  0.00  0.00     0.000 A 
ATOM      6  C6  BNZ d   1      -1.179   1.290   2.893  0.00  0.00     0.000 A 
ENDROOT
TORSDOF 0
ENDMDL
