MODEL 1
REMARK minimizedAffinity -4.20168638
REMARK minimizedRMSD -1
REMARK  0 active torsions:
REMARK  status: ('A' for Active; 'I' for Inactive)
ROOT
ATOM      1  C1  BNZ d   1      -0.397   1.189  -1.464  0.00  0.00     0.000 A 
ATOM      2  C2  BNZ d   1      -0.237   1.429  -2.803  0.00  0.00     0.000 A 
ATOM      3  C3  BNZ d   1       0.419   0.533  -3.601  0.00  0.00     0.000 A 
ATOM      4  C4  BNZ d   1       0.947  -0.580  -3.053  0.00  0.00     0.000 A 
ATOM      5  C5  BNZ d   1       0.802  -0.832  -1.703  0.00  0.00     0.000 A 
ATOM      6  C6  BNZ d   1       0.108   0.053  -0.910  0.00  0.00     0.000 A 
ENDROOT
TORSDOF 0
ENDMDL
