MODEL 1
REMARK minimizedAffinity -3.81288266
REMARK minimizedRMSD -1
REMARK  0 active torsions:
REMARK  status: ('A' for Active; 'I' for Inactive)
ROOT
ATOM      1  C1  BNZ d   1      -0.291   0.099   1.873  0.00  0.00     0.000 A 
ATOM      2  C2  BNZ d   1       0.819  -0.582   1.452  0.00  0.00     0.000 A 
ATOM      3  C3  BNZ d   1       0.785  -1.344   0.317  0.00  0.00     0.000 A 
ATOM      4  C4  BNZ d   1      -0.369  -1.456  -0.371  0.00  0.00     0.000 A 
ATOM      5  C5  BNZ d   1      -1.500  -0.783   0.046  0.00  0.00     0.000 A 
ATOM      6  C6  BNZ d   1      -1.451   0.014   1.167  0.00  0.00     0.000 A 
ENDROOT
TORSDOF 0
ENDMDL
