MODEL 1
REMARK minimizedAffinity -1.9650023
REMARK minimizedRMSD -1
REMARK  0 active torsions:
REMARK  status: ('A' for Active; 'I' for Inactive)
ROOT
ATOM      1  C1  BNZ d   1      -0.846   1.161  -0.665  0.00  0.00     0.000 A 
ATOM      2  C2  BNZ d   1      -0.355   0.639  -1.831  0.00  0.00     0.000 A 
ATOM      3  C3  BNZ d   1       0.619  -0.321  -1.813  0.00  0.00     0.000 A 
ATOM      4  C4  BNZ d   1       1.127  -0.727  -0.632  0.00  0.00     0.000 A 
ATOM      5  C5  BNZ d   1       0.649  -0.202   0.553  0.00  0.00     0.000 A 
ATOM      6  C6  BNZ d   1      -0.359   0.735   0.532  0.00  0.00     0.000 A 
ENDROOT
TORSDOF 0
ENDMDL
