MODEL 1
REMARK minimizedAffinity -3.06681967
REMARK minimizedRMSD -1
REMARK  0 active torsions:
REMARK  status: ('A' for Active; 'I' for Inactive)
ROOT
ATOM      1  C   UNL d   1       0.457  -0.655  -0.614  0.00  0.00     0.172 C 
ATOM      2  N   UNL d   1       0.059   0.292   0.401  0.00  0.00    -0.070 N 
ATOM      3  C1  UNL d   1       0.709   0.514   1.585  0.00  0.00    -0.004 A 
ATOM      4  C2  UNL d   1       0.017   1.489   2.270  0.00  0.00    -0.047 A 
ATOM      5  C3  UNL d   1      -1.088   1.865   1.470  0.00  0.00    -0.047 A 
ATOM      6  C4  UNL d   1      -1.038   1.108   0.319  0.00  0.00    -0.004 A 
ENDROOT
TORSDOF 0
ENDMDL
