MODEL 1
REMARK minimizedAffinity -3.12249732
REMARK minimizedRMSD -1
REMARK  0 active torsions:
REMARK  status: ('A' for Active; 'I' for Inactive)
ROOT
ATOM      1  C   UNL d   1       0.042  -0.429  -0.205  0.00  0.00     0.172 C 
ATOM      2  N   UNL d   1      -0.008   0.463   0.929  0.00  0.00    -0.070 N 
ATOM      3  C1  UNL d   1       0.840   0.435   2.005  0.00  0.00    -0.004 A 
ATOM      4  C2  UNL d   1       0.462   1.443   2.866  0.00  0.00    -0.047 A 
ATOM      5  C3  UNL d   1      -0.651   2.098   2.288  0.00  0.00    -0.047 A 
ATOM      6  C4  UNL d   1      -0.921   1.471   1.090  0.00  0.00    -0.004 A 
ENDROOT
TORSDOF 0
ENDMDL
