MODEL 1
REMARK minimizedAffinity -3.88129044
REMARK minimizedRMSD -1
REMARK  0 active torsions:
REMARK  status: ('A' for Active; 'I' for Inactive)
ROOT
ATOM      1  C   UNL d   1      -0.021  -0.847  -0.786  0.00  0.00     0.172 C 
ATOM      2  N   UNL d   1      -0.364   0.223   0.120  0.00  0.00    -0.070 N 
ATOM      3  C1  UNL d   1      -1.073   1.349  -0.205  0.00  0.00    -0.004 A 
ATOM      4  C2  UNL d   1      -1.188   2.118   0.932  0.00  0.00    -0.047 A 
ATOM      5  C3  UNL d   1      -0.525   1.432   1.977  0.00  0.00    -0.047 A 
ATOM      6  C4  UNL d   1      -0.025   0.262   1.447  0.00  0.00    -0.004 A 
ENDROOT
TORSDOF 0
ENDMDL
