MODEL 1
REMARK minimizedAffinity -4.18309593
REMARK minimizedRMSD -1
REMARK  0 active torsions:
REMARK  status: ('A' for Active; 'I' for Inactive)
ROOT
ATOM      1  C   UNL d   1       0.292  -0.836  -0.394  0.00  0.00     0.172 C 
ATOM      2  N   UNL d   1      -0.109   0.229   0.495  0.00  0.00    -0.070 N 
ATOM      3  C1  UNL d   1      -0.818   1.344   0.136  0.00  0.00    -0.004 A 
ATOM      4  C2  UNL d   1      -0.998   2.111   1.267  0.00  0.00    -0.047 A 
ATOM      5  C3  UNL d   1      -0.374   1.435   2.342  0.00  0.00    -0.047 A 
ATOM      6  C4  UNL d   1       0.168   0.272   1.836  0.00  0.00    -0.004 A 
ENDROOT
TORSDOF 0
ENDMDL
