MODEL 1
REMARK minimizedAffinity 2.60443497
REMARK minimizedRMSD -1
REMARK  0 active torsions:
REMARK  status: ('A' for Active; 'I' for Inactive)
ROOT
ATOM      1  C   UNL d   1       5.972  -1.330  -1.972  0.00  0.00     0.172 C 
ATOM      2  N   UNL d   1       4.771  -1.527  -1.196  0.00  0.00    -0.070 N 
ATOM      3  C1  UNL d   1       4.383  -2.702  -0.608  0.00  0.00    -0.004 A 
ATOM      4  C2  UNL d   1       3.187  -2.476   0.038  0.00  0.00    -0.047 A 
ATOM      5  C3  UNL d   1       2.843  -1.119  -0.169  0.00  0.00    -0.047 A 
ATOM      6  C4  UNL d   1       3.841  -0.555  -0.936  0.00  0.00    -0.004 A 
ENDROOT
TORSDOF 0
ENDMDL
