MODEL 1
REMARK minimizedAffinity 2.08074141
REMARK minimizedRMSD -1
REMARK  0 active torsions:
REMARK  status: ('A' for Active; 'I' for Inactive)
ROOT
ATOM      1  C   UNL d   1      -3.474  -1.087   5.559  0.00  0.00     0.172 C 
ATOM      2  N   UNL d   1      -4.292  -0.896   4.384  0.00  0.00    -0.070 N 
ATOM      3  C1  UNL d   1      -3.964  -0.127   3.300  0.00  0.00    -0.004 A 
ATOM      4  C2  UNL d   1      -5.002  -0.206   2.397  0.00  0.00    -0.047 A 
ATOM      5  C3  UNL d   1      -5.989  -1.051   2.959  0.00  0.00    -0.047 A 
ATOM      6  C4  UNL d   1      -5.523  -1.464   4.189  0.00  0.00    -0.004 A 
ENDROOT
TORSDOF 0
ENDMDL
