MODEL 1
REMARK minimizedAffinity 8.99388885
REMARK minimizedRMSD -1
REMARK  0 active torsions:
REMARK  status: ('A' for Active; 'I' for Inactive)
ROOT
ATOM      1  N1  IND d   1      -5.998   4.288   5.730  0.00  0.00    -0.196 N 
ATOM      2  C2  IND d   1      -5.420   5.498   5.994  0.00  0.00     0.054 A 
ATOM      3  C3  IND d   1      -4.678   5.904   4.938  0.00  0.00    -0.031 A 
ATOM      4  C4  IND d   1      -4.356   4.791   2.640  0.00  0.00     0.051 A 
ATOM      5  C5  IND d   1      -4.656   3.654   1.942  0.00  0.00    -0.031 A 
ATOM      6  C6  IND d   1      -5.437   2.652   2.481  0.00  0.00     0.015 A 
ATOM      7  C7  IND d   1      -5.958   2.755   3.740  0.00  0.00    -0.016 A 
ATOM      8  C8  IND d   1      -5.650   3.904   4.454  0.00  0.00    -0.047 A 
ATOM      9  C9  IND d   1      -4.823   4.905   3.928  0.00  0.00    -0.096 A 
ATOM     10  HN1 IND d   1      -6.496   3.841   6.271  0.00  0.00     0.298 HD
ENDROOT
TORSDOF 0
ENDMDL
