MODEL 1
REMARK minimizedAffinity 6.70684576
REMARK minimizedRMSD -1
REMARK  0 active torsions:
REMARK  status: ('A' for Active; 'I' for Inactive)
ROOT
ATOM      1  N1  IND d   1       3.792   2.113  -2.402  0.00  0.00    -0.196 N 
ATOM      2  C2  IND d   1       4.905   2.695  -1.861  0.00  0.00     0.054 A 
ATOM      3  C3  IND d   1       5.087   2.271  -0.590  0.00  0.00    -0.031 A 
ATOM      4  C4  IND d   1       3.739   0.549   0.768  0.00  0.00     0.051 A 
ATOM      5  C5  IND d   1       2.614  -0.225   0.713  0.00  0.00    -0.031 A 
ATOM      6  C6  IND d   1       1.810  -0.262  -0.408  0.00  0.00     0.015 A 
ATOM      7  C7  IND d   1       2.108   0.468  -1.523  0.00  0.00    -0.016 A 
ATOM      8  C8  IND d   1       3.245   1.261  -1.468  0.00  0.00    -0.047 A 
ATOM      9  C9  IND d   1       4.043   1.335  -0.318  0.00  0.00    -0.096 A 
ATOM     10  HN1 IND d   1       3.485   2.256  -3.192  0.00  0.00     0.298 HD
ENDROOT
TORSDOF 0
ENDMDL
