MODEL 1
REMARK minimizedAffinity 7.11762714
REMARK minimizedRMSD -1
REMARK  0 active torsions:
REMARK  status: ('A' for Active; 'I' for Inactive)
ROOT
ATOM      1  N1  IND d   1      -5.997   0.769  -3.665  0.00  0.00    -0.196 N 
ATOM      2  C2  IND d   1      -5.582   0.461  -4.931  0.00  0.00     0.054 A 
ATOM      3  C3  IND d   1      -4.263   0.167  -4.935  0.00  0.00    -0.031 A 
ATOM      4  C4  IND d   1      -2.612   0.028  -2.965  0.00  0.00     0.051 A 
ATOM      5  C5  IND d   1      -2.516   0.259  -1.621  0.00  0.00    -0.031 A 
ATOM      6  C6  IND d   1      -3.599   0.677  -0.874  0.00  0.00     0.015 A 
ATOM      7  C7  IND d   1      -4.825   0.870  -1.444  0.00  0.00    -0.016 A 
ATOM      8  C8  IND d   1      -4.924   0.644  -2.810  0.00  0.00    -0.047 A 
ATOM      9  C9  IND d   1      -3.819   0.261  -3.581  0.00  0.00    -0.096 A 
ATOM     10  HN1 IND d   1      -6.794   1.001  -3.440  0.00  0.00     0.298 HD
ENDROOT
TORSDOF 0
ENDMDL
