MODEL 1
REMARK minimizedAffinity 19.6732273
REMARK minimizedRMSD -1
REMARK  0 active torsions:
REMARK  status: ('A' for Active; 'I' for Inactive)
ROOT
ATOM      1  N1  IND d   1       5.197  -0.752   1.766  0.00  0.00    -0.196 N 
ATOM      2  C2  IND d   1       5.996   0.337   1.553  0.00  0.00     0.054 A 
ATOM      3  C3  IND d   1       5.389   1.210   0.718  0.00  0.00    -0.031 A 
ATOM      4  C4  IND d   1       3.043   1.103  -0.335  0.00  0.00     0.051 A 
ATOM      5  C5  IND d   1       1.955   0.285  -0.462  0.00  0.00    -0.031 A 
ATOM      6  C6  IND d   1       1.890  -0.944   0.162  0.00  0.00     0.015 A 
ATOM      7  C7  IND d   1       2.910  -1.398   0.950  0.00  0.00    -0.016 A 
ATOM      8  C8  IND d   1       4.019  -0.573   1.075  0.00  0.00    -0.047 A 
ATOM      9  C9  IND d   1       4.109   0.656   0.409  0.00  0.00    -0.096 A 
ATOM     10  HN1 IND d   1       5.397  -1.433   2.251  0.00  0.00     0.298 HD
ENDROOT
TORSDOF 0
ENDMDL
