MODEL 1
REMARK minimizedAffinity 16.8878899
REMARK minimizedRMSD -1
REMARK  0 active torsions:
REMARK  status: ('A' for Active; 'I' for Inactive)
ROOT
ATOM      1  N1  IND d   1      -4.729   3.563   0.979  0.00  0.00    -0.196 N 
ATOM      2  C2  IND d   1      -4.266   4.531   0.133  0.00  0.00     0.054 A 
ATOM      3  C3  IND d   1      -4.328   4.105  -1.149  0.00  0.00    -0.031 A 
ATOM      4  C4  IND d   1      -5.249   1.895  -2.094  0.00  0.00     0.051 A 
ATOM      5  C5  IND d   1      -5.747   0.682  -1.707  0.00  0.00    -0.031 A 
ATOM      6  C6  IND d   1      -5.937   0.362  -0.378  0.00  0.00     0.015 A 
ATOM      7  C7  IND d   1      -5.646   1.251   0.617  0.00  0.00    -0.016 A 
ATOM      8  C8  IND d   1      -5.134   2.481   0.228  0.00  0.00    -0.047 A 
ATOM      9  C9  IND d   1      -4.899   2.796  -1.116  0.00  0.00    -0.096 A 
ATOM     10  HN1 IND d   1      -4.761   3.619   1.837  0.00  0.00     0.298 HD
ENDROOT
TORSDOF 0
ENDMDL
