MODEL 1
REMARK minimizedAffinity 20.0779305
REMARK minimizedRMSD -1
REMARK  0 active torsions:
REMARK  status: ('A' for Active; 'I' for Inactive)
ROOT
ATOM      1  N1  IND d   1       1.661   6.000   3.318  0.00  0.00    -0.196 N 
ATOM      2  C2  IND d   1       0.577   5.169   3.256  0.00  0.00     0.054 A 
ATOM      3  C3  IND d   1       0.975   3.877   3.238  0.00  0.00    -0.031 A 
ATOM      4  C4  IND d   1       3.348   2.894   3.406  0.00  0.00     0.051 A 
ATOM      5  C5  IND d   1       4.665   3.259   3.443  0.00  0.00    -0.031 A 
ATOM      6  C6  IND d   1       5.055   4.582   3.444  0.00  0.00     0.015 A 
ATOM      7  C7  IND d   1       4.139   5.595   3.418  0.00  0.00    -0.016 A 
ATOM      8  C8  IND d   1       2.801   5.229   3.373  0.00  0.00    -0.047 A 
ATOM      9  C9  IND d   1       2.400   3.887   3.329  0.00  0.00    -0.096 A 
ATOM     10  HN1 IND d   1       1.634   6.859   3.322  0.00  0.00     0.298 HD
ENDROOT
TORSDOF 0
ENDMDL
