MODEL 1
REMARK minimizedAffinity 28.9053879
REMARK minimizedRMSD -1
REMARK  0 active torsions:
REMARK  status: ('A' for Active; 'I' for Inactive)
ROOT
ATOM      1  N1  IND d   1       2.423   6.000   3.379  0.00  0.00    -0.196 N 
ATOM      2  C2  IND d   1       1.106   5.763   3.100  0.00  0.00     0.054 A 
ATOM      3  C3  IND d   1       0.902   4.445   2.877  0.00  0.00    -0.031 A 
ATOM      4  C4  IND d   1       2.566   2.486   3.016  0.00  0.00     0.051 A 
ATOM      5  C5  IND d   1       3.892   2.210   3.202  0.00  0.00    -0.031 A 
ATOM      6  C6  IND d   1       4.814   3.203   3.464  0.00  0.00     0.015 A 
ATOM      7  C7  IND d   1       4.441   4.513   3.562  0.00  0.00    -0.016 A 
ATOM      8  C8  IND d   1       3.097   4.798   3.367  0.00  0.00    -0.047 A 
ATOM      9  C9  IND d   1       2.164   3.800   3.059  0.00  0.00    -0.096 A 
ATOM     10  HN1 IND d   1       2.772   6.770   3.535  0.00  0.00     0.298 HD
ENDROOT
TORSDOF 0
ENDMDL
