MODEL 1
REMARK minimizedAffinity 22.0858936
REMARK minimizedRMSD -1
REMARK  0 active torsions:
REMARK  status: ('A' for Active; 'I' for Inactive)
ROOT
ATOM      1  N1  IND d   1      -4.336   4.496  -1.428  0.00  0.00    -0.196 N 
ATOM      2  C2  IND d   1      -3.783   4.945  -0.262  0.00  0.00     0.054 A 
ATOM      3  C3  IND d   1      -3.703   3.940   0.639  0.00  0.00    -0.031 A 
ATOM      4  C4  IND d   1      -4.327   1.456   0.377  0.00  0.00     0.051 A 
ATOM      5  C5  IND d   1      -4.905   0.577  -0.496  0.00  0.00    -0.031 A 
ATOM      6  C6  IND d   1      -5.328   0.966  -1.750  0.00  0.00     0.015 A 
ATOM      7  C7  IND d   1      -5.179   2.253  -2.185  0.00  0.00    -0.016 A 
ATOM      8  C8  IND d   1      -4.600   3.150  -1.299  0.00  0.00    -0.047 A 
ATOM      9  C9  IND d   1      -4.207   2.771  -0.009  0.00  0.00    -0.096 A 
ATOM     10  HN1 IND d   1      -4.493   4.974  -2.126  0.00  0.00     0.298 HD
ENDROOT
TORSDOF 0
ENDMDL
