MODEL 1
REMARK minimizedAffinity 22.8579044
REMARK minimizedRMSD -1
REMARK  0 active torsions:
REMARK  status: ('A' for Active; 'I' for Inactive)
ROOT
ATOM      1  N1  IND d   1       3.050   0.619  -1.287  0.00  0.00    -0.196 N 
ATOM      2  C2  IND d   1       3.430   1.378  -0.216  0.00  0.00     0.054 A 
ATOM      3  C3  IND d   1       3.372   0.649   0.921  0.00  0.00    -0.031 A 
ATOM      4  C4  IND d   1       2.778  -1.835   1.243  0.00  0.00     0.051 A 
ATOM      5  C5  IND d   1       2.329  -2.932   0.563  0.00  0.00    -0.031 A 
ATOM      6  C6  IND d   1       2.094  -2.901  -0.797  0.00  0.00     0.015 A 
ATOM      7  C7  IND d   1       2.313  -1.771  -1.532  0.00  0.00    -0.016 A 
ATOM      8  C8  IND d   1       2.763  -0.653  -0.844  0.00  0.00    -0.047 A 
ATOM      9  C9  IND d   1       2.962  -0.666   0.543  0.00  0.00    -0.096 A 
ATOM     10  HN1 IND d   1       2.999   0.891  -2.102  0.00  0.00     0.298 HD
ENDROOT
TORSDOF 0
ENDMDL
