MODEL 1
REMARK minimizedAffinity 1.13452959
REMARK minimizedRMSD -1
REMARK  0 active torsions:
REMARK  status: ('A' for Active; 'I' for Inactive)
ROOT
ATOM      1  C   UNL d   1      -0.955   1.189  -1.431  0.00  0.00     0.078 C 
ATOM      2  C1  UNL d   1       0.171   1.179  -0.441  0.00  0.00    -0.077 A 
ATOM      3  C2  UNL d   1      -0.027   1.595   0.881  0.00  0.00    -0.001 A 
ATOM      4  C3  UNL d   1       1.033   1.589   1.790  0.00  0.00     0.003 A 
ATOM      5  C4  UNL d   1       2.298   1.169   1.386  0.00  0.00    -0.005 A 
ATOM      6  C5  UNL d   1       2.506   0.755   0.072  0.00  0.00     0.003 A 
ATOM      7  C6  UNL d   1       1.448   0.760  -0.838  0.00  0.00    -0.001 A 
ENDROOT
TORSDOF 0
ENDMDL
