MODEL 1
REMARK minimizedAffinity 1.84341753
REMARK minimizedRMSD -1
REMARK  0 active torsions:
REMARK  status: ('A' for Active; 'I' for Inactive)
ROOT
ATOM      1  C   UNL d   1      -3.002   1.122  -5.685  0.00  0.00     0.078 C 
ATOM      2  C1  UNL d   1      -4.046   1.828  -4.872  0.00  0.00    -0.077 A 
ATOM      3  C2  UNL d   1      -4.991   1.109  -4.131  0.00  0.00    -0.001 A 
ATOM      4  C3  UNL d   1      -5.963   1.779  -3.386  0.00  0.00     0.003 A 
ATOM      5  C4  UNL d   1      -6.000   3.172  -3.377  0.00  0.00    -0.005 A 
ATOM      6  C5  UNL d   1      -5.065   3.896  -4.113  0.00  0.00     0.003 A 
ATOM      7  C6  UNL d   1      -4.092   3.228  -4.859  0.00  0.00    -0.001 A 
ENDROOT
TORSDOF 0
ENDMDL
