MODEL 1
REMARK minimizedAffinity -0.341985613
REMARK minimizedRMSD -1
REMARK  0 active torsions:
REMARK  status: ('A' for Active; 'I' for Inactive)
ROOT
ATOM      1  C   UNL d   1      -5.999  -0.799  -5.183  0.00  0.00     0.078 C 
ATOM      2  C1  UNL d   1      -4.682  -0.165  -4.849  0.00  0.00    -0.077 A 
ATOM      3  C2  UNL d   1      -4.115   0.803  -5.686  0.00  0.00    -0.001 A 
ATOM      4  C3  UNL d   1      -2.884   1.378  -5.367  0.00  0.00     0.003 A 
ATOM      5  C4  UNL d   1      -2.209   0.991  -4.211  0.00  0.00    -0.005 A 
ATOM      6  C5  UNL d   1      -2.765   0.027  -3.373  0.00  0.00     0.003 A 
ATOM      7  C6  UNL d   1      -3.996  -0.549  -3.690  0.00  0.00    -0.001 A 
ENDROOT
TORSDOF 0
ENDMDL
