MODEL 1
REMARK minimizedAffinity 1.2826395
REMARK minimizedRMSD -1
REMARK  0 active torsions:
REMARK  status: ('A' for Active; 'I' for Inactive)
ROOT
ATOM      1  C   UNL d   1       1.487  -2.691  -0.660  0.00  0.00     0.078 C 
ATOM      2  C1  UNL d   1       2.356  -1.472  -0.747  0.00  0.00    -0.077 A 
ATOM      3  C2  UNL d   1       2.077  -0.331   0.016  0.00  0.00    -0.001 A 
ATOM      4  C3  UNL d   1       2.890   0.799  -0.082  0.00  0.00     0.003 A 
ATOM      5  C4  UNL d   1       3.986   0.801  -0.943  0.00  0.00    -0.005 A 
ATOM      6  C5  UNL d   1       4.271  -0.329  -1.707  0.00  0.00     0.003 A 
ATOM      7  C6  UNL d   1       3.459  -1.461  -1.610  0.00  0.00    -0.001 A 
ENDROOT
TORSDOF 0
ENDMDL
