MODEL 1
REMARK minimizedAffinity 3.40711808
REMARK minimizedRMSD -1
REMARK  0 active torsions:
REMARK  status: ('A' for Active; 'I' for Inactive)
ROOT
ATOM      1  C   UNL d   1       3.522  -1.111  -0.486  0.00  0.00     0.078 C 
ATOM      2  C1  UNL d   1       2.347  -2.039  -0.576  0.00  0.00    -0.077 A 
ATOM      3  C2  UNL d   1       1.575  -2.112  -1.742  0.00  0.00    -0.001 A 
ATOM      4  C3  UNL d   1       0.478  -2.973  -1.808  0.00  0.00     0.003 A 
ATOM      5  C4  UNL d   1       0.143  -3.765  -0.713  0.00  0.00    -0.005 A 
ATOM      6  C5  UNL d   1       0.904  -3.697   0.452  0.00  0.00     0.003 A 
ATOM      7  C6  UNL d   1       2.002  -2.837   0.521  0.00  0.00    -0.001 A 
ENDROOT
TORSDOF 0
ENDMDL
