MODEL 1
REMARK minimizedAffinity 3.21080303
REMARK minimizedRMSD -1
REMARK  0 active torsions:
REMARK  status: ('A' for Active; 'I' for Inactive)
ROOT
ATOM      1  C   UNL d   1       3.560  -0.250  -0.641  0.00  0.00     0.078 C 
ATOM      2  C1  UNL d   1       4.395   0.969  -0.390  0.00  0.00    -0.077 A 
ATOM      3  C2  UNL d   1       4.681   1.872  -1.421  0.00  0.00    -0.001 A 
ATOM      4  C3  UNL d   1       5.468   2.999  -1.176  0.00  0.00     0.003 A 
ATOM      5  C4  UNL d   1       5.977   3.232   0.100  0.00  0.00    -0.005 A 
ATOM      6  C5  UNL d   1       5.700   2.338   1.132  0.00  0.00     0.003 A 
ATOM      7  C6  UNL d   1       4.913   1.211   0.889  0.00  0.00    -0.001 A 
ENDROOT
TORSDOF 0
ENDMDL
