MODEL 1
REMARK minimizedAffinity 7.42472267
REMARK minimizedRMSD -1
REMARK  0 active torsions:
REMARK  status: ('A' for Active; 'I' for Inactive)
ROOT
ATOM      1  C   UNL d   1      -2.229   0.739  -3.397  0.00  0.00     0.078 C 
ATOM      2  C1  UNL d   1      -3.537   0.767  -2.665  0.00  0.00    -0.077 A 
ATOM      3  C2  UNL d   1      -3.717   0.040  -1.482  0.00  0.00    -0.001 A 
ATOM      4  C3  UNL d   1      -4.944   0.068  -0.816  0.00  0.00     0.003 A 
ATOM      5  C4  UNL d   1      -6.000   0.821  -1.326  0.00  0.00    -0.005 A 
ATOM      6  C5  UNL d   1      -5.830   1.546  -2.503  0.00  0.00     0.003 A 
ATOM      7  C6  UNL d   1      -4.605   1.519  -3.171  0.00  0.00    -0.001 A 
ENDROOT
TORSDOF 0
ENDMDL
