MODEL 1
REMARK minimizedAffinity 3.46620941
REMARK minimizedRMSD -1
REMARK  0 active torsions:
REMARK  status: ('A' for Active; 'I' for Inactive)
ROOT
ATOM      1  C   UNL d   1       3.073  -0.617  -0.193  0.00  0.00     0.078 C 
ATOM      2  C1  UNL d   1       4.097   0.462  -0.388  0.00  0.00    -0.077 A 
ATOM      3  C2  UNL d   1       4.908   0.886   0.672  0.00  0.00    -0.001 A 
ATOM      4  C3  UNL d   1       5.850   1.898   0.479  0.00  0.00     0.003 A 
ATOM      5  C4  UNL d   1       5.989   2.495  -0.773  0.00  0.00    -0.005 A 
ATOM      6  C5  UNL d   1       5.185   2.081  -1.833  0.00  0.00     0.003 A 
ATOM      7  C6  UNL d   1       4.242   1.069  -1.642  0.00  0.00    -0.001 A 
ENDROOT
TORSDOF 0
ENDMDL
