MODEL 1
REMARK minimizedAffinity 6.14301872
REMARK minimizedRMSD -1
REMARK  0 active torsions:
REMARK  status: ('A' for Active; 'I' for Inactive)
ROOT
ATOM      1  C   UNL d   1      -1.042   0.866  -1.962  0.00  0.00     0.078 C 
ATOM      2  C1  UNL d   1      -0.437   1.306  -0.662  0.00  0.00    -0.077 A 
ATOM      3  C2  UNL d   1      -1.027   2.320   0.102  0.00  0.00    -0.001 A 
ATOM      4  C3  UNL d   1      -0.447   2.727   1.305  0.00  0.00     0.003 A 
ATOM      5  C4  UNL d   1       0.726   2.124   1.754  0.00  0.00    -0.005 A 
ATOM      6  C5  UNL d   1       1.322   1.115   1.000  0.00  0.00     0.003 A 
ATOM      7  C6  UNL d   1       0.744   0.708  -0.203  0.00  0.00    -0.001 A 
ENDROOT
TORSDOF 0
ENDMDL
