MODEL 1
REMARK minimizedAffinity 10.4300528
REMARK minimizedRMSD -1
REMARK  1 active torsions:
REMARK  status: ('A' for Active; 'I' for Inactive)
REMARK    1  A    between atoms: C1_2  and  C2_3 
ROOT
ATOM      1  C2  UNL d   1      -3.741   0.507   1.741  0.00  0.00    -0.076 A 
ATOM      2  C3  UNL d   1      -3.785   1.903   1.901  0.00  0.00     0.004 A 
ATOM      3  C4  UNL d   1      -4.904   2.635   1.509  0.00  0.00    -0.003 A 
ATOM      4  C5  UNL d   1      -5.998   1.983   0.951  0.00  0.00     0.000 A 
ATOM      5  C6  UNL d   1      -5.979   0.597   0.800  0.00  0.00     0.000 A 
ATOM      6  C7  UNL d   1      -4.865  -0.158   1.206  0.00  0.00    -0.073 A 
ATOM      7  C8  UNL d   1      -4.896  -1.649   1.015  0.00  0.00     0.078 C 
ENDROOT
BRANCH   1   8
ATOM      8  C1  UNL d   1      -2.489  -0.231   2.159  0.00  0.00     0.053 C 
ATOM      9  C   UNL d   1      -1.221   0.450   1.669  0.00  0.00     0.018 C 
ENDBRANCH   1   8
TORSDOF 1
ENDMDL
