MODEL 1
REMARK minimizedAffinity 12.9409189
REMARK minimizedRMSD -1
REMARK  1 active torsions:
REMARK  status: ('A' for Active; 'I' for Inactive)
REMARK    1  A    between atoms: C1_2  and  C2_3 
ROOT
ATOM      1  C2  UNL d   1      -1.562  -0.215   0.865  0.00  0.00    -0.076 A 
ATOM      2  C3  UNL d   1      -1.117   0.862   1.652  0.00  0.00     0.004 A 
ATOM      3  C4  UNL d   1      -0.496   0.644   2.880  0.00  0.00    -0.003 A 
ATOM      4  C5  UNL d   1      -0.308  -0.654   3.341  0.00  0.00     0.000 A 
ATOM      5  C6  UNL d   1      -0.727  -1.735   2.566  0.00  0.00     0.000 A 
ATOM      6  C7  UNL d   1      -1.341  -1.533   1.317  0.00  0.00    -0.073 A 
ATOM      7  C8  UNL d   1      -1.779  -2.734   0.525  0.00  0.00     0.078 C 
ENDROOT
BRANCH   1   8
ATOM      8  C1  UNL d   1      -2.254   0.084  -0.446  0.00  0.00     0.053 C 
ATOM      9  C   UNL d   1      -3.770   0.079  -0.319  0.00  0.00     0.018 C 
ENDBRANCH   1   8
TORSDOF 1
ENDMDL
