MODEL 1
REMARK minimizedAffinity 1.50708616
REMARK minimizedRMSD -1
REMARK  1 active torsions:
REMARK  status: ('A' for Active; 'I' for Inactive)
REMARK    1  A    between atoms: C1_2  and  C2_3 
ROOT
ATOM      1  C2  UNL d   1       4.451  -5.642   3.595  0.00  0.00    -0.076 A 
ATOM      2  C3  UNL d   1       3.154  -6.000   4.002  0.00  0.00     0.004 A 
ATOM      3  C4  UNL d   1       2.059  -5.806   3.162  0.00  0.00    -0.003 A 
ATOM      4  C5  UNL d   1       2.243  -5.252   1.900  0.00  0.00     0.000 A 
ATOM      5  C6  UNL d   1       3.524  -4.908   1.473  0.00  0.00     0.000 A 
ATOM      6  C7  UNL d   1       4.641  -5.111   2.301  0.00  0.00    -0.073 A 
ATOM      7  C8  UNL d   1       6.000  -4.715   1.791  0.00  0.00     0.078 C 
ENDROOT
BRANCH   1   8
ATOM      8  C1  UNL d   1       5.596  -5.850   4.559  0.00  0.00     0.053 C 
ATOM      9  C   UNL d   1       5.127  -5.996   5.998  0.00  0.00     0.018 C 
ENDBRANCH   1   8
TORSDOF 1
ENDMDL
