MODEL 1
REMARK minimizedAffinity 16.3515148
REMARK minimizedRMSD -1
REMARK  1 active torsions:
REMARK  status: ('A' for Active; 'I' for Inactive)
REMARK    1  A    between atoms: C1_2  and  C2_3 
ROOT
ATOM      1  C2  UNL d   1      -2.859  -0.061   1.169  0.00  0.00    -0.076 A 
ATOM      2  C3  UNL d   1      -3.274   1.228   1.547  0.00  0.00     0.004 A 
ATOM      3  C4  UNL d   1      -4.598   1.632   1.382  0.00  0.00    -0.003 A 
ATOM      4  C5  UNL d   1      -5.528   0.753   0.837  0.00  0.00     0.000 A 
ATOM      5  C6  UNL d   1      -5.137  -0.535   0.473  0.00  0.00     0.000 A 
ATOM      6  C7  UNL d   1      -3.810  -0.964   0.648  0.00  0.00    -0.073 A 
ATOM      7  C8  UNL d   1      -3.442  -2.362   0.233  0.00  0.00     0.078 C 
ENDROOT
BRANCH   1   8
ATOM      8  C1  UNL d   1      -1.404  -0.434   1.347  0.00  0.00     0.053 C 
ATOM      9  C   UNL d   1      -0.489   0.781   1.366  0.00  0.00     0.018 C 
ENDBRANCH   1   8
TORSDOF 1
ENDMDL
