MODEL 1
REMARK minimizedAffinity 1.73387766
REMARK minimizedRMSD -1
REMARK  1 active torsions:
REMARK  status: ('A' for Active; 'I' for Inactive)
REMARK    1  A    between atoms: C1_2  and  C2_3 
ROOT
ATOM      1  C2  UNL d   1      -3.548  -1.388  -5.993  0.00  0.00    -0.076 A 
ATOM      2  C3  UNL d   1      -2.682  -2.495  -6.000  0.00  0.00     0.004 A 
ATOM      3  C4  UNL d   1      -3.182  -3.796  -5.971  0.00  0.00    -0.003 A 
ATOM      4  C5  UNL d   1      -4.555  -4.011  -5.935  0.00  0.00     0.000 A 
ATOM      5  C6  UNL d   1      -5.429  -2.924  -5.946  0.00  0.00     0.000 A 
ATOM      6  C7  UNL d   1      -4.942  -1.606  -5.992  0.00  0.00    -0.073 A 
ATOM      7  C8  UNL d   1      -5.929  -0.472  -5.996  0.00  0.00     0.078 C 
ENDROOT
BRANCH   1   8
ATOM      8  C1  UNL d   1      -2.948   0.000  -5.998  0.00  0.00     0.053 C 
ATOM      9  C   UNL d   1      -1.428  -0.022  -5.940  0.00  0.00     0.018 C 
ENDBRANCH   1   8
TORSDOF 1
ENDMDL
