MODEL 1
REMARK minimizedAffinity 7.41469479
REMARK minimizedRMSD -1
REMARK  1 active torsions:
REMARK  status: ('A' for Active; 'I' for Inactive)
REMARK    1  A    between atoms: C1_2  and  C2_3 
ROOT
ATOM      1  C2  UNL d   1      -3.871   0.401   2.631  0.00  0.00    -0.076 A 
ATOM      2  C3  UNL d   1      -4.351   0.177   3.933  0.00  0.00     0.004 A 
ATOM      3  C4  UNL d   1      -5.283   1.036   4.513  0.00  0.00    -0.003 A 
ATOM      4  C5  UNL d   1      -5.751   2.134   3.799  0.00  0.00     0.000 A 
ATOM      5  C6  UNL d   1      -5.300   2.361   2.499  0.00  0.00     0.000 A 
ATOM      6  C7  UNL d   1      -4.373   1.495   1.894  0.00  0.00    -0.073 A 
ATOM      7  C8  UNL d   1      -3.916   1.792   0.492  0.00  0.00     0.078 C 
ENDROOT
BRANCH   1   8
ATOM      8  C1  UNL d   1      -2.841  -0.550   2.065  0.00  0.00     0.053 C 
ATOM      9  C   UNL d   1      -1.434   0.027   2.102  0.00  0.00     0.018 C 
ENDBRANCH   1   8
TORSDOF 1
ENDMDL
