MODEL 1
REMARK minimizedAffinity 8.78276539
REMARK minimizedRMSD -1
REMARK  1 active torsions:
REMARK  status: ('A' for Active; 'I' for Inactive)
REMARK    1  A    between atoms: C1_2  and  C2_3 
ROOT
ATOM      1  C2  UNL d   1      -0.176  -1.000  -4.967  0.00  0.00    -0.076 A 
ATOM      2  C3  UNL d   1      -0.231  -2.340  -5.389  0.00  0.00     0.004 A 
ATOM      3  C4  UNL d   1      -1.417  -2.894  -5.867  0.00  0.00    -0.003 A 
ATOM      4  C5  UNL d   1      -2.569  -2.117  -5.931  0.00  0.00     0.000 A 
ATOM      5  C6  UNL d   1      -2.529  -0.781  -5.532  0.00  0.00     0.000 A 
ATOM      6  C7  UNL d   1      -1.337  -0.202  -5.064  0.00  0.00    -0.073 A 
ATOM      7  C8  UNL d   1      -1.352   1.241  -4.642  0.00  0.00     0.078 C 
ENDROOT
BRANCH   1   8
ATOM      8  C1  UNL d   1       1.132  -0.461  -4.433  0.00  0.00     0.053 C 
ATOM      9  C   UNL d   1       1.216  -0.534  -2.916  0.00  0.00     0.018 C 
ENDBRANCH   1   8
TORSDOF 1
ENDMDL
