MODEL 1
REMARK minimizedAffinity 10.5827141
REMARK minimizedRMSD -1
REMARK  1 active torsions:
REMARK  status: ('A' for Active; 'I' for Inactive)
REMARK    1  A    between atoms: C1_2  and  C2_3 
ROOT
ATOM      1  C2  UNL d   1      -3.662   0.843   2.825  0.00  0.00    -0.076 A 
ATOM      2  C3  UNL d   1      -4.787   1.008   3.652  0.00  0.00     0.004 A 
ATOM      3  C4  UNL d   1      -4.884   0.342   4.873  0.00  0.00    -0.003 A 
ATOM      4  C5  UNL d   1      -3.857  -0.500   5.286  0.00  0.00     0.000 A 
ATOM      5  C6  UNL d   1      -2.726  -0.661   4.486  0.00  0.00     0.000 A 
ATOM      6  C7  UNL d   1      -2.605   0.016   3.261  0.00  0.00    -0.073 A 
ATOM      7  C8  UNL d   1      -1.367  -0.200   2.435  0.00  0.00     0.078 C 
ENDROOT
BRANCH   1   8
ATOM      8  C1  UNL d   1      -3.626   1.570   1.500  0.00  0.00     0.053 C 
ATOM      9  C   UNL d   1      -4.938   1.462   0.739  0.00  0.00     0.018 C 
ENDBRANCH   1   8
TORSDOF 1
ENDMDL
