MODEL 1
REMARK minimizedAffinity 6.91571999
REMARK minimizedRMSD -1
REMARK  1 active torsions:
REMARK  status: ('A' for Active; 'I' for Inactive)
REMARK    1  A    between atoms: C1_2  and  C2_3 
ROOT
ATOM      1  C2  UNL d   1       3.322   1.692  -4.093  0.00  0.00    -0.076 A 
ATOM      2  C3  UNL d   1       3.240   2.648  -3.066  0.00  0.00     0.004 A 
ATOM      3  C4  UNL d   1       2.691   2.324  -1.827  0.00  0.00    -0.003 A 
ATOM      4  C5  UNL d   1       2.215   1.038  -1.594  0.00  0.00     0.000 A 
ATOM      5  C6  UNL d   1       2.304   0.072  -2.595  0.00  0.00     0.000 A 
ATOM      6  C7  UNL d   1       2.870   0.378  -3.845  0.00  0.00    -0.073 A 
ATOM      7  C8  UNL d   1       2.935  -0.701  -4.891  0.00  0.00     0.078 C 
ENDROOT
BRANCH   1   8
ATOM      8  C1  UNL d   1       3.902   2.108  -5.426  0.00  0.00     0.053 C 
ATOM      9  C   UNL d   1       4.791   3.337  -5.316  0.00  0.00     0.018 C 
ENDBRANCH   1   8
TORSDOF 1
ENDMDL
