MODEL 1
REMARK minimizedAffinity 9.45351791
REMARK minimizedRMSD -1
REMARK  1 active torsions:
REMARK  status: ('A' for Active; 'I' for Inactive)
REMARK    1  A    between atoms: C1_2  and  C2_3 
ROOT
ATOM      1  C2  UNL d   1       5.743  -3.067   4.893  0.00  0.00    -0.076 A 
ATOM      2  C3  UNL d   1       5.488  -1.732   5.249  0.00  0.00     0.004 A 
ATOM      3  C4  UNL d   1       5.272  -0.758   4.276  0.00  0.00    -0.003 A 
ATOM      4  C5  UNL d   1       5.306  -1.104   2.929  0.00  0.00     0.000 A 
ATOM      5  C6  UNL d   1       5.540  -2.428   2.558  0.00  0.00     0.000 A 
ATOM      6  C7  UNL d   1       5.744  -3.425   3.527  0.00  0.00    -0.073 A 
ATOM      7  C8  UNL d   1       5.998  -4.835   3.070  0.00  0.00     0.078 C 
ENDROOT
BRANCH   1   8
ATOM      8  C1  UNL d   1       5.998  -4.074   5.991  0.00  0.00     0.053 C 
ATOM      9  C   UNL d   1       5.999  -5.507   5.480  0.00  0.00     0.018 C 
ENDBRANCH   1   8
TORSDOF 1
ENDMDL
