MODEL 1
REMARK minimizedAffinity 9.86727524
REMARK minimizedRMSD -1
REMARK  1 active torsions:
REMARK  status: ('A' for Active; 'I' for Inactive)
REMARK    1  A    between atoms: C1_2  and  C2_3 
ROOT
ATOM      1  C2  UNL d   1      -2.152  -2.258  -5.945  0.00  0.00    -0.076 A 
ATOM      2  C3  UNL d   1      -2.717  -3.545  -5.968  0.00  0.00     0.004 A 
ATOM      3  C4  UNL d   1      -4.099  -3.721  -5.993  0.00  0.00    -0.003 A 
ATOM      4  C5  UNL d   1      -4.939  -2.613  -5.996  0.00  0.00     0.000 A 
ATOM      5  C6  UNL d   1      -4.396  -1.329  -5.991  0.00  0.00     0.000 A 
ATOM      6  C7  UNL d   1      -3.004  -1.133  -5.983  0.00  0.00    -0.073 A 
ATOM      7  C8  UNL d   1      -2.473   0.274  -5.972  0.00  0.00     0.078 C 
ENDROOT
BRANCH   1   8
ATOM      8  C1  UNL d   1      -0.646  -2.128  -5.891  0.00  0.00     0.053 C 
ATOM      9  C   UNL d   1      -0.181  -1.195  -4.784  0.00  0.00     0.018 C 
ENDBRANCH   1   8
TORSDOF 1
ENDMDL
