MODEL 1
REMARK minimizedAffinity 0.562344134
REMARK minimizedRMSD -1
REMARK  1 active torsions:
REMARK  status: ('A' for Active; 'I' for Inactive)
REMARK    1  A    between atoms: C1_2  and  C2_3 
ROOT
ATOM      1  C2  UNL d   1      -5.586   2.326   3.185  0.00  0.00    -0.076 A 
ATOM      2  C3  UNL d   1      -5.999   1.688   4.367  0.00  0.00     0.004 A 
ATOM      3  C4  UNL d   1      -5.670   0.357   4.617  0.00  0.00    -0.003 A 
ATOM      4  C5  UNL d   1      -4.921  -0.358   3.689  0.00  0.00     0.000 A 
ATOM      5  C6  UNL d   1      -4.488   0.264   2.519  0.00  0.00     0.000 A 
ATOM      6  C7  UNL d   1      -4.797   1.610   2.259  0.00  0.00    -0.073 A 
ATOM      7  C8  UNL d   1      -4.309   2.229   0.978  0.00  0.00     0.078 C 
ENDROOT
BRANCH   1   8
ATOM      8  C1  UNL d   1      -5.996   3.763   2.956  0.00  0.00     0.053 C 
ATOM      9  C   UNL d   1      -5.459   4.700   4.026  0.00  0.00     0.018 C 
ENDBRANCH   1   8
TORSDOF 1
ENDMDL
