MODEL 1
REMARK minimizedAffinity 7.75401354
REMARK minimizedRMSD -1
REMARK  1 active torsions:
REMARK  status: ('A' for Active; 'I' for Inactive)
REMARK    1  A    between atoms: C1_2  and  C2_3 
ROOT
ATOM      1  C2  UNL d   1      -3.815   0.163   4.477  0.00  0.00    -0.076 A 
ATOM      2  C3  UNL d   1      -2.723  -0.449   3.838  0.00  0.00     0.004 A 
ATOM      3  C4  UNL d   1      -2.346  -0.078   2.549  0.00  0.00    -0.003 A 
ATOM      4  C5  UNL d   1      -3.055   0.913   1.877  0.00  0.00     0.000 A 
ATOM      5  C6  UNL d   1      -4.130   1.543   2.502  0.00  0.00     0.000 A 
ATOM      6  C7  UNL d   1      -4.513   1.192   3.808  0.00  0.00    -0.073 A 
ATOM      7  C8  UNL d   1      -5.684   1.900   4.432  0.00  0.00     0.078 C 
ENDROOT
BRANCH   1   8
ATOM      8  C1  UNL d   1      -4.195  -0.300   5.865  0.00  0.00     0.053 C 
ATOM      9  C   UNL d   1      -4.210  -1.815   5.990  0.00  0.00     0.018 C 
ENDBRANCH   1   8
TORSDOF 1
ENDMDL
