MODEL 1
REMARK minimizedAffinity 2.29237223
REMARK minimizedRMSD -1
REMARK  1 active torsions:
REMARK  status: ('A' for Active; 'I' for Inactive)
REMARK    1  A    between atoms: C1_2  and  C2_3 
ROOT
ATOM      1  C2  UNL d   1      -3.952  -2.612  -5.927  0.00  0.00    -0.076 A 
ATOM      2  C3  UNL d   1      -3.436  -1.305  -5.934  0.00  0.00     0.004 A 
ATOM      3  C4  UNL d   1      -2.062  -1.076  -5.962  0.00  0.00    -0.003 A 
ATOM      4  C5  UNL d   1      -1.181  -2.151  -5.985  0.00  0.00     0.000 A 
ATOM      5  C6  UNL d   1      -1.675  -3.455  -5.997  0.00  0.00     0.000 A 
ATOM      6  C7  UNL d   1      -3.058  -3.703  -5.985  0.00  0.00    -0.073 A 
ATOM      7  C8  UNL d   1      -3.536  -5.129  -5.993  0.00  0.00     0.078 C 
ENDROOT
BRANCH   1   8
ATOM      8  C1  UNL d   1      -5.452  -2.799  -5.869  0.00  0.00     0.053 C 
ATOM      9  C   UNL d   1      -5.964  -2.956  -4.445  0.00  0.00     0.018 C 
ENDBRANCH   1   8
TORSDOF 1
ENDMDL
