MODEL 1
REMARK minimizedAffinity 13.1392727
REMARK minimizedRMSD -1
REMARK  1 active torsions:
REMARK  status: ('A' for Active; 'I' for Inactive)
REMARK    1  A    between atoms: C1_2  and  C2_3 
ROOT
ATOM      1  C2  UNL d   1       3.040  -5.610   2.577  0.00  0.00    -0.076 A 
ATOM      2  C3  UNL d   1       2.803  -5.226   1.246  0.00  0.00     0.004 A 
ATOM      3  C4  UNL d   1       1.522  -4.883   0.815  0.00  0.00    -0.003 A 
ATOM      4  C5  UNL d   1       0.458  -4.917   1.710  0.00  0.00     0.000 A 
ATOM      5  C6  UNL d   1       0.678  -5.278   3.039  0.00  0.00     0.000 A 
ATOM      6  C7  UNL d   1       1.966  -5.611   3.493  0.00  0.00    -0.073 A 
ATOM      7  C8  UNL d   1       2.145  -5.999   4.935  0.00  0.00     0.078 C 
ENDROOT
BRANCH   1   8
ATOM      8  C1  UNL d   1       4.445  -5.998   2.979  0.00  0.00     0.053 C 
ATOM      9  C   UNL d   1       5.407  -4.820   2.945  0.00  0.00     0.018 C 
ENDBRANCH   1   8
TORSDOF 1
ENDMDL
