MODEL 1
REMARK minimizedAffinity 5.27459431
REMARK minimizedRMSD -1
REMARK  1 active torsions:
REMARK  status: ('A' for Active; 'I' for Inactive)
REMARK    1  A    between atoms: C1_2  and  C2_3 
ROOT
ATOM      1  C2  UNL d   1      -3.444  -1.813  -5.992  0.00  0.00    -0.076 A 
ATOM      2  C3  UNL d   1      -2.395  -2.749  -6.000  0.00  0.00     0.004 A 
ATOM      3  C4  UNL d   1      -2.656  -4.118  -5.975  0.00  0.00    -0.003 A 
ATOM      4  C5  UNL d   1      -3.970  -4.573  -5.944  0.00  0.00     0.000 A 
ATOM      5  C6  UNL d   1      -5.023  -3.658  -5.954  0.00  0.00     0.000 A 
ATOM      6  C7  UNL d   1      -4.777  -2.275  -5.995  0.00  0.00    -0.073 A 
ATOM      7  C8  UNL d   1      -5.950  -1.334  -5.997  0.00  0.00     0.078 C 
ENDROOT
BRANCH   1   8
ATOM      8  C1  UNL d   1      -3.100  -0.340  -5.992  0.00  0.00     0.053 C 
ATOM      9  C   UNL d   1      -2.119   0.029  -4.889  0.00  0.00     0.018 C 
ENDBRANCH   1   8
TORSDOF 1
ENDMDL
