MODEL 1
REMARK minimizedAffinity -4.3167901
REMARK minimizedRMSD -1
REMARK  2 active torsions:
REMARK  status: ('A' for Active; 'I' for Inactive)
REMARK    1  A    between atoms: C2'_3  and  C1'_4 
REMARK    2  A    between atoms: C1'_4  and  C1_5 
ROOT
ATOM      1  C1  I4B d   1       0.392  -0.107  -0.145  0.00  0.00    -0.075 A 
ATOM      2  C2  I4B d   1      -0.965  -0.295  -0.076  0.00  0.00     0.003 A 
ATOM      3  C3  I4B d   1      -1.698   0.194   1.033  0.00  0.00     0.002 A 
ATOM      4  C4  I4B d   1      -1.030   0.817   2.067  0.00  0.00    -0.004 A 
ATOM      5  C5  I4B d   1       0.344   1.027   1.985  0.00  0.00     0.002 A 
ATOM      6  C6  I4B d   1       1.058   0.574   0.867  0.00  0.00     0.003 A 
ENDROOT
BRANCH   1   7
ATOM      7  C1' I4B d   1       1.139  -0.665  -1.314  0.00  0.00     0.060 C 
BRANCH   7   8
ATOM      8  C2' I4B d   1       0.563  -0.049  -2.573  0.00  0.00    -0.013 C 
ATOM      9  C4' I4B d   1       1.602   0.752  -3.313  0.00  0.00     0.013 C 
ATOM     10  C3' I4B d   1       0.026  -1.159  -3.427  0.00  0.00     0.013 C 
ENDBRANCH   7   8
ENDBRANCH   1   7
TORSDOF 2
ENDMDL
