MODEL 1
REMARK minimizedAffinity -4.89213848
REMARK minimizedRMSD -1
REMARK  2 active torsions:
REMARK  status: ('A' for Active; 'I' for Inactive)
REMARK    1  A    between atoms: C2'_3  and  C1'_4 
REMARK    2  A    between atoms: C1'_4  and  C1_5 
ROOT
ATOM      1  C1  I4B d   1      -0.913   0.598   0.309  0.00  0.00    -0.075 A 
ATOM      2  C2  I4B d   1      -1.606  -0.008   1.326  0.00  0.00     0.003 A 
ATOM      3  C3  I4B d   1      -1.674   0.599   2.604  0.00  0.00     0.002 A 
ATOM      4  C4  I4B d   1      -0.995   1.778   2.832  0.00  0.00    -0.004 A 
ATOM      5  C5  I4B d   1      -0.312   2.404   1.793  0.00  0.00     0.002 A 
ATOM      6  C6  I4B d   1      -0.281   1.816   0.520  0.00  0.00     0.003 A 
ENDROOT
BRANCH   1   7
ATOM      7  C1' I4B d   1      -0.835  -0.087  -1.019  0.00  0.00     0.060 C 
BRANCH   7   8
ATOM      8  C2' I4B d   1       0.626  -0.342  -1.328  0.00  0.00    -0.013 C 
ATOM      9  C4' I4B d   1       1.220  -1.341  -0.370  0.00  0.00     0.013 C 
ATOM     10  C3' I4B d   1       0.722  -0.825  -2.744  0.00  0.00     0.013 C 
ENDBRANCH   7   8
ENDBRANCH   1   7
TORSDOF 2
ENDMDL
