MODEL 1
REMARK minimizedAffinity -4.26784039
REMARK minimizedRMSD -1
REMARK  2 active torsions:
REMARK  status: ('A' for Active; 'I' for Inactive)
REMARK    1  A    between atoms: C2'_3  and  C1'_4 
REMARK    2  A    between atoms: C1'_4  and  C1_5 
ROOT
ATOM      1  C1  I4B d   1      -0.017  -0.296  -0.751  0.00  0.00    -0.075 A 
ATOM      2  C2  I4B d   1       0.879   0.108   0.207  0.00  0.00     0.003 A 
ATOM      3  C3  I4B d   1       0.418   0.619   1.444  0.00  0.00     0.002 A 
ATOM      4  C4  I4B d   1      -0.939   0.756   1.659  0.00  0.00    -0.004 A 
ATOM      5  C5  I4B d   1      -1.846   0.325   0.696  0.00  0.00     0.002 A 
ATOM      6  C6  I4B d   1      -1.382  -0.215  -0.513  0.00  0.00     0.003 A 
ENDROOT
BRANCH   1   7
ATOM      7  C1' I4B d   1       0.506  -0.801  -2.059  0.00  0.00     0.060 C 
BRANCH   7   8
ATOM      8  C2' I4B d   1       0.477   0.347  -3.048  0.00  0.00    -0.013 C 
ATOM      9  C4' I4B d   1       1.870   0.794  -3.406  0.00  0.00     0.013 C 
ATOM     10  C3' I4B d   1      -0.276  -0.107  -4.263  0.00  0.00     0.013 C 
ENDBRANCH   7   8
ENDBRANCH   1   7
TORSDOF 2
ENDMDL
