MODEL 1
REMARK minimizedAffinity -2.63251185
REMARK minimizedRMSD -1
REMARK  2 active torsions:
REMARK  status: ('A' for Active; 'I' for Inactive)
REMARK    1  A    between atoms: C2'_3  and  C1'_4 
REMARK    2  A    between atoms: C1'_4  and  C1_5 
ROOT
ATOM      1  C1  I4B d   1       0.199  -0.148  -0.455  0.00  0.00    -0.075 A 
ATOM      2  C2  I4B d   1       1.056   0.235   0.546  0.00  0.00     0.003 A 
ATOM      3  C3  I4B d   1       0.547   0.762   1.757  0.00  0.00     0.002 A 
ATOM      4  C4  I4B d   1      -0.814   0.936   1.904  0.00  0.00    -0.004 A 
ATOM      5  C5  I4B d   1      -1.683   0.526   0.896  0.00  0.00     0.002 A 
ATOM      6  C6  I4B d   1      -1.175  -0.030  -0.286  0.00  0.00     0.003 A 
ENDROOT
BRANCH   1   7
ATOM      7  C1' I4B d   1       0.772  -0.670  -1.734  0.00  0.00     0.060 C 
BRANCH   7   8
ATOM      8  C2' I4B d   1       0.183   0.136  -2.874  0.00  0.00    -0.013 C 
ATOM      9  C4' I4B d   1       1.225   1.009  -3.521  0.00  0.00     0.013 C 
ATOM     10  C3' I4B d   1      -0.408  -0.825  -3.863  0.00  0.00     0.013 C 
ENDBRANCH   7   8
ENDBRANCH   1   7
TORSDOF 2
ENDMDL
