MODEL 1
REMARK minimizedAffinity -1.80111504
REMARK minimizedRMSD -1
REMARK  1 active torsions:
REMARK  status: ('A' for Active; 'I' for Inactive)
REMARK    1  A    between atoms: C3_4  and  O_7 
ROOT
ATOM      1  C   UNL d   1       1.060   0.896   1.107  0.00  0.00    -0.033 A 
ATOM      2  C1  UNL d   1       1.194   1.547  -0.121  0.00  0.00     0.039 A 
ATOM      3  C2  UNL d   1       0.180   1.454  -1.077  0.00  0.00    -0.080 A 
ATOM      4  C3  UNL d   1      -0.961   0.709  -0.793  0.00  0.00     0.150 A 
ATOM      5  C4  UNL d   1      -1.103   0.062   0.430  0.00  0.00    -0.007 A 
ATOM      6  C5  UNL d   1      -0.090   0.155   1.383  0.00  0.00     0.039 A 
ENDROOT
BRANCH   4   7
ATOM      7  O   UNL d   1      -1.975   0.586  -1.696  0.00  0.00    -0.526 OA
ATOM      8  H5  UNL d   1      -1.725   1.062  -2.505  0.00  0.00     0.418 HD
ENDBRANCH   4   7
TORSDOF 1
ENDMDL
