MODEL 1
REMARK minimizedAffinity -1.53771079
REMARK minimizedRMSD -1
REMARK  1 active torsions:
REMARK  status: ('A' for Active; 'I' for Inactive)
REMARK    1  A    between atoms: C3_4  and  O_7 
ROOT
ATOM      1  C   UNL d   1      -0.472  -0.391   0.721  0.00  0.00    -0.033 A 
ATOM      2  C1  UNL d   1       0.355   0.216  -0.227  0.00  0.00     0.039 A 
ATOM      3  C2  UNL d   1       0.966   1.438   0.059  0.00  0.00    -0.080 A 
ATOM      4  C3  UNL d   1       0.743   2.042   1.293  0.00  0.00     0.150 A 
ATOM      5  C4  UNL d   1      -0.076   1.441   2.243  0.00  0.00    -0.007 A 
ATOM      6  C5  UNL d   1      -0.687   0.221   1.956  0.00  0.00     0.039 A 
ENDROOT
BRANCH   4   7
ATOM      7  O   UNL d   1       1.314   3.237   1.615  0.00  0.00    -0.526 OA
ATOM      8  H5  UNL d   1       1.831   3.547   0.852  0.00  0.00     0.418 HD
ENDBRANCH   4   7
TORSDOF 1
ENDMDL
