MODEL 1
REMARK minimizedAffinity -2.67036009
REMARK minimizedRMSD -1
REMARK  1 active torsions:
REMARK  status: ('A' for Active; 'I' for Inactive)
REMARK    1  A    between atoms: C3_4  and  O_7 
ROOT
ATOM      1  C   UNL d   1       0.322  -0.527   0.904  0.00  0.00    -0.033 A 
ATOM      2  C1  UNL d   1      -0.170   0.069   2.067  0.00  0.00     0.039 A 
ATOM      3  C2  UNL d   1       0.007   1.437   2.281  0.00  0.00    -0.080 A 
ATOM      4  C3  UNL d   1       0.676   2.197   1.325  0.00  0.00     0.150 A 
ATOM      5  C4  UNL d   1       1.165   1.610   0.162  0.00  0.00    -0.007 A 
ATOM      6  C5  UNL d   1       0.988   0.244  -0.049  0.00  0.00     0.039 A 
ENDROOT
BRANCH   4   7
ATOM      7  O   UNL d   1       0.877   3.535   1.492  0.00  0.00    -0.526 OA
ATOM      8  H5  UNL d   1       0.511   3.796   2.353  0.00  0.00     0.418 HD
ENDBRANCH   4   7
TORSDOF 1
ENDMDL
