MODEL 1
REMARK minimizedAffinity -5.27404404
REMARK minimizedRMSD -1
REMARK  1 active torsions:
REMARK  status: ('A' for Active; 'I' for Inactive)
REMARK    1  A    between atoms: C3_4  and  O_7 
ROOT
ATOM      1  C   UNL d   1       0.264   2.797   1.311  0.00  0.00    -0.033 A 
ATOM      2  C1  UNL d   1      -0.268   1.630   1.863  0.00  0.00     0.039 A 
ATOM      3  C2  UNL d   1       0.178   0.382   1.424  0.00  0.00    -0.080 A 
ATOM      4  C3  UNL d   1       1.156   0.315   0.435  0.00  0.00     0.150 A 
ATOM      5  C4  UNL d   1       1.693   1.474  -0.117  0.00  0.00    -0.007 A 
ATOM      6  C5  UNL d   1       1.245   2.719   0.323  0.00  0.00     0.039 A 
ENDROOT
BRANCH   4   7
ATOM      7  O   UNL d   1       1.619  -0.880  -0.030  0.00  0.00    -0.526 OA
ATOM      8  H5  UNL d   1       1.137  -1.593   0.422  0.00  0.00     0.418 HD
ENDBRANCH   4   7
TORSDOF 1
ENDMDL
