MODEL 1
REMARK minimizedAffinity -5.33976412
REMARK minimizedRMSD -1
REMARK  1 active torsions:
REMARK  status: ('A' for Active; 'I' for Inactive)
REMARK    1  A    between atoms: C3_4  and  O_7 
ROOT
ATOM      1  C   UNL d   1       1.280  -0.611  -0.346  0.00  0.00    -0.033 A 
ATOM      2  C1  UNL d   1       0.173  -0.257   0.427  0.00  0.00     0.039 A 
ATOM      3  C2  UNL d   1       0.136   0.982   1.071  0.00  0.00    -0.080 A 
ATOM      4  C3  UNL d   1       1.212   1.855   0.933  0.00  0.00     0.150 A 
ATOM      5  C4  UNL d   1       2.316   1.510   0.161  0.00  0.00    -0.007 A 
ATOM      6  C5  UNL d   1       2.351   0.273  -0.480  0.00  0.00     0.039 A 
ENDROOT
BRANCH   4   7
ATOM      7  O   UNL d   1       1.224   3.073   1.546  0.00  0.00    -0.526 OA
ATOM      8  H5  UNL d   1       0.409   3.163   2.068  0.00  0.00     0.418 HD
ENDBRANCH   4   7
TORSDOF 1
ENDMDL
