MODEL 1
REMARK minimizedAffinity -3.35405922
REMARK minimizedRMSD -1
REMARK  1 active torsions:
REMARK  status: ('A' for Active; 'I' for Inactive)
REMARK    1  A    between atoms: C3_4  and  O_7 
ROOT
ATOM      1  C   UNL d   1       0.571   2.497  -0.490  0.00  0.00    -0.033 A 
ATOM      2  C1  UNL d   1       1.242   1.959   0.610  0.00  0.00     0.039 A 
ATOM      3  C2  UNL d   1       0.919   0.682   1.072  0.00  0.00    -0.080 A 
ATOM      4  C3  UNL d   1      -0.076  -0.047   0.426  0.00  0.00     0.150 A 
ATOM      5  C4  UNL d   1      -0.746   0.481  -0.673  0.00  0.00    -0.007 A 
ATOM      6  C5  UNL d   1      -0.423   1.757  -1.132  0.00  0.00     0.039 A 
ENDROOT
BRANCH   4   7
ATOM      7  O   UNL d   1      -0.430  -1.295   0.844  0.00  0.00    -0.526 OA
ATOM      8  H5  UNL d   1       0.097  -1.518   1.630  0.00  0.00     0.418 HD
ENDBRANCH   4   7
TORSDOF 1
ENDMDL
