MODEL 1
REMARK minimizedAffinity -4.36522818
REMARK minimizedRMSD -1
REMARK  1 active torsions:
REMARK  status: ('A' for Active; 'I' for Inactive)
REMARK    1  A    between atoms: C3_4  and  O_7 
ROOT
ATOM      1  C   UNL d   1       0.588  -0.456  -0.758  0.00  0.00    -0.033 A 
ATOM      2  C1  UNL d   1      -0.478   0.029   0.003  0.00  0.00     0.039 A 
ATOM      3  C2  UNL d   1      -0.328   1.198   0.752  0.00  0.00    -0.080 A 
ATOM      4  C3  UNL d   1       0.889   1.872   0.730  0.00  0.00     0.150 A 
ATOM      5  C4  UNL d   1       1.954   1.397  -0.029  0.00  0.00    -0.007 A 
ATOM      6  C5  UNL d   1       1.803   0.229  -0.775  0.00  0.00     0.039 A 
ENDROOT
BRANCH   4   7
ATOM      7  O   UNL d   1       1.084   3.015   1.448  0.00  0.00    -0.526 OA
ATOM      8  H5  UNL d   1       0.272   3.207   1.946  0.00  0.00     0.418 HD
ENDBRANCH   4   7
TORSDOF 1
ENDMDL
