MODEL 1
REMARK minimizedAffinity -4.20312977
REMARK minimizedRMSD -1
REMARK  1 active torsions:
REMARK  status: ('A' for Active; 'I' for Inactive)
REMARK    1  A    between atoms: C3_4  and  O_7 
ROOT
ATOM      1  C   UNL d   1      -0.266  -0.063   0.527  0.00  0.00    -0.033 A 
ATOM      2  C1  UNL d   1      -0.402   0.358   1.851  0.00  0.00     0.039 A 
ATOM      3  C2  UNL d   1       0.198   1.546   2.272  0.00  0.00    -0.080 A 
ATOM      4  C3  UNL d   1       0.929   2.303   1.361  0.00  0.00     0.150 A 
ATOM      5  C4  UNL d   1       1.065   1.892   0.039  0.00  0.00    -0.007 A 
ATOM      6  C5  UNL d   1       0.467   0.704  -0.380  0.00  0.00     0.039 A 
ENDROOT
BRANCH   4   7
ATOM      7  O   UNL d   1       1.536   3.468   1.727  0.00  0.00    -0.526 OA
ATOM      8  H5  UNL d   1       1.381   3.611   2.675  0.00  0.00     0.418 HD
ENDBRANCH   4   7
TORSDOF 1
ENDMDL
