MODEL 1
REMARK minimizedAffinity 5.53126049
REMARK minimizedRMSD -1
REMARK  1 active torsions:
REMARK  status: ('A' for Active; 'I' for Inactive)
REMARK    1  A    between atoms: C3_4  and  O_7 
ROOT
ATOM      1  C   UNL d   1      -5.411   5.863  -4.246  0.00  0.00    -0.033 A 
ATOM      2  C1  UNL d   1      -4.046   5.695  -4.486  0.00  0.00     0.039 A 
ATOM      3  C2  UNL d   1      -3.147   5.667  -3.418  0.00  0.00    -0.080 A 
ATOM      4  C3  UNL d   1      -3.625   5.807  -2.118  0.00  0.00     0.150 A 
ATOM      5  C4  UNL d   1      -4.984   5.971  -1.872  0.00  0.00    -0.007 A 
ATOM      6  C5  UNL d   1      -5.880   6.000  -2.940  0.00  0.00     0.039 A 
ENDROOT
BRANCH   4   7
ATOM      7  O   UNL d   1      -2.785   5.791  -1.045  0.00  0.00    -0.526 OA
ATOM      8  H5  UNL d   1      -1.873   5.699  -1.368  0.00  0.00     0.418 HD
ENDBRANCH   4   7
TORSDOF 1
ENDMDL
