MODEL 1
REMARK minimizedAffinity 3.80476117
REMARK minimizedRMSD -1
REMARK  1 active torsions:
REMARK  status: ('A' for Active; 'I' for Inactive)
REMARK    1  A    between atoms: C3_4  and  O_7 
ROOT
ATOM      1  C   UNL d   1       5.994   3.414  -4.155  0.00  0.00    -0.033 A 
ATOM      2  C1  UNL d   1       5.059   3.663  -5.163  0.00  0.00     0.039 A 
ATOM      3  C2  UNL d   1       3.713   3.846  -4.839  0.00  0.00    -0.080 A 
ATOM      4  C3  UNL d   1       3.315   3.778  -3.507  0.00  0.00     0.150 A 
ATOM      5  C4  UNL d   1       4.241   3.533  -2.498  0.00  0.00    -0.007 A 
ATOM      6  C5  UNL d   1       5.585   3.351  -2.823  0.00  0.00     0.039 A 
ENDROOT
BRANCH   4   7
ATOM      7  O   UNL d   1       2.012   3.944  -3.143  0.00  0.00    -0.526 OA
ATOM      8  H5  UNL d   1       1.483   4.077  -3.947  0.00  0.00     0.418 HD
ENDBRANCH   4   7
TORSDOF 1
ENDMDL
