MODEL 1
REMARK minimizedAffinity -3.18064332
REMARK minimizedRMSD -1
REMARK  1 active torsions:
REMARK  status: ('A' for Active; 'I' for Inactive)
REMARK    1  A    between atoms: C3_4  and  O_7 
ROOT
ATOM      1  C   UNL d   1       1.528   6.000  -5.568  0.00  0.00    -0.033 A 
ATOM      2  C1  UNL d   1       1.160   5.979  -4.221  0.00  0.00     0.039 A 
ATOM      3  C2  UNL d   1       1.904   5.235  -3.304  0.00  0.00    -0.080 A 
ATOM      4  C3  UNL d   1       3.013   4.518  -3.745  0.00  0.00     0.150 A 
ATOM      5  C4  UNL d   1       3.388   4.537  -5.084  0.00  0.00    -0.007 A 
ATOM      6  C5  UNL d   1       2.643   5.280  -5.999  0.00  0.00     0.039 A 
ENDROOT
BRANCH   4   7
ATOM      7  O   UNL d   1       3.767   3.773  -2.887  0.00  0.00    -0.526 OA
ATOM      8  H5  UNL d   1       3.373   3.831  -2.001  0.00  0.00     0.418 HD
ENDBRANCH   4   7
TORSDOF 1
ENDMDL
