MODEL 1
REMARK minimizedAffinity -2.52491927
REMARK minimizedRMSD -1
REMARK  1 active torsions:
REMARK  status: ('A' for Active; 'I' for Inactive)
REMARK    1  A    between atoms: C3_4  and  O_7 
ROOT
ATOM      1  C   UNL d   1      -2.625  -2.657   3.564  0.00  0.00    -0.033 A 
ATOM      2  C1  UNL d   1      -2.634  -1.284   3.819  0.00  0.00     0.039 A 
ATOM      3  C2  UNL d   1      -1.851  -0.424   3.046  0.00  0.00    -0.080 A 
ATOM      4  C3  UNL d   1      -1.066  -0.949   2.022  0.00  0.00     0.150 A 
ATOM      5  C4  UNL d   1      -1.056  -2.315   1.761  0.00  0.00    -0.007 A 
ATOM      6  C5  UNL d   1      -1.837  -3.172   2.534  0.00  0.00     0.039 A 
ENDROOT
BRANCH   4   7
ATOM      7  O   UNL d   1      -0.282  -0.149   1.244  0.00  0.00    -0.526 OA
ATOM      8  H5  UNL d   1      -0.369   0.766   1.559  0.00  0.00     0.418 HD
ENDBRANCH   4   7
TORSDOF 1
ENDMDL
