MODEL 1
REMARK minimizedAffinity 0.628664255
REMARK minimizedRMSD -1
REMARK  1 active torsions:
REMARK  status: ('A' for Active; 'I' for Inactive)
REMARK    1  A    between atoms: C3_4  and  O_7 
ROOT
ATOM      1  C   UNL d   1      -1.237  -0.559  -3.974  0.00  0.00    -0.033 A 
ATOM      2  C1  UNL d   1      -1.348  -0.309  -2.605  0.00  0.00     0.039 A 
ATOM      3  C2  UNL d   1      -2.345  -0.938  -1.858  0.00  0.00    -0.080 A 
ATOM      4  C3  UNL d   1      -3.224  -1.813  -2.490  0.00  0.00     0.150 A 
ATOM      5  C4  UNL d   1      -3.117  -2.070  -3.853  0.00  0.00    -0.007 A 
ATOM      6  C5  UNL d   1      -2.120  -1.440  -4.598  0.00  0.00     0.039 A 
ENDROOT
BRANCH   4   7
ATOM      7  O   UNL d   1      -4.217  -2.447  -1.803  0.00  0.00    -0.526 OA
ATOM      8  H5  UNL d   1      -4.187  -2.152  -0.878  0.00  0.00     0.418 HD
ENDBRANCH   4   7
TORSDOF 1
ENDMDL
