MODEL 1
REMARK minimizedAffinity 3.50979757
REMARK minimizedRMSD -1
REMARK  1 active torsions:
REMARK  status: ('A' for Active; 'I' for Inactive)
REMARK    1  A    between atoms: C3_4  and  O_7 
ROOT
ATOM      1  C   UNL d   1       0.749  -1.108  -2.774  0.00  0.00    -0.033 A 
ATOM      2  C1  UNL d   1      -0.372  -1.545  -3.482  0.00  0.00     0.039 A 
ATOM      3  C2  UNL d   1      -0.842  -0.810  -4.572  0.00  0.00    -0.080 A 
ATOM      4  C3  UNL d   1      -0.182   0.358  -4.944  0.00  0.00     0.150 A 
ATOM      5  C4  UNL d   1       0.938   0.797  -4.246  0.00  0.00    -0.007 A 
ATOM      6  C5  UNL d   1       1.405   0.063  -3.158  0.00  0.00     0.039 A 
ENDROOT
BRANCH   4   7
ATOM      7  O   UNL d   1      -0.607   1.111  -5.998  0.00  0.00    -0.526 OA
ATOM      8  H5  UNL d   1      -1.407   0.702  -6.367  0.00  0.00     0.418 HD
ENDBRANCH   4   7
TORSDOF 1
ENDMDL
