MODEL 1
REMARK minimizedAffinity -2.96706939
REMARK minimizedRMSD -1
REMARK  1 active torsions:
REMARK  status: ('A' for Active; 'I' for Inactive)
REMARK    1  A    between atoms: C3_4  and  O_7 
ROOT
ATOM      1  C   UNL d   1       0.156   5.725  -3.495  0.00  0.00    -0.033 A 
ATOM      2  C1  UNL d   1      -0.761   5.623  -2.447  0.00  0.00     0.039 A 
ATOM      3  C2  UNL d   1      -2.131   5.713  -2.704  0.00  0.00    -0.080 A 
ATOM      4  C3  UNL d   1      -2.569   5.902  -4.012  0.00  0.00     0.150 A 
ATOM      5  C4  UNL d   1      -1.661   6.000  -5.061  0.00  0.00    -0.007 A 
ATOM      6  C5  UNL d   1      -0.294   5.912  -4.802  0.00  0.00     0.039 A 
ENDROOT
BRANCH   4   7
ATOM      7  O   UNL d   1      -3.896   6.000  -4.312  0.00  0.00    -0.526 OA
ATOM      8  H5  UNL d   1      -4.403   5.943  -3.485  0.00  0.00     0.418 HD
ENDBRANCH   4   7
TORSDOF 1
ENDMDL
