MODEL 1
REMARK minimizedAffinity 7.76310253
REMARK minimizedRMSD -1
REMARK  0 active torsions:
REMARK  status: ('A' for Active; 'I' for Inactive)
ROOT
ATOM      1  C   UNL d   1       1.441   0.229   0.475  0.00  0.00     0.124 A 
ATOM      2  C1  UNL d   1       0.675   0.778  -0.544  0.00  0.00     0.062 A 
ATOM      3  C2  UNL d   1       0.517   2.158  -0.635  0.00  0.00     0.162 A 
ATOM      4  C3  UNL d   1       1.127   2.999   0.295  0.00  0.00    -0.034 A 
ATOM      5  C4  UNL d   1       1.895   2.440   1.317  0.00  0.00     0.162 A 
ATOM      6  C5  UNL d   1       2.050   1.060   1.405  0.00  0.00     0.062 A 
ATOM      7  F   UNL d   1       2.791   0.532   2.390  0.00  0.00    -0.097 F 
ATOM      8  F1  UNL d   1       2.496   3.220   2.228  0.00  0.00    -0.096 F 
ATOM      9  I   UNL d   1       0.893   5.063   0.162  0.00  0.00    -0.060 I 
ATOM     10  F2  UNL d   1      -0.229   2.660  -1.630  0.00  0.00    -0.096 F 
ATOM     11  F3  UNL d   1       0.084  -0.023  -1.442  0.00  0.00    -0.097 F 
ATOM     12  F4  UNL d   1       1.591  -1.099   0.561  0.00  0.00    -0.092 F 
ENDROOT
TORSDOF 0
ENDMDL
