MODEL 1
REMARK minimizedAffinity 5.58201265
REMARK minimizedRMSD -1
REMARK  0 active torsions:
REMARK  status: ('A' for Active; 'I' for Inactive)
ROOT
ATOM      1  C   UNL d   1       0.998   2.601  -0.865  0.00  0.00     0.124 A 
ATOM      2  C1  UNL d   1       1.151   1.747  -1.949  0.00  0.00     0.062 A 
ATOM      3  C2  UNL d   1       1.252   0.373  -1.749  0.00  0.00     0.162 A 
ATOM      4  C3  UNL d   1       1.200  -0.156  -0.459  0.00  0.00    -0.034 A 
ATOM      5  C4  UNL d   1       1.047   0.709   0.626  0.00  0.00     0.162 A 
ATOM      6  C5  UNL d   1       0.947   2.082   0.421  0.00  0.00     0.062 A 
ATOM      7  F   UNL d   1       0.799   2.905   1.469  0.00  0.00    -0.097 F 
ATOM      8  F1  UNL d   1       0.993   0.234   1.879  0.00  0.00    -0.096 F 
ATOM      9  I   UNL d   1       1.350  -2.209  -0.156  0.00  0.00    -0.060 I 
ATOM     10  F2  UNL d   1       1.398  -0.428  -2.814  0.00  0.00    -0.096 F 
ATOM     11  F3  UNL d   1       1.202   2.246  -3.192  0.00  0.00    -0.097 F 
ATOM     12  F4  UNL d   1       0.902   3.922  -1.060  0.00  0.00    -0.092 F 
ENDROOT
TORSDOF 0
ENDMDL
