MODEL 1
REMARK minimizedAffinity 9.46526337
REMARK minimizedRMSD -1
REMARK  0 active torsions:
REMARK  status: ('A' for Active; 'I' for Inactive)
ROOT
ATOM      1  C   UNL d   1       1.135   0.509  -0.012  0.00  0.00     0.124 A 
ATOM      2  C1  UNL d   1       1.605   1.426   0.918  0.00  0.00     0.062 A 
ATOM      3  C2  UNL d   1       1.696   2.774   0.587  0.00  0.00     0.162 A 
ATOM      4  C3  UNL d   1       1.316   3.215  -0.681  0.00  0.00    -0.034 A 
ATOM      5  C4  UNL d   1       0.845   2.287  -1.612  0.00  0.00     0.162 A 
ATOM      6  C5  UNL d   1       0.756   0.940  -1.276  0.00  0.00     0.062 A 
ATOM      7  F   UNL d   1       0.302   0.056  -2.176  0.00  0.00    -0.097 F 
ATOM      8  F1  UNL d   1       0.471   2.677  -2.839  0.00  0.00    -0.096 F 
ATOM      9  I   UNL d   1       1.451   5.231  -1.180  0.00  0.00    -0.060 I 
ATOM     10  F2  UNL d   1       2.154   3.638   1.505  0.00  0.00    -0.096 F 
ATOM     11  F3  UNL d   1       1.972   1.011   2.139  0.00  0.00    -0.097 F 
ATOM     12  F4  UNL d   1       1.049  -0.789   0.309  0.00  0.00    -0.092 F 
ENDROOT
TORSDOF 0
ENDMDL
