MODEL 1
REMARK minimizedAffinity 1.18030679
REMARK minimizedRMSD -1
REMARK  0 active torsions:
REMARK  status: ('A' for Active; 'I' for Inactive)
ROOT
ATOM      1  C   UNL d   1       0.968   0.250  -1.486  0.00  0.00     0.124 A 
ATOM      2  C1  UNL d   1       0.848   0.088  -0.112  0.00  0.00     0.062 A 
ATOM      3  C2  UNL d   1       0.921   1.192   0.732  0.00  0.00     0.162 A 
ATOM      4  C3  UNL d   1       1.114   2.469   0.205  0.00  0.00    -0.034 A 
ATOM      5  C4  UNL d   1       1.235   2.624  -1.178  0.00  0.00     0.162 A 
ATOM      6  C5  UNL d   1       1.161   1.517  -2.017  0.00  0.00     0.062 A 
ATOM      7  F   UNL d   1       1.278   1.676  -3.343  0.00  0.00    -0.097 F 
ATOM      8  F1  UNL d   1       1.421   3.838  -1.718  0.00  0.00    -0.096 F 
ATOM      9  I   UNL d   1       1.224   4.123   1.463  0.00  0.00    -0.060 I 
ATOM     10  F2  UNL d   1       0.802   1.006   2.055  0.00  0.00    -0.096 F 
ATOM     11  F3  UNL d   1       0.662  -1.136   0.403  0.00  0.00    -0.097 F 
ATOM     12  F4  UNL d   1       0.899  -0.815  -2.295  0.00  0.00    -0.092 F 
ENDROOT
TORSDOF 0
ENDMDL
