MODEL 1
REMARK minimizedAffinity 2.02474093
REMARK minimizedRMSD -1
REMARK  0 active torsions:
REMARK  status: ('A' for Active; 'I' for Inactive)
ROOT
ATOM      1  C   UNL d   1       1.078   2.791  -1.036  0.00  0.00     0.124 A 
ATOM      2  C1  UNL d   1       1.312   1.931  -2.099  0.00  0.00     0.062 A 
ATOM      3  C2  UNL d   1       1.557   0.580  -1.867  0.00  0.00     0.162 A 
ATOM      4  C3  UNL d   1       1.567   0.081  -0.565  0.00  0.00    -0.034 A 
ATOM      5  C4  UNL d   1       1.331   0.952   0.500  0.00  0.00     0.162 A 
ATOM      6  C5  UNL d   1       1.087   2.301   0.263  0.00  0.00     0.062 A 
ATOM      7  F   UNL d   1       0.861   3.130   1.292  0.00  0.00    -0.097 F 
ATOM      8  F1  UNL d   1       1.333   0.505   1.765  0.00  0.00    -0.096 F 
ATOM      9  I   UNL d   1       1.931  -1.938  -0.213  0.00  0.00    -0.060 I 
ATOM     10  F2  UNL d   1       1.780  -0.228  -2.914  0.00  0.00    -0.096 F 
ATOM     11  F3  UNL d   1       1.305   2.402  -3.355  0.00  0.00    -0.097 F 
ATOM     12  F4  UNL d   1       0.844   4.090  -1.262  0.00  0.00    -0.092 F 
ENDROOT
TORSDOF 0
ENDMDL
