MODEL 1
REMARK minimizedAffinity 5.58808422
REMARK minimizedRMSD -1
REMARK  0 active torsions:
REMARK  status: ('A' for Active; 'I' for Inactive)
ROOT
ATOM      1  C   UNL d   1       0.751   2.537  -1.041  0.00  0.00     0.124 A 
ATOM      2  C1  UNL d   1       0.821   2.112   0.279  0.00  0.00     0.062 A 
ATOM      3  C2  UNL d   1       1.452   0.913   0.596  0.00  0.00     0.162 A 
ATOM      4  C3  UNL d   1       2.020   0.130  -0.408  0.00  0.00    -0.034 A 
ATOM      5  C4  UNL d   1       1.945   0.562  -1.733  0.00  0.00     0.162 A 
ATOM      6  C5  UNL d   1       1.312   1.761  -2.045  0.00  0.00     0.062 A 
ATOM      7  F   UNL d   1       1.246   2.170  -3.321  0.00  0.00    -0.097 F 
ATOM      8  F1  UNL d   1       2.480  -0.167  -2.724  0.00  0.00    -0.096 F 
ATOM      9  I   UNL d   1       2.965  -1.664   0.062  0.00  0.00    -0.060 I 
ATOM     10  F2  UNL d   1       1.505   0.528   1.880  0.00  0.00    -0.096 F 
ATOM     11  F3  UNL d   1       0.278   2.859   1.251  0.00  0.00    -0.097 F 
ATOM     12  F4  UNL d   1       0.141   3.690  -1.343  0.00  0.00    -0.092 F 
ENDROOT
TORSDOF 0
ENDMDL
