MODEL 1
REMARK minimizedAffinity 13.0354862
REMARK minimizedRMSD -1
REMARK  0 active torsions:
REMARK  status: ('A' for Active; 'I' for Inactive)
ROOT
ATOM      1  C   UNL d   1       2.128  -0.366  -0.158  0.00  0.00     0.124 A 
ATOM      2  C1  UNL d   1       3.246   0.202   0.435  0.00  0.00     0.062 A 
ATOM      3  C2  UNL d   1       3.167   1.467   1.010  0.00  0.00     0.162 A 
ATOM      4  C3  UNL d   1       1.964   2.173   0.996  0.00  0.00    -0.034 A 
ATOM      5  C4  UNL d   1       0.843   1.595   0.396  0.00  0.00     0.162 A 
ATOM      6  C5  UNL d   1       0.928   0.331  -0.177  0.00  0.00     0.062 A 
ATOM      7  F   UNL d   1      -0.154  -0.217  -0.750  0.00  0.00    -0.097 F 
ATOM      8  F1  UNL d   1      -0.329   2.246   0.364  0.00  0.00    -0.096 F 
ATOM      9  I   UNL d   1       1.841   4.065   1.854  0.00  0.00    -0.060 I 
ATOM     10  F2  UNL d   1       4.264   1.992   1.577  0.00  0.00    -0.096 F 
ATOM     11  F3  UNL d   1       4.407  -0.468   0.454  0.00  0.00    -0.097 F 
ATOM     12  F4  UNL d   1       2.207  -1.583  -0.712  0.00  0.00    -0.092 F 
ENDROOT
TORSDOF 0
ENDMDL
