MODEL 1
REMARK minimizedAffinity 7.6263895
REMARK minimizedRMSD -1
REMARK  0 active torsions:
REMARK  status: ('A' for Active; 'I' for Inactive)
ROOT
ATOM      1  C   UNL d   1       1.246   0.434  -0.476  0.00  0.00     0.124 A 
ATOM      2  C1  UNL d   1       1.413   1.290   0.604  0.00  0.00     0.062 A 
ATOM      3  C2  UNL d   1       1.361   2.668   0.420  0.00  0.00     0.162 A 
ATOM      4  C3  UNL d   1       1.138   3.201  -0.850  0.00  0.00    -0.034 A 
ATOM      5  C4  UNL d   1       0.971   2.334  -1.931  0.00  0.00     0.162 A 
ATOM      6  C5  UNL d   1       1.025   0.957  -1.742  0.00  0.00     0.062 A 
ATOM      7  F   UNL d   1       0.862   0.132  -2.787  0.00  0.00    -0.097 F 
ATOM      8  F1  UNL d   1       0.755   2.812  -3.166  0.00  0.00    -0.096 F 
ATOM      9  I   UNL d   1       1.058   5.261  -1.129  0.00  0.00    -0.060 I 
ATOM     10  F2  UNL d   1       1.526   3.471   1.482  0.00  0.00    -0.096 F 
ATOM     11  F3  UNL d   1       1.628   0.787   1.829  0.00  0.00    -0.097 F 
ATOM     12  F4  UNL d   1       1.298  -0.892  -0.296  0.00  0.00    -0.092 F 
ENDROOT
TORSDOF 0
ENDMDL
