MODEL 1
REMARK minimizedAffinity 8.94590092
REMARK minimizedRMSD -1
REMARK  0 active torsions:
REMARK  status: ('A' for Active; 'I' for Inactive)
ROOT
ATOM      1  C   UNL d   1       1.322  -0.258  -0.091  0.00  0.00     0.124 A 
ATOM      2  C1  UNL d   1       0.780   0.742   0.705  0.00  0.00     0.062 A 
ATOM      3  C2  UNL d   1       0.666   2.041   0.217  0.00  0.00     0.162 A 
ATOM      4  C3  UNL d   1       1.095   2.347  -1.075  0.00  0.00    -0.034 A 
ATOM      5  C4  UNL d   1       1.640   1.336  -1.869  0.00  0.00     0.162 A 
ATOM      6  C5  UNL d   1       1.751   0.040  -1.376  0.00  0.00     0.062 A 
ATOM      7  F   UNL d   1       2.275  -0.925  -2.146  0.00  0.00    -0.097 F 
ATOM      8  F1  UNL d   1       2.063   1.596  -3.115  0.00  0.00    -0.096 F 
ATOM      9  I   UNL d   1       0.928   4.288  -1.808  0.00  0.00    -0.060 I 
ATOM     10  F2  UNL d   1       0.138   2.987   1.008  0.00  0.00    -0.096 F 
ATOM     11  F3  UNL d   1       0.364   0.457   1.947  0.00  0.00    -0.097 F 
ATOM     12  F4  UNL d   1       1.430  -1.506   0.382  0.00  0.00    -0.092 F 
ENDROOT
TORSDOF 0
ENDMDL
