MODEL 1
REMARK minimizedAffinity 0.300773442
REMARK minimizedRMSD -1
REMARK  0 active torsions:
REMARK  status: ('A' for Active; 'I' for Inactive)
ROOT
ATOM      1  C   UNL d   1       1.224   0.167   0.066  0.00  0.00     0.124 A 
ATOM      2  C1  UNL d   1       0.801   1.052   1.048  0.00  0.00     0.062 A 
ATOM      3  C2  UNL d   1       0.739   2.416   0.781  0.00  0.00     0.162 A 
ATOM      4  C3  UNL d   1       1.100   2.905  -0.474  0.00  0.00    -0.034 A 
ATOM      5  C4  UNL d   1       1.525   2.009  -1.457  0.00  0.00     0.162 A 
ATOM      6  C5  UNL d   1       1.585   0.646  -1.185  0.00  0.00     0.062 A 
ATOM      7  F   UNL d   1       1.994  -0.208  -2.135  0.00  0.00    -0.097 F 
ATOM      8  F1  UNL d   1       1.880   2.444  -2.675  0.00  0.00    -0.096 F 
ATOM      9  I   UNL d   1       1.010   4.945  -0.878  0.00  0.00    -0.060 I 
ATOM     10  F2  UNL d   1       0.327   3.249   1.749  0.00  0.00    -0.096 F 
ATOM     11  F3  UNL d   1       0.452   0.592   2.258  0.00  0.00    -0.097 F 
ATOM     12  F4  UNL d   1       1.283  -1.146   0.326  0.00  0.00    -0.092 F 
ENDROOT
TORSDOF 0
ENDMDL
