MODEL 1
REMARK minimizedAffinity 13.1028347
REMARK minimizedRMSD -1
REMARK  0 active torsions:
REMARK  status: ('A' for Active; 'I' for Inactive)
ROOT
ATOM      1  C   UNL d   1       1.252   0.273  -0.071  0.00  0.00     0.124 A 
ATOM      2  C1  UNL d   1       1.376   0.631  -1.407  0.00  0.00     0.062 A 
ATOM      3  C2  UNL d   1       1.343   1.972  -1.778  0.00  0.00     0.162 A 
ATOM      4  C3  UNL d   1       1.186   2.966  -0.811  0.00  0.00    -0.034 A 
ATOM      5  C4  UNL d   1       1.061   2.598   0.529  0.00  0.00     0.162 A 
ATOM      6  C5  UNL d   1       1.095   1.256   0.895  0.00  0.00     0.062 A 
ATOM      7  F   UNL d   1       0.976   0.912   2.186  0.00  0.00    -0.097 F 
ATOM      8  F1  UNL d   1       0.909   3.528   1.484  0.00  0.00    -0.096 F 
ATOM      9  I   UNL d   1       1.136   4.972  -1.362  0.00  0.00    -0.060 I 
ATOM     10  F2  UNL d   1       1.465   2.289  -3.075  0.00  0.00    -0.096 F 
ATOM     11  F3  UNL d   1       1.527  -0.317  -2.342  0.00  0.00    -0.097 F 
ATOM     12  F4  UNL d   1       1.284  -1.018   0.283  0.00  0.00    -0.092 F 
ENDROOT
TORSDOF 0
ENDMDL
