MODEL 1
REMARK minimizedAffinity 6.93720675
REMARK minimizedRMSD -1
REMARK  0 active torsions:
REMARK  status: ('A' for Active; 'I' for Inactive)
ROOT
ATOM      1  C   UNL d   1       1.732   1.138   1.150  0.00  0.00     0.124 A 
ATOM      2  C1  UNL d   1       1.739   2.503   0.903  0.00  0.00     0.062 A 
ATOM      3  C2  UNL d   1       1.210   3.003  -0.283  0.00  0.00     0.162 A 
ATOM      4  C3  UNL d   1       0.668   2.136  -1.232  0.00  0.00    -0.034 A 
ATOM      5  C4  UNL d   1       0.665   0.763  -0.977  0.00  0.00     0.162 A 
ATOM      6  C5  UNL d   1       1.195   0.269   0.210  0.00  0.00     0.062 A 
ATOM      7  F   UNL d   1       1.187  -1.051   0.447  0.00  0.00    -0.097 F 
ATOM      8  F1  UNL d   1       0.151  -0.098  -1.867  0.00  0.00    -0.096 F 
ATOM      9  I   UNL d   1      -0.125   2.879  -3.007  0.00  0.00    -0.060 I 
ATOM     10  F2  UNL d   1       1.230   4.327  -0.496  0.00  0.00    -0.096 F 
ATOM     11  F3  UNL d   1       2.258   3.345   1.809  0.00  0.00    -0.097 F 
ATOM     12  F4  UNL d   1       2.243   0.660   2.292  0.00  0.00    -0.092 F 
ENDROOT
TORSDOF 0
ENDMDL
