MODEL 1
REMARK minimizedAffinity 0.615261912
REMARK minimizedRMSD -1
REMARK  0 active torsions:
REMARK  status: ('A' for Active; 'I' for Inactive)
ROOT
ATOM      1  C   UNL d   1       0.852   0.410   0.214  0.00  0.00     0.124 A 
ATOM      2  C1  UNL d   1       0.909   0.803  -1.116  0.00  0.00     0.062 A 
ATOM      3  C2  UNL d   1       1.021   2.151  -1.443  0.00  0.00     0.162 A 
ATOM      4  C3  UNL d   1       1.078   3.117  -0.438  0.00  0.00    -0.034 A 
ATOM      5  C4  UNL d   1       1.020   2.714   0.897  0.00  0.00     0.162 A 
ATOM      6  C5  UNL d   1       0.908   1.365   1.219  0.00  0.00     0.062 A 
ATOM      7  F   UNL d   1       0.853   0.988   2.505  0.00  0.00    -0.097 F 
ATOM      8  F1  UNL d   1       1.072   3.616   1.888  0.00  0.00    -0.096 F 
ATOM      9  I   UNL d   1       1.246   5.134  -0.924  0.00  0.00    -0.060 I 
ATOM     10  F2  UNL d   1       1.074   2.502  -2.737  0.00  0.00    -0.096 F 
ATOM     11  F3  UNL d   1       0.855  -0.119  -2.088  0.00  0.00    -0.097 F 
ATOM     12  F4  UNL d   1       0.744  -0.888   0.527  0.00  0.00    -0.092 F 
ENDROOT
TORSDOF 0
ENDMDL
