MODEL 1
REMARK minimizedAffinity 0.269790858
REMARK minimizedRMSD -1
REMARK  0 active torsions:
REMARK  status: ('A' for Active; 'I' for Inactive)
ROOT
ATOM      1  C   UNL d   1       0.882   0.658   0.001  0.00  0.00     0.124 A 
ATOM      2  C1  UNL d   1       1.102   0.997  -1.327  0.00  0.00     0.062 A 
ATOM      3  C2  UNL d   1       1.250   2.332  -1.693  0.00  0.00     0.162 A 
ATOM      4  C3  UNL d   1       1.178   3.338  -0.729  0.00  0.00    -0.034 A 
ATOM      5  C4  UNL d   1       0.954   2.989   0.604  0.00  0.00     0.162 A 
ATOM      6  C5  UNL d   1       0.808   1.653   0.965  0.00  0.00     0.062 A 
ATOM      7  F   UNL d   1       0.595   1.327   2.248  0.00  0.00    -0.097 F 
ATOM      8  F1  UNL d   1       0.880   3.931   1.556  0.00  0.00    -0.096 F 
ATOM      9  I   UNL d   1       1.397   5.335  -1.272  0.00  0.00    -0.060 I 
ATOM     10  F2  UNL d   1       1.462   2.631  -2.983  0.00  0.00    -0.096 F 
ATOM     11  F3  UNL d   1       1.173   0.037  -2.260  0.00  0.00    -0.097 F 
ATOM     12  F4  UNL d   1       0.739  -0.627   0.350  0.00  0.00    -0.092 F 
ENDROOT
TORSDOF 0
ENDMDL
