MODEL 1
REMARK minimizedAffinity 7.08399582
REMARK minimizedRMSD -1
REMARK  0 active torsions:
REMARK  status: ('A' for Active; 'I' for Inactive)
ROOT
ATOM      1  C   UNL d   1       0.922   0.279  -0.026  0.00  0.00     0.124 A 
ATOM      2  C1  UNL d   1       0.737   1.244   0.954  0.00  0.00     0.062 A 
ATOM      3  C2  UNL d   1       0.790   2.596   0.624  0.00  0.00     0.162 A 
ATOM      4  C3  UNL d   1       1.029   2.990  -0.692  0.00  0.00    -0.034 A 
ATOM      5  C4  UNL d   1       1.215   2.013  -1.672  0.00  0.00     0.162 A 
ATOM      6  C5  UNL d   1       1.161   0.664  -1.338  0.00  0.00     0.062 A 
ATOM      7  F   UNL d   1       1.340  -0.267  -2.286  0.00  0.00    -0.097 F 
ATOM      8  F1  UNL d   1       1.447   2.357  -2.948  0.00  0.00    -0.096 F 
ATOM      9  I   UNL d   1       1.109   5.009  -1.189  0.00  0.00    -0.060 I 
ATOM     10  F2  UNL d   1       0.607   3.507   1.592  0.00  0.00    -0.096 F 
ATOM     11  F3  UNL d   1       0.507   0.875   2.222  0.00  0.00    -0.097 F 
ATOM     12  F4  UNL d   1       0.871  -1.020   0.294  0.00  0.00    -0.092 F 
ENDROOT
TORSDOF 0
ENDMDL
