MODEL 1
REMARK minimizedAffinity -4.89919043
REMARK minimizedRMSD -1
REMARK  2 active torsions:
REMARK  status: ('A' for Active; 'I' for Inactive)
REMARK    1  A    between atoms: C2'_3  and  C1'_4 
REMARK    2  A    between atoms: C1'_4  and  C1_5 
ROOT
ATOM      1  C1  I4B d   1       1.207  -0.512   0.590  0.00  0.00    -0.075 A 
ATOM      2  C2  I4B d   1       1.373  -0.775   1.927  0.00  0.00     0.003 A 
ATOM      3  C3  I4B d   1       2.519  -1.473   2.379  0.00  0.00     0.002 A 
ATOM      4  C4  I4B d   1       3.443  -1.930   1.462  0.00  0.00    -0.004 A 
ATOM      5  C5  I4B d   1       3.285  -1.642   0.109  0.00  0.00     0.002 A 
ATOM      6  C6  I4B d   1       2.167  -0.919  -0.329  0.00  0.00     0.003 A 
ENDROOT
BRANCH   1   7
ATOM      7  C1' I4B d   1      -0.031   0.197   0.143  0.00  0.00     0.060 C 
BRANCH   7   8
ATOM      8  C2' I4B d   1      -0.923   0.386   1.353  0.00  0.00    -0.013 C 
ATOM      9  C4' I4B d   1      -1.511   1.772   1.386  0.00  0.00     0.013 C 
ATOM     10  C3' I4B d   1      -1.999  -0.657   1.302  0.00  0.00     0.013 C 
ENDBRANCH   7   8
ENDBRANCH   1   7
TORSDOF 2
ENDMDL
