MODEL 1
REMARK minimizedAffinity -5.01795053
REMARK minimizedRMSD -1
REMARK  2 active torsions:
REMARK  status: ('A' for Active; 'I' for Inactive)
REMARK    1  A    between atoms: C2'_3  and  C1'_4 
REMARK    2  A    between atoms: C1'_4  and  C1_5 
ROOT
ATOM      1  C1  I4B d   1       0.173   0.163   0.228  0.00  0.00    -0.075 A 
ATOM      2  C2  I4B d   1       1.418  -0.018   0.777  0.00  0.00     0.003 A 
ATOM      3  C3  I4B d   1       1.559  -0.226   2.170  0.00  0.00     0.002 A 
ATOM      4  C4  I4B d   1       0.440  -0.196   2.978  0.00  0.00    -0.004 A 
ATOM      5  C5  I4B d   1      -0.823  -0.036   2.417  0.00  0.00     0.002 A 
ATOM      6  C6  I4B d   1      -0.959   0.133   1.031  0.00  0.00     0.003 A 
ENDROOT
BRANCH   1   7
ATOM      7  C1' I4B d   1       0.064   0.414  -1.243  0.00  0.00     0.060 C 
BRANCH   7   8
ATOM      8  C2' I4B d   1      -0.356   1.856  -1.441  0.00  0.00    -0.013 C 
ATOM      9  C4' I4B d   1       0.670   2.617  -2.239  0.00  0.00     0.013 C 
ATOM     10  C3' I4B d   1      -1.689   1.860  -2.128  0.00  0.00     0.013 C 
ENDBRANCH   7   8
ENDBRANCH   1   7
TORSDOF 2
ENDMDL
