MODEL 1
REMARK minimizedAffinity -3.09993362
REMARK minimizedRMSD -1
REMARK  2 active torsions:
REMARK  status: ('A' for Active; 'I' for Inactive)
REMARK    1  A    between atoms: C2'_3  and  C1'_4 
REMARK    2  A    between atoms: C1'_4  and  C1_5 
ROOT
ATOM      1  C1  I4B d   1      -0.121  -0.061  -0.100  0.00  0.00    -0.075 A 
ATOM      2  C2  I4B d   1       1.079   0.101   0.547  0.00  0.00     0.003 A 
ATOM      3  C3  I4B d   1       1.186  -0.179   1.931  0.00  0.00     0.002 A 
ATOM      4  C4  I4B d   1       0.064  -0.567   2.634  0.00  0.00    -0.004 A 
ATOM      5  C5  I4B d   1      -1.146  -0.753   1.972  0.00  0.00     0.002 A 
ATOM      6  C6  I4B d   1      -1.237  -0.511   0.593  0.00  0.00     0.003 A 
ENDROOT
BRANCH   1   7
ATOM      7  C1' I4B d   1      -0.206   0.275  -1.556  0.00  0.00     0.060 C 
BRANCH   7   8
ATOM      8  C2' I4B d   1      -0.491   1.758  -1.676  0.00  0.00    -0.013 C 
ATOM      9  C4' I4B d   1       0.616   2.468  -2.411  0.00  0.00     0.013 C 
ATOM     10  C3' I4B d   1      -1.803   1.921  -2.384  0.00  0.00     0.013 C 
ENDBRANCH   7   8
ENDBRANCH   1   7
TORSDOF 2
ENDMDL
