MODEL 1
REMARK minimizedAffinity -4.0647006
REMARK minimizedRMSD -1
REMARK  2 active torsions:
REMARK  status: ('A' for Active; 'I' for Inactive)
REMARK    1  A    between atoms: C2'_3  and  C1'_4 
REMARK    2  A    between atoms: C1'_4  and  C1_5 
ROOT
ATOM      1  C1  I4B d   1      -0.069  -0.185  -0.250  0.00  0.00    -0.075 A 
ATOM      2  C2  I4B d   1      -1.153  -0.293   0.586  0.00  0.00     0.003 A 
ATOM      3  C3  I4B d   1      -0.967  -0.578   1.961  0.00  0.00     0.002 A 
ATOM      4  C4  I4B d   1       0.307  -0.795   2.444  0.00  0.00    -0.004 A 
ATOM      5  C5  I4B d   1       1.406  -0.662   1.600  0.00  0.00     0.002 A 
ATOM      6  C6  I4B d   1       1.218  -0.343   0.247  0.00  0.00     0.003 A 
ENDROOT
BRANCH   1   7
ATOM      7  C1' I4B d   1      -0.304   0.084  -1.702  0.00  0.00     0.060 C 
BRANCH   7   8
ATOM      8  C2' I4B d   1      -0.557   1.569  -1.867  0.00  0.00    -0.013 C 
ATOM      9  C4' I4B d   1       0.657   2.272  -2.414  0.00  0.00     0.013 C 
ATOM     10  C3' I4B d   1      -1.737   1.739  -2.777  0.00  0.00     0.013 C 
ENDBRANCH   7   8
ENDBRANCH   1   7
TORSDOF 2
ENDMDL
