MODEL 1
REMARK minimizedAffinity -5.09533072
REMARK minimizedRMSD -1
REMARK  2 active torsions:
REMARK  status: ('A' for Active; 'I' for Inactive)
REMARK    1  A    between atoms: C2'_3  and  C1'_4 
REMARK    2  A    between atoms: C1'_4  and  C1_5 
ROOT
ATOM      1  C1  I4B d   1       0.855  -0.362   0.770  0.00  0.00    -0.075 A 
ATOM      2  C2  I4B d   1       1.510  -1.303   0.015  0.00  0.00     0.003 A 
ATOM      3  C3  I4B d   1       2.255  -2.330   0.645  0.00  0.00     0.002 A 
ATOM      4  C4  I4B d   1       2.358  -2.348   2.021  0.00  0.00    -0.004 A 
ATOM      5  C5  I4B d   1       1.674  -1.407   2.785  0.00  0.00     0.002 A 
ATOM      6  C6  I4B d   1       0.907  -0.415   2.157  0.00  0.00     0.003 A 
ENDROOT
BRANCH   1   7
ATOM      7  C1' I4B d   1       0.105   0.727   0.071  0.00  0.00     0.060 C 
BRANCH   7   8
ATOM      8  C2' I4B d   1      -0.991   0.084  -0.754  0.00  0.00    -0.013 C 
ATOM      9  C4' I4B d   1      -1.916  -0.732   0.110  0.00  0.00     0.013 C 
ATOM     10  C3' I4B d   1      -1.736   1.175  -1.465  0.00  0.00     0.013 C 
ENDBRANCH   7   8
ENDBRANCH   1   7
TORSDOF 2
ENDMDL
