MODEL 1
REMARK minimizedAffinity -3.46681213
REMARK minimizedRMSD -1
REMARK  2 active torsions:
REMARK  status: ('A' for Active; 'I' for Inactive)
REMARK    1  A    between atoms: C2'_3  and  C1'_4 
REMARK    2  A    between atoms: C1'_4  and  C1_5 
ROOT
ATOM      1  C1  I4B d   1      -0.419  -0.008  -1.009  0.00  0.00    -0.075 A 
ATOM      2  C2  I4B d   1       0.673  -0.801  -1.262  0.00  0.00     0.003 A 
ATOM      3  C3  I4B d   1       1.348  -1.446  -0.197  0.00  0.00     0.002 A 
ATOM      4  C4  I4B d   1       0.930  -1.232   1.101  0.00  0.00    -0.004 A 
ATOM      5  C5  I4B d   1      -0.191  -0.446   1.353  0.00  0.00     0.002 A 
ATOM      6  C6  I4B d   1      -0.877   0.160   0.291  0.00  0.00     0.003 A 
ENDROOT
BRANCH   1   7
ATOM      7  C1' I4B d   1      -1.087   0.684  -2.154  0.00  0.00     0.060 C 
BRANCH   7   8
ATOM      8  C2' I4B d   1      -0.923   2.177  -1.957  0.00  0.00    -0.013 C 
ATOM      9  C4' I4B d   1       0.098   2.744  -2.909  0.00  0.00     0.013 C 
ATOM     10  C3' I4B d   1      -2.263   2.821  -2.154  0.00  0.00     0.013 C 
ENDBRANCH   7   8
ENDBRANCH   1   7
TORSDOF 2
ENDMDL
