MODEL 1
REMARK minimizedAffinity 4.1769352
REMARK minimizedRMSD -1
REMARK  0 active torsions:
REMARK  status: ('A' for Active; 'I' for Inactive)
ROOT
ATOM      1  C   UNL d   1       1.209  -2.537   4.901  0.00  0.00    -0.002 A 
ATOM      2  C1  UNL d   1       1.408  -3.067   3.634  0.00  0.00     0.010 A 
ATOM      3  C2  UNL d   1       0.639  -4.144   3.186  0.00  0.00     0.041 A 
ATOM      4  C3  UNL d   1      -0.343  -4.682   4.041  0.00  0.00    -0.075 A 
ATOM      5  S   UNL d   1      -1.403  -5.999   3.706  0.00  0.00     0.015 SA
ATOM      6  C4  UNL d   1      -2.146  -5.888   5.236  0.00  0.00     0.022 A 
ATOM      7  C5  UNL d   1      -1.610  -4.876   5.997  0.00  0.00     0.026 A 
ATOM      8  C6  UNL d   1      -0.563  -4.164   5.320  0.00  0.00    -0.082 A 
ATOM      9  C7  UNL d   1       0.233  -3.073   5.745  0.00  0.00     0.045 A 
ENDROOT
TORSDOF 0
ENDMDL
