MODEL 1
REMARK minimizedAffinity 2.33006763
REMARK minimizedRMSD -1
REMARK  0 active torsions:
REMARK  status: ('A' for Active; 'I' for Inactive)
ROOT
ATOM      1  C   UNL d   1      -1.106  -4.883   5.364  0.00  0.00    -0.002 A 
ATOM      2  C1  UNL d   1      -1.597  -4.190   4.267  0.00  0.00     0.010 A 
ATOM      3  C2  UNL d   1      -0.928  -3.066   3.780  0.00  0.00     0.041 A 
ATOM      4  C3  UNL d   1       0.255  -2.646   4.419  0.00  0.00    -0.075 A 
ATOM      5  S   UNL d   1       1.243  -1.298   3.996  0.00  0.00     0.015 SA
ATOM      6  C4  UNL d   1       2.341  -1.610   5.262  0.00  0.00     0.022 A 
ATOM      7  C5  UNL d   1       1.978  -2.712   5.999  0.00  0.00     0.026 A 
ATOM      8  C6  UNL d   1       0.770  -3.328   5.525  0.00  0.00    -0.082 A 
ATOM      9  C7  UNL d   1       0.068  -4.464   5.996  0.00  0.00     0.045 A 
ENDROOT
TORSDOF 0
ENDMDL
