MODEL 1
REMARK minimizedAffinity 17.8538074
REMARK minimizedRMSD -1
REMARK  0 active torsions:
REMARK  status: ('A' for Active; 'I' for Inactive)
ROOT
ATOM      1  C   UNL d   1      -4.152   1.619   1.713  0.00  0.00    -0.002 A 
ATOM      2  C1  UNL d   1      -5.207   1.065   1.002  0.00  0.00     0.010 A 
ATOM      3  C2  UNL d   1      -4.967   0.277  -0.125  0.00  0.00     0.041 A 
ATOM      4  C3  UNL d   1      -3.636   0.050  -0.528  0.00  0.00    -0.075 A 
ATOM      5  S   UNL d   1      -3.103  -0.884  -1.875  0.00  0.00     0.015 SA
ATOM      6  C4  UNL d   1      -1.462  -0.571  -1.537  0.00  0.00     0.022 A 
ATOM      7  C5  UNL d   1      -1.307   0.225  -0.427  0.00  0.00     0.026 A 
ATOM      8  C6  UNL d   1      -2.557   0.596   0.173  0.00  0.00    -0.082 A 
ATOM      9  C7  UNL d   1      -2.833   1.392   1.311  0.00  0.00     0.045 A 
ENDROOT
TORSDOF 0
ENDMDL
