MODEL 1
REMARK minimizedAffinity 14.4698009
REMARK minimizedRMSD -1
REMARK  0 active torsions:
REMARK  status: ('A' for Active; 'I' for Inactive)
ROOT
ATOM      1  C   UNL d   1       3.030   1.634   5.552  0.00  0.00    -0.002 A 
ATOM      2  C1  UNL d   1       4.016   2.248   4.793  0.00  0.00     0.010 A 
ATOM      3  C2  UNL d   1       3.914   3.598   4.455  0.00  0.00     0.041 A 
ATOM      4  C3  UNL d   1       2.795   4.330   4.898  0.00  0.00    -0.075 A 
ATOM      5  S   UNL d   1       2.459   5.995   4.606  0.00  0.00     0.015 SA
ATOM      6  C4  UNL d   1       0.999   5.931   5.483  0.00  0.00     0.022 A 
ATOM      7  C5  UNL d   1       0.758   4.678   5.993  0.00  0.00     0.026 A 
ATOM      8  C6  UNL d   1       1.789   3.734   5.665  0.00  0.00    -0.082 A 
ATOM      9  C7  UNL d   1       1.921   2.362   5.990  0.00  0.00     0.045 A 
ENDROOT
TORSDOF 0
ENDMDL
