MODEL 1
REMARK minimizedAffinity 5.32502365
REMARK minimizedRMSD -1
REMARK  0 active torsions:
REMARK  status: ('A' for Active; 'I' for Inactive)
ROOT
ATOM      1  C   UNL d   1       2.252   5.998   5.006  0.00  0.00    -0.002 A 
ATOM      2  C1  UNL d   1       1.140   5.481   5.655  0.00  0.00     0.010 A 
ATOM      3  C2  UNL d   1       1.083   4.128   5.998  0.00  0.00     0.041 A 
ATOM      4  C3  UNL d   1       2.173   3.297   5.677  0.00  0.00    -0.075 A 
ATOM      5  S   UNL d   1       2.326   1.610   6.000  0.00  0.00     0.015 SA
ATOM      6  C4  UNL d   1       3.871   1.537   5.285  0.00  0.00     0.022 A 
ATOM      7  C5  UNL d   1       4.276   2.760   4.805  0.00  0.00     0.026 A 
ATOM      8  C6  UNL d   1       3.305   3.795   5.024  0.00  0.00    -0.082 A 
ATOM      9  C7  UNL d   1       3.332   5.170   4.688  0.00  0.00     0.045 A 
ENDROOT
TORSDOF 0
ENDMDL
