MODEL 1
REMARK minimizedAffinity 18.7763596
REMARK minimizedRMSD -1
REMARK  0 active torsions:
REMARK  status: ('A' for Active; 'I' for Inactive)
ROOT
ATOM      1  C   UNL d   1      -4.692   0.755  -5.850  0.00  0.00    -0.002 A 
ATOM      2  C1  UNL d   1      -5.615   0.019  -5.122  0.00  0.00     0.010 A 
ATOM      3  C2  UNL d   1      -5.265  -0.543  -3.892  0.00  0.00     0.041 A 
ATOM      4  C3  UNL d   1      -3.959  -0.350  -3.402  0.00  0.00    -0.075 A 
ATOM      5  S   UNL d   1      -3.306  -0.943  -1.921  0.00  0.00     0.015 SA
ATOM      6  C4  UNL d   1      -1.785  -0.233  -2.220  0.00  0.00     0.022 A 
ATOM      7  C5  UNL d   1      -1.759   0.444  -3.416  0.00  0.00     0.026 A 
ATOM      8  C6  UNL d   1      -3.011   0.388  -4.117  0.00  0.00    -0.082 A 
ATOM      9  C7  UNL d   1      -3.397   0.945  -5.361  0.00  0.00     0.045 A 
ENDROOT
TORSDOF 0
ENDMDL
