MODEL 1
REMARK minimizedAffinity 9.96657753
REMARK minimizedRMSD -1
REMARK  0 active torsions:
REMARK  status: ('A' for Active; 'I' for Inactive)
ROOT
ATOM      1  C   UNL d   1       4.432   2.096   5.838  0.00  0.00    -0.002 A 
ATOM      2  C1  UNL d   1       4.644   3.458   6.000  0.00  0.00     0.010 A 
ATOM      3  C2  UNL d   1       4.932   4.268   4.899  0.00  0.00     0.041 A 
ATOM      4  C3  UNL d   1       5.002   3.680   3.620  0.00  0.00    -0.075 A 
ATOM      5  S   UNL d   1       5.338   4.474   2.128  0.00  0.00     0.015 SA
ATOM      6  C4  UNL d   1       5.208   3.025   1.241  0.00  0.00     0.022 A 
ATOM      7  C5  UNL d   1       4.916   1.951   2.048  0.00  0.00     0.026 A 
ATOM      8  C6  UNL d   1       4.791   2.311   3.433  0.00  0.00    -0.082 A 
ATOM      9  C7  UNL d   1       4.503   1.517   4.569  0.00  0.00     0.045 A 
ENDROOT
TORSDOF 0
ENDMDL
