MODEL 1
REMARK minimizedAffinity 6.07860184
REMARK minimizedRMSD -1
REMARK  0 active torsions:
REMARK  status: ('A' for Active; 'I' for Inactive)
ROOT
ATOM      1  C   UNL d   1       1.883  -4.085   1.529  0.00  0.00    -0.002 A 
ATOM      2  C1  UNL d   1       0.706  -4.738   1.192  0.00  0.00     0.010 A 
ATOM      3  C2  UNL d   1      -0.154  -5.209   2.186  0.00  0.00     0.041 A 
ATOM      4  C3  UNL d   1       0.191  -5.009   3.537  0.00  0.00    -0.075 A 
ATOM      5  S   UNL d   1      -0.709  -5.499   4.924  0.00  0.00     0.015 SA
ATOM      6  C4  UNL d   1       0.447  -4.852   5.996  0.00  0.00     0.022 A 
ATOM      7  C5  UNL d   1       1.501  -4.273   5.329  0.00  0.00     0.026 A 
ATOM      8  C6  UNL d   1       1.371  -4.354   3.901  0.00  0.00    -0.082 A 
ATOM      9  C7  UNL d   1       2.222  -3.889   2.870  0.00  0.00     0.045 A 
ENDROOT
TORSDOF 0
ENDMDL
