MODEL 1
REMARK minimizedAffinity 5.57142305
REMARK minimizedRMSD -1
REMARK  1 active torsions:
REMARK  status: ('A' for Active; 'I' for Inactive)
REMARK    1  A    between atoms: C1_2  and  C2_3 
ROOT
ATOM      1  C2  UNL d   1       4.714  -3.325   4.183  0.00  0.00    -0.076 A 
ATOM      2  C3  UNL d   1       4.455  -4.607   3.668  0.00  0.00     0.004 A 
ATOM      3  C4  UNL d   1       4.945  -5.748   4.302  0.00  0.00    -0.003 A 
ATOM      4  C5  UNL d   1       5.701  -5.624   5.463  0.00  0.00     0.000 A 
ATOM      5  C6  UNL d   1       5.952  -4.361   5.998  0.00  0.00     0.000 A 
ATOM      6  C7  UNL d   1       5.452  -3.203   5.379  0.00  0.00    -0.073 A 
ATOM      7  C8  UNL d   1       5.759  -1.865   5.996  0.00  0.00     0.078 C 
ENDROOT
BRANCH   1   8
ATOM      8  C1  UNL d   1       4.180  -2.123   3.436  0.00  0.00     0.053 C 
ATOM      9  C   UNL d   1       3.612  -2.489   2.074  0.00  0.00     0.018 C 
ENDBRANCH   1   8
TORSDOF 1
ENDMDL
