MODEL 1
REMARK minimizedAffinity 7.73578691
REMARK minimizedRMSD -1
REMARK  1 active torsions:
REMARK  status: ('A' for Active; 'I' for Inactive)
REMARK    1  A    between atoms: C1_2  and  C2_3 
ROOT
ATOM      1  C2  UNL d   1      -2.441  -0.557   1.309  0.00  0.00    -0.076 A 
ATOM      2  C3  UNL d   1      -1.977   0.742   1.579  0.00  0.00     0.004 A 
ATOM      3  C4  UNL d   1      -0.986   0.966   2.532  0.00  0.00    -0.003 A 
ATOM      4  C5  UNL d   1      -0.441  -0.105   3.231  0.00  0.00     0.000 A 
ATOM      5  C6  UNL d   1      -0.877  -1.403   2.963  0.00  0.00     0.000 A 
ATOM      6  C7  UNL d   1      -1.864  -1.648   1.993  0.00  0.00    -0.073 A 
ATOM      7  C8  UNL d   1      -2.300  -3.066   1.750  0.00  0.00     0.078 C 
ENDROOT
BRANCH   1   8
ATOM      8  C1  UNL d   1      -3.538  -0.736   0.283  0.00  0.00     0.053 C 
ATOM      9  C   UNL d   1      -4.927  -0.685   0.900  0.00  0.00     0.018 C 
ENDBRANCH   1   8
TORSDOF 1
ENDMDL
