MODEL 1
REMARK minimizedAffinity -3.23506618
REMARK minimizedRMSD -1
REMARK  1 active torsions:
REMARK  status: ('A' for Active; 'I' for Inactive)
REMARK    1  A    between atoms: C1_2  and  C2_3 
ROOT
ATOM      1  C2  UNL d   1       0.780  -1.178   1.581  0.00  0.00    -0.076 A 
ATOM      2  C3  UNL d   1       0.030  -1.000   2.756  0.00  0.00     0.004 A 
ATOM      3  C4  UNL d   1      -1.176  -0.301   2.740  0.00  0.00    -0.003 A 
ATOM      4  C5  UNL d   1      -1.652   0.231   1.546  0.00  0.00     0.000 A 
ATOM      5  C6  UNL d   1      -0.930   0.049   0.367  0.00  0.00     0.000 A 
ATOM      6  C7  UNL d   1       0.279  -0.667   0.364  0.00  0.00    -0.073 A 
ATOM      7  C8  UNL d   1       1.020  -0.828  -0.935  0.00  0.00     0.078 C 
ENDROOT
BRANCH   1   8
ATOM      8  C1  UNL d   1       2.094  -1.921   1.665  0.00  0.00     0.053 C 
ATOM      9  C   UNL d   1       1.907  -3.430   1.720  0.00  0.00     0.018 C 
ENDBRANCH   1   8
TORSDOF 1
ENDMDL
