MODEL 1
REMARK minimizedAffinity 0.536768079
REMARK minimizedRMSD -1
REMARK  1 active torsions:
REMARK  status: ('A' for Active; 'I' for Inactive)
REMARK    1  A    between atoms: C1_2  and  C2_3 
ROOT
ATOM      1  C2  UNL d   1       3.790  -2.831   1.902  0.00  0.00    -0.076 A 
ATOM      2  C3  UNL d   1       2.415  -3.040   1.694  0.00  0.00     0.004 A 
ATOM      3  C4  UNL d   1       1.742  -2.402   0.653  0.00  0.00    -0.003 A 
ATOM      4  C5  UNL d   1       2.432  -1.546  -0.197  0.00  0.00     0.000 A 
ATOM      5  C6  UNL d   1       3.800  -1.342  -0.017  0.00  0.00     0.000 A 
ATOM      6  C7  UNL d   1       4.497  -1.989   1.017  0.00  0.00    -0.073 A 
ATOM      7  C8  UNL d   1       5.970  -1.727   1.169  0.00  0.00     0.078 C 
ENDROOT
BRANCH   1   8
ATOM      8  C1  UNL d   1       4.461  -3.529   3.063  0.00  0.00     0.053 C 
ATOM      9  C   UNL d   1       4.424  -2.703   4.339  0.00  0.00     0.018 C 
ENDBRANCH   1   8
TORSDOF 1
ENDMDL
