MODEL 1
REMARK minimizedAffinity 10.2104063
REMARK minimizedRMSD -1
REMARK  1 active torsions:
REMARK  status: ('A' for Active; 'I' for Inactive)
REMARK    1  A    between atoms: C1_2  and  C2_3 
ROOT
ATOM      1  C2  UNL d   1       1.556  -3.049   1.212  0.00  0.00    -0.076 A 
ATOM      2  C3  UNL d   1       0.548  -3.589   2.029  0.00  0.00     0.004 A 
ATOM      3  C4  UNL d   1      -0.368  -2.764   2.679  0.00  0.00    -0.003 A 
ATOM      4  C5  UNL d   1      -0.292  -1.385   2.522  0.00  0.00     0.000 A 
ATOM      5  C6  UNL d   1       0.691  -0.832   1.700  0.00  0.00     0.000 A 
ATOM      6  C7  UNL d   1       1.612  -1.651   1.025  0.00  0.00    -0.073 A 
ATOM      7  C8  UNL d   1       2.655  -1.001   0.157  0.00  0.00     0.078 C 
ENDROOT
BRANCH   1   8
ATOM      8  C1  UNL d   1       2.538  -3.992   0.554  0.00  0.00     0.053 C 
ATOM      9  C   UNL d   1       3.728  -4.309   1.446  0.00  0.00     0.018 C 
ENDBRANCH   1   8
TORSDOF 1
ENDMDL
