MODEL 1
REMARK minimizedAffinity -1.59142077
REMARK minimizedRMSD -1
REMARK  0 active torsions:
REMARK  status: ('A' for Active; 'I' for Inactive)
ROOT
ATOM      1  C   UNL d   1       2.875   0.149   0.842  0.00  0.00     0.172 C 
ATOM      2  N   UNL d   1       2.604  -1.037   1.621  0.00  0.00    -0.070 N 
ATOM      3  C1  UNL d   1       3.468  -1.626   2.504  0.00  0.00    -0.004 A 
ATOM      4  C2  UNL d   1       2.838  -2.728   3.041  0.00  0.00    -0.047 A 
ATOM      5  C3  UNL d   1       1.550  -2.804   2.459  0.00  0.00    -0.047 A 
ATOM      6  C4  UNL d   1       1.432  -1.745   1.583  0.00  0.00    -0.004 A 
ENDROOT
TORSDOF 0
ENDMDL
