MODEL 1
REMARK minimizedAffinity 2.83880806
REMARK minimizedRMSD -1
REMARK  0 active torsions:
REMARK  status: ('A' for Active; 'I' for Inactive)
ROOT
ATOM      1  C   UNL d   1       2.369   0.582   0.899  0.00  0.00     0.172 C 
ATOM      2  N   UNL d   1       2.417  -0.790   1.348  0.00  0.00    -0.070 N 
ATOM      3  C1  UNL d   1       3.553  -1.538   1.506  0.00  0.00    -0.004 A 
ATOM      4  C2  UNL d   1       3.177  -2.788   1.948  0.00  0.00    -0.047 A 
ATOM      5  C3  UNL d   1       1.766  -2.792   2.058  0.00  0.00    -0.047 A 
ATOM      6  C4  UNL d   1       1.322  -1.542   1.680  0.00  0.00    -0.004 A 
ENDROOT
TORSDOF 0
ENDMDL
