MODEL 1
REMARK minimizedAffinity 0.267636448
REMARK minimizedRMSD -1
REMARK  0 active torsions:
REMARK  status: ('A' for Active; 'I' for Inactive)
ROOT
ATOM      1  C   UNL d   1       1.362  -2.238   1.064  0.00  0.00     0.172 C 
ATOM      2  N   UNL d   1       0.909  -2.232  -0.307  0.00  0.00    -0.070 N 
ATOM      3  C1  UNL d   1      -0.345  -1.881  -0.732  0.00  0.00    -0.004 A 
ATOM      4  C2  UNL d   1      -0.376  -2.007  -2.104  0.00  0.00    -0.047 A 
ATOM      5  C3  UNL d   1       0.903  -2.450  -2.518  0.00  0.00    -0.047 A 
ATOM      6  C4  UNL d   1       1.679  -2.581  -1.386  0.00  0.00    -0.004 A 
ENDROOT
TORSDOF 0
ENDMDL
