MODEL 1
REMARK minimizedAffinity 1.90936494
REMARK minimizedRMSD -1
REMARK  0 active torsions:
REMARK  status: ('A' for Active; 'I' for Inactive)
ROOT
ATOM      1  C   UNL d   1       1.673  -2.148   1.443  0.00  0.00     0.172 C 
ATOM      2  N   UNL d   1       0.825  -1.897   0.301  0.00  0.00    -0.070 N 
ATOM      3  C1  UNL d   1      -0.413  -1.314   0.340  0.00  0.00    -0.004 A 
ATOM      4  C2  UNL d   1      -0.891  -1.253  -0.951  0.00  0.00    -0.047 A 
ATOM      5  C3  UNL d   1       0.093  -1.821  -1.795  0.00  0.00    -0.047 A 
ATOM      6  C4  UNL d   1       1.145  -2.211  -0.993  0.00  0.00    -0.004 A 
ENDROOT
TORSDOF 0
ENDMDL
