MODEL 1
REMARK minimizedAffinity -2.69980884
REMARK minimizedRMSD -1
REMARK  0 active torsions:
REMARK  status: ('A' for Active; 'I' for Inactive)
ROOT
ATOM      1  C   UNL d   1       0.445  -2.906   2.311  0.00  0.00     0.172 C 
ATOM      2  N   UNL d   1       1.710  -2.286   1.992  0.00  0.00    -0.070 N 
ATOM      3  C1  UNL d   1       2.740  -2.876   1.310  0.00  0.00    -0.004 A 
ATOM      4  C2  UNL d   1       3.763  -1.959   1.212  0.00  0.00    -0.047 A 
ATOM      5  C3  UNL d   1       3.334  -0.776   1.860  0.00  0.00    -0.047 A 
ATOM      6  C4  UNL d   1       2.060  -1.006   2.333  0.00  0.00    -0.004 A 
ENDROOT
TORSDOF 0
ENDMDL
