MODEL 1
REMARK minimizedAffinity -0.371626526
REMARK minimizedRMSD -1
REMARK  0 active torsions:
REMARK  status: ('A' for Active; 'I' for Inactive)
ROOT
ATOM      1  C   UNL d   1       0.664  -3.014   3.945  0.00  0.00     0.172 C 
ATOM      2  N   UNL d   1       0.891  -2.268   2.730  0.00  0.00    -0.070 N 
ATOM      3  C1  UNL d   1      -0.064  -1.592   2.018  0.00  0.00    -0.004 A 
ATOM      4  C2  UNL d   1       0.552  -1.014   0.930  0.00  0.00    -0.047 A 
ATOM      5  C3  UNL d   1       1.924  -1.354   0.989  0.00  0.00    -0.047 A 
ATOM      6  C4  UNL d   1       2.107  -2.131   2.113  0.00  0.00    -0.004 A 
ENDROOT
TORSDOF 0
ENDMDL
