MODEL 1
REMARK minimizedAffinity -0.442561746
REMARK minimizedRMSD -1
REMARK  0 active torsions:
REMARK  status: ('A' for Active; 'I' for Inactive)
ROOT
ATOM      1  C   UNL d   1       3.246  -5.201  -0.599  0.00  0.00     0.172 C 
ATOM      2  N   UNL d   1       2.915  -4.025  -1.369  0.00  0.00    -0.070 N 
ATOM      3  C1  UNL d   1       2.102  -3.003  -0.956  0.00  0.00    -0.004 A 
ATOM      4  C2  UNL d   1       2.041  -2.075  -1.973  0.00  0.00    -0.047 A 
ATOM      5  C3  UNL d   1       2.843  -2.557  -3.035  0.00  0.00    -0.047 A 
ATOM      6  C4  UNL d   1       3.373  -3.765  -2.634  0.00  0.00    -0.004 A 
ENDROOT
TORSDOF 0
ENDMDL
