MODEL 1
REMARK minimizedAffinity 4.4605217
REMARK minimizedRMSD -1
REMARK  0 active torsions:
REMARK  status: ('A' for Active; 'I' for Inactive)
ROOT
ATOM      1  C   UNL d   1       0.861  -2.292   2.218  0.00  0.00     0.172 C 
ATOM      2  N   UNL d   1       1.772  -1.196   1.981  0.00  0.00    -0.070 N 
ATOM      3  C1  UNL d   1       1.639   0.073   2.477  0.00  0.00    -0.004 A 
ATOM      4  C2  UNL d   1       2.708   0.816   2.024  0.00  0.00    -0.047 A 
ATOM      5  C3  UNL d   1       3.509  -0.036   1.227  0.00  0.00    -0.047 A 
ATOM      6  C4  UNL d   1       2.906  -1.276   1.218  0.00  0.00    -0.004 A 
ENDROOT
TORSDOF 0
ENDMDL
