MODEL 1
REMARK minimizedAffinity -5.24484777
REMARK minimizedRMSD -1
REMARK  2 active torsions:
REMARK  status: ('A' for Active; 'I' for Inactive)
REMARK    1  A    between atoms: C2'_3  and  C1'_4 
REMARK    2  A    between atoms: C1'_4  and  C1_5 
ROOT
ATOM      1  C1  I4B d   1       0.154   0.408   0.360  0.00  0.00    -0.075 A 
ATOM      2  C2  I4B d   1       0.090  -0.870  -0.135  0.00  0.00     0.003 A 
ATOM      3  C3  I4B d   1       1.151  -1.778   0.096  0.00  0.00     0.002 A 
ATOM      4  C4  I4B d   1       2.272  -1.354   0.780  0.00  0.00    -0.004 A 
ATOM      5  C5  I4B d   1       2.326  -0.064   1.300  0.00  0.00     0.002 A 
ATOM      6  C6  I4B d   1       1.255   0.819   1.100  0.00  0.00     0.003 A 
ENDROOT
BRANCH   1   7
ATOM      7  C1' I4B d   1      -0.970   1.351   0.069  0.00  0.00     0.060 C 
BRANCH   7   8
ATOM      8  C2' I4B d   1      -2.230   0.780   0.687  0.00  0.00    -0.013 C 
ATOM      9  C4' I4B d   1      -2.747   1.666   1.790  0.00  0.00     0.013 C 
ATOM     10  C3' I4B d   1      -3.249   0.622  -0.402  0.00  0.00     0.013 C 
ENDBRANCH   7   8
ENDBRANCH   1   7
TORSDOF 2
ENDMDL
