MODEL 1
REMARK minimizedAffinity 0.358546287
REMARK minimizedRMSD -1
REMARK  2 active torsions:
REMARK  status: ('A' for Active; 'I' for Inactive)
REMARK    1  A    between atoms: C2'_3  and  C1'_4 
REMARK    2  A    between atoms: C1'_4  and  C1_5 
ROOT
ATOM      1  C1  I4B d   1       0.485  -1.352   0.034  0.00  0.00    -0.075 A 
ATOM      2  C2  I4B d   1       0.704  -0.755   1.250  0.00  0.00     0.003 A 
ATOM      3  C3  I4B d   1       1.999  -0.760   1.824  0.00  0.00     0.002 A 
ATOM      4  C4  I4B d   1       3.027  -1.414   1.176  0.00  0.00    -0.004 A 
ATOM      5  C5  I4B d   1       2.808  -1.999  -0.068  0.00  0.00     0.002 A 
ATOM      6  C6  I4B d   1       1.532  -1.958  -0.649  0.00  0.00     0.003 A 
ENDROOT
BRANCH   1   7
ATOM      7  C1' I4B d   1      -0.901  -1.356  -0.528  0.00  0.00     0.060 C 
BRANCH   7   8
ATOM      8  C2' I4B d   1      -0.813  -0.973  -1.991  0.00  0.00    -0.013 C 
ATOM      9  C4' I4B d   1      -0.994  -2.174  -2.881  0.00  0.00     0.013 C 
ATOM     10  C3' I4B d   1      -1.861   0.064  -2.262  0.00  0.00     0.013 C 
ENDBRANCH   7   8
ENDBRANCH   1   7
TORSDOF 2
ENDMDL
