MODEL 1
REMARK minimizedAffinity -2.90803385
REMARK minimizedRMSD -1
REMARK  2 active torsions:
REMARK  status: ('A' for Active; 'I' for Inactive)
REMARK    1  A    between atoms: C2'_3  and  C1'_4 
REMARK    2  A    between atoms: C1'_4  and  C1_5 
ROOT
ATOM      1  C1  I4B d   1      -0.899   0.745  -0.008  0.00  0.00    -0.075 A 
ATOM      2  C2  I4B d   1      -0.122   1.875   0.044  0.00  0.00     0.003 A 
ATOM      3  C3  I4B d   1       1.198   1.810   0.552  0.00  0.00     0.002 A 
ATOM      4  C4  I4B d   1       1.680   0.613   1.041  0.00  0.00    -0.004 A 
ATOM      5  C5  I4B d   1       0.899  -0.537   0.966  0.00  0.00     0.002 A 
ATOM      6  C6  I4B d   1      -0.394  -0.474   0.427  0.00  0.00     0.003 A 
ENDROOT
BRANCH   1   7
ATOM      7  C1' I4B d   1      -2.300   0.856  -0.520  0.00  0.00     0.060 C 
BRANCH   7   8
ATOM      8  C2' I4B d   1      -3.235   0.382   0.573  0.00  0.00    -0.013 C 
ATOM      9  C4' I4B d   1      -3.654   1.521   1.464  0.00  0.00     0.013 C 
ATOM     10  C3' I4B d   1      -4.423  -0.260  -0.080  0.00  0.00     0.013 C 
ENDBRANCH   7   8
ENDBRANCH   1   7
TORSDOF 2
ENDMDL
