MODEL 1
REMARK minimizedAffinity -4.328197
REMARK minimizedRMSD -1
REMARK  2 active torsions:
REMARK  status: ('A' for Active; 'I' for Inactive)
REMARK    1  A    between atoms: C2'_3  and  C1'_4 
REMARK    2  A    between atoms: C1'_4  and  C1_5 
ROOT
ATOM      1  C1  I4B d   1       0.371  -0.943   0.485  0.00  0.00    -0.075 A 
ATOM      2  C2  I4B d   1      -0.514   0.006   0.933  0.00  0.00     0.003 A 
ATOM      3  C3  I4B d   1      -1.628   0.374   0.140  0.00  0.00     0.002 A 
ATOM      4  C4  I4B d   1      -1.789  -0.192  -1.109  0.00  0.00    -0.004 A 
ATOM      5  C5  I4B d   1      -0.903  -1.170  -1.552  0.00  0.00     0.002 A 
ATOM      6  C6  I4B d   1       0.176  -1.557  -0.746  0.00  0.00     0.003 A 
ENDROOT
BRANCH   1   7
ATOM      7  C1' I4B d   1       1.554  -1.283   1.334  0.00  0.00     0.060 C 
BRANCH   7   8
ATOM      8  C2' I4B d   1       2.769  -0.604   0.736  0.00  0.00    -0.013 C 
ATOM      9  C4' I4B d   1       2.624   0.895   0.762  0.00  0.00     0.013 C 
ATOM     10  C3' I4B d   1       3.975  -1.044   1.512  0.00  0.00     0.013 C 
ENDBRANCH   7   8
ENDBRANCH   1   7
TORSDOF 2
ENDMDL
