MODEL 1
REMARK minimizedAffinity -3.31176853
REMARK minimizedRMSD -1
REMARK  2 active torsions:
REMARK  status: ('A' for Active; 'I' for Inactive)
REMARK    1  A    between atoms: C2'_3  and  C1'_4 
REMARK    2  A    between atoms: C1'_4  and  C1_5 
ROOT
ATOM      1  C1  I4B d   1      -0.837   0.362  -0.305  0.00  0.00    -0.075 A 
ATOM      2  C2  I4B d   1       0.368   0.998  -0.471  0.00  0.00     0.003 A 
ATOM      3  C3  I4B d   1       1.579   0.273  -0.348  0.00  0.00     0.002 A 
ATOM      4  C4  I4B d   1       1.540  -1.064  -0.012  0.00  0.00    -0.004 A 
ATOM      5  C5  I4B d   1       0.316  -1.712   0.133  0.00  0.00     0.002 A 
ATOM      6  C6  I4B d   1      -0.880  -0.998  -0.026  0.00  0.00     0.003 A 
ENDROOT
BRANCH   1   7
ATOM      7  C1' I4B d   1      -2.095   1.164  -0.408  0.00  0.00     0.060 C 
BRANCH   7   8
ATOM      8  C2' I4B d   1      -2.969   0.817   0.780  0.00  0.00    -0.013 C 
ATOM      9  C4' I4B d   1      -2.652   1.692   1.964  0.00  0.00     0.013 C 
ATOM     10  C3' I4B d   1      -4.401   0.970   0.362  0.00  0.00     0.013 C 
ENDBRANCH   7   8
ENDBRANCH   1   7
TORSDOF 2
ENDMDL
