MODEL 1
REMARK minimizedAffinity -2.55495381
REMARK minimizedRMSD -1
REMARK  2 active torsions:
REMARK  status: ('A' for Active; 'I' for Inactive)
REMARK    1  A    between atoms: C2'_3  and  C1'_4 
REMARK    2  A    between atoms: C1'_4  and  C1_5 
ROOT
ATOM      1  C1  I4B d   1       0.678   0.126   0.417  0.00  0.00    -0.075 A 
ATOM      2  C2  I4B d   1       1.679   0.498   1.279  0.00  0.00     0.003 A 
ATOM      3  C3  I4B d   1       2.277   1.777   1.167  0.00  0.00     0.002 A 
ATOM      4  C4  I4B d   1       1.880   2.626   0.154  0.00  0.00    -0.004 A 
ATOM      5  C5  I4B d   1       0.849   2.256  -0.705  0.00  0.00     0.002 A 
ATOM      6  C6  I4B d   1       0.235   1.002  -0.565  0.00  0.00     0.003 A 
ENDROOT
BRANCH   1   7
ATOM      7  C1' I4B d   1       0.091  -1.245   0.543  0.00  0.00     0.060 C 
BRANCH   7   8
ATOM      8  C2' I4B d   1       0.675  -2.105  -0.560  0.00  0.00    -0.013 C 
ATOM      9  C4' I4B d   1      -0.120  -1.974  -1.832  0.00  0.00     0.013 C 
ATOM     10  C3' I4B d   1       2.100  -1.689  -0.767  0.00  0.00     0.013 C 
ENDBRANCH   7   8
ENDBRANCH   1   7
TORSDOF 2
ENDMDL
