MODEL 1
REMARK minimizedAffinity 4.90672874
REMARK minimizedRMSD -1
REMARK  1 active torsions:
REMARK  status: ('A' for Active; 'I' for Inactive)
REMARK    1  A    between atoms: C3_4  and  O_7 
ROOT
ATOM      1  C   UNL d   1      -0.636  -1.944   3.260  0.00  0.00    -0.033 A 
ATOM      2  C1  UNL d   1       0.309  -1.025   2.798  0.00  0.00     0.039 A 
ATOM      3  C2  UNL d   1       1.395  -1.461   2.037  0.00  0.00    -0.080 A 
ATOM      4  C3  UNL d   1       1.524  -2.815   1.743  0.00  0.00     0.150 A 
ATOM      5  C4  UNL d   1       0.585  -3.736   2.196  0.00  0.00    -0.007 A 
ATOM      6  C5  UNL d   1      -0.499  -3.299   2.958  0.00  0.00     0.039 A 
ENDROOT
BRANCH   4   7
ATOM      7  O   UNL d   1       2.570  -3.288   1.008  0.00  0.00    -0.526 OA
ATOM      8  H5  UNL d   1       3.154  -2.543   0.788  0.00  0.00     0.418 HD
ENDBRANCH   4   7
TORSDOF 1
ENDMDL
