MODEL 1
REMARK minimizedAffinity -0.960811734
REMARK minimizedRMSD -1
REMARK  1 active torsions:
REMARK  status: ('A' for Active; 'I' for Inactive)
REMARK    1  A    between atoms: C3_4  and  O_7 
ROOT
ATOM      1  C   UNL d   1       1.804  -4.168   2.146  0.00  0.00    -0.033 A 
ATOM      2  C1  UNL d   1       0.727  -4.259   3.030  0.00  0.00     0.039 A 
ATOM      3  C2  UNL d   1       0.017  -3.112   3.390  0.00  0.00    -0.080 A 
ATOM      4  C3  UNL d   1       0.393  -1.881   2.858  0.00  0.00     0.150 A 
ATOM      5  C4  UNL d   1       1.463  -1.783   1.974  0.00  0.00    -0.007 A 
ATOM      6  C5  UNL d   1       2.171  -2.930   1.617  0.00  0.00     0.039 A 
ENDROOT
BRANCH   4   7
ATOM      7  O   UNL d   1      -0.266  -0.733   3.183  0.00  0.00    -0.526 OA
ATOM      8  H5  UNL d   1      -0.963  -0.950   3.825  0.00  0.00     0.418 HD
ENDBRANCH   4   7
TORSDOF 1
ENDMDL
