MODEL 1
REMARK minimizedAffinity 1.90750897
REMARK minimizedRMSD -1
REMARK  1 active torsions:
REMARK  status: ('A' for Active; 'I' for Inactive)
REMARK    1  A    between atoms: C3_4  and  O_7 
ROOT
ATOM      1  C   UNL d   1       0.706  -0.574   3.134  0.00  0.00    -0.033 A 
ATOM      2  C1  UNL d   1      -0.369  -1.460   3.222  0.00  0.00     0.039 A 
ATOM      3  C2  UNL d   1      -0.379  -2.627   2.455  0.00  0.00    -0.080 A 
ATOM      4  C3  UNL d   1       0.691  -2.895   1.606  0.00  0.00     0.150 A 
ATOM      5  C4  UNL d   1       1.767  -2.018   1.516  0.00  0.00    -0.007 A 
ATOM      6  C5  UNL d   1       1.775  -0.853   2.282  0.00  0.00     0.039 A 
ENDROOT
BRANCH   4   7
ATOM      7  O   UNL d   1       0.723  -4.018   0.834  0.00  0.00    -0.526 OA
ATOM      8  H5  UNL d   1      -0.099  -4.515   0.979  0.00  0.00     0.418 HD
ENDBRANCH   4   7
TORSDOF 1
ENDMDL
