MODEL 1
REMARK minimizedAffinity -0.551487267
REMARK minimizedRMSD -1
REMARK  1 active torsions:
REMARK  status: ('A' for Active; 'I' for Inactive)
REMARK    1  A    between atoms: C3_4  and  O_7 
ROOT
ATOM      1  C   UNL d   1       6.000   5.874   4.993  0.00  0.00    -0.033 A 
ATOM      2  C1  UNL d   1       4.796   5.990   5.690  0.00  0.00     0.039 A 
ATOM      3  C2  UNL d   1       3.588   5.695   5.054  0.00  0.00    -0.080 A 
ATOM      4  C3  UNL d   1       3.598   5.286   3.724  0.00  0.00     0.150 A 
ATOM      5  C4  UNL d   1       4.795   5.165   3.025  0.00  0.00    -0.007 A 
ATOM      6  C5  UNL d   1       6.000   5.461   3.661  0.00  0.00     0.039 A 
ENDROOT
BRANCH   4   7
ATOM      7  O   UNL d   1       2.445   4.993   3.060  0.00  0.00    -0.526 OA
ATOM      8  H5  UNL d   1       1.696   5.148   3.659  0.00  0.00     0.418 HD
ENDBRANCH   4   7
TORSDOF 1
ENDMDL
