MODEL 1
REMARK minimizedAffinity 9.5731144
REMARK minimizedRMSD -1
REMARK  1 active torsions:
REMARK  status: ('A' for Active; 'I' for Inactive)
REMARK    1  A    between atoms: C3_4  and  O_7 
ROOT
ATOM      1  C   UNL d   1       1.577  -1.903   1.426  0.00  0.00    -0.033 A 
ATOM      2  C1  UNL d   1       0.264  -2.287   1.148  0.00  0.00     0.039 A 
ATOM      3  C2  UNL d   1      -0.801  -1.653   1.792  0.00  0.00    -0.080 A 
ATOM      4  C3  UNL d   1      -0.539  -0.639   2.709  0.00  0.00     0.150 A 
ATOM      5  C4  UNL d   1       0.767  -0.249   2.987  0.00  0.00    -0.007 A 
ATOM      6  C5  UNL d   1       1.829  -0.883   2.344  0.00  0.00     0.039 A 
ENDROOT
BRANCH   4   7
ATOM      7  O   UNL d   1      -1.545   0.006   3.365  0.00  0.00    -0.526 OA
ATOM      8  H5  UNL d   1      -2.391  -0.388   3.094  0.00  0.00     0.418 HD
ENDBRANCH   4   7
TORSDOF 1
ENDMDL
