MODEL 1
REMARK minimizedAffinity 2.99520588
REMARK minimizedRMSD -1
REMARK  1 active torsions:
REMARK  status: ('A' for Active; 'I' for Inactive)
REMARK    1  A    between atoms: C3_4  and  O_7 
ROOT
ATOM      1  C   UNL d   1       5.244   4.762  -5.827  0.00  0.00    -0.033 A 
ATOM      2  C1  UNL d   1       4.568   5.972  -5.994  0.00  0.00     0.039 A 
ATOM      3  C2  UNL d   1       3.172   6.000  -5.999  0.00  0.00    -0.080 A 
ATOM      4  C3  UNL d   1       2.465   4.812  -5.834  0.00  0.00     0.150 A 
ATOM      5  C4  UNL d   1       3.131   3.604  -5.663  0.00  0.00    -0.007 A 
ATOM      6  C5  UNL d   1       4.525   3.578  -5.660  0.00  0.00     0.039 A 
ENDROOT
BRANCH   4   7
ATOM      7  O   UNL d   1       1.102   4.789  -5.836  0.00  0.00    -0.526 OA
ATOM      8  H5  UNL d   1       0.778   5.692  -5.993  0.00  0.00     0.418 HD
ENDBRANCH   4   7
TORSDOF 1
ENDMDL
