MODEL 1
REMARK minimizedAffinity -3.0389843
REMARK minimizedRMSD -1
REMARK  1 active torsions:
REMARK  status: ('A' for Active; 'I' for Inactive)
REMARK    1  A    between atoms: N_2  and  C1_3 
ROOT
ATOM      1  C1  UNL d   1      -0.609   1.556  -0.155  0.00  0.00     0.143 A 
ATOM      2  C2  UNL d   1      -1.936   1.989  -0.061  0.00  0.00    -0.057 A 
ATOM      3  C3  UNL d   1      -2.757   2.064  -1.192  0.00  0.00     0.033 A 
ATOM      4  C4  UNL d   1      -2.255   1.735  -2.447  0.00  0.00    -0.042 A 
ATOM      5  C5  UNL d   1      -0.931   1.326  -2.568  0.00  0.00     0.033 A 
ATOM      6  C6  UNL d   1      -0.118   1.247  -1.433  0.00  0.00    -0.057 A 
ENDROOT
BRANCH   1   7
ATOM      7  N   UNL d   1       0.287   1.554   0.917  0.00  0.00    -0.732 N 
ATOM      8  C   UNL d   1       0.364   2.686   1.816  0.00  0.00     0.284 C 
ATOM      9  H3  UNL d   1       0.334   0.650   1.382  0.00  0.00     0.395 HD
ENDBRANCH   1   7
TORSDOF 1
ENDMDL
