MODEL 1
REMARK minimizedAffinity 4.50874329
REMARK minimizedRMSD -1
REMARK  1 active torsions:
REMARK  status: ('A' for Active; 'I' for Inactive)
REMARK    1  A    between atoms: N_2  and  C1_3 
ROOT
ATOM      1  C1  UNL d   1      -0.110   0.689   1.313  0.00  0.00     0.143 A 
ATOM      2  C2  UNL d   1      -0.052   0.909  -0.068  0.00  0.00    -0.057 A 
ATOM      3  C3  UNL d   1       0.704   0.079  -0.904  0.00  0.00     0.033 A 
ATOM      4  C4  UNL d   1       1.442  -0.971  -0.369  0.00  0.00    -0.042 A 
ATOM      5  C5  UNL d   1       1.420  -1.193   1.004  0.00  0.00     0.033 A 
ATOM      6  C6  UNL d   1       0.658  -0.365   1.833  0.00  0.00    -0.057 A 
ENDROOT
BRANCH   1   7
ATOM      7  N   UNL d   1      -0.764   1.538   2.209  0.00  0.00    -0.732 N 
ATOM      8  C   UNL d   1      -0.369   2.924   2.333  0.00  0.00     0.284 C 
ATOM      9  H3  UNL d   1      -1.771   1.390   2.219  0.00  0.00     0.395 HD
ENDBRANCH   1   7
TORSDOF 1
ENDMDL
