MODEL 1
REMARK minimizedAffinity 0.310931176
REMARK minimizedRMSD -1
REMARK  1 active torsions:
REMARK  status: ('A' for Active; 'I' for Inactive)
REMARK    1  A    between atoms: N_2  and  C1_3 
ROOT
ATOM      1  C1  UNL d   1       0.317   0.519   0.186  0.00  0.00     0.143 A 
ATOM      2  C2  UNL d   1       0.931  -0.656   0.631  0.00  0.00    -0.057 A 
ATOM      3  C3  UNL d   1       1.094  -0.918   1.997  0.00  0.00     0.033 A 
ATOM      4  C4  UNL d   1       0.669   0.007   2.944  0.00  0.00    -0.042 A 
ATOM      5  C5  UNL d   1       0.078   1.194   2.524  0.00  0.00     0.033 A 
ATOM      6  C6  UNL d   1      -0.087   1.447   1.159  0.00  0.00    -0.057 A 
ENDROOT
BRANCH   1   7
ATOM      7  N   UNL d   1       0.215   0.882  -1.160  0.00  0.00    -0.732 N 
ATOM      8  C   UNL d   1      -0.618   1.995  -1.562  0.00  0.00     0.284 C 
ATOM      9  H3  UNL d   1       1.109   0.837  -1.643  0.00  0.00     0.395 HD
ENDBRANCH   1   7
TORSDOF 1
ENDMDL
