MODEL 1
REMARK minimizedAffinity 4.98423481
REMARK minimizedRMSD -1
REMARK  1 active torsions:
REMARK  status: ('A' for Active; 'I' for Inactive)
REMARK    1  A    between atoms: N_2  and  C1_3 
ROOT
ATOM      1  C1  UNL d   1      -0.137   2.662   0.795  0.00  0.00     0.143 A 
ATOM      2  C2  UNL d   1      -0.248   1.574  -0.077  0.00  0.00    -0.057 A 
ATOM      3  C3  UNL d   1      -0.408   1.761  -1.456  0.00  0.00     0.033 A 
ATOM      4  C4  UNL d   1      -0.490   3.044  -1.985  0.00  0.00    -0.042 A 
ATOM      5  C5  UNL d   1      -0.408   4.141  -1.134  0.00  0.00     0.033 A 
ATOM      6  C6  UNL d   1      -0.241   3.948   0.241  0.00  0.00    -0.057 A 
ENDROOT
BRANCH   1   7
ATOM      7  N   UNL d   1      -0.076   2.542   2.185  0.00  0.00    -0.732 N 
ATOM      8  C   UNL d   1      -0.147   1.242   2.816  0.00  0.00     0.284 C 
ATOM      9  H3  UNL d   1       0.611   3.168   2.599  0.00  0.00     0.395 HD
ENDBRANCH   1   7
TORSDOF 1
ENDMDL
