MODEL 1
REMARK minimizedAffinity 2.26406908
REMARK minimizedRMSD -1
REMARK  1 active torsions:
REMARK  status: ('A' for Active; 'I' for Inactive)
REMARK    1  A    between atoms: N_2  and  C1_3 
ROOT
ATOM      1  C1  UNL d   1       0.824  -0.229  -1.940  0.00  0.00     0.143 A 
ATOM      2  C2  UNL d   1       0.080  -1.407  -1.824  0.00  0.00    -0.057 A 
ATOM      3  C3  UNL d   1       0.672  -2.601  -1.393  0.00  0.00     0.033 A 
ATOM      4  C4  UNL d   1       2.031  -2.643  -1.098  0.00  0.00    -0.042 A 
ATOM      5  C5  UNL d   1       2.796  -1.489  -1.230  0.00  0.00     0.033 A 
ATOM      6  C6  UNL d   1       2.197  -0.299  -1.655  0.00  0.00    -0.057 A 
ENDROOT
BRANCH   1   7
ATOM      7  N   UNL d   1       0.315   0.965  -2.457  0.00  0.00    -0.732 N 
ATOM      8  C   UNL d   1      -0.489   1.842  -1.632  0.00  0.00     0.284 C 
ATOM      9  H3  UNL d   1       0.987   1.451  -3.047  0.00  0.00     0.395 HD
ENDBRANCH   1   7
TORSDOF 1
ENDMDL
