MODEL 1
REMARK minimizedAffinity -3.92472434
REMARK minimizedRMSD -1
REMARK  1 active torsions:
REMARK  status: ('A' for Active; 'I' for Inactive)
REMARK    1  A    between atoms: N_2  and  C1_3 
ROOT
ATOM      1  C1  UNL d   1       0.303   1.172   0.120  0.00  0.00     0.143 A 
ATOM      2  C2  UNL d   1      -0.142   2.061  -0.864  0.00  0.00    -0.057 A 
ATOM      3  C3  UNL d   1      -0.422   3.399  -0.562  0.00  0.00     0.033 A 
ATOM      4  C4  UNL d   1      -0.291   3.866   0.742  0.00  0.00    -0.042 A 
ATOM      5  C5  UNL d   1       0.126   2.994   1.742  0.00  0.00     0.033 A 
ATOM      6  C6  UNL d   1       0.411   1.661   1.432  0.00  0.00    -0.057 A 
ENDROOT
BRANCH   1   7
ATOM      7  N   UNL d   1       0.504  -0.193  -0.097  0.00  0.00    -0.732 N 
ATOM      8  C   UNL d   1      -0.616  -1.069  -0.364  0.00  0.00     0.284 C 
ATOM      9  H3  UNL d   1       1.323  -0.378  -0.671  0.00  0.00     0.395 HD
ENDBRANCH   1   7
TORSDOF 1
ENDMDL
