MODEL 1
REMARK minimizedAffinity -1.76666558
REMARK minimizedRMSD -1
REMARK  1 active torsions:
REMARK  status: ('A' for Active; 'I' for Inactive)
REMARK    1  A    between atoms: N_2  and  C1_3 
ROOT
ATOM      1  C1  UNL d   1       0.369   3.207   0.090  0.00  0.00     0.143 A 
ATOM      2  C2  UNL d   1       0.360   2.389  -1.045  0.00  0.00    -0.057 A 
ATOM      3  C3  UNL d   1       0.388   0.994  -0.935  0.00  0.00     0.033 A 
ATOM      4  C4  UNL d   1       0.455   0.390   0.316  0.00  0.00    -0.042 A 
ATOM      5  C5  UNL d   1       0.490   1.184   1.457  0.00  0.00     0.033 A 
ATOM      6  C6  UNL d   1       0.456   2.577   1.341  0.00  0.00    -0.057 A 
ENDROOT
BRANCH   1   7
ATOM      7  N   UNL d   1       0.443   4.601   0.043  0.00  0.00    -0.732 N 
ATOM      8  C   UNL d   1       1.725   5.271  -0.003  0.00  0.00     0.284 C 
ATOM      9  H3  UNL d   1      -0.261   5.007  -0.570  0.00  0.00     0.395 HD
ENDBRANCH   1   7
TORSDOF 1
ENDMDL
