MODEL 1
REMARK minimizedAffinity -1.53456795
REMARK minimizedRMSD -1
REMARK  1 active torsions:
REMARK  status: ('A' for Active; 'I' for Inactive)
REMARK    1  A    between atoms: N_2  and  C1_3 
ROOT
ATOM      1  C1  UNL d   1       0.074  -1.045   2.732  0.00  0.00     0.143 A 
ATOM      2  C2  UNL d   1      -1.184  -1.591   2.452  0.00  0.00    -0.057 A 
ATOM      3  C3  UNL d   1      -2.229  -0.796   1.968  0.00  0.00     0.033 A 
ATOM      4  C4  UNL d   1      -2.044   0.570   1.781  0.00  0.00    -0.042 A 
ATOM      5  C5  UNL d   1      -0.810   1.139   2.076  0.00  0.00     0.033 A 
ATOM      6  C6  UNL d   1       0.233   0.338   2.553  0.00  0.00    -0.057 A 
ENDROOT
BRANCH   1   7
ATOM      7  N   UNL d   1       1.123  -1.764   3.308  0.00  0.00    -0.732 N 
ATOM      8  C   UNL d   1       1.632  -1.406   4.615  0.00  0.00     0.284 C 
ATOM      9  H3  UNL d   1       1.037  -2.767   3.157  0.00  0.00     0.395 HD
ENDBRANCH   1   7
TORSDOF 1
ENDMDL
