MODEL 1
REMARK minimizedAffinity 1.66603172
REMARK minimizedRMSD -1
REMARK  1 active torsions:
REMARK  status: ('A' for Active; 'I' for Inactive)
REMARK    1  A    between atoms: N_2  and  C1_3 
ROOT
ATOM      1  C1  UNL d   1      -1.867  -0.237   2.016  0.00  0.00     0.143 A 
ATOM      2  C2  UNL d   1      -1.924  -1.105   0.920  0.00  0.00    -0.057 A 
ATOM      3  C3  UNL d   1      -2.748  -0.834  -0.179  0.00  0.00     0.033 A 
ATOM      4  C4  UNL d   1      -3.553   0.300  -0.189  0.00  0.00    -0.042 A 
ATOM      5  C5  UNL d   1      -3.532   1.164   0.900  0.00  0.00     0.033 A 
ATOM      6  C6  UNL d   1      -2.702   0.891   1.992  0.00  0.00    -0.057 A 
ENDROOT
BRANCH   1   7
ATOM      7  N   UNL d   1      -1.144  -0.502   3.181  0.00  0.00    -0.732 N 
ATOM      8  C   UNL d   1       0.128  -1.191   3.119  0.00  0.00     0.284 C 
ATOM      9  H3  UNL d   1      -1.163   0.277   3.836  0.00  0.00     0.395 HD
ENDBRANCH   1   7
TORSDOF 1
ENDMDL
