MODEL 1
REMARK minimizedAffinity 6.80837154
REMARK minimizedRMSD -1
REMARK  1 active torsions:
REMARK  status: ('A' for Active; 'I' for Inactive)
REMARK    1  A    between atoms: N_2  and  C1_3 
ROOT
ATOM      1  C1  UNL d   1       1.677  -1.079  -4.629  0.00  0.00     0.143 A 
ATOM      2  C2  UNL d   1       1.145  -0.312  -5.671  0.00  0.00    -0.057 A 
ATOM      3  C3  UNL d   1      -0.215  -0.377  -6.000  0.00  0.00     0.033 A 
ATOM      4  C4  UNL d   1      -1.063  -1.235  -5.309  0.00  0.00    -0.042 A 
ATOM      5  C5  UNL d   1      -0.551  -2.026  -4.286  0.00  0.00     0.033 A 
ATOM      6  C6  UNL d   1       0.806  -1.952  -3.958  0.00  0.00    -0.057 A 
ENDROOT
BRANCH   1   7
ATOM      7  N   UNL d   1       3.038  -1.133  -4.319  0.00  0.00    -0.732 N 
ATOM      8  C   UNL d   1       4.032  -1.172  -5.370  0.00  0.00     0.284 C 
ATOM      9  H3  UNL d   1       3.282  -0.528  -3.538  0.00  0.00     0.395 HD
ENDBRANCH   1   7
TORSDOF 1
ENDMDL
