MODEL 1
REMARK minimizedAffinity -1.80813992
REMARK minimizedRMSD -1
REMARK  1 active torsions:
REMARK  status: ('A' for Active; 'I' for Inactive)
REMARK    1  A    between atoms: N_2  and  C1_3 
ROOT
ATOM      1  C1  UNL d   1       0.291  -0.932   3.184  0.00  0.00     0.143 A 
ATOM      2  C2  UNL d   1      -0.713  -1.901   3.080  0.00  0.00    -0.057 A 
ATOM      3  C3  UNL d   1      -1.888  -1.656   2.361  0.00  0.00     0.033 A 
ATOM      4  C4  UNL d   1      -2.095  -0.422   1.755  0.00  0.00    -0.042 A 
ATOM      5  C5  UNL d   1      -1.123   0.566   1.865  0.00  0.00     0.033 A 
ATOM      6  C6  UNL d   1       0.052   0.313   2.579  0.00  0.00    -0.057 A 
ENDROOT
BRANCH   1   7
ATOM      7  N   UNL d   1       1.438  -1.080   3.966  0.00  0.00    -0.732 N 
ATOM      8  C   UNL d   1       1.357  -1.029   5.410  0.00  0.00     0.284 C 
ATOM      9  H3  UNL d   1       2.061  -1.801   3.610  0.00  0.00     0.395 HD
ENDBRANCH   1   7
TORSDOF 1
ENDMDL
