MODEL 1
REMARK minimizedAffinity -1.31297183
REMARK minimizedRMSD -1
REMARK  1 active torsions:
REMARK  status: ('A' for Active; 'I' for Inactive)
REMARK    1  A    between atoms: N_2  and  C1_3 
ROOT
ATOM      1  C1  UNL d   1       0.265  -1.111   2.731  0.00  0.00     0.143 A 
ATOM      2  C2  UNL d   1      -0.056  -0.004   1.937  0.00  0.00    -0.057 A 
ATOM      3  C3  UNL d   1      -1.376   0.249   1.545  0.00  0.00     0.033 A 
ATOM      4  C4  UNL d   1      -2.397  -0.619   1.916  0.00  0.00    -0.042 A 
ATOM      5  C5  UNL d   1      -2.097  -1.739   2.684  0.00  0.00     0.033 A 
ATOM      6  C6  UNL d   1      -0.778  -1.983   3.078  0.00  0.00    -0.057 A 
ENDROOT
BRANCH   1   7
ATOM      7  N   UNL d   1       1.571  -1.471   3.071  0.00  0.00    -0.732 N 
ATOM      8  C   UNL d   1       2.078  -1.233   4.406  0.00  0.00     0.284 C 
ATOM      9  H3  UNL d   1       1.842  -2.370   2.679  0.00  0.00     0.395 HD
ENDBRANCH   1   7
TORSDOF 1
ENDMDL
