MODEL 1
REMARK minimizedAffinity 4.15749168
REMARK minimizedRMSD -1
REMARK  1 active torsions:
REMARK  status: ('A' for Active; 'I' for Inactive)
REMARK    1  A    between atoms: N_2  and  C1_3 
ROOT
ATOM      1  C1  UNL d   1       0.595  -0.437  -5.484  0.00  0.00     0.143 A 
ATOM      2  C2  UNL d   1       0.504  -1.576  -4.677  0.00  0.00    -0.057 A 
ATOM      3  C3  UNL d   1      -0.734  -2.046  -4.221  0.00  0.00     0.033 A 
ATOM      4  C4  UNL d   1      -1.904  -1.366  -4.543  0.00  0.00    -0.042 A 
ATOM      5  C5  UNL d   1      -1.835  -0.217  -5.323  0.00  0.00     0.033 A 
ATOM      6  C6  UNL d   1      -0.596   0.243  -5.781  0.00  0.00    -0.057 A 
ENDROOT
BRANCH   1   7
ATOM      7  N   UNL d   1       1.804   0.136  -5.887  0.00  0.00    -0.732 N 
ATOM      8  C   UNL d   1       3.058  -0.320  -5.327  0.00  0.00     0.284 C 
ATOM      9  H3  UNL d   1       1.835   0.313  -6.888  0.00  0.00     0.395 HD
ENDBRANCH   1   7
TORSDOF 1
ENDMDL
