MODEL 1
REMARK minimizedAffinity -1.817415
REMARK minimizedRMSD -1
REMARK  1 active torsions:
REMARK  status: ('A' for Active; 'I' for Inactive)
REMARK    1  A    between atoms: N_2  and  C1_3 
ROOT
ATOM      1  C1  UNL d   1      -2.912  -0.125   0.727  0.00  0.00     0.143 A 
ATOM      2  C2  UNL d   1      -2.868   0.649   1.892  0.00  0.00    -0.057 A 
ATOM      3  C3  UNL d   1      -1.789   0.565   2.780  0.00  0.00     0.033 A 
ATOM      4  C4  UNL d   1      -0.745  -0.320   2.533  0.00  0.00    -0.042 A 
ATOM      5  C5  UNL d   1      -0.779  -1.117   1.394  0.00  0.00     0.033 A 
ATOM      6  C6  UNL d   1      -1.856  -1.023   0.508  0.00  0.00    -0.057 A 
ENDROOT
BRANCH   1   7
ATOM      7  N   UNL d   1      -4.003  -0.158  -0.145  0.00  0.00    -0.732 N 
ATOM      8  C   UNL d   1      -5.180   0.643   0.117  0.00  0.00     0.284 C 
ATOM      9  H3  UNL d   1      -3.719  -0.173  -1.122  0.00  0.00     0.395 HD
ENDBRANCH   1   7
TORSDOF 1
ENDMDL
