MODEL 1
REMARK minimizedAffinity -4.27359915
REMARK minimizedRMSD -1
REMARK  1 active torsions:
REMARK  status: ('A' for Active; 'I' for Inactive)
REMARK    1  A    between atoms: N_2  and  C1_3 
ROOT
ATOM      1  C1  UNL d   1      -1.067  -0.633  -0.104  0.00  0.00     0.143 A 
ATOM      2  C2  UNL d   1      -0.814  -0.862   1.253  0.00  0.00    -0.057 A 
ATOM      3  C3  UNL d   1      -1.823  -0.724   2.213  0.00  0.00     0.033 A 
ATOM      4  C4  UNL d   1      -3.101  -0.326   1.836  0.00  0.00    -0.042 A 
ATOM      5  C5  UNL d   1      -3.370  -0.068   0.496  0.00  0.00     0.033 A 
ATOM      6  C6  UNL d   1      -2.359  -0.214  -0.459  0.00  0.00    -0.057 A 
ENDROOT
BRANCH   1   7
ATOM      7  N   UNL d   1      -0.082  -0.657  -1.094  0.00  0.00    -0.732 N 
ATOM      8  C   UNL d   1       0.109  -1.833  -1.915  0.00  0.00     0.284 C 
ATOM      9  H3  UNL d   1      -0.024   0.221  -1.605  0.00  0.00     0.395 HD
ENDBRANCH   1   7
TORSDOF 1
ENDMDL
