MODEL 1
REMARK minimizedAffinity 0.270678014
REMARK minimizedRMSD -1
REMARK  0 active torsions:
REMARK  status: ('A' for Active; 'I' for Inactive)
ROOT
ATOM      1  C2' OXE d   1       0.996   1.843   0.378  0.00  0.00     0.078 C 
ATOM      2  C1' OXE d   1       0.103  -0.414  -1.032  0.00  0.00     0.078 C 
ATOM      3  C1  OXE d   1      -0.874   0.271  -0.109  0.00  0.00    -0.078 A 
ATOM      4  C2  OXE d   1      -0.414   1.346   0.613  0.00  0.00    -0.078 A 
ATOM      5  C3  OXE d   1      -1.289   2.048   1.437  0.00  0.00     0.003 A 
ATOM      6  C4  OXE d   1      -2.589   1.576   1.656  0.00  0.00    -0.002 A 
ATOM      7  C5  OXE d   1      -3.065   0.459   0.961  0.00  0.00    -0.002 A 
ATOM      8  C6  OXE d   1      -2.235  -0.179   0.045  0.00  0.00     0.003 A 
ENDROOT
TORSDOF 0
ENDMDL
