MODEL 1
REMARK minimizedAffinity 0.600594997
REMARK minimizedRMSD -1
REMARK  0 active torsions:
REMARK  status: ('A' for Active; 'I' for Inactive)
ROOT
ATOM      1  C2' OXE d   1       0.814   2.227  -0.019  0.00  0.00     0.078 C 
ATOM      2  C1' OXE d   1       3.326   0.982  -0.165  0.00  0.00     0.078 C 
ATOM      3  C1  OXE d   1       2.100   0.113  -0.301  0.00  0.00    -0.078 A 
ATOM      4  C2  OXE d   1       0.875   0.724  -0.181  0.00  0.00    -0.078 A 
ATOM      5  C3  OXE d   1      -0.287  -0.023  -0.353  0.00  0.00     0.003 A 
ATOM      6  C4  OXE d   1      -0.222  -1.414  -0.493  0.00  0.00    -0.002 A 
ATOM      7  C5  OXE d   1       1.015  -2.062  -0.577  0.00  0.00    -0.002 A 
ATOM      8  C6  OXE d   1       2.184  -1.309  -0.525  0.00  0.00     0.003 A 
ENDROOT
TORSDOF 0
ENDMDL
