MODEL 1
REMARK minimizedAffinity -3.40940285
REMARK minimizedRMSD -1
REMARK  0 active torsions:
REMARK  status: ('A' for Active; 'I' for Inactive)
ROOT
ATOM      1  C2' OXE d   1       2.893  -2.206  -1.686  0.00  0.00     0.078 C 
ATOM      2  C1' OXE d   1       3.730  -1.332   0.847  0.00  0.00     0.078 C 
ATOM      3  C1  OXE d   1       2.283  -1.125   0.475  0.00  0.00    -0.078 A 
ATOM      4  C2  OXE d   1       1.893  -1.514  -0.784  0.00  0.00    -0.078 A 
ATOM      5  C3  OXE d   1       0.557  -1.396  -1.159  0.00  0.00     0.003 A 
ATOM      6  C4  OXE d   1      -0.359  -0.746  -0.323  0.00  0.00    -0.002 A 
ATOM      7  C5  OXE d   1       0.027  -0.307   0.948  0.00  0.00    -0.002 A 
ATOM      8  C6  OXE d   1       1.331  -0.527   1.378  0.00  0.00     0.003 A 
ENDROOT
TORSDOF 0
ENDMDL
