MODEL 1
REMARK minimizedAffinity -6.53501558
REMARK minimizedRMSD -1
REMARK  0 active torsions:
REMARK  status: ('A' for Active; 'I' for Inactive)
ROOT
ATOM      1  C2' OXE d   1      -0.354  -1.442  -0.487  0.00  0.00     0.078 C 
ATOM      2  C1' OXE d   1       2.379  -1.695   0.102  0.00  0.00     0.078 C 
ATOM      3  C1  OXE d   1       1.801  -0.304   0.031  0.00  0.00    -0.078 A 
ATOM      4  C2  OXE d   1       0.473  -0.188  -0.304  0.00  0.00    -0.078 A 
ATOM      5  C3  OXE d   1      -0.124   1.069  -0.330  0.00  0.00     0.003 A 
ATOM      6  C4  OXE d   1       0.650   2.225  -0.169  0.00  0.00    -0.002 A 
ATOM      7  C5  OXE d   1       2.013   2.130   0.134  0.00  0.00    -0.002 A 
ATOM      8  C6  OXE d   1       2.593   0.875   0.279  0.00  0.00     0.003 A 
ENDROOT
TORSDOF 0
ENDMDL
