MODEL 1
REMARK minimizedAffinity 1.84374571
REMARK minimizedRMSD -1
REMARK  0 active torsions:
REMARK  status: ('A' for Active; 'I' for Inactive)
ROOT
ATOM      1  C2' OXE d   1       3.353   0.634  -0.478  0.00  0.00     0.078 C 
ATOM      2  C1' OXE d   1       1.032   2.140  -0.006  0.00  0.00     0.078 C 
ATOM      3  C1  OXE d   1       0.873   0.659  -0.245  0.00  0.00    -0.078 A 
ATOM      4  C2  OXE d   1       2.010  -0.062  -0.522  0.00  0.00    -0.078 A 
ATOM      5  C3  OXE d   1       1.927  -1.440  -0.696  0.00  0.00     0.003 A 
ATOM      6  C4  OXE d   1       0.679  -2.074  -0.746  0.00  0.00    -0.002 A 
ATOM      7  C5  OXE d   1      -0.494  -1.352  -0.506  0.00  0.00    -0.002 A 
ATOM      8  C6  OXE d   1      -0.412   0.005  -0.213  0.00  0.00     0.003 A 
ENDROOT
TORSDOF 0
ENDMDL
