MODEL 1
REMARK minimizedAffinity -4.96391821
REMARK minimizedRMSD -1
REMARK  0 active torsions:
REMARK  status: ('A' for Active; 'I' for Inactive)
ROOT
ATOM      1  C2' OXE d   1      -0.688   0.447   0.067  0.00  0.00     0.078 C 
ATOM      2  C1' OXE d   1       0.051  -1.858  -1.353  0.00  0.00     0.078 C 
ATOM      3  C1  OXE d   1       1.106  -1.179  -0.517  0.00  0.00    -0.078 A 
ATOM      4  C2  OXE d   1       0.748  -0.025   0.137  0.00  0.00    -0.078 A 
ATOM      5  C3  OXE d   1       1.668   0.612   0.966  0.00  0.00     0.003 A 
ATOM      6  C4  OXE d   1       2.997   0.175   1.017  0.00  0.00    -0.002 A 
ATOM      7  C5  OXE d   1       3.393  -0.976   0.327  0.00  0.00    -0.002 A 
ATOM      8  C6  OXE d   1       2.452  -1.687  -0.409  0.00  0.00     0.003 A 
ENDROOT
TORSDOF 0
ENDMDL
