MODEL 1
REMARK minimizedAffinity -0.907087624
REMARK minimizedRMSD -1
REMARK  0 active torsions:
REMARK  status: ('A' for Active; 'I' for Inactive)
ROOT
ATOM      1  C2' OXE d   1      -1.202   0.540  -0.244  0.00  0.00     0.078 C 
ATOM      2  C1' OXE d   1       0.702   2.577   0.076  0.00  0.00     0.078 C 
ATOM      3  C1  OXE d   1       1.203   1.161  -0.069  0.00  0.00    -0.078 A 
ATOM      4  C2  OXE d   1       0.263   0.166  -0.178  0.00  0.00    -0.078 A 
ATOM      5  C3  OXE d   1       0.672  -1.151  -0.369  0.00  0.00     0.003 A 
ATOM      6  C4  OXE d   1       2.028  -1.490  -0.296  0.00  0.00    -0.002 A 
ATOM      7  C5  OXE d   1       3.001  -0.496  -0.146  0.00  0.00    -0.002 A 
ATOM      8  C6  OXE d   1       2.608   0.836  -0.073  0.00  0.00     0.003 A 
ENDROOT
TORSDOF 0
ENDMDL
