MODEL 1
REMARK minimizedAffinity 23.212347
REMARK minimizedRMSD -1
REMARK  0 active torsions:
REMARK  status: ('A' for Active; 'I' for Inactive)
ROOT
ATOM      1  C4' PXY d   1      -1.132   3.414  -3.713  0.00  0.00     0.077 C 
ATOM      2  C1' PXY d   1       0.464   1.742   1.586  0.00  0.00     0.077 C 
ATOM      3  C1  PXY d   1       0.055   2.190   0.196  0.00  0.00    -0.082 A 
ATOM      4  C2  PXY d   1      -1.178   1.964  -0.227  0.00  0.00     0.003 A 
ATOM      5  C3  PXY d   1      -1.555   2.333  -1.493  0.00  0.00     0.003 A 
ATOM      6  C4  PXY d   1      -0.677   2.988  -2.314  0.00  0.00    -0.082 A 
ATOM      7  C5  PXY d   1       0.579   3.232  -1.885  0.00  0.00     0.003 A 
ATOM      8  C6  PXY d   1       0.955   2.812  -0.613  0.00  0.00     0.003 A 
ENDROOT
TORSDOF 0
ENDMDL
