MODEL 1
REMARK minimizedAffinity 16.582325
REMARK minimizedRMSD -1
REMARK  0 active torsions:
REMARK  status: ('A' for Active; 'I' for Inactive)
ROOT
ATOM      1  C4' PXY d   1      -4.362   4.873  -3.131  0.00  0.00     0.077 C 
ATOM      2  C1' PXY d   1      -4.948   6.000   2.509  0.00  0.00     0.077 C 
ATOM      3  C1  PXY d   1      -4.807   5.704   1.029  0.00  0.00    -0.082 A 
ATOM      4  C2  PXY d   1      -3.686   5.170   0.572  0.00  0.00     0.003 A 
ATOM      5  C3  PXY d   1      -3.529   4.925  -0.768  0.00  0.00     0.003 A 
ATOM      6  C4  PXY d   1      -4.552   5.180  -1.643  0.00  0.00    -0.082 A 
ATOM      7  C5  PXY d   1      -5.703   5.714  -1.183  0.00  0.00     0.003 A 
ATOM      8  C6  PXY d   1      -5.826   5.993   0.175  0.00  0.00     0.003 A 
ENDROOT
TORSDOF 0
ENDMDL
