MODEL 1
REMARK minimizedAffinity 23.2522182
REMARK minimizedRMSD -1
REMARK  0 active torsions:
REMARK  status: ('A' for Active; 'I' for Inactive)
ROOT
ATOM      1  C4' PXY d   1       3.451   5.998  -4.486  0.00  0.00     0.077 C 
ATOM      2  C1' PXY d   1      -1.604   3.356  -3.546  0.00  0.00     0.077 C 
ATOM      3  C1  PXY d   1      -0.282   4.053  -3.805  0.00  0.00    -0.082 A 
ATOM      4  C2  PXY d   1       0.809   3.637  -3.183  0.00  0.00     0.003 A 
ATOM      5  C3  PXY d   1       2.006   4.277  -3.380  0.00  0.00     0.003 A 
ATOM      6  C4  PXY d   1       2.097   5.319  -4.264  0.00  0.00    -0.082 A 
ATOM      7  C5  PXY d   1       0.991   5.742  -4.910  0.00  0.00     0.003 A 
ATOM      8  C6  PXY d   1      -0.223   5.106  -4.665  0.00  0.00     0.003 A 
ENDROOT
TORSDOF 0
ENDMDL
