MODEL 1
REMARK minimizedAffinity 12.2303209
REMARK minimizedRMSD -1
REMARK  0 active torsions:
REMARK  status: ('A' for Active; 'I' for Inactive)
ROOT
ATOM      1  C4' PXY d   1      -3.333   1.260  -3.210  0.00  0.00     0.077 C 
ATOM      2  C1' PXY d   1       0.855   3.679  -0.044  0.00  0.00     0.077 C 
ATOM      3  C1  PXY d   1      -0.243   3.055  -0.883  0.00  0.00    -0.082 A 
ATOM      4  C2  PXY d   1      -1.120   2.243  -0.314  0.00  0.00     0.003 A 
ATOM      5  C3  PXY d   1      -2.099   1.645  -1.064  0.00  0.00     0.003 A 
ATOM      6  C4  PXY d   1      -2.214   1.921  -2.400  0.00  0.00    -0.082 A 
ATOM      7  C5  PXY d   1      -1.330   2.756  -2.986  0.00  0.00     0.003 A 
ATOM      8  C6  PXY d   1      -0.318   3.321  -2.215  0.00  0.00     0.003 A 
ENDROOT
TORSDOF 0
ENDMDL
