MODEL 1
REMARK minimizedAffinity 15.9858589
REMARK minimizedRMSD -1
REMARK  0 active torsions:
REMARK  status: ('A' for Active; 'I' for Inactive)
ROOT
ATOM      1  C4' PXY d   1      -4.664   5.719   3.900  0.00  0.00     0.077 C 
ATOM      2  C1' PXY d   1      -5.076   5.408  -1.858  0.00  0.00     0.077 C 
ATOM      3  C1  PXY d   1      -4.959   5.480  -0.348  0.00  0.00    -0.082 A 
ATOM      4  C2  PXY d   1      -5.990   5.896   0.369  0.00  0.00     0.003 A 
ATOM      5  C3  PXY d   1      -5.890   5.998   1.733  0.00  0.00     0.003 A 
ATOM      6  C4  PXY d   1      -4.740   5.620   2.374  0.00  0.00    -0.082 A 
ATOM      7  C5  PXY d   1      -3.687   5.185   1.650  0.00  0.00     0.003 A 
ATOM      8  C6  PXY d   1      -3.795   5.128   0.263  0.00  0.00     0.003 A 
ENDROOT
TORSDOF 0
ENDMDL
