MODEL 1
REMARK minimizedAffinity 14.1903439
REMARK minimizedRMSD -1
REMARK  0 active torsions:
REMARK  status: ('A' for Active; 'I' for Inactive)
ROOT
ATOM      1  C4' PXY d   1      -0.035   4.961  -4.258  0.00  0.00     0.077 C 
ATOM      2  C1' PXY d   1      -0.858   1.765   0.488  0.00  0.00     0.077 C 
ATOM      3  C1  PXY d   1      -0.633   2.610  -0.751  0.00  0.00    -0.082 A 
ATOM      4  C2  PXY d   1      -1.608   2.749  -1.634  0.00  0.00     0.003 A 
ATOM      5  C3  PXY d   1      -1.411   3.483  -2.775  0.00  0.00     0.003 A 
ATOM      6  C4  PXY d   1      -0.221   4.126  -2.989  0.00  0.00    -0.082 A 
ATOM      7  C5  PXY d   1       0.775   3.998  -2.087  0.00  0.00     0.003 A 
ATOM      8  C6  PXY d   1       0.569   3.215  -0.955  0.00  0.00     0.003 A 
ENDROOT
TORSDOF 0
ENDMDL
