MODEL 1
REMARK minimizedAffinity 21.0668182
REMARK minimizedRMSD -1
REMARK  0 active torsions:
REMARK  status: ('A' for Active; 'I' for Inactive)
ROOT
ATOM      1  C4' PXY d   1       1.328  -4.339  -2.068  0.00  0.00     0.077 C 
ATOM      2  C1' PXY d   1       2.094  -1.076   2.641  0.00  0.00     0.077 C 
ATOM      3  C1  PXY d   1       1.894  -1.942   1.414  0.00  0.00    -0.082 A 
ATOM      4  C2  PXY d   1       2.202  -1.465   0.219  0.00  0.00     0.003 A 
ATOM      5  C3  PXY d   1       1.998  -2.224  -0.905  0.00  0.00     0.003 A 
ATOM      6  C4  PXY d   1       1.522  -3.503  -0.800  0.00  0.00    -0.082 A 
ATOM      7  C5  PXY d   1       1.215  -4.001   0.417  0.00  0.00     0.003 A 
ATOM      8  C6  PXY d   1       1.391  -3.200   1.541  0.00  0.00     0.003 A 
ENDROOT
TORSDOF 0
ENDMDL
