MODEL 1
REMARK minimizedAffinity 9.60114193
REMARK minimizedRMSD -1
REMARK  0 active torsions:
REMARK  status: ('A' for Active; 'I' for Inactive)
ROOT
ATOM      1  C4' PXY d   1      -0.336  -2.508   5.060  0.00  0.00     0.077 C 
ATOM      2  C1' PXY d   1      -5.996  -3.682   5.064  0.00  0.00     0.077 C 
ATOM      3  C1  PXY d   1      -4.515  -3.363   5.069  0.00  0.00    -0.082 A 
ATOM      4  C2  PXY d   1      -3.721  -3.925   4.172  0.00  0.00     0.003 A 
ATOM      5  C3  PXY d   1      -2.374  -3.673   4.182  0.00  0.00     0.003 A 
ATOM      6  C4  PXY d   1      -1.840  -2.794   5.086  0.00  0.00    -0.082 A 
ATOM      7  C5  PXY d   1      -2.645  -2.207   5.998  0.00  0.00     0.003 A 
ATOM      8  C6  PXY d   1      -4.004  -2.509   5.997  0.00  0.00     0.003 A 
ENDROOT
TORSDOF 0
ENDMDL
