MODEL 1
REMARK minimizedAffinity 15.6492033
REMARK minimizedRMSD -1
REMARK  0 active torsions:
REMARK  status: ('A' for Active; 'I' for Inactive)
ROOT
ATOM      1  C4' PXY d   1      -1.167   3.361  -3.198  0.00  0.00     0.077 C 
ATOM      2  C1' PXY d   1       0.470   1.559   2.045  0.00  0.00     0.077 C 
ATOM      3  C1  PXY d   1       0.049   2.042   0.671  0.00  0.00    -0.082 A 
ATOM      4  C2  PXY d   1      -1.144   1.716   0.201  0.00  0.00     0.003 A 
ATOM      5  C3  PXY d   1      -1.528   2.117  -1.053  0.00  0.00     0.003 A 
ATOM      6  C4  PXY d   1      -0.704   2.904  -1.812  0.00  0.00    -0.082 A 
ATOM      7  C5  PXY d   1       0.511   3.249  -1.335  0.00  0.00     0.003 A 
ATOM      8  C6  PXY d   1       0.898   2.798  -0.076  0.00  0.00     0.003 A 
ENDROOT
TORSDOF 0
ENDMDL
