MODEL 1
REMARK minimizedAffinity 11.1141062
REMARK minimizedRMSD -1
REMARK  0 active torsions:
REMARK  status: ('A' for Active; 'I' for Inactive)
ROOT
ATOM      1  C4' PXY d   1      -5.269   6.000   3.454  0.00  0.00     0.077 C 
ATOM      2  C1' PXY d   1      -4.133   5.424  -2.184  0.00  0.00     0.077 C 
ATOM      3  C1  PXY d   1      -4.441   5.582  -0.709  0.00  0.00    -0.082 A 
ATOM      4  C2  PXY d   1      -3.467   5.470   0.179  0.00  0.00     0.003 A 
ATOM      5  C3  PXY d   1      -3.734   5.578   1.520  0.00  0.00     0.003 A 
ATOM      6  C4  PXY d   1      -5.002   5.857   1.953  0.00  0.00    -0.082 A 
ATOM      7  C5  PXY d   1      -6.000   5.984   1.053  0.00  0.00     0.003 A 
ATOM      8  C6  PXY d   1      -5.716   5.829  -0.301  0.00  0.00     0.003 A 
ENDROOT
TORSDOF 0
ENDMDL
