MODEL 1
REMARK minimizedAffinity 13.5329008
REMARK minimizedRMSD -1
REMARK  0 active torsions:
REMARK  status: ('A' for Active; 'I' for Inactive)
ROOT
ATOM      1  C4' PXY d   1       1.511  -5.611  -2.397  0.00  0.00     0.077 C 
ATOM      2  C1' PXY d   1       2.070  -1.126  -6.000  0.00  0.00     0.077 C 
ATOM      3  C1  PXY d   1       1.912  -2.305  -5.060  0.00  0.00    -0.082 A 
ATOM      4  C2  PXY d   1       2.554  -2.310  -3.903  0.00  0.00     0.003 A 
ATOM      5  C3  PXY d   1       2.447  -3.383  -3.056  0.00  0.00     0.003 A 
ATOM      6  C4  PXY d   1       1.633  -4.437  -3.372  0.00  0.00    -0.082 A 
ATOM      7  C5  PXY d   1       0.966  -4.435  -4.546  0.00  0.00     0.003 A 
ATOM      8  C6  PXY d   1       1.120  -3.355  -5.411  0.00  0.00     0.003 A 
ENDROOT
TORSDOF 0
ENDMDL
