MODEL 1
REMARK minimizedAffinity 14.4491539
REMARK minimizedRMSD -1
REMARK  0 active torsions:
REMARK  status: ('A' for Active; 'I' for Inactive)
ROOT
ATOM      1  C4' PXY d   1      -1.307   3.423  -2.763  0.00  0.00     0.077 C 
ATOM      2  C1' PXY d   1       0.599   1.310   2.268  0.00  0.00     0.077 C 
ATOM      3  C1  PXY d   1       0.108   1.873   0.949  0.00  0.00    -0.082 A 
ATOM      4  C2  PXY d   1      -1.138   1.647   0.564  0.00  0.00     0.003 A 
ATOM      5  C3  PXY d   1      -1.588   2.123  -0.641  0.00  0.00     0.003 A 
ATOM      6  C4  PXY d   1      -0.772   2.882  -1.435  0.00  0.00    -0.082 A 
ATOM      7  C5  PXY d   1       0.497   3.126  -1.045  0.00  0.00     0.003 A 
ATOM      8  C6  PXY d   1       0.948   2.600   0.163  0.00  0.00     0.003 A 
ENDROOT
TORSDOF 0
ENDMDL
