MODEL 1
REMARK minimizedAffinity 17.4460468
REMARK minimizedRMSD -1
REMARK  0 active torsions:
REMARK  status: ('A' for Active; 'I' for Inactive)
ROOT
ATOM      1  C4' PXY d   1      -5.515   6.000   1.580  0.00  0.00     0.077 C 
ATOM      2  C1' PXY d   1      -1.786   1.849   0.073  0.00  0.00     0.077 C 
ATOM      3  C1  PXY d   1      -2.754   2.946   0.465  0.00  0.00    -0.082 A 
ATOM      4  C2  PXY d   1      -3.772   2.666   1.264  0.00  0.00     0.003 A 
ATOM      5  C3  PXY d   1      -4.675   3.640   1.604  0.00  0.00     0.003 A 
ATOM      6  C4  PXY d   1      -4.507   4.925   1.164  0.00  0.00    -0.082 A 
ATOM      7  C5  PXY d   1      -3.465   5.222   0.358  0.00  0.00     0.003 A 
ATOM      8  C6  PXY d   1      -2.582   4.210  -0.009  0.00  0.00     0.003 A 
ENDROOT
TORSDOF 0
ENDMDL
