MODEL 1
REMARK minimizedAffinity 11.7438784
REMARK minimizedRMSD -1
REMARK  0 active torsions:
REMARK  status: ('A' for Active; 'I' for Inactive)
ROOT
ATOM      1  C4' PXY d   1      -4.861   5.977   4.343  0.00  0.00     0.077 C 
ATOM      2  C1' PXY d   1      -4.850   5.801  -1.435  0.00  0.00     0.077 C 
ATOM      3  C1  PXY d   1      -4.840   5.843   0.081  0.00  0.00    -0.082 A 
ATOM      4  C2  PXY d   1      -5.982   5.764   0.744  0.00  0.00     0.003 A 
ATOM      5  C3  PXY d   1      -5.995   5.832   2.114  0.00  0.00     0.003 A 
ATOM      6  C4  PXY d   1      -4.822   5.929   2.813  0.00  0.00    -0.082 A 
ATOM      7  C5  PXY d   1      -3.652   6.000   2.144  0.00  0.00     0.003 A 
ATOM      8  C6  PXY d   1      -3.664   5.970   0.752  0.00  0.00     0.003 A 
ENDROOT
TORSDOF 0
ENDMDL
