MODEL 1
REMARK minimizedAffinity 9.9616642
REMARK minimizedRMSD -1
REMARK  0 active torsions:
REMARK  status: ('A' for Active; 'I' for Inactive)
ROOT
ATOM      1  C4' PXY d   1      -4.716   5.626  -2.739  0.00  0.00     0.077 C 
ATOM      2  C1' PXY d   1      -4.942   6.000   3.025  0.00  0.00     0.077 C 
ATOM      3  C1  PXY d   1      -4.870   5.906   1.514  0.00  0.00    -0.082 A 
ATOM      4  C2  PXY d   1      -5.980   6.000   0.799  0.00  0.00     0.003 A 
ATOM      5  C3  PXY d   1      -5.937   5.885  -0.566  0.00  0.00     0.003 A 
ATOM      6  C4  PXY d   1      -4.740   5.725  -1.211  0.00  0.00    -0.082 A 
ATOM      7  C5  PXY d   1      -3.602   5.639  -0.489  0.00  0.00     0.003 A 
ATOM      8  C6  PXY d   1      -3.672   5.717   0.899  0.00  0.00     0.003 A 
ENDROOT
TORSDOF 0
ENDMDL
