MODEL 1
REMARK minimizedAffinity 11.562912
REMARK minimizedRMSD -1
REMARK  0 active torsions:
REMARK  status: ('A' for Active; 'I' for Inactive)
ROOT
ATOM      1  C4' PXY d   1      -4.876   6.000   3.849  0.00  0.00     0.077 C 
ATOM      2  C1' PXY d   1      -4.833   5.895  -1.930  0.00  0.00     0.077 C 
ATOM      3  C1  PXY d   1      -4.832   5.917  -0.415  0.00  0.00    -0.082 A 
ATOM      4  C2  PXY d   1      -5.982   5.938   0.240  0.00  0.00     0.003 A 
ATOM      5  C3  PXY d   1      -6.000   5.990   1.610  0.00  0.00     0.003 A 
ATOM      6  C4  PXY d   1      -4.829   5.968   2.319  0.00  0.00    -0.082 A 
ATOM      7  C5  PXY d   1      -3.652   5.936   1.659  0.00  0.00     0.003 A 
ATOM      8  C6  PXY d   1      -3.655   5.925   0.267  0.00  0.00     0.003 A 
ENDROOT
TORSDOF 0
ENDMDL
