MODEL 1
REMARK minimizedAffinity 6.48848963
REMARK minimizedRMSD -1
REMARK  0 active torsions:
REMARK  status: ('A' for Active; 'I' for Inactive)
ROOT
ATOM      1  C4' PXY d   1       0.092   5.867  -2.484  0.00  0.00     0.077 C 
ATOM      2  C1' PXY d   1      -0.537   1.346   1.063  0.00  0.00     0.077 C 
ATOM      3  C1  PXY d   1      -0.374   2.523   0.123  0.00  0.00    -0.082 A 
ATOM      4  C2  PXY d   1       0.299   3.591   0.522  0.00  0.00     0.003 A 
ATOM      5  C3  PXY d   1       0.429   4.678  -0.304  0.00  0.00     0.003 A 
ATOM      6  C4  PXY d   1      -0.090   4.651  -1.571  0.00  0.00    -0.082 A 
ATOM      7  C5  PXY d   1      -0.768   3.561  -1.990  0.00  0.00     0.003 A 
ATOM      8  C6  PXY d   1      -0.924   2.485  -1.121  0.00  0.00     0.003 A 
ENDROOT
TORSDOF 0
ENDMDL
