MODEL 1
REMARK minimizedAffinity 6.62235022
REMARK minimizedRMSD -1
REMARK  0 active torsions:
REMARK  status: ('A' for Active; 'I' for Inactive)
ROOT
ATOM      1  C4' PXY d   1      -1.898   2.526  -3.488  0.00  0.00     0.077 C 
ATOM      2  C1' PXY d   1       0.522   5.993   0.453  0.00  0.00     0.077 C 
ATOM      3  C1  PXY d   1      -0.122   5.093  -0.583  0.00  0.00    -0.082 A 
ATOM      4  C2  PXY d   1       0.087   3.787  -0.534  0.00  0.00     0.003 A 
ATOM      5  C3  PXY d   1      -0.462   2.962  -1.482  0.00  0.00     0.003 A 
ATOM      6  C4  PXY d   1      -1.276   3.472  -2.458  0.00  0.00    -0.082 A 
ATOM      7  C5  PXY d   1      -1.502   4.802  -2.507  0.00  0.00     0.003 A 
ATOM      8  C6  PXY d   1      -0.902   5.627  -1.561  0.00  0.00     0.003 A 
ENDROOT
TORSDOF 0
ENDMDL
