MODEL 1
REMARK minimizedAffinity 9.89036846
REMARK minimizedRMSD -1
REMARK  0 active torsions:
REMARK  status: ('A' for Active; 'I' for Inactive)
ROOT
ATOM      1  C4' PXY d   1       0.156   1.744   3.655  0.00  0.00     0.077 C 
ATOM      2  C1' PXY d   1      -4.582   0.098   0.781  0.00  0.00     0.077 C 
ATOM      3  C1  PXY d   1      -3.333   0.520   1.529  0.00  0.00    -0.082 A 
ATOM      4  C2  PXY d   1      -3.445   1.185   2.668  0.00  0.00     0.003 A 
ATOM      5  C3  PXY d   1      -2.325   1.602   3.340  0.00  0.00     0.003 A 
ATOM      6  C4  PXY d   1      -1.078   1.289   2.871  0.00  0.00    -0.082 A 
ATOM      7  C5  PXY d   1      -0.955   0.602   1.715  0.00  0.00     0.003 A 
ATOM      8  C6  PXY d   1      -2.104   0.223   1.026  0.00  0.00     0.003 A 
ENDROOT
TORSDOF 0
ENDMDL
