MODEL 1
REMARK minimizedAffinity 0.249801219
REMARK minimizedRMSD -1
REMARK  0 active torsions:
REMARK  status: ('A' for Active; 'I' for Inactive)
ROOT
ATOM      1  C   UNL d   1      -5.998  -3.872   5.999  0.00  0.00     0.077 C 
ATOM      2  C1  UNL d   1      -4.815  -3.239   5.328  0.00  0.00    -0.074 A 
ATOM      3  C2  UNL d   1      -4.953  -2.575   4.105  0.00  0.00    -0.005 A 
ATOM      4  C3  UNL d   1      -3.846  -1.983   3.497  0.00  0.00     0.006 A 
ATOM      5  C4  UNL d   1      -2.592  -2.049   4.105  0.00  0.00    -0.005 A 
ATOM      6  C5  UNL d   1      -2.435  -2.709   5.328  0.00  0.00    -0.074 A 
ATOM      7  C6  UNL d   1      -1.095  -2.781   6.000  0.00  0.00     0.077 C 
ATOM      8  C7  UNL d   1      -3.553  -3.295   5.936  0.00  0.00    -0.001 A 
ENDROOT
TORSDOF 0
ENDMDL
