MODEL 1
REMARK minimizedAffinity -3.7476151
REMARK minimizedRMSD -1
REMARK  0 active torsions:
REMARK  status: ('A' for Active; 'I' for Inactive)
ROOT
ATOM      1  C   UNL d   1       5.159  -5.624  -4.481  0.00  0.00     0.077 C 
ATOM      2  C1  UNL d   1       3.757  -5.627  -3.948  0.00  0.00    -0.074 A 
ATOM      3  C2  UNL d   1       3.492  -5.999  -2.626  0.00  0.00    -0.005 A 
ATOM      4  C3  UNL d   1       2.184  -5.988  -2.141  0.00  0.00     0.006 A 
ATOM      5  C4  UNL d   1       1.130  -5.606  -2.972  0.00  0.00    -0.005 A 
ATOM      6  C5  UNL d   1       1.376  -5.230  -4.297  0.00  0.00    -0.074 A 
ATOM      7  C6  UNL d   1       0.256  -4.807  -5.200  0.00  0.00     0.077 C 
ATOM      8  C7  UNL d   1       2.694  -5.237  -4.774  0.00  0.00    -0.001 A 
ENDROOT
TORSDOF 0
ENDMDL
