MODEL 1
REMARK minimizedAffinity 11.6565685
REMARK minimizedRMSD -1
REMARK  0 active torsions:
REMARK  status: ('A' for Active; 'I' for Inactive)
ROOT
ATOM      1  C   UNL d   1       0.205  -4.002  -5.756  0.00  0.00     0.077 C 
ATOM      2  C1  UNL d   1      -1.282  -3.817  -5.814  0.00  0.00    -0.074 A 
ATOM      3  C2  UNL d   1      -1.843  -2.541  -5.926  0.00  0.00    -0.005 A 
ATOM      4  C3  UNL d   1      -3.228  -2.384  -5.989  0.00  0.00     0.006 A 
ATOM      5  C4  UNL d   1      -4.064  -3.501  -5.940  0.00  0.00    -0.005 A 
ATOM      6  C5  UNL d   1      -3.521  -4.785  -5.829  0.00  0.00    -0.074 A 
ATOM      7  C6  UNL d   1      -4.404  -5.996  -5.785  0.00  0.00     0.077 C 
ATOM      8  C7  UNL d   1      -2.128  -4.934  -5.774  0.00  0.00    -0.001 A 
ENDROOT
TORSDOF 0
ENDMDL
