MODEL 1
REMARK minimizedAffinity 8.2251873
REMARK minimizedRMSD -1
REMARK  0 active torsions:
REMARK  status: ('A' for Active; 'I' for Inactive)
ROOT
ATOM      1  C   UNL d   1       0.407   2.528   0.366  0.00  0.00     0.077 C 
ATOM      2  C1  UNL d   1       0.000   3.740  -0.417  0.00  0.00    -0.074 A 
ATOM      3  C2  UNL d   1      -0.503   4.876   0.226  0.00  0.00    -0.005 A 
ATOM      4  C3  UNL d   1      -0.868   6.000  -0.515  0.00  0.00     0.006 A 
ATOM      5  C4  UNL d   1      -0.734   6.000  -1.904  0.00  0.00    -0.005 A 
ATOM      6  C5  UNL d   1      -0.232   4.874  -2.564  0.00  0.00    -0.074 A 
ATOM      7  C6  UNL d   1      -0.072   4.861  -4.055  0.00  0.00     0.077 C 
ATOM      8  C7  UNL d   1       0.140   3.751  -1.812  0.00  0.00    -0.001 A 
ENDROOT
TORSDOF 0
ENDMDL
