MODEL 1
REMARK minimizedAffinity 10.9085751
REMARK minimizedRMSD -1
REMARK  0 active torsions:
REMARK  status: ('A' for Active; 'I' for Inactive)
ROOT
ATOM      1  C   UNL d   1       0.150   1.282   2.791  0.00  0.00     0.077 C 
ATOM      2  C1  UNL d   1       0.340   2.090   1.542  0.00  0.00    -0.074 A 
ATOM      3  C2  UNL d   1       1.369   3.032   1.444  0.00  0.00    -0.005 A 
ATOM      4  C3  UNL d   1       1.539   3.768   0.271  0.00  0.00     0.006 A 
ATOM      5  C4  UNL d   1       0.683   3.571  -0.813  0.00  0.00    -0.005 A 
ATOM      6  C5  UNL d   1      -0.351   2.632  -0.734  0.00  0.00    -0.074 A 
ATOM      7  C6  UNL d   1      -1.273   2.400  -1.894  0.00  0.00     0.077 C 
ATOM      8  C7  UNL d   1      -0.511   1.891   0.445  0.00  0.00    -0.001 A 
ENDROOT
TORSDOF 0
ENDMDL
