MODEL 1
REMARK minimizedAffinity -2.57974744
REMARK minimizedRMSD -1
REMARK  0 active torsions:
REMARK  status: ('A' for Active; 'I' for Inactive)
ROOT
ATOM      1  C   UNL d   1      -1.811  -1.875  -6.000  0.00  0.00     0.077 C 
ATOM      2  C1  UNL d   1      -2.261  -3.305  -5.988  0.00  0.00    -0.074 A 
ATOM      3  C2  UNL d   1      -1.333  -4.351  -5.949  0.00  0.00    -0.005 A 
ATOM      4  C3  UNL d   1      -1.767  -5.676  -5.929  0.00  0.00     0.006 A 
ATOM      5  C4  UNL d   1      -3.131  -5.969  -5.949  0.00  0.00    -0.005 A 
ATOM      6  C5  UNL d   1      -4.074  -4.937  -5.987  0.00  0.00    -0.074 A 
ATOM      7  C6  UNL d   1      -5.544  -5.235  -5.999  0.00  0.00     0.077 C 
ATOM      8  C7  UNL d   1      -3.630  -3.608  -6.000  0.00  0.00    -0.001 A 
ENDROOT
TORSDOF 0
ENDMDL
