MODEL 1
REMARK minimizedAffinity 5.8615818
REMARK minimizedRMSD -1
REMARK  0 active torsions:
REMARK  status: ('A' for Active; 'I' for Inactive)
ROOT
ATOM      1  C   UNL d   1      -3.252  -5.258  -5.775  0.00  0.00     0.077 C 
ATOM      2  C1  UNL d   1      -2.254  -4.242  -5.306  0.00  0.00    -0.074 A 
ATOM      3  C2  UNL d   1      -2.069  -3.042  -6.000  0.00  0.00    -0.005 A 
ATOM      4  C3  UNL d   1      -1.144  -2.102  -5.546  0.00  0.00     0.006 A 
ATOM      5  C4  UNL d   1      -0.396  -2.351  -4.394  0.00  0.00    -0.005 A 
ATOM      6  C5  UNL d   1      -0.568  -3.545  -3.687  0.00  0.00    -0.074 A 
ATOM      7  C6  UNL d   1       0.220  -3.825  -2.442  0.00  0.00     0.077 C 
ATOM      8  C7  UNL d   1      -1.505  -4.482  -4.145  0.00  0.00    -0.001 A 
ENDROOT
TORSDOF 0
ENDMDL
