MODEL 1
REMARK minimizedAffinity 6.91229391
REMARK minimizedRMSD -1
REMARK  0 active torsions:
REMARK  status: ('A' for Active; 'I' for Inactive)
ROOT
ATOM      1  C   UNL d   1      -4.093  -0.180   0.563  0.00  0.00     0.077 C 
ATOM      2  C1  UNL d   1      -4.752  -0.167   1.911  0.00  0.00    -0.074 A 
ATOM      3  C2  UNL d   1      -5.083   1.038   2.538  0.00  0.00    -0.005 A 
ATOM      4  C3  UNL d   1      -5.704   1.034   3.787  0.00  0.00     0.006 A 
ATOM      5  C4  UNL d   1      -6.000  -0.173   4.420  0.00  0.00    -0.005 A 
ATOM      6  C5  UNL d   1      -5.677  -1.389   3.808  0.00  0.00    -0.074 A 
ATOM      7  C6  UNL d   1      -5.998  -2.696   4.470  0.00  0.00     0.077 C 
ATOM      8  C7  UNL d   1      -5.060  -1.376   2.550  0.00  0.00    -0.001 A 
ENDROOT
TORSDOF 0
ENDMDL
