MODEL 1
REMARK minimizedAffinity -1.97770798
REMARK minimizedRMSD -1
REMARK  0 active torsions:
REMARK  status: ('A' for Active; 'I' for Inactive)
ROOT
ATOM      1  C1  BNZ d   1       0.881   0.983  -2.900  0.00  0.00     0.000 A 
ATOM      2  C2  BNZ d   1       1.440   1.654  -3.954  0.00  0.00     0.000 A 
ATOM      3  C3  BNZ d   1       2.286   2.707  -3.745  0.00  0.00     0.000 A 
ATOM      4  C4  BNZ d   1       2.541   3.112  -2.484  0.00  0.00     0.000 A 
ATOM      5  C5  BNZ d   1       1.978   2.451  -1.410  0.00  0.00     0.000 A 
ATOM      6  C6  BNZ d   1       1.158   1.368  -1.624  0.00  0.00     0.000 A 
ENDROOT
TORSDOF 0
ENDMDL
