MODEL 1
REMARK minimizedAffinity 5.97931862
REMARK minimizedRMSD -1
REMARK  0 active torsions:
REMARK  status: ('A' for Active; 'I' for Inactive)
ROOT
ATOM      1  C1  BNZ d   1       0.600  -4.986   1.514  0.00  0.00     0.000 A 
ATOM      2  C2  BNZ d   1       1.630  -4.117   1.268  0.00  0.00     0.000 A 
ATOM      3  C3  BNZ d   1       1.389  -2.872   0.760  0.00  0.00     0.000 A 
ATOM      4  C4  BNZ d   1       0.124  -2.511   0.462  0.00  0.00     0.000 A 
ATOM      5  C5  BNZ d   1      -0.924  -3.378   0.696  0.00  0.00     0.000 A 
ATOM      6  C6  BNZ d   1      -0.682  -4.617   1.244  0.00  0.00     0.000 A 
ENDROOT
TORSDOF 0
ENDMDL
