MODEL 1
REMARK minimizedAffinity -1.50998545
REMARK minimizedRMSD -1
REMARK  0 active torsions:
REMARK  status: ('A' for Active; 'I' for Inactive)
ROOT
ATOM      1  C1  BNZ d   1       6.000  -1.981  -4.676  0.00  0.00     0.000 A 
ATOM      2  C2  BNZ d   1       5.998  -1.205  -3.548  0.00  0.00     0.000 A 
ATOM      3  C3  BNZ d   1       5.971   0.159  -3.636  0.00  0.00     0.000 A 
ATOM      4  C4  BNZ d   1       5.987   0.745  -4.851  0.00  0.00     0.000 A 
ATOM      5  C5  BNZ d   1       5.998  -0.023  -5.998  0.00  0.00     0.000 A 
ATOM      6  C6  BNZ d   1       5.985  -1.396  -5.905  0.00  0.00     0.000 A 
ENDROOT
TORSDOF 0
ENDMDL
