MODEL 1
REMARK minimizedAffinity 1.87751508
REMARK minimizedRMSD -1
REMARK  0 active torsions:
REMARK  status: ('A' for Active; 'I' for Inactive)
ROOT
ATOM      1  C1  BNZ d   1       5.470  -1.606  -4.185  0.00  0.00     0.000 A 
ATOM      2  C2  BNZ d   1       5.457  -1.319  -5.524  0.00  0.00     0.000 A 
ATOM      3  C3  BNZ d   1       5.738  -0.059  -5.973  0.00  0.00     0.000 A 
ATOM      4  C4  BNZ d   1       5.991   0.921  -5.081  0.00  0.00     0.000 A 
ATOM      5  C5  BNZ d   1       5.998   0.650  -3.728  0.00  0.00     0.000 A 
ATOM      6  C6  BNZ d   1       5.754  -0.629  -3.282  0.00  0.00     0.000 A 
ENDROOT
TORSDOF 0
ENDMDL
