MODEL 1
REMARK minimizedAffinity 3.94690061
REMARK minimizedRMSD -1
REMARK  0 active torsions:
REMARK  status: ('A' for Active; 'I' for Inactive)
ROOT
ATOM      1  C1  BNZ d   1       0.702   0.422  -0.306  0.00  0.00     0.000 A 
ATOM      2  C2  BNZ d   1       1.115  -0.657   0.429  0.00  0.00     0.000 A 
ATOM      3  C3  BNZ d   1       0.404  -1.825   0.419  0.00  0.00     0.000 A 
ATOM      4  C4  BNZ d   1      -0.738  -1.899  -0.295  0.00  0.00     0.000 A 
ATOM      5  C5  BNZ d   1      -1.173  -0.817  -1.034  0.00  0.00     0.000 A 
ATOM      6  C6  BNZ d   1      -0.434   0.344  -1.052  0.00  0.00     0.000 A 
ENDROOT
TORSDOF 0
ENDMDL
