MODEL 1
REMARK minimizedAffinity -2.31911826
REMARK minimizedRMSD -1
REMARK  0 active torsions:
REMARK  status: ('A' for Active; 'I' for Inactive)
ROOT
ATOM      1  C1  BNZ d   1       5.999  -1.005  -3.621  0.00  0.00     0.000 A 
ATOM      2  C2  BNZ d   1       5.996  -1.676  -4.814  0.00  0.00     0.000 A 
ATOM      3  C3  BNZ d   1       5.959  -0.996  -5.999  0.00  0.00     0.000 A 
ATOM      4  C4  BNZ d   1       5.884   0.351  -5.989  0.00  0.00     0.000 A 
ATOM      5  C5  BNZ d   1       5.877   1.041  -4.793  0.00  0.00     0.000 A 
ATOM      6  C6  BNZ d   1       5.954   0.355  -3.603  0.00  0.00     0.000 A 
ENDROOT
TORSDOF 0
ENDMDL
