MODEL 1
REMARK minimizedAffinity 4.13886261
REMARK minimizedRMSD -1
REMARK  0 active torsions:
REMARK  status: ('A' for Active; 'I' for Inactive)
ROOT
ATOM      1  C1  BNZ d   1      -3.909   5.936   3.564  0.00  0.00     0.000 A 
ATOM      2  C2  BNZ d   1      -3.181   6.000   4.722  0.00  0.00     0.000 A 
ATOM      3  C3  BNZ d   1      -3.801   5.990   5.940  0.00  0.00     0.000 A 
ATOM      4  C4  BNZ d   1      -5.148   5.958   5.998  0.00  0.00     0.000 A 
ATOM      5  C5  BNZ d   1      -5.896   5.903   4.840  0.00  0.00     0.000 A 
ATOM      6  C6  BNZ d   1      -5.268   5.873   3.616  0.00  0.00     0.000 A 
ENDROOT
TORSDOF 0
ENDMDL
