MODEL 1
REMARK minimizedAffinity 2.38532495
REMARK minimizedRMSD -1
REMARK  0 active torsions:
REMARK  status: ('A' for Active; 'I' for Inactive)
ROOT
ATOM      1  C1  BNZ d   1       0.047  -2.581   0.390  0.00  0.00     0.000 A 
ATOM      2  C2  BNZ d   1       1.415  -2.635   0.348  0.00  0.00     0.000 A 
ATOM      3  C3  BNZ d   1       2.084  -3.761   0.739  0.00  0.00     0.000 A 
ATOM      4  C4  BNZ d   1       1.387  -4.816   1.209  0.00  0.00     0.000 A 
ATOM      5  C5  BNZ d   1       0.008  -4.774   1.266  0.00  0.00     0.000 A 
ATOM      6  C6  BNZ d   1      -0.663  -3.653   0.835  0.00  0.00     0.000 A 
ENDROOT
TORSDOF 0
ENDMDL
