MODEL 1
REMARK minimizedAffinity -0.354913741
REMARK minimizedRMSD -1
REMARK  0 active torsions:
REMARK  status: ('A' for Active; 'I' for Inactive)
ROOT
ATOM      1  C1  BNZ d   1       0.960  -0.058  -0.187  0.00  0.00     0.000 A 
ATOM      2  C2  BNZ d   1       1.247  -1.087  -1.044  0.00  0.00     0.000 A 
ATOM      3  C3  BNZ d   1       1.372  -0.864  -2.387  0.00  0.00     0.000 A 
ATOM      4  C4  BNZ d   1       1.170   0.377  -2.875  0.00  0.00     0.000 A 
ATOM      5  C5  BNZ d   1       0.870   1.422  -2.024  0.00  0.00     0.000 A 
ATOM      6  C6  BNZ d   1       0.784   1.202  -0.669  0.00  0.00     0.000 A 
ENDROOT
TORSDOF 0
ENDMDL
