MODEL 1
REMARK minimizedAffinity 3.26090527
REMARK minimizedRMSD -1
REMARK  0 active torsions:
REMARK  status: ('A' for Active; 'I' for Inactive)
ROOT
ATOM      1  C1  BNZ d   1      -5.994   4.889   4.969  0.00  0.00     0.000 A 
ATOM      2  C2  BNZ d   1      -5.644   3.787   4.236  0.00  0.00     0.000 A 
ATOM      3  C3  BNZ d   1      -4.492   3.773   3.500  0.00  0.00     0.000 A 
ATOM      4  C4  BNZ d   1      -3.714   4.874   3.466  0.00  0.00     0.000 A 
ATOM      5  C5  BNZ d   1      -4.058   5.997   4.192  0.00  0.00     0.000 A 
ATOM      6  C6  BNZ d   1      -5.198   5.993   4.963  0.00  0.00     0.000 A 
ENDROOT
TORSDOF 0
ENDMDL
