MODEL 1
REMARK minimizedAffinity 4.14679003
REMARK minimizedRMSD -1
REMARK  0 active torsions:
REMARK  status: ('A' for Active; 'I' for Inactive)
ROOT
ATOM      1  C1  BNZ d   1      -5.053   5.250   3.303  0.00  0.00     0.000 A 
ATOM      2  C2  BNZ d   1      -4.031   5.997   3.826  0.00  0.00     0.000 A 
ATOM      3  C3  BNZ d   1      -3.783   6.000   5.170  0.00  0.00     0.000 A 
ATOM      4  C4  BNZ d   1      -4.581   5.289   5.993  0.00  0.00     0.000 A 
ATOM      5  C5  BNZ d   1      -5.621   4.539   5.482  0.00  0.00     0.000 A 
ATOM      6  C6  BNZ d   1      -5.843   4.508   4.124  0.00  0.00     0.000 A 
ENDROOT
TORSDOF 0
ENDMDL
