MODEL 1
REMARK minimizedAffinity 0.430402368
REMARK minimizedRMSD -1
REMARK  0 active torsions:
REMARK  status: ('A' for Active; 'I' for Inactive)
ROOT
ATOM      1  C1  BNZ d   1       0.685  -0.314  -0.652  0.00  0.00     0.000 A 
ATOM      2  C2  BNZ d   1       1.294  -1.256  -1.437  0.00  0.00     0.000 A 
ATOM      3  C3  BNZ d   1       1.728  -0.945  -2.696  0.00  0.00     0.000 A 
ATOM      4  C4  BNZ d   1       1.516   0.295  -3.182  0.00  0.00     0.000 A 
ATOM      5  C5  BNZ d   1       0.895   1.254  -2.407  0.00  0.00     0.000 A 
ATOM      6  C6  BNZ d   1       0.495   0.948  -1.126  0.00  0.00     0.000 A 
ENDROOT
TORSDOF 0
ENDMDL
