MODEL 1
REMARK minimizedAffinity -3.79469466
REMARK minimizedRMSD -1
REMARK  0 active torsions:
REMARK  status: ('A' for Active; 'I' for Inactive)
ROOT
ATOM      1  C1  BNZ d   1       1.405  -0.211  -4.806  0.00  0.00     0.000 A 
ATOM      2  C2  BNZ d   1       1.207  -1.565  -4.762  0.00  0.00     0.000 A 
ATOM      3  C3  BNZ d   1       1.217  -2.236  -3.571  0.00  0.00     0.000 A 
ATOM      4  C4  BNZ d   1       1.465  -1.558  -2.431  0.00  0.00     0.000 A 
ATOM      5  C5  BNZ d   1       1.676  -0.194  -2.460  0.00  0.00     0.000 A 
ATOM      6  C6  BNZ d   1       1.626   0.483  -3.657  0.00  0.00     0.000 A 
ENDROOT
TORSDOF 0
ENDMDL
