MODEL 1
REMARK minimizedAffinity -3.96830559
REMARK minimizedRMSD -1
REMARK  0 active torsions:
REMARK  status: ('A' for Active; 'I' for Inactive)
ROOT
ATOM      1  C1  BNZ d   1       1.310  -1.040  -0.937  0.00  0.00     0.000 A 
ATOM      2  C2  BNZ d   1       0.946   0.173  -0.417  0.00  0.00     0.000 A 
ATOM      3  C3  BNZ d   1       0.791   1.263  -1.227  0.00  0.00     0.000 A 
ATOM      4  C4  BNZ d   1       1.038   1.148  -2.548  0.00  0.00     0.000 A 
ATOM      5  C5  BNZ d   1       1.414  -0.066  -3.086  0.00  0.00     0.000 A 
ATOM      6  C6  BNZ d   1       1.532  -1.170  -2.273  0.00  0.00     0.000 A 
ENDROOT
TORSDOF 0
ENDMDL
