MODEL 1
REMARK minimizedAffinity 1.56397116
REMARK minimizedRMSD -1
REMARK  0 active torsions:
REMARK  status: ('A' for Active; 'I' for Inactive)
ROOT
ATOM      1  C1  BNZ d   1       5.369   0.186  -3.858  0.00  0.00     0.000 A 
ATOM      2  C2  BNZ d   1       4.009   0.030  -3.870  0.00  0.00     0.000 A 
ATOM      3  C3  BNZ d   1       3.269   0.423  -4.950  0.00  0.00     0.000 A 
ATOM      4  C4  BNZ d   1       3.884   1.008  -5.998  0.00  0.00     0.000 A 
ATOM      5  C5  BNZ d   1       5.254   1.181  -5.997  0.00  0.00     0.000 A 
ATOM      6  C6  BNZ d   1       6.000   0.748  -4.925  0.00  0.00     0.000 A 
ENDROOT
TORSDOF 0
ENDMDL
