MODEL 1
REMARK minimizedAffinity 0.403576136
REMARK minimizedRMSD -1
REMARK  0 active torsions:
REMARK  status: ('A' for Active; 'I' for Inactive)
ROOT
ATOM      1  C1  BNZ d   1       1.050   1.458  -2.657  0.00  0.00     0.000 A 
ATOM      2  C2  BNZ d   1       1.543   0.348  -3.290  0.00  0.00     0.000 A 
ATOM      3  C3  BNZ d   1       1.529  -0.872  -2.674  0.00  0.00     0.000 A 
ATOM      4  C4  BNZ d   1       1.061  -0.973  -1.413  0.00  0.00     0.000 A 
ATOM      5  C5  BNZ d   1       0.570   0.139  -0.758  0.00  0.00     0.000 A 
ATOM      6  C6  BNZ d   1       0.549   1.358  -1.396  0.00  0.00     0.000 A 
ENDROOT
TORSDOF 0
ENDMDL
