MODEL 1
REMARK minimizedAffinity 0.883641601
REMARK minimizedRMSD -1
REMARK  0 active torsions:
REMARK  status: ('A' for Active; 'I' for Inactive)
ROOT
ATOM      1  C1  BNZ d   1       0.383   0.947  -1.533  0.00  0.00     0.000 A 
ATOM      2  C2  BNZ d   1       0.538   0.260  -0.358  0.00  0.00     0.000 A 
ATOM      3  C3  BNZ d   1       1.040  -1.012  -0.352  0.00  0.00     0.000 A 
ATOM      4  C4  BNZ d   1       1.348  -1.608  -1.522  0.00  0.00     0.000 A 
ATOM      5  C5  BNZ d   1       1.188  -0.932  -2.715  0.00  0.00     0.000 A 
ATOM      6  C6  BNZ d   1       0.719   0.361  -2.714  0.00  0.00     0.000 A 
ENDROOT
TORSDOF 0
ENDMDL
