MODEL 1
REMARK minimizedAffinity -0.605941772
REMARK minimizedRMSD -1
REMARK  0 active torsions:
REMARK  status: ('A' for Active; 'I' for Inactive)
ROOT
ATOM      1  C1  BNZ d   1       1.181  -1.896  -1.677  0.00  0.00     0.000 A 
ATOM      2  C2  BNZ d   1       1.249  -2.092  -3.030  0.00  0.00     0.000 A 
ATOM      3  C3  BNZ d   1       1.492  -1.047  -3.878  0.00  0.00     0.000 A 
ATOM      4  C4  BNZ d   1       1.626   0.197  -3.375  0.00  0.00     0.000 A 
ATOM      5  C5  BNZ d   1       1.551   0.412  -2.013  0.00  0.00     0.000 A 
ATOM      6  C6  BNZ d   1       1.345  -0.648  -1.160  0.00  0.00     0.000 A 
ENDROOT
TORSDOF 0
ENDMDL
