MODEL 1
REMARK minimizedAffinity -5.22497559
REMARK minimizedRMSD -1
REMARK  0 active torsions:
REMARK  status: ('A' for Active; 'I' for Inactive)
ROOT
ATOM      1  O1  BZF d   1       0.742   1.319  -1.108  0.00  0.00    -0.204 OA
ATOM      2  C2  BZF d   1       0.439   0.327  -2.020  0.00  0.00     0.174 A 
ATOM      3  C3  BZF d   1      -0.422  -0.565  -1.488  0.00  0.00    -0.012 A 
ATOM      4  C3A BZF d   1      -0.745  -0.050  -0.193  0.00  0.00    -0.107 A 
ATOM      5  C4  BZF d   1      -1.564  -0.481   0.812  0.00  0.00     0.055 A 
ATOM      6  C5  BZF d   1      -1.599   0.214   1.979  0.00  0.00    -0.016 A 
ATOM      7  C6  BZF d   1      -0.826   1.339   2.178  0.00  0.00     0.022 A 
ATOM      8  C7  BZF d   1      -0.002   1.808   1.209  0.00  0.00     0.029 A 
ATOM      9  C7A BZF d   1       0.011   1.127   0.016  0.00  0.00     0.058 A 
ENDROOT
TORSDOF 0
ENDMDL
