MODEL 1
REMARK minimizedAffinity -6.75980711
REMARK minimizedRMSD -1
REMARK  0 active torsions:
REMARK  status: ('A' for Active; 'I' for Inactive)
ROOT
ATOM      1  O1  BZF d   1       0.960  -0.877   0.036  0.00  0.00    -0.204 OA
ATOM      2  C2  BZF d   1      -0.142  -0.666  -0.770  0.00  0.00     0.174 A 
ATOM      3  C3  BZF d   1      -1.102   0.005  -0.101  0.00  0.00    -0.012 A 
ATOM      4  C3A BZF d   1      -0.530   0.308   1.175  0.00  0.00    -0.107 A 
ATOM      5  C4  BZF d   1      -0.990   0.973   2.276  0.00  0.00     0.055 A 
ATOM      6  C5  BZF d   1      -0.209   1.030   3.387  0.00  0.00    -0.016 A 
ATOM      7  C6  BZF d   1       1.031   0.428   3.434  0.00  0.00     0.022 A 
ATOM      8  C7  BZF d   1       1.532  -0.239   2.365  0.00  0.00     0.029 A 
ATOM      9  C7A BZF d   1       0.759  -0.269   1.230  0.00  0.00     0.058 A 
ENDROOT
TORSDOF 0
ENDMDL
