MODEL 1
REMARK minimizedAffinity -4.4975729
REMARK minimizedRMSD -1
REMARK  0 active torsions:
REMARK  status: ('A' for Active; 'I' for Inactive)
ROOT
ATOM      1  O1  BZF d   1       0.742   0.508  -0.967  0.00  0.00    -0.204 OA
ATOM      2  C2  BZF d   1       0.382  -0.519  -0.116  0.00  0.00     0.174 A 
ATOM      3  C3  BZF d   1      -0.252  -1.499  -0.792  0.00  0.00    -0.012 A 
ATOM      4  C3A BZF d   1      -0.209  -1.099  -2.165  0.00  0.00    -0.107 A 
ATOM      5  C4  BZF d   1      -0.659  -1.666  -3.322  0.00  0.00     0.055 A 
ATOM      6  C5  BZF d   1      -0.523  -0.983  -4.489  0.00  0.00    -0.016 A 
ATOM      7  C6  BZF d   1       0.053   0.269  -4.534  0.00  0.00     0.022 A 
ATOM      8  C7  BZF d   1       0.519   0.871  -3.412  0.00  0.00     0.029 A 
ATOM      9  C7A BZF d   1       0.413   0.169  -2.237  0.00  0.00     0.058 A 
ENDROOT
TORSDOF 0
ENDMDL
