MODEL 1
REMARK minimizedAffinity 5.89087439
REMARK minimizedRMSD -1
REMARK  0 active torsions:
REMARK  status: ('A' for Active; 'I' for Inactive)
ROOT
ATOM      1  O1  BZF d   1       1.112   1.407  -4.145  0.00  0.00    -0.204 OA
ATOM      2  C2  BZF d   1       0.353   0.345  -4.597  0.00  0.00     0.174 A 
ATOM      3  C3  BZF d   1       1.092  -0.782  -4.652  0.00  0.00    -0.012 A 
ATOM      4  C3A BZF d   1       2.370  -0.420  -4.118  0.00  0.00    -0.107 A 
ATOM      5  C4  BZF d   1       3.525  -1.114  -3.897  0.00  0.00     0.055 A 
ATOM      6  C5  BZF d   1       4.616  -0.449  -3.431  0.00  0.00    -0.016 A 
ATOM      7  C6  BZF d   1       4.587   0.907  -3.182  0.00  0.00     0.022 A 
ATOM      8  C7  BZF d   1       3.463   1.637  -3.381  0.00  0.00     0.029 A 
ATOM      9  C7A BZF d   1       2.350   0.962  -3.820  0.00  0.00     0.058 A 
ENDROOT
TORSDOF 0
ENDMDL
