MODEL 1
REMARK minimizedAffinity 5.27402449
REMARK minimizedRMSD -1
REMARK  0 active torsions:
REMARK  status: ('A' for Active; 'I' for Inactive)
ROOT
ATOM      1  O1  BZF d   1       2.920   0.253  -4.627  0.00  0.00    -0.204 OA
ATOM      2  C2  BZF d   1       2.350   0.593  -3.416  0.00  0.00     0.174 A 
ATOM      3  C3  BZF d   1       3.007   0.003  -2.396  0.00  0.00    -0.012 A 
ATOM      4  C3A BZF d   1       4.108  -0.680  -3.002  0.00  0.00    -0.107 A 
ATOM      5  C4  BZF d   1       5.131  -1.437  -2.507  0.00  0.00     0.055 A 
ATOM      6  C5  BZF d   1       6.000  -2.021  -3.373  0.00  0.00    -0.016 A 
ATOM      7  C6  BZF d   1       5.873  -1.874  -4.739  0.00  0.00     0.022 A 
ATOM      8  C7  BZF d   1       4.877  -1.128  -5.277  0.00  0.00     0.029 A 
ATOM      9  C7A BZF d   1       4.017  -0.510  -4.403  0.00  0.00     0.058 A 
ENDROOT
TORSDOF 0
ENDMDL
