MODEL 1
REMARK minimizedAffinity 7.20676565
REMARK minimizedRMSD -1
REMARK  1 active torsions:
REMARK  status: ('A' for Active; 'I' for Inactive)
REMARK    1  A    between atoms: N_2  and  C1_3 
ROOT
ATOM      1  C1  UNL d   1      -4.535  -3.645   1.040  0.00  0.00     0.143 A 
ATOM      2  C2  UNL d   1      -4.317  -2.299   1.356  0.00  0.00    -0.057 A 
ATOM      3  C3  UNL d   1      -3.141  -1.644   0.971  0.00  0.00     0.033 A 
ATOM      4  C4  UNL d   1      -2.146  -2.333   0.286  0.00  0.00    -0.042 A 
ATOM      5  C5  UNL d   1      -2.330  -3.678  -0.017  0.00  0.00     0.033 A 
ATOM      6  C6  UNL d   1      -3.509  -4.325   0.364  0.00  0.00    -0.057 A 
ENDROOT
BRANCH   1   7
ATOM      7  N   UNL d   1      -5.639  -4.378   1.481  0.00  0.00    -0.732 N 
ATOM      8  C   UNL d   1      -5.550  -5.203   2.667  0.00  0.00     0.284 C 
ATOM      9  H3  UNL d   1      -6.509  -3.856   1.401  0.00  0.00     0.395 HD
ENDBRANCH   1   7
TORSDOF 1
ENDMDL
