MODEL 1
REMARK minimizedAffinity 3.11702323
REMARK minimizedRMSD -1
REMARK  1 active torsions:
REMARK  status: ('A' for Active; 'I' for Inactive)
REMARK    1  A    between atoms: N_2  and  C1_3 
ROOT
ATOM      1  C1  UNL d   1       0.820   4.192  -3.594  0.00  0.00     0.143 A 
ATOM      2  C2  UNL d   1      -0.350   4.936  -3.411  0.00  0.00    -0.057 A 
ATOM      3  C3  UNL d   1      -1.052   5.466  -4.501  0.00  0.00     0.033 A 
ATOM      4  C4  UNL d   1      -0.578   5.283  -5.796  0.00  0.00    -0.042 A 
ATOM      5  C5  UNL d   1       0.597   4.568  -6.000  0.00  0.00     0.033 A 
ATOM      6  C6  UNL d   1       1.289   4.036  -4.908  0.00  0.00    -0.057 A 
ENDROOT
BRANCH   1   7
ATOM      7  N   UNL d   1       1.616   3.723  -2.546  0.00  0.00    -0.732 N 
ATOM      8  C   UNL d   1       1.699   4.455  -1.300  0.00  0.00     0.284 C 
ATOM      9  H3  UNL d   1       1.555   2.714  -2.433  0.00  0.00     0.395 HD
ENDBRANCH   1   7
TORSDOF 1
ENDMDL
