MODEL 1
REMARK minimizedAffinity 10.453331
REMARK minimizedRMSD -1
REMARK  1 active torsions:
REMARK  status: ('A' for Active; 'I' for Inactive)
REMARK    1  A    between atoms: N_2  and  C1_3 
ROOT
ATOM      1  C1  UNL d   1       1.324   4.379  -3.090  0.00  0.00     0.143 A 
ATOM      2  C2  UNL d   1       1.357   5.444  -2.184  0.00  0.00    -0.057 A 
ATOM      3  C3  UNL d   1       1.798   5.265  -0.868  0.00  0.00     0.033 A 
ATOM      4  C4  UNL d   1       2.188   4.005  -0.424  0.00  0.00    -0.042 A 
ATOM      5  C5  UNL d   1       2.140   2.927  -1.300  0.00  0.00     0.033 A 
ATOM      6  C6  UNL d   1       1.705   3.114  -2.616  0.00  0.00    -0.057 A 
ENDROOT
BRANCH   1   7
ATOM      7  N   UNL d   1       0.803   4.473  -4.383  0.00  0.00    -0.732 N 
ATOM      8  C   UNL d   1       0.753   5.747  -5.067  0.00  0.00     0.284 C 
ATOM      9  H3  UNL d   1       1.088   3.695  -4.974  0.00  0.00     0.395 HD
ENDBRANCH   1   7
TORSDOF 1
ENDMDL
