MODEL 1
REMARK minimizedAffinity 8.95421505
REMARK minimizedRMSD -1
REMARK  1 active torsions:
REMARK  status: ('A' for Active; 'I' for Inactive)
REMARK    1  A    between atoms: N_2  and  C1_3 
ROOT
ATOM      1  C1  UNL d   1      -1.458   5.290  -5.025  0.00  0.00     0.143 A 
ATOM      2  C2  UNL d   1      -0.703   5.973  -5.984  0.00  0.00    -0.057 A 
ATOM      3  C3  UNL d   1       0.697   5.929  -5.973  0.00  0.00     0.033 A 
ATOM      4  C4  UNL d   1       1.368   5.223  -4.980  0.00  0.00    -0.042 A 
ATOM      5  C5  UNL d   1       0.639   4.557  -4.001  0.00  0.00     0.033 A 
ATOM      6  C6  UNL d   1      -0.759   4.599  -4.023  0.00  0.00    -0.057 A 
ENDROOT
BRANCH   1   7
ATOM      7  N   UNL d   1      -2.849   5.375  -4.925  0.00  0.00    -0.732 N 
ATOM      8  C   UNL d   1      -3.626   6.000  -5.973  0.00  0.00     0.284 C 
ATOM      9  H3  UNL d   1      -3.264   4.526  -4.549  0.00  0.00     0.395 HD
ENDBRANCH   1   7
TORSDOF 1
ENDMDL
