MODEL 1
REMARK minimizedAffinity 3.16499448
REMARK minimizedRMSD -1
REMARK  1 active torsions:
REMARK  status: ('A' for Active; 'I' for Inactive)
REMARK    1  A    between atoms: N_2  and  C1_3 
ROOT
ATOM      1  C1  UNL d   1      -2.499  -2.838   0.929  0.00  0.00     0.143 A 
ATOM      2  C2  UNL d   1      -1.548  -2.180   1.716  0.00  0.00    -0.057 A 
ATOM      3  C3  UNL d   1      -0.177  -2.376   1.512  0.00  0.00     0.033 A 
ATOM      4  C4  UNL d   1       0.268  -3.258   0.533  0.00  0.00    -0.042 A 
ATOM      5  C5  UNL d   1      -0.660  -3.942  -0.244  0.00  0.00     0.033 A 
ATOM      6  C6  UNL d   1      -2.028  -3.737  -0.040  0.00  0.00    -0.057 A 
ENDROOT
BRANCH   1   7
ATOM      7  N   UNL d   1      -3.877  -2.761   1.148  0.00  0.00    -0.732 N 
ATOM      8  C   UNL d   1      -4.627  -3.934   1.543  0.00  0.00     0.284 C 
ATOM      9  H3  UNL d   1      -4.146  -1.911   1.638  0.00  0.00     0.395 HD
ENDBRANCH   1   7
TORSDOF 1
ENDMDL
