MODEL 1
REMARK minimizedAffinity 5.53354216
REMARK minimizedRMSD -1
REMARK  1 active torsions:
REMARK  status: ('A' for Active; 'I' for Inactive)
REMARK    1  A    between atoms: N_2  and  C1_3 
ROOT
ATOM      1  C1  UNL d   1      -1.644   5.924  -4.435  0.00  0.00     0.143 A 
ATOM      2  C2  UNL d   1      -2.231   5.956  -3.166  0.00  0.00    -0.057 A 
ATOM      3  C3  UNL d   1      -3.622   5.979  -3.010  0.00  0.00     0.033 A 
ATOM      4  C4  UNL d   1      -4.453   5.999  -4.125  0.00  0.00    -0.042 A 
ATOM      5  C5  UNL d   1      -3.891   5.992  -5.397  0.00  0.00     0.033 A 
ATOM      6  C6  UNL d   1      -2.501   5.963  -5.546  0.00  0.00    -0.057 A 
ENDROOT
BRANCH   1   7
ATOM      7  N   UNL d   1      -0.267   6.000  -4.658  0.00  0.00    -0.732 N 
ATOM      8  C   UNL d   1       0.291   5.665  -5.951  0.00  0.00     0.284 C 
ATOM      9  H3  UNL d   1       0.152   6.819  -4.224  0.00  0.00     0.395 HD
ENDBRANCH   1   7
TORSDOF 1
ENDMDL
