MODEL 1
REMARK minimizedAffinity 3.02525139
REMARK minimizedRMSD -1
REMARK  1 active torsions:
REMARK  status: ('A' for Active; 'I' for Inactive)
REMARK    1  A    between atoms: N_2  and  C1_3 
ROOT
ATOM      1  C1  UNL d   1      -1.219   5.455  -4.843  0.00  0.00     0.143 A 
ATOM      2  C2  UNL d   1      -1.963   5.269  -3.673  0.00  0.00    -0.057 A 
ATOM      3  C3  UNL d   1      -3.355   5.416  -3.666  0.00  0.00     0.033 A 
ATOM      4  C4  UNL d   1      -4.027   5.782  -4.828  0.00  0.00    -0.042 A 
ATOM      5  C5  UNL d   1      -3.306   5.996  -5.997  0.00  0.00     0.033 A 
ATOM      6  C6  UNL d   1      -1.916   5.841  -5.999  0.00  0.00    -0.057 A 
ENDROOT
BRANCH   1   7
ATOM      7  N   UNL d   1       0.177   5.420  -4.892  0.00  0.00    -0.732 N 
ATOM      8  C   UNL d   1       0.860   4.712  -5.953  0.00  0.00     0.284 C 
ATOM      9  H3  UNL d   1       0.596   6.315  -4.652  0.00  0.00     0.395 HD
ENDBRANCH   1   7
TORSDOF 1
ENDMDL
