MODEL 1
REMARK minimizedAffinity 3.91682577
REMARK minimizedRMSD -1
REMARK  1 active torsions:
REMARK  status: ('A' for Active; 'I' for Inactive)
REMARK    1  A    between atoms: N_2  and  C1_3 
ROOT
ATOM      1  C1  UNL d   1      -2.770  -0.114   0.880  0.00  0.00     0.143 A 
ATOM      2  C2  UNL d   1      -2.564  -0.508  -0.446  0.00  0.00    -0.057 A 
ATOM      3  C3  UNL d   1      -3.229   0.124  -1.504  0.00  0.00     0.033 A 
ATOM      4  C4  UNL d   1      -4.137   1.146  -1.250  0.00  0.00    -0.042 A 
ATOM      5  C5  UNL d   1      -4.377   1.538   0.062  0.00  0.00     0.033 A 
ATOM      6  C6  UNL d   1      -3.704   0.908   1.114  0.00  0.00    -0.057 A 
ENDROOT
BRANCH   1   7
ATOM      7  N   UNL d   1      -2.214  -0.768   1.982  0.00  0.00    -0.732 N 
ATOM      8  C   UNL d   1      -1.695  -2.113   1.856  0.00  0.00     0.284 C 
ATOM      9  H3  UNL d   1      -1.636  -0.152   2.549  0.00  0.00     0.395 HD
ENDBRANCH   1   7
TORSDOF 1
ENDMDL
