MODEL 1
REMARK minimizedAffinity 1.79050887
REMARK minimizedRMSD -1
REMARK  0 active torsions:
REMARK  status: ('A' for Active; 'I' for Inactive)
ROOT
ATOM      1  C   UNL d   1      -5.814  -0.372  -4.102  0.00  0.00     0.020 A 
ATOM      2  C1  UNL d   1      -5.797   0.652  -5.047  0.00  0.00     0.020 A 
ATOM      3  C2  UNL d   1      -4.588   1.052  -5.621  0.00  0.00     0.034 A 
ATOM      4  C3  UNL d   1      -3.392   0.428  -5.249  0.00  0.00     0.017 A 
ATOM      5  C4  UNL d   1      -3.410  -0.600  -4.300  0.00  0.00     0.017 A 
ATOM      6  C5  UNL d   1      -4.623  -0.997  -3.729  0.00  0.00     0.034 A 
ATOM      7 Cl   UNL d   1      -1.975  -1.418  -3.791  0.00  0.00    -0.070 Cl
ATOM      8 Cl1  UNL d   1      -1.934   0.973  -5.999  0.00  0.00    -0.070 Cl
ENDROOT
TORSDOF 0
ENDMDL
