MODEL 1
REMARK minimizedAffinity 8.50827503
REMARK minimizedRMSD -1
REMARK  0 active torsions:
REMARK  status: ('A' for Active; 'I' for Inactive)
ROOT
ATOM      1  C   UNL d   1       2.964   1.417  -0.372  0.00  0.00     0.020 A 
ATOM      2  C1  UNL d   1       1.712   0.809  -0.284  0.00  0.00     0.020 A 
ATOM      3  C2  UNL d   1       1.618  -0.555   0.000  0.00  0.00     0.034 A 
ATOM      4  C3  UNL d   1       2.776  -1.316   0.196  0.00  0.00     0.017 A 
ATOM      5  C4  UNL d   1       4.032  -0.704   0.107  0.00  0.00     0.017 A 
ATOM      6  C5  UNL d   1       4.121   0.662  -0.177  0.00  0.00     0.034 A 
ATOM      7 Cl   UNL d   1       5.506  -1.576   0.337  0.00  0.00    -0.070 Cl
ATOM      8 Cl1  UNL d   1       2.585  -2.997   0.544  0.00  0.00    -0.070 Cl
ENDROOT
TORSDOF 0
ENDMDL
