MODEL 1
REMARK minimizedAffinity 8.27143192
REMARK minimizedRMSD -1
REMARK  0 active torsions:
REMARK  status: ('A' for Active; 'I' for Inactive)
ROOT
ATOM      1  C   UNL d   1      -4.110  -0.659  -5.015  0.00  0.00     0.020 A 
ATOM      2  C1  UNL d   1      -3.883   0.361  -5.938  0.00  0.00     0.020 A 
ATOM      3  C2  UNL d   1      -3.551   1.643  -5.494  0.00  0.00     0.034 A 
ATOM      4  C3  UNL d   1      -3.444   1.908  -4.124  0.00  0.00     0.017 A 
ATOM      5  C4  UNL d   1      -3.672   0.883  -3.198  0.00  0.00     0.017 A 
ATOM      6  C5  UNL d   1      -4.004  -0.398  -3.648  0.00  0.00     0.034 A 
ATOM      7 Cl   UNL d   1      -3.559   1.134  -1.492  0.00  0.00    -0.070 Cl
ATOM      8 Cl1  UNL d   1      -3.029   3.516  -3.647  0.00  0.00    -0.070 Cl
ENDROOT
TORSDOF 0
ENDMDL
