MODEL 1
REMARK minimizedAffinity -0.740389287
REMARK minimizedRMSD -1
REMARK  0 active torsions:
REMARK  status: ('A' for Active; 'I' for Inactive)
ROOT
ATOM      1  C   UNL d   1      -5.581  -0.697  -4.465  0.00  0.00     0.020 A 
ATOM      2  C1  UNL d   1      -5.499   0.173  -5.551  0.00  0.00     0.020 A 
ATOM      3  C2  UNL d   1      -4.264   0.704  -5.929  0.00  0.00     0.034 A 
ATOM      4  C3  UNL d   1      -3.106   0.365  -5.220  0.00  0.00     0.017 A 
ATOM      5  C4  UNL d   1      -3.189  -0.508  -4.130  0.00  0.00     0.017 A 
ATOM      6  C5  UNL d   1      -4.428  -1.037  -3.756  0.00  0.00     0.034 A 
ATOM      7 Cl   UNL d   1      -1.803  -0.973  -3.207  0.00  0.00    -0.070 Cl
ATOM      8 Cl1  UNL d   1      -1.612   1.059  -5.743  0.00  0.00    -0.070 Cl
ENDROOT
TORSDOF 0
ENDMDL
