MODEL 1
REMARK minimizedAffinity 4.77531242
REMARK minimizedRMSD -1
REMARK  0 active torsions:
REMARK  status: ('A' for Active; 'I' for Inactive)
ROOT
ATOM      1  C   UNL d   1      -4.526   5.997  -5.746  0.00  0.00     0.020 A 
ATOM      2  C1  UNL d   1      -5.369   5.017  -5.223  0.00  0.00     0.020 A 
ATOM      3  C2  UNL d   1      -4.867   3.748  -4.931  0.00  0.00     0.034 A 
ATOM      4  C3  UNL d   1      -3.518   3.454  -5.161  0.00  0.00     0.017 A 
ATOM      5  C4  UNL d   1      -2.672   4.438  -5.686  0.00  0.00     0.017 A 
ATOM      6  C5  UNL d   1      -3.181   5.708  -5.977  0.00  0.00     0.034 A 
ATOM      7 Cl   UNL d   1      -0.997   4.150  -5.998  0.00  0.00    -0.070 Cl
ATOM      8 Cl1  UNL d   1      -2.965   1.863  -4.777  0.00  0.00    -0.070 Cl
ENDROOT
TORSDOF 0
ENDMDL
