MODEL 1
REMARK minimizedAffinity 0.457288146
REMARK minimizedRMSD -1
REMARK  0 active torsions:
REMARK  status: ('A' for Active; 'I' for Inactive)
ROOT
ATOM      1  C   UNL d   1      -3.635   3.373  -3.761  0.00  0.00     0.020 A 
ATOM      2  C1  UNL d   1      -3.316   3.370  -5.118  0.00  0.00     0.020 A 
ATOM      3  C2  UNL d   1      -3.135   2.159  -5.790  0.00  0.00     0.034 A 
ATOM      4  C3  UNL d   1      -3.273   0.946  -5.105  0.00  0.00     0.017 A 
ATOM      5  C4  UNL d   1      -3.592   0.950  -3.743  0.00  0.00     0.017 A 
ATOM      6  C5  UNL d   1      -3.772   2.165  -3.075  0.00  0.00     0.034 A 
ATOM      7 Cl   UNL d   1      -3.779  -0.506  -2.830  0.00  0.00    -0.070 Cl
ATOM      8 Cl1  UNL d   1      -3.035  -0.513  -6.000  0.00  0.00    -0.070 Cl
ENDROOT
TORSDOF 0
ENDMDL
