MODEL 1
REMARK minimizedAffinity 1.3520478
REMARK minimizedRMSD -1
REMARK  0 active torsions:
REMARK  status: ('A' for Active; 'I' for Inactive)
ROOT
ATOM      1  C   UNL d   1       2.405  -3.261   0.734  0.00  0.00     0.020 A 
ATOM      2  C1  UNL d   1       1.527  -2.238   0.377  0.00  0.00     0.020 A 
ATOM      3  C2  UNL d   1       2.025  -0.982   0.025  0.00  0.00     0.034 A 
ATOM      4  C3  UNL d   1       3.405  -0.745   0.030  0.00  0.00     0.017 A 
ATOM      5  C4  UNL d   1       4.285  -1.773   0.389  0.00  0.00     0.017 A 
ATOM      6  C5  UNL d   1       3.781  -3.029   0.740  0.00  0.00     0.034 A 
ATOM      7 Cl   UNL d   1       5.999  -1.556   0.418  0.00  0.00    -0.070 Cl
ATOM      8 Cl1  UNL d   1       3.951   0.832  -0.417  0.00  0.00    -0.070 Cl
ENDROOT
TORSDOF 0
ENDMDL
