MODEL 1
REMARK minimizedAffinity 3.40045381
REMARK minimizedRMSD -1
REMARK  0 active torsions:
REMARK  status: ('A' for Active; 'I' for Inactive)
ROOT
ATOM      1  C   UNL d   1      -2.653   0.403  -5.961  0.00  0.00     0.020 A 
ATOM      2  C1  UNL d   1      -1.924  -0.693  -5.501  0.00  0.00     0.020 A 
ATOM      3  C2  UNL d   1      -2.445  -1.504  -4.491  0.00  0.00     0.034 A 
ATOM      4  C3  UNL d   1      -3.699  -1.220  -3.936  0.00  0.00     0.017 A 
ATOM      5  C4  UNL d   1      -4.429  -0.119  -4.398  0.00  0.00     0.017 A 
ATOM      6  C5  UNL d   1      -3.903   0.690  -5.410  0.00  0.00     0.034 A 
ATOM      7 Cl   UNL d   1      -5.983   0.295  -3.763  0.00  0.00    -0.070 Cl
ATOM      8 Cl1  UNL d   1      -4.282  -2.265  -2.690  0.00  0.00    -0.070 Cl
ENDROOT
TORSDOF 0
ENDMDL
