MODEL 1
REMARK minimizedAffinity 2.76929903
REMARK minimizedRMSD -1
REMARK  0 active torsions:
REMARK  status: ('A' for Active; 'I' for Inactive)
ROOT
ATOM      1  C   UNL d   1      -4.782  -1.829  -3.514  0.00  0.00     0.020 A 
ATOM      2  C1  UNL d   1      -5.072  -0.622  -4.148  0.00  0.00     0.020 A 
ATOM      3  C2  UNL d   1      -4.540   0.571  -3.655  0.00  0.00     0.034 A 
ATOM      4  C3  UNL d   1      -3.715   0.560  -2.525  0.00  0.00     0.017 A 
ATOM      5  C4  UNL d   1      -3.424  -0.652  -1.889  0.00  0.00     0.017 A 
ATOM      6  C5  UNL d   1      -3.959  -1.844  -2.387  0.00  0.00     0.034 A 
ATOM      7 Cl   UNL d   1      -2.414  -0.746  -0.490  0.00  0.00    -0.070 Cl
ATOM      8 Cl1  UNL d   1      -3.091   2.073  -1.970  0.00  0.00    -0.070 Cl
ENDROOT
TORSDOF 0
ENDMDL
