MODEL 1
REMARK minimizedAffinity 0.295470923
REMARK minimizedRMSD -1
REMARK  0 active torsions:
REMARK  status: ('A' for Active; 'I' for Inactive)
ROOT
ATOM      1  C   UNL d   1      -5.389   0.723  -5.301  0.00  0.00     0.020 A 
ATOM      2  C1  UNL d   1      -5.519  -0.518  -4.678  0.00  0.00     0.020 A 
ATOM      3  C2  UNL d   1      -4.380  -1.250  -4.335  0.00  0.00     0.034 A 
ATOM      4  C3  UNL d   1      -3.106  -0.742  -4.614  0.00  0.00     0.017 A 
ATOM      5  C4  UNL d   1      -2.977   0.504  -5.239  0.00  0.00     0.017 A 
ATOM      6  C5  UNL d   1      -4.120   1.233  -5.580  0.00  0.00     0.034 A 
ATOM      7 Cl   UNL d   1      -1.439   1.197  -5.616  0.00  0.00    -0.070 Cl
ATOM      8 Cl1  UNL d   1      -1.742  -1.700  -4.162  0.00  0.00    -0.070 Cl
ENDROOT
TORSDOF 0
ENDMDL
