MODEL 1
REMARK minimizedAffinity 5.64761686
REMARK minimizedRMSD -1
REMARK  2 active torsions:
REMARK  status: ('A' for Active; 'I' for Inactive)
REMARK    1  A    between atoms: C2'_3  and  C1'_4 
REMARK    2  A    between atoms: C1'_4  and  C1_5 
ROOT
ATOM      1  C1  I4B d   1       4.044  -5.823  -3.582  0.00  0.00    -0.075 A 
ATOM      2  C2  I4B d   1       2.676  -5.938  -3.586  0.00  0.00     0.003 A 
ATOM      3  C3  I4B d   1       1.968  -5.984  -4.811  0.00  0.00     0.002 A 
ATOM      4  C4  I4B d   1       2.658  -5.861  -6.000  0.00  0.00    -0.004 A 
ATOM      5  C5  I4B d   1       4.046  -5.767  -5.995  0.00  0.00     0.002 A 
ATOM      6  C6  I4B d   1       4.746  -5.760  -4.779  0.00  0.00     0.003 A 
ENDROOT
BRANCH   1   7
ATOM      7  C1' I4B d   1       4.758  -5.744  -2.270  0.00  0.00     0.060 C 
BRANCH   7   8
ATOM      8  C2' I4B d   1       4.444  -4.399  -1.648  0.00  0.00    -0.013 C 
ATOM      9  C4' I4B d   1       4.466  -3.303  -2.680  0.00  0.00     0.013 C 
ATOM     10  C3' I4B d   1       3.101  -4.495  -0.988  0.00  0.00     0.013 C 
ENDBRANCH   7   8
ENDBRANCH   1   7
TORSDOF 2
ENDMDL
