MODEL 1
REMARK minimizedAffinity 15.4349365
REMARK minimizedRMSD -1
REMARK  2 active torsions:
REMARK  status: ('A' for Active; 'I' for Inactive)
REMARK    1  A    between atoms: C2'_3  and  C1'_4 
REMARK    2  A    between atoms: C1'_4  and  C1_5 
ROOT
ATOM      1  C1  I4B d   1       3.398  -5.217  -4.204  0.00  0.00    -0.075 A 
ATOM      2  C2  I4B d   1       3.745  -5.397  -5.520  0.00  0.00     0.003 A 
ATOM      3  C3  I4B d   1       5.057  -5.805  -5.861  0.00  0.00     0.002 A 
ATOM      4  C4  I4B d   1       5.998  -5.970  -4.865  0.00  0.00    -0.004 A 
ATOM      5  C5  I4B d   1       5.638  -5.809  -3.531  0.00  0.00     0.002 A 
ATOM      6  C6  I4B d   1       4.326  -5.442  -3.197  0.00  0.00     0.003 A 
ENDROOT
BRANCH   1   7
ATOM      7  C1' I4B d   1       2.012  -4.754  -3.882  0.00  0.00     0.060 C 
BRANCH   7   8
ATOM      8  C2' I4B d   1       1.127  -5.065  -5.072  0.00  0.00    -0.013 C 
ATOM      9  C4' I4B d   1       0.710  -3.805  -5.784  0.00  0.00     0.013 C 
ATOM     10  C3' I4B d   1       1.886  -5.979  -5.986  0.00  0.00     0.013 C 
ENDBRANCH   7   8
ENDBRANCH   1   7
TORSDOF 2
ENDMDL
