MODEL 1
REMARK minimizedAffinity 5.60506392
REMARK minimizedRMSD -1
REMARK  2 active torsions:
REMARK  status: ('A' for Active; 'I' for Inactive)
REMARK    1  A    between atoms: C2'_3  and  C1'_4 
REMARK    2  A    between atoms: C1'_4  and  C1_5 
ROOT
ATOM      1  C1  I4B d   1       3.335  -5.823  -3.811  0.00  0.00    -0.075 A 
ATOM      2  C2  I4B d   1       4.654  -5.870  -3.432  0.00  0.00     0.003 A 
ATOM      3  C3  I4B d   1       5.002  -5.838  -2.060  0.00  0.00     0.002 A 
ATOM      4  C4  I4B d   1       4.010  -5.709  -1.109  0.00  0.00    -0.004 A 
ATOM      5  C5  I4B d   1       2.673  -5.685  -1.495  0.00  0.00     0.002 A 
ATOM      6  C6  I4B d   1       2.332  -5.755  -2.853  0.00  0.00     0.003 A 
ENDROOT
BRANCH   1   7
ATOM      7  C1' I4B d   1       3.005  -5.825  -5.270  0.00  0.00     0.060 C 
BRANCH   7   8
ATOM      8  C2' I4B d   1       4.107  -5.084  -6.000  0.00  0.00    -0.013 C 
ATOM      9  C4' I4B d   1       4.386  -3.752  -5.357  0.00  0.00     0.013 C 
ATOM     10  C3' I4B d   1       5.329  -5.954  -5.997  0.00  0.00     0.013 C 
ENDBRANCH   7   8
ENDBRANCH   1   7
TORSDOF 2
ENDMDL
