MODEL 1
REMARK minimizedAffinity 2.44141006
REMARK minimizedRMSD -1
REMARK  2 active torsions:
REMARK  status: ('A' for Active; 'I' for Inactive)
REMARK    1  A    between atoms: C2'_3  and  C1'_4 
REMARK    2  A    between atoms: C1'_4  and  C1_5 
ROOT
ATOM      1  C1  I4B d   1       3.692  -5.730  -4.078  0.00  0.00    -0.075 A 
ATOM      2  C2  I4B d   1       3.509  -5.996  -5.413  0.00  0.00     0.003 A 
ATOM      3  C3  I4B d   1       2.225  -5.870  -5.996  0.00  0.00     0.002 A 
ATOM      4  C4  I4B d   1       1.149  -5.527  -5.202  0.00  0.00    -0.004 A 
ATOM      5  C5  I4B d   1       1.340  -5.236  -3.854  0.00  0.00     0.002 A 
ATOM      6  C6  I4B d   1       2.621  -5.326  -3.291  0.00  0.00     0.003 A 
ENDROOT
BRANCH   1   7
ATOM      7  C1' I4B d   1       5.055  -5.906  -3.489  0.00  0.00     0.060 C 
BRANCH   7   8
ATOM      8  C2' I4B d   1       5.986  -4.918  -4.162  0.00  0.00    -0.013 C 
ATOM      9  C4' I4B d   1       5.981  -5.098  -5.658  0.00  0.00     0.013 C 
ATOM     10  C3' I4B d   1       5.547  -3.535  -3.782  0.00  0.00     0.013 C 
ENDBRANCH   7   8
ENDBRANCH   1   7
TORSDOF 2
ENDMDL
