MODEL 1
REMARK minimizedAffinity 3.20984578
REMARK minimizedRMSD -1
REMARK  2 active torsions:
REMARK  status: ('A' for Active; 'I' for Inactive)
REMARK    1  A    between atoms: C2'_3  and  C1'_4 
REMARK    2  A    between atoms: C1'_4  and  C1_5 
ROOT
ATOM      1  C1  I4B d   1       3.572  -5.589  -3.205  0.00  0.00    -0.075 A 
ATOM      2  C2  I4B d   1       3.569  -5.806  -1.849  0.00  0.00     0.003 A 
ATOM      3  C3  I4B d   1       4.790  -5.970  -1.151  0.00  0.00     0.002 A 
ATOM      4  C4  I4B d   1       5.980  -5.962  -1.851  0.00  0.00    -0.004 A 
ATOM      5  C5  I4B d   1       5.982  -5.720  -3.222  0.00  0.00     0.002 A 
ATOM      6  C6  I4B d   1       4.771  -5.520  -3.901  0.00  0.00     0.003 A 
ENDROOT
BRANCH   1   7
ATOM      7  C1' I4B d   1       2.263  -5.453  -3.915  0.00  0.00     0.060 C 
BRANCH   7   8
ATOM      8  C2' I4B d   1       2.508  -4.696  -5.204  0.00  0.00    -0.013 C 
ATOM      9  C4' I4B d   1       3.640  -5.306  -5.988  0.00  0.00     0.013 C 
ATOM     10  C3' I4B d   1       1.235  -4.705  -5.996  0.00  0.00     0.013 C 
ENDBRANCH   7   8
ENDBRANCH   1   7
TORSDOF 2
ENDMDL
