MODEL 1
REMARK minimizedAffinity 9.24156094
REMARK minimizedRMSD -1
REMARK  2 active torsions:
REMARK  status: ('A' for Active; 'I' for Inactive)
REMARK    1  A    between atoms: C2'_3  and  C1'_4 
REMARK    2  A    between atoms: C1'_4  and  C1_5 
ROOT
ATOM      1  C1  I4B d   1       4.010  -5.560  -4.847  0.00  0.00    -0.075 A 
ATOM      2  C2  I4B d   1       5.084  -4.769  -5.172  0.00  0.00     0.003 A 
ATOM      3  C3  I4B d   1       6.000  -4.365  -4.171  0.00  0.00     0.002 A 
ATOM      4  C4  I4B d   1       5.777  -4.729  -2.858  0.00  0.00    -0.004 A 
ATOM      5  C5  I4B d   1       4.700  -5.549  -2.534  0.00  0.00     0.002 A 
ATOM      6  C6  I4B d   1       3.818  -5.978  -3.537  0.00  0.00     0.003 A 
ENDROOT
BRANCH   1   7
ATOM      7  C1' I4B d   1       3.044  -5.941  -5.924  0.00  0.00     0.060 C 
BRANCH   7   8
ATOM      8  C2' I4B d   1       1.654  -5.955  -5.321  0.00  0.00    -0.013 C 
ATOM      9  C4' I4B d   1       1.703  -5.733  -3.832  0.00  0.00     0.013 C 
ATOM     10  C3' I4B d   1       0.845  -4.890  -6.000  0.00  0.00     0.013 C 
ENDBRANCH   7   8
ENDBRANCH   1   7
TORSDOF 2
ENDMDL
