MODEL 1
REMARK minimizedAffinity 8.00704098
REMARK minimizedRMSD -1
REMARK  2 active torsions:
REMARK  status: ('A' for Active; 'I' for Inactive)
REMARK    1  A    between atoms: C2'_3  and  C1'_4 
REMARK    2  A    between atoms: C1'_4  and  C1_5 
ROOT
ATOM      1  C1  I4B d   1       3.545   3.910   0.385  0.00  0.00    -0.075 A 
ATOM      2  C2  I4B d   1       4.642   3.919  -0.440  0.00  0.00     0.003 A 
ATOM      3  C3  I4B d   1       4.846   4.991  -1.343  0.00  0.00     0.002 A 
ATOM      4  C4  I4B d   1       3.907   5.999  -1.424  0.00  0.00    -0.004 A 
ATOM      5  C5  I4B d   1       2.808   6.000  -0.570  0.00  0.00     0.002 A 
ATOM      6  C6  I4B d   1       2.632   4.955   0.349  0.00  0.00     0.003 A 
ENDROOT
BRANCH   1   7
ATOM      7  C1' I4B d   1       3.344   2.747   1.304  0.00  0.00     0.060 C 
BRANCH   7   8
ATOM      8  C2' I4B d   1       2.559   1.690   0.554  0.00  0.00    -0.013 C 
ATOM      9  C4' I4B d   1       1.110   2.079   0.421  0.00  0.00     0.013 C 
ATOM     10  C3' I4B d   1       3.196   1.508  -0.792  0.00  0.00     0.013 C 
ENDBRANCH   7   8
ENDBRANCH   1   7
TORSDOF 2
ENDMDL
