MODEL 1
REMARK minimizedAffinity 6.75932837
REMARK minimizedRMSD -1
REMARK  2 active torsions:
REMARK  status: ('A' for Active; 'I' for Inactive)
REMARK    1  A    between atoms: C2'_3  and  C1'_4 
REMARK    2  A    between atoms: C1'_4  and  C1_5 
ROOT
ATOM      1  C1  I4B d   1       1.751   2.014   1.085  0.00  0.00    -0.075 A 
ATOM      2  C2  I4B d   1       2.664   1.240   0.414  0.00  0.00     0.003 A 
ATOM      3  C3  I4B d   1       4.051   1.427   0.626  0.00  0.00     0.002 A 
ATOM      4  C4  I4B d   1       4.479   2.428   1.474  0.00  0.00    -0.004 A 
ATOM      5  C5  I4B d   1       3.552   3.197   2.172  0.00  0.00     0.002 A 
ATOM      6  C6  I4B d   1       2.179   2.980   1.986  0.00  0.00     0.003 A 
ENDROOT
BRANCH   1   7
ATOM      7  C1' I4B d   1       0.294   1.811   0.812  0.00  0.00     0.060 C 
BRANCH   7   8
ATOM      8  C2' I4B d   1      -0.435   3.082   1.198  0.00  0.00    -0.013 C 
ATOM      9  C4' I4B d   1      -1.591   3.350   0.271  0.00  0.00     0.013 C 
ATOM     10  C3' I4B d   1      -0.899   2.937   2.616  0.00  0.00     0.013 C 
ENDBRANCH   7   8
ENDBRANCH   1   7
TORSDOF 2
ENDMDL
