MODEL 1
REMARK minimizedAffinity 4.20958042
REMARK minimizedRMSD -1
REMARK  2 active torsions:
REMARK  status: ('A' for Active; 'I' for Inactive)
REMARK    1  A    between atoms: C2'_3  and  C1'_4 
REMARK    2  A    between atoms: C1'_4  and  C1_5 
ROOT
ATOM      1  C1  I4B d   1       1.181   2.328   1.158  0.00  0.00    -0.075 A 
ATOM      2  C2  I4B d   1       2.266   3.082   1.530  0.00  0.00     0.003 A 
ATOM      3  C3  I4B d   1       3.563   2.736   1.079  0.00  0.00     0.002 A 
ATOM      4  C4  I4B d   1       3.735   1.606   0.306  0.00  0.00    -0.004 A 
ATOM      5  C5  I4B d   1       2.631   0.856  -0.089  0.00  0.00     0.002 A 
ATOM      6  C6  I4B d   1       1.344   1.226   0.329  0.00  0.00     0.003 A 
ENDROOT
BRANCH   1   7
ATOM      7  C1' I4B d   1      -0.170   2.703   1.678  0.00  0.00     0.060 C 
BRANCH   7   8
ATOM      8  C2' I4B d   1      -1.209   2.121   0.742  0.00  0.00    -0.013 C 
ATOM      9  C4' I4B d   1      -1.881   0.919   1.353  0.00  0.00     0.013 C 
ATOM     10  C3' I4B d   1      -2.205   3.197   0.429  0.00  0.00     0.013 C 
ENDBRANCH   7   8
ENDBRANCH   1   7
TORSDOF 2
ENDMDL
