MODEL 1
REMARK minimizedAffinity 1.02274883
REMARK minimizedRMSD -1
REMARK  2 active torsions:
REMARK  status: ('A' for Active; 'I' for Inactive)
REMARK    1  A    between atoms: C2'_3  and  C1'_4 
REMARK    2  A    between atoms: C1'_4  and  C1_5 
ROOT
ATOM      1  C1  I4B d   1       3.592  -5.755  -3.210  0.00  0.00    -0.075 A 
ATOM      2  C2  I4B d   1       3.494  -5.797  -4.578  0.00  0.00     0.003 A 
ATOM      3  C3  I4B d   1       4.664  -5.829  -5.376  0.00  0.00     0.002 A 
ATOM      4  C4  I4B d   1       5.902  -5.766  -4.769  0.00  0.00    -0.004 A 
ATOM      5  C5  I4B d   1       5.999  -5.747  -3.381  0.00  0.00     0.002 A 
ATOM      6  C6  I4B d   1       4.838  -5.754  -2.595  0.00  0.00     0.003 A 
ENDROOT
BRANCH   1   7
ATOM      7  C1' I4B d   1       2.337  -5.690  -2.399  0.00  0.00     0.060 C 
BRANCH   7   8
ATOM      8  C2' I4B d   1       1.318  -4.884  -3.180  0.00  0.00    -0.013 C 
ATOM      9  C4' I4B d   1       0.975  -5.556  -4.484  0.00  0.00     0.013 C 
ATOM     10  C3' I4B d   1       0.101  -4.718  -2.320  0.00  0.00     0.013 C 
ENDBRANCH   7   8
ENDBRANCH   1   7
TORSDOF 2
ENDMDL
