MODEL 1
REMARK minimizedAffinity 2.63360333
REMARK minimizedRMSD -1
REMARK  2 active torsions:
REMARK  status: ('A' for Active; 'I' for Inactive)
REMARK    1  A    between atoms: C2'_3  and  C1'_4 
REMARK    2  A    between atoms: C1'_4  and  C1_5 
ROOT
ATOM      1  C1  I4B d   1       0.751   1.797   1.029  0.00  0.00    -0.075 A 
ATOM      2  C2  I4B d   1       1.491   2.680   1.776  0.00  0.00     0.003 A 
ATOM      3  C3  I4B d   1       2.903   2.697   1.668  0.00  0.00     0.002 A 
ATOM      4  C4  I4B d   1       3.532   1.786   0.845  0.00  0.00    -0.004 A 
ATOM      5  C5  I4B d   1       2.780   0.907   0.071  0.00  0.00     0.002 A 
ATOM      6  C6  I4B d   1       1.380   0.921   0.154  0.00  0.00     0.003 A 
ENDROOT
BRANCH   1   7
ATOM      7  C1' I4B d   1      -0.735   1.784   1.193  0.00  0.00     0.060 C 
BRANCH   7   8
ATOM      8  C2' I4B d   1      -1.191   3.209   1.435  0.00  0.00    -0.013 C 
ATOM      9  C4' I4B d   1      -2.399   3.544   0.600  0.00  0.00     0.013 C 
ATOM     10  C3' I4B d   1      -1.485   3.359   2.897  0.00  0.00     0.013 C 
ENDBRANCH   7   8
ENDBRANCH   1   7
TORSDOF 2
ENDMDL
