MODEL 1
REMARK minimizedAffinity 3.79337358
REMARK minimizedRMSD -1
REMARK  2 active torsions:
REMARK  status: ('A' for Active; 'I' for Inactive)
REMARK    1  A    between atoms: C2'_3  and  C1'_4 
REMARK    2  A    between atoms: C1'_4  and  C1_5 
ROOT
ATOM      1  C1  I4B d   1       2.549   3.134   1.572  0.00  0.00    -0.075 A 
ATOM      2  C2  I4B d   1       3.425   2.299   0.924  0.00  0.00     0.003 A 
ATOM      3  C3  I4B d   1       2.939   1.214   0.154  0.00  0.00     0.002 A 
ATOM      4  C4  I4B d   1       1.582   0.973   0.101  0.00  0.00    -0.004 A 
ATOM      5  C5  I4B d   1       0.694   1.835   0.739  0.00  0.00     0.002 A 
ATOM      6  C6  I4B d   1       1.180   2.929   1.470  0.00  0.00     0.003 A 
ENDROOT
BRANCH   1   7
ATOM      7  C1' I4B d   1       3.098   4.249   2.403  0.00  0.00     0.060 C 
BRANCH   7   8
ATOM      8  C2' I4B d   1       3.950   5.125   1.506  0.00  0.00    -0.013 C 
ATOM      9  C4' I4B d   1       3.096   5.948   0.578  0.00  0.00     0.013 C 
ATOM     10  C3' I4B d   1       4.797   5.999   2.382  0.00  0.00     0.013 C 
ENDBRANCH   7   8
ENDBRANCH   1   7
TORSDOF 2
ENDMDL
