MODEL 1
REMARK minimizedAffinity -2.74462342
REMARK minimizedRMSD -1
REMARK  2 active torsions:
REMARK  status: ('A' for Active; 'I' for Inactive)
REMARK    1  A    between atoms: C2'_3  and  C1'_4 
REMARK    2  A    between atoms: C1'_4  and  C1_5 
ROOT
ATOM      1  C1  I4B d   1      -3.457   2.178  -5.243  0.00  0.00    -0.075 A 
ATOM      2  C2  I4B d   1      -4.480   1.591  -4.540  0.00  0.00     0.003 A 
ATOM      3  C3  I4B d   1      -5.780   2.152  -4.571  0.00  0.00     0.002 A 
ATOM      4  C4  I4B d   1      -5.999   3.322  -5.270  0.00  0.00    -0.004 A 
ATOM      5  C5  I4B d   1      -4.966   3.903  -6.000  0.00  0.00     0.002 A 
ATOM      6  C6  I4B d   1      -3.690   3.321  -5.996  0.00  0.00     0.003 A 
ENDROOT
BRANCH   1   7
ATOM      7  C1' I4B d   1      -2.090   1.577  -5.162  0.00  0.00     0.060 C 
BRANCH   7   8
ATOM      8  C2' I4B d   1      -1.102   2.698  -4.909  0.00  0.00    -0.013 C 
ATOM      9  C4' I4B d   1      -0.962   2.980  -3.437  0.00  0.00     0.013 C 
ATOM     10  C3' I4B d   1       0.213   2.301  -5.512  0.00  0.00     0.013 C 
ENDBRANCH   7   8
ENDBRANCH   1   7
TORSDOF 2
ENDMDL
