MODEL 1
REMARK minimizedAffinity -2.18047261
REMARK minimizedRMSD -1
REMARK  0 active torsions:
REMARK  status: ('A' for Active; 'I' for Inactive)
ROOT
ATOM      1  C1  BNZ d   1      -1.623  -0.374  -0.362  0.00  0.00     0.000 A 
ATOM      2  C2  BNZ d   1      -1.054  -0.849   0.789  0.00  0.00     0.000 A 
ATOM      3  C3  BNZ d   1       0.278  -0.667   1.038  0.00  0.00     0.000 A 
ATOM      4  C4  BNZ d   1       1.046  -0.048   0.118  0.00  0.00     0.000 A 
ATOM      5  C5  BNZ d   1       0.488   0.428  -1.052  0.00  0.00     0.000 A 
ATOM      6  C6  BNZ d   1      -0.860   0.278  -1.281  0.00  0.00     0.000 A 
ENDROOT
TORSDOF 0
ENDMDL
