MODEL 1
REMARK minimizedAffinity -1.28351045
REMARK minimizedRMSD -1
REMARK  0 active torsions:
REMARK  status: ('A' for Active; 'I' for Inactive)
ROOT
ATOM      1  C1  BNZ d   1       0.572  -0.933   0.953  0.00  0.00     0.000 A 
ATOM      2  C2  BNZ d   1       0.494  -0.125  -0.150  0.00  0.00     0.000 A 
ATOM      3  C3  BNZ d   1      -0.477  -0.319  -1.093  0.00  0.00     0.000 A 
ATOM      4  C4  BNZ d   1      -1.341  -1.344  -0.953  0.00  0.00     0.000 A 
ATOM      5  C5  BNZ d   1      -1.270  -2.174   0.149  0.00  0.00     0.000 A 
ATOM      6  C6  BNZ d   1      -0.316  -1.951   1.115  0.00  0.00     0.000 A 
ENDROOT
TORSDOF 0
ENDMDL
