MODEL 1
REMARK minimizedAffinity -2.41773677
REMARK minimizedRMSD -1
REMARK  0 active torsions:
REMARK  status: ('A' for Active; 'I' for Inactive)
ROOT
ATOM      1  C1  BNZ d   1       0.818   0.182  -0.504  0.00  0.00     0.000 A 
ATOM      2  C2  BNZ d   1      -0.202   0.382  -1.396  0.00  0.00     0.000 A 
ATOM      3  C3  BNZ d   1      -1.429  -0.185  -1.194  0.00  0.00     0.000 A 
ATOM      4  C4  BNZ d   1      -1.624  -0.982  -0.124  0.00  0.00     0.000 A 
ATOM      5  C5  BNZ d   1      -0.603  -1.201   0.780  0.00  0.00     0.000 A 
ATOM      6  C6  BNZ d   1       0.620  -0.597   0.594  0.00  0.00     0.000 A 
ENDROOT
TORSDOF 0
ENDMDL
