MODEL 1
REMARK minimizedAffinity -3.28223228
REMARK minimizedRMSD -1
REMARK  0 active torsions:
REMARK  status: ('A' for Active; 'I' for Inactive)
ROOT
ATOM      1  C1  BNZ d   1       2.636   1.016   0.112  0.00  0.00     0.000 A 
ATOM      2  C2  BNZ d   1       3.292   2.112   0.604  0.00  0.00     0.000 A 
ATOM      3  C3  BNZ d   1       2.598   3.168   1.125  0.00  0.00     0.000 A 
ATOM      4  C4  BNZ d   1       1.249   3.144   1.116  0.00  0.00     0.000 A 
ATOM      5  C5  BNZ d   1       0.573   2.050   0.614  0.00  0.00     0.000 A 
ATOM      6  C6  BNZ d   1       1.276   0.972   0.126  0.00  0.00     0.000 A 
ENDROOT
TORSDOF 0
ENDMDL
