MODEL 1
REMARK minimizedAffinity -1.5255661
REMARK minimizedRMSD -1
REMARK  0 active torsions:
REMARK  status: ('A' for Active; 'I' for Inactive)
ROOT
ATOM      1  C1  BNZ d   1       0.772   1.126   2.026  0.00  0.00     0.000 A 
ATOM      2  C2  BNZ d   1       0.809  -0.048   2.730  0.00  0.00     0.000 A 
ATOM      3  C3  BNZ d   1       0.611  -1.246   2.104  0.00  0.00     0.000 A 
ATOM      4  C4  BNZ d   1       0.336  -1.267   0.784  0.00  0.00     0.000 A 
ATOM      5  C5  BNZ d   1       0.285  -0.092   0.062  0.00  0.00     0.000 A 
ATOM      6  C6  BNZ d   1       0.524   1.110   0.688  0.00  0.00     0.000 A 
ENDROOT
TORSDOF 0
ENDMDL
