MODEL 1
REMARK minimizedAffinity -2.46449304
REMARK minimizedRMSD -1
REMARK  0 active torsions:
REMARK  status: ('A' for Active; 'I' for Inactive)
ROOT
ATOM      1  C1  BNZ d   1       0.153  -0.204  -1.987  0.00  0.00     0.000 A 
ATOM      2  C2  BNZ d   1       1.133  -0.222  -1.030  0.00  0.00     0.000 A 
ATOM      3  C3  BNZ d   1       0.944   0.391   0.177  0.00  0.00     0.000 A 
ATOM      4  C4  BNZ d   1      -0.206   1.056   0.409  0.00  0.00     0.000 A 
ATOM      5  C5  BNZ d   1      -1.200   1.092  -0.549  0.00  0.00     0.000 A 
ATOM      6  C6  BNZ d   1      -1.022   0.440  -1.747  0.00  0.00     0.000 A 
ENDROOT
TORSDOF 0
ENDMDL
