MODEL 1
REMARK minimizedAffinity -1.65679657
REMARK minimizedRMSD -1
REMARK  0 active torsions:
REMARK  status: ('A' for Active; 'I' for Inactive)
ROOT
ATOM      1  C1  BNZ d   1      -0.964  -0.187  -2.221  0.00  0.00     0.000 A 
ATOM      2  C2  BNZ d   1       0.216  -0.239  -1.528  0.00  0.00     0.000 A 
ATOM      3  C3  BNZ d   1       0.288   0.193  -0.233  0.00  0.00     0.000 A 
ATOM      4  C4  BNZ d   1      -0.810   0.712   0.354  0.00  0.00     0.000 A 
ATOM      5  C5  BNZ d   1      -2.005   0.779  -0.334  0.00  0.00     0.000 A 
ATOM      6  C6  BNZ d   1      -2.083   0.308  -1.624  0.00  0.00     0.000 A 
ENDROOT
TORSDOF 0
ENDMDL
