MODEL 1
REMARK minimizedAffinity -2.46544552
REMARK minimizedRMSD -1
REMARK  0 active torsions:
REMARK  status: ('A' for Active; 'I' for Inactive)
ROOT
ATOM      1  C1  BNZ d   1       0.087  -0.518  -0.455  0.00  0.00     0.000 A 
ATOM      2  C2  BNZ d   1      -0.987  -1.368  -0.478  0.00  0.00     0.000 A 
ATOM      3  C3  BNZ d   1      -2.088  -1.084  -1.236  0.00  0.00     0.000 A 
ATOM      4  C4  BNZ d   1      -2.131   0.066  -1.938  0.00  0.00     0.000 A 
ATOM      5  C5  BNZ d   1      -1.061   0.938  -1.918  0.00  0.00     0.000 A 
ATOM      6  C6  BNZ d   1       0.062   0.631  -1.185  0.00  0.00     0.000 A 
ENDROOT
TORSDOF 0
ENDMDL
