MODEL 1
REMARK minimizedAffinity -2.22120714
REMARK minimizedRMSD -1
REMARK  0 active torsions:
REMARK  status: ('A' for Active; 'I' for Inactive)
ROOT
ATOM      1  C1  BNZ d   1      -0.394   0.855  -0.890  0.00  0.00     0.000 A 
ATOM      2  C2  BNZ d   1      -1.451   0.584  -1.718  0.00  0.00     0.000 A 
ATOM      3  C3  BNZ d   1      -2.180  -0.562  -1.570  0.00  0.00     0.000 A 
ATOM      4  C4  BNZ d   1      -1.828  -1.454  -0.622  0.00  0.00     0.000 A 
ATOM      5  C5  BNZ d   1      -0.759  -1.201   0.214  0.00  0.00     0.000 A 
ATOM      6  C6  BNZ d   1      -0.051  -0.027   0.088  0.00  0.00     0.000 A 
ENDROOT
TORSDOF 0
ENDMDL
