MODEL 1
REMARK minimizedAffinity -1.57173598
REMARK minimizedRMSD -1
REMARK  0 active torsions:
REMARK  status: ('A' for Active; 'I' for Inactive)
ROOT
ATOM      1  C1  BNZ d   1      -1.395  -0.730  -1.316  0.00  0.00     0.000 A 
ATOM      2  C2  BNZ d   1      -2.459  -1.592  -1.343  0.00  0.00     0.000 A 
ATOM      3  C3  BNZ d   1      -2.521  -2.654  -0.485  0.00  0.00     0.000 A 
ATOM      4  C4  BNZ d   1      -1.502  -2.876   0.370  0.00  0.00     0.000 A 
ATOM      5  C5  BNZ d   1      -0.418  -2.022   0.403  0.00  0.00     0.000 A 
ATOM      6  C6  BNZ d   1      -0.377  -0.932  -0.435  0.00  0.00     0.000 A 
ENDROOT
TORSDOF 0
ENDMDL
