MODEL 1
REMARK minimizedAffinity -1.08448124
REMARK minimizedRMSD -1
REMARK  0 active torsions:
REMARK  status: ('A' for Active; 'I' for Inactive)
ROOT
ATOM      1  C1  BNZ d   1      -0.433   1.047  -1.433  0.00  0.00     0.000 A 
ATOM      2  C2  BNZ d   1      -0.961   0.175  -2.346  0.00  0.00     0.000 A 
ATOM      3  C3  BNZ d   1      -2.134  -0.480  -2.092  0.00  0.00     0.000 A 
ATOM      4  C4  BNZ d   1      -2.756  -0.292  -0.910  0.00  0.00     0.000 A 
ATOM      5  C5  BNZ d   1      -2.230   0.577   0.025  0.00  0.00     0.000 A 
ATOM      6  C6  BNZ d   1      -1.070   1.263  -0.250  0.00  0.00     0.000 A 
ENDROOT
TORSDOF 0
ENDMDL
