MODEL 1
REMARK minimizedAffinity -2.28530431
REMARK minimizedRMSD -1
REMARK  0 active torsions:
REMARK  status: ('A' for Active; 'I' for Inactive)
ROOT
ATOM      1  C1  BNZ d   1       0.312   0.751  -1.048  0.00  0.00     0.000 A 
ATOM      2  C2  BNZ d   1      -0.856   0.782  -1.761  0.00  0.00     0.000 A 
ATOM      3  C3  BNZ d   1      -1.894  -0.048  -1.442  0.00  0.00     0.000 A 
ATOM      4  C4  BNZ d   1      -1.748  -0.936  -0.437  0.00  0.00     0.000 A 
ATOM      5  C5  BNZ d   1      -0.572  -0.986   0.285  0.00  0.00     0.000 A 
ATOM      6  C6  BNZ d   1       0.456  -0.122  -0.014  0.00  0.00     0.000 A 
ENDROOT
TORSDOF 0
ENDMDL
