MODEL 1
REMARK minimizedAffinity 0.450992942
REMARK minimizedRMSD -1
REMARK  0 active torsions:
REMARK  status: ('A' for Active; 'I' for Inactive)
ROOT
ATOM      1  C1  BNZ d   1       0.972   0.237  -0.317  0.00  0.00     0.000 A 
ATOM      2  C2  BNZ d   1       0.205   0.524  -1.415  0.00  0.00     0.000 A 
ATOM      3  C3  BNZ d   1      -1.083   0.075  -1.505  0.00  0.00     0.000 A 
ATOM      4  C4  BNZ d   1      -1.589  -0.693  -0.518  0.00  0.00     0.000 A 
ATOM      5  C5  BNZ d   1      -0.825  -0.998   0.591  0.00  0.00     0.000 A 
ATOM      6  C6  BNZ d   1       0.458  -0.512   0.696  0.00  0.00     0.000 A 
ENDROOT
TORSDOF 0
ENDMDL
