MODEL 1
REMARK minimizedAffinity -2.61343932
REMARK minimizedRMSD -1
REMARK  0 active torsions:
REMARK  status: ('A' for Active; 'I' for Inactive)
ROOT
ATOM      1  C1  BNZ d   1       1.451   2.646   1.917  0.00  0.00     0.000 A 
ATOM      2  C2  BNZ d   1       2.223   3.664   1.424  0.00  0.00     0.000 A 
ATOM      3  C3  BNZ d   1       2.893   3.525   0.240  0.00  0.00     0.000 A 
ATOM      4  C4  BNZ d   1       2.822   2.355  -0.428  0.00  0.00     0.000 A 
ATOM      5  C5  BNZ d   1       2.055   1.317   0.061  0.00  0.00     0.000 A 
ATOM      6  C6  BNZ d   1       1.351   1.474   1.232  0.00  0.00     0.000 A 
ENDROOT
TORSDOF 0
ENDMDL
