MODEL 1
REMARK minimizedAffinity -1.84297299
REMARK minimizedRMSD -1
REMARK  0 active torsions:
REMARK  status: ('A' for Active; 'I' for Inactive)
ROOT
ATOM      1  C1  BNZ d   1       0.039  -0.750   1.158  0.00  0.00     0.000 A 
ATOM      2  C2  BNZ d   1      -0.837  -0.346   0.186  0.00  0.00     0.000 A 
ATOM      3  C3  BNZ d   1      -0.385   0.235  -0.966  0.00  0.00     0.000 A 
ATOM      4  C4  BNZ d   1       0.937   0.447  -1.128  0.00  0.00     0.000 A 
ATOM      5  C5  BNZ d   1       1.832   0.054  -0.153  0.00  0.00     0.000 A 
ATOM      6  C6  BNZ d   1       1.377  -0.566   0.988  0.00  0.00     0.000 A 
ENDROOT
TORSDOF 0
ENDMDL
