MODEL 1
REMARK minimizedAffinity -4.54779816
REMARK minimizedRMSD -1
REMARK  0 active torsions:
REMARK  status: ('A' for Active; 'I' for Inactive)
ROOT
ATOM      1  N1  IND d   1       0.519  -0.940  -2.222  0.00  0.00    -0.196 N 
ATOM      2  C2  IND d   1       0.440   0.425  -2.225  0.00  0.00     0.054 A 
ATOM      3  C3  IND d   1       0.023   0.874  -1.020  0.00  0.00    -0.031 A 
ATOM      4  C4  IND d   1      -0.489  -0.446   1.130  0.00  0.00     0.051 A 
ATOM      5  C5  IND d   1      -0.594  -1.721   1.612  0.00  0.00    -0.031 A 
ATOM      6  C6  IND d   1      -0.325  -2.822   0.825  0.00  0.00     0.015 A 
ATOM      7  C7  IND d   1       0.072  -2.689  -0.475  0.00  0.00    -0.016 A 
ATOM      8  C8  IND d   1       0.172  -1.397  -0.970  0.00  0.00    -0.047 A 
ATOM      9  C9  IND d   1      -0.141  -0.276  -0.189  0.00  0.00    -0.096 A 
ATOM     10  HN1 IND d   1       0.747  -1.430  -2.891  0.00  0.00     0.298 HD
ENDROOT
TORSDOF 0
ENDMDL
