MODEL 1
REMARK minimizedAffinity -3.92169714
REMARK minimizedRMSD -1
REMARK  0 active torsions:
REMARK  status: ('A' for Active; 'I' for Inactive)
ROOT
ATOM      1  N1  IND d   1       0.789   0.566  -0.635  0.00  0.00    -0.196 N 
ATOM      2  C2  IND d   1      -0.013   1.452   0.030  0.00  0.00     0.054 A 
ATOM      3  C3  IND d   1      -0.984   0.795   0.702  0.00  0.00    -0.031 A 
ATOM      4  C4  IND d   1      -1.385  -1.738   0.935  0.00  0.00     0.051 A 
ATOM      5  C5  IND d   1      -0.936  -2.946   0.481  0.00  0.00    -0.031 A 
ATOM      6  C6  IND d   1       0.135  -3.047  -0.384  0.00  0.00     0.015 A 
ATOM      7  C7  IND d   1       0.806  -1.940  -0.820  0.00  0.00    -0.016 A 
ATOM      8  C8  IND d   1       0.348  -0.711  -0.366  0.00  0.00    -0.047 A 
ATOM      9  C9  IND d   1      -0.764  -0.599   0.478  0.00  0.00    -0.096 A 
ATOM     10  HN1 IND d   1       1.456   0.772  -1.137  0.00  0.00     0.298 HD
ENDROOT
TORSDOF 0
ENDMDL
