MODEL 1
REMARK minimizedAffinity -4.67334843
REMARK minimizedRMSD -1
REMARK  0 active torsions:
REMARK  status: ('A' for Active; 'I' for Inactive)
ROOT
ATOM      1  N1  IND d   1      -0.616   0.737  -1.528  0.00  0.00    -0.196 N 
ATOM      2  C2  IND d   1      -0.165  -0.110  -2.503  0.00  0.00     0.054 A 
ATOM      3  C3  IND d   1      -0.167  -1.385  -2.056  0.00  0.00    -0.031 A 
ATOM      4  C4  IND d   1      -0.964  -2.325   0.205  0.00  0.00     0.051 A 
ATOM      5  C5  IND d   1      -1.424  -1.935   1.432  0.00  0.00    -0.031 A 
ATOM      6  C6  IND d   1      -1.645  -0.608   1.740  0.00  0.00     0.015 A 
ATOM      7  C7  IND d   1      -1.424   0.382   0.824  0.00  0.00    -0.016 A 
ATOM      8  C8  IND d   1      -0.950  -0.010  -0.420  0.00  0.00    -0.047 A 
ATOM      9  C9  IND d   1      -0.684  -1.351  -0.724  0.00  0.00    -0.096 A 
ATOM     10  HN1 IND d   1      -0.679   1.592  -1.596  0.00  0.00     0.298 HD
ENDROOT
TORSDOF 0
ENDMDL
