MODEL 1
REMARK minimizedAffinity -3.42178655
REMARK minimizedRMSD -1
REMARK  0 active torsions:
REMARK  status: ('A' for Active; 'I' for Inactive)
ROOT
ATOM      1  N1  IND d   1       0.410  -0.564  -1.713  0.00  0.00    -0.196 N 
ATOM      2  C2  IND d   1       0.123   0.770  -1.784  0.00  0.00     0.054 A 
ATOM      3  C3  IND d   1      -0.621   1.149  -0.721  0.00  0.00    -0.031 A 
ATOM      4  C4  IND d   1      -1.397  -0.234   1.307  0.00  0.00     0.051 A 
ATOM      5  C5  IND d   1      -1.409  -1.508   1.801  0.00  0.00    -0.031 A 
ATOM      6  C6  IND d   1      -0.802  -2.554   1.136  0.00  0.00     0.015 A 
ATOM      7  C7  IND d   1      -0.146  -2.361  -0.046  0.00  0.00    -0.016 A 
ATOM      8  C8  IND d   1      -0.137  -1.069  -0.554  0.00  0.00    -0.047 A 
ATOM      9  C9  IND d   1      -0.788  -0.012   0.095  0.00  0.00    -0.096 A 
ATOM     10  HN1 IND d   1       0.857  -1.013  -2.295  0.00  0.00     0.298 HD
ENDROOT
TORSDOF 0
ENDMDL
