MODEL 1
REMARK minimizedAffinity -5.51764536
REMARK minimizedRMSD -1
REMARK  0 active torsions:
REMARK  status: ('A' for Active; 'I' for Inactive)
ROOT
ATOM      1  N1  IND d   1      -0.380   0.382  -1.442  0.00  0.00    -0.196 N 
ATOM      2  C2  IND d   1      -1.063   0.816  -0.341  0.00  0.00     0.054 A 
ATOM      3  C3  IND d   1      -1.210  -0.191   0.550  0.00  0.00    -0.031 A 
ATOM      4  C4  IND d   1      -0.320  -2.604   0.450  0.00  0.00     0.051 A 
ATOM      5  C5  IND d   1       0.330  -3.480  -0.374  0.00  0.00    -0.031 A 
ATOM      6  C6  IND d   1       0.788  -3.104  -1.621  0.00  0.00     0.015 A 
ATOM      7  C7  IND d   1       0.622  -1.831  -2.087  0.00  0.00    -0.016 A 
ATOM      8  C8  IND d   1      -0.043  -0.941  -1.255  0.00  0.00    -0.047 A 
ATOM      9  C9  IND d   1      -0.548  -1.328  -0.007  0.00  0.00    -0.096 A 
ATOM     10  HN1 IND d   1      -0.192   0.855  -2.135  0.00  0.00     0.298 HD
ENDROOT
TORSDOF 0
ENDMDL
