MODEL 1
REMARK minimizedAffinity 0.27414453
REMARK minimizedRMSD -1
REMARK  0 active torsions:
REMARK  status: ('A' for Active; 'I' for Inactive)
ROOT
ATOM      1  N1  IND d   1       1.827   2.509  -0.652  0.00  0.00    -0.196 N 
ATOM      2  C2  IND d   1       1.694   3.424   0.355  0.00  0.00     0.054 A 
ATOM      3  C3  IND d   1       0.727   3.037   1.217  0.00  0.00    -0.031 A 
ATOM      4  C4  IND d   1      -0.693   0.890   1.225  0.00  0.00     0.051 A 
ATOM      5  C5  IND d   1      -0.957  -0.230   0.488  0.00  0.00    -0.031 A 
ATOM      6  C6  IND d   1      -0.290  -0.502  -0.689  0.00  0.00     0.015 A 
ATOM      7  C7  IND d   1       0.677   0.335  -1.169  0.00  0.00    -0.016 A 
ATOM      8  C8  IND d   1       0.942   1.477  -0.427  0.00  0.00    -0.047 A 
ATOM      9  C9  IND d   1       0.239   1.779   0.746  0.00  0.00    -0.096 A 
ATOM     10  HN1 IND d   1       2.372   2.568  -1.314  0.00  0.00     0.298 HD
ENDROOT
TORSDOF 0
ENDMDL
