MODEL 1
REMARK minimizedAffinity -4.00722313
REMARK minimizedRMSD -1
REMARK  0 active torsions:
REMARK  status: ('A' for Active; 'I' for Inactive)
ROOT
ATOM      1  N1  IND d   1       0.254   0.543  -1.172  0.00  0.00    -0.196 N 
ATOM      2  C2  IND d   1      -0.590   1.336  -0.447  0.00  0.00     0.054 A 
ATOM      3  C3  IND d   1      -1.175   0.622   0.540  0.00  0.00    -0.031 A 
ATOM      4  C4  IND d   1      -0.818  -1.838   1.212  0.00  0.00     0.051 A 
ATOM      5  C5  IND d   1      -0.171  -2.977   0.823  0.00  0.00    -0.031 A 
ATOM      6  C6  IND d   1       0.670  -3.002  -0.271  0.00  0.00     0.015 A 
ATOM      7  C7  IND d   1       0.905  -1.879  -1.013  0.00  0.00    -0.016 A 
ATOM      8  C8  IND d   1       0.244  -0.722  -0.626  0.00  0.00    -0.047 A 
ATOM      9  C9  IND d   1      -0.643  -0.701   0.457  0.00  0.00    -0.096 A 
ATOM     10  HN1 IND d   1       0.714   0.791  -1.855  0.00  0.00     0.298 HD
ENDROOT
TORSDOF 0
ENDMDL
