MODEL 1
REMARK minimizedAffinity -4.08023357
REMARK minimizedRMSD -1
REMARK  0 active torsions:
REMARK  status: ('A' for Active; 'I' for Inactive)
ROOT
ATOM      1  N1  IND d   1      -0.408   1.085  -1.766  0.00  0.00    -0.196 N 
ATOM      2  C2  IND d   1       0.053   0.360  -2.830  0.00  0.00     0.054 A 
ATOM      3  C3  IND d   1       0.338  -0.905  -2.450  0.00  0.00    -0.031 A 
ATOM      4  C4  IND d   1       0.029  -2.033  -0.156  0.00  0.00     0.051 A 
ATOM      5  C5  IND d   1      -0.326  -1.766   1.137  0.00  0.00    -0.031 A 
ATOM      6  C6  IND d   1      -0.737  -0.510   1.535  0.00  0.00     0.015 A 
ATOM      7  C7  IND d   1      -0.820   0.527   0.650  0.00  0.00    -0.016 A 
ATOM      8  C8  IND d   1      -0.454   0.261  -0.662  0.00  0.00    -0.047 A 
ATOM      9  C9  IND d   1       0.005  -1.000  -1.063  0.00  0.00    -0.096 A 
ATOM     10  HN1 IND d   1      -0.631   1.915  -1.783  0.00  0.00     0.298 HD
ENDROOT
TORSDOF 0
ENDMDL
