MODEL 1
REMARK minimizedAffinity -0.445253015
REMARK minimizedRMSD -1
REMARK  0 active torsions:
REMARK  status: ('A' for Active; 'I' for Inactive)
ROOT
ATOM      1  N1  IND d   1      -0.692   1.000   0.541  0.00  0.00    -0.196 N 
ATOM      2  C2  IND d   1       0.474   1.294  -0.110  0.00  0.00     0.054 A 
ATOM      3  C3  IND d   1       1.036   0.167  -0.600  0.00  0.00    -0.031 A 
ATOM      4  C4  IND d   1       0.166  -2.256  -0.538  0.00  0.00     0.051 A 
ATOM      5  C5  IND d   1      -0.837  -3.027  -0.022  0.00  0.00    -0.031 A 
ATOM      6  C6  IND d   1      -1.866  -2.484   0.720  0.00  0.00     0.015 A 
ATOM      7  C7  IND d   1      -1.935  -1.142   0.966  0.00  0.00    -0.016 A 
ATOM      8  C8  IND d   1      -0.914  -0.357   0.450  0.00  0.00    -0.047 A 
ATOM      9  C9  IND d   1       0.155  -0.907  -0.268  0.00  0.00    -0.096 A 
ATOM     10  HN1 IND d   1      -1.200   1.567   0.941  0.00  0.00     0.298 HD
ENDROOT
TORSDOF 0
ENDMDL
