MODEL 1
REMARK minimizedAffinity -4.60310125
REMARK minimizedRMSD -1
REMARK  0 active torsions:
REMARK  status: ('A' for Active; 'I' for Inactive)
ROOT
ATOM      1  N1  IND d   1      -0.148  -2.603   1.539  0.00  0.00    -0.196 N 
ATOM      2  C2  IND d   1       0.254  -3.228   0.392  0.00  0.00     0.054 A 
ATOM      3  C3  IND d   1       0.351  -2.337  -0.620  0.00  0.00    -0.031 A 
ATOM      4  C4  IND d   1      -0.004   0.212  -0.594  0.00  0.00     0.051 A 
ATOM      5  C5  IND d   1      -0.415   1.234   0.215  0.00  0.00    -0.031 A 
ATOM      6  C6  IND d   1      -0.762   1.026   1.534  0.00  0.00     0.015 A 
ATOM      7  C7  IND d   1      -0.700  -0.216   2.099  0.00  0.00    -0.016 A 
ATOM      8  C8  IND d   1      -0.290  -1.258   1.279  0.00  0.00    -0.047 A 
ATOM      9  C9  IND d   1       0.022  -1.059  -0.072  0.00  0.00    -0.096 A 
ATOM     10  HN1 IND d   1      -0.288  -2.986   2.297  0.00  0.00     0.298 HD
ENDROOT
TORSDOF 0
ENDMDL
