MODEL 1
REMARK minimizedAffinity -4.78255033
REMARK minimizedRMSD -1
REMARK  0 active torsions:
REMARK  status: ('A' for Active; 'I' for Inactive)
ROOT
ATOM      1  N1  IND d   1      -0.038   1.466   1.033  0.00  0.00    -0.196 N 
ATOM      2  C2  IND d   1       0.859   1.899   0.097  0.00  0.00     0.054 A 
ATOM      3  C3  IND d   1       1.339   0.854  -0.614  0.00  0.00    -0.031 A 
ATOM      4  C4  IND d   1       0.714  -1.640  -0.480  0.00  0.00     0.051 A 
ATOM      5  C5  IND d   1      -0.033  -2.526   0.245  0.00  0.00    -0.031 A 
ATOM      6  C6  IND d   1      -0.838  -2.118   1.289  0.00  0.00     0.015 A 
ATOM      7  C7  IND d   1      -0.935  -0.801   1.641  0.00  0.00    -0.016 A 
ATOM      8  C8  IND d   1      -0.173   0.100   0.912  0.00  0.00    -0.047 A 
ATOM      9  C9  IND d   1       0.678  -0.313  -0.121  0.00  0.00    -0.096 A 
ATOM     10  HN1 IND d   1      -0.449   1.963   1.601  0.00  0.00     0.298 HD
ENDROOT
TORSDOF 0
ENDMDL
