MODEL 1
REMARK minimizedAffinity -2.10013962
REMARK minimizedRMSD -1
REMARK  0 active torsions:
REMARK  status: ('A' for Active; 'I' for Inactive)
ROOT
ATOM      1  N1  IND d   1      -0.547   0.888  -1.911  0.00  0.00    -0.196 N 
ATOM      2  C2  IND d   1       0.011   0.288  -3.005  0.00  0.00     0.054 A 
ATOM      3  C3  IND d   1       0.448  -0.952  -2.690  0.00  0.00    -0.031 A 
ATOM      4  C4  IND d   1       0.258  -2.237  -0.468  0.00  0.00     0.051 A 
ATOM      5  C5  IND d   1      -0.140  -2.090   0.831  0.00  0.00    -0.031 A 
ATOM      6  C6  IND d   1      -0.709  -0.920   1.291  0.00  0.00     0.015 A 
ATOM      7  C7  IND d   1      -0.911   0.148   0.463  0.00  0.00    -0.016 A 
ATOM      8  C8  IND d   1      -0.501   0.004  -0.855  0.00  0.00    -0.047 A 
ATOM      9  C9  IND d   1       0.115  -1.166  -1.317  0.00  0.00    -0.096 A 
ATOM     10  HN1 IND d   1      -0.872   1.684  -1.886  0.00  0.00     0.298 HD
ENDROOT
TORSDOF 0
ENDMDL
