MODEL 1
REMARK minimizedAffinity -2.26662254
REMARK minimizedRMSD -1
REMARK  0 active torsions:
REMARK  status: ('A' for Active; 'I' for Inactive)
ROOT
ATOM      1  N1  IND d   1       0.958   1.119  -0.839  0.00  0.00    -0.196 N 
ATOM      2  C2  IND d   1       0.846   2.182   0.013  0.00  0.00     0.054 A 
ATOM      3  C3  IND d   1       0.107   1.843   1.094  0.00  0.00    -0.031 A 
ATOM      4  C4  IND d   1      -0.929  -0.429   1.718  0.00  0.00     0.051 A 
ATOM      5  C5  IND d   1      -1.126  -1.693   1.235  0.00  0.00    -0.031 A 
ATOM      6  C6  IND d   1      -0.625  -2.092   0.013  0.00  0.00     0.015 A 
ATOM      7  C7  IND d   1       0.103  -1.243  -0.771  0.00  0.00    -0.016 A 
ATOM      8  C8  IND d   1       0.299   0.043  -0.287  0.00  0.00    -0.047 A 
ATOM      9  C9  IND d   1      -0.243   0.467   0.934  0.00  0.00    -0.096 A 
ATOM     10  HN1 IND d   1       1.371   1.122  -1.593  0.00  0.00     0.298 HD
ENDROOT
TORSDOF 0
ENDMDL
