MODEL 1
REMARK minimizedAffinity -5.49683714
REMARK minimizedRMSD -1
REMARK  0 active torsions:
REMARK  status: ('A' for Active; 'I' for Inactive)
ROOT
ATOM      1  N1  IND d   1       0.280   0.336  -1.533  0.00  0.00    -0.196 N 
ATOM      2  C2  IND d   1      -0.062   1.475  -0.859  0.00  0.00     0.054 A 
ATOM      3  C3  IND d   1      -0.525   1.171   0.374  0.00  0.00    -0.031 A 
ATOM      4  C4  IND d   1      -0.714  -1.121   1.530  0.00  0.00     0.051 A 
ATOM      5  C5  IND d   1      -0.557  -2.460   1.301  0.00  0.00    -0.031 A 
ATOM      6  C6  IND d   1      -0.102  -2.944   0.092  0.00  0.00     0.015 A 
ATOM      7  C7  IND d   1       0.227  -2.104  -0.934  0.00  0.00    -0.016 A 
ATOM      8  C8  IND d   1       0.062  -0.745  -0.707  0.00  0.00    -0.047 A 
ATOM      9  C9  IND d   1      -0.440  -0.250   0.503  0.00  0.00    -0.096 A 
ATOM     10  HN1 IND d   1       0.581   0.300  -2.338  0.00  0.00     0.298 HD
ENDROOT
TORSDOF 0
ENDMDL
