MODEL 1
REMARK minimizedAffinity -6.16523409
REMARK minimizedRMSD -1
REMARK  0 active torsions:
REMARK  status: ('A' for Active; 'I' for Inactive)
ROOT
ATOM      1  N1  IND d   1       0.304  -0.242  -2.529  0.00  0.00    -0.196 N 
ATOM      2  C2  IND d   1       0.108   0.987  -1.965  0.00  0.00     0.054 A 
ATOM      3  C3  IND d   1      -0.195   0.860  -0.653  0.00  0.00    -0.031 A 
ATOM      4  C4  IND d   1      -0.322  -1.263   0.797  0.00  0.00     0.051 A 
ATOM      5  C5  IND d   1      -0.257  -2.626   0.720  0.00  0.00    -0.031 A 
ATOM      6  C6  IND d   1       0.007  -3.277  -0.468  0.00  0.00     0.015 A 
ATOM      7  C7  IND d   1       0.228  -2.586  -1.626  0.00  0.00    -0.016 A 
ATOM      8  C8  IND d   1       0.155  -1.202  -1.552  0.00  0.00    -0.047 A 
ATOM      9  C9  IND d   1      -0.155  -0.537  -0.359  0.00  0.00    -0.096 A 
ATOM     10  HN1 IND d   1       0.490  -0.391  -3.356  0.00  0.00     0.298 HD
ENDROOT
TORSDOF 0
ENDMDL
