MODEL 1
REMARK minimizedAffinity -2.58140087
REMARK minimizedRMSD -1
REMARK  0 active torsions:
REMARK  status: ('A' for Active; 'I' for Inactive)
ROOT
ATOM      1  N1  IND d   1      -1.402  -1.974   0.955  0.00  0.00    -0.196 N 
ATOM      2  C2  IND d   1      -0.917  -3.082   0.318  0.00  0.00     0.054 A 
ATOM      3  C3  IND d   1      -0.099  -2.721  -0.697  0.00  0.00    -0.031 A 
ATOM      4  C4  IND d   1       0.665  -0.373  -1.425  0.00  0.00     0.051 A 
ATOM      5  C5  IND d   1       0.461   0.954  -1.169  0.00  0.00    -0.031 A 
ATOM      6  C6  IND d   1      -0.390   1.381  -0.170  0.00  0.00     0.015 A 
ATOM      7  C7  IND d   1      -1.062   0.493   0.621  0.00  0.00    -0.016 A 
ATOM      8  C8  IND d   1      -0.863  -0.855   0.359  0.00  0.00    -0.047 A 
ATOM      9  C9  IND d   1      -0.033  -1.294  -0.681  0.00  0.00    -0.096 A 
ATOM     10  HN1 IND d   1      -1.951  -1.976   1.616  0.00  0.00     0.298 HD
ENDROOT
TORSDOF 0
ENDMDL
