MODEL 1
REMARK minimizedAffinity -2.74773645
REMARK minimizedRMSD -1
REMARK  1 active torsions:
REMARK  status: ('A' for Active; 'I' for Inactive)
REMARK    1  A    between atoms: N_2  and  C1_3 
ROOT
ATOM      1  C1  UNL d   1       4.852   4.464  -4.468  0.00  0.00     0.143 A 
ATOM      2  C2  UNL d   1       3.846   4.262  -3.517  0.00  0.00    -0.057 A 
ATOM      3  C3  UNL d   1       3.898   4.881  -2.263  0.00  0.00     0.033 A 
ATOM      4  C4  UNL d   1       4.976   5.693  -1.925  0.00  0.00    -0.042 A 
ATOM      5  C5  UNL d   1       6.000   5.888  -2.845  0.00  0.00     0.033 A 
ATOM      6  C6  UNL d   1       5.939   5.272  -4.099  0.00  0.00    -0.057 A 
ENDROOT
BRANCH   1   7
ATOM      7  N   UNL d   1       4.907   3.799  -5.695  0.00  0.00    -0.732 N 
ATOM      8  C   UNL d   1       6.000   2.899  -5.998  0.00  0.00     0.284 C 
ATOM      9  H3  UNL d   1       3.996   3.461  -5.995  0.00  0.00     0.395 HD
ENDBRANCH   1   7
TORSDOF 1
ENDMDL
