MODEL 1
REMARK minimizedAffinity 3.19087529
REMARK minimizedRMSD -1
REMARK  1 active torsions:
REMARK  status: ('A' for Active; 'I' for Inactive)
REMARK    1  A    between atoms: N_2  and  C1_3 
ROOT
ATOM      1  C1  UNL d   1       4.631   5.349  -4.217  0.00  0.00     0.143 A 
ATOM      2  C2  UNL d   1       5.747   6.000  -3.680  0.00  0.00    -0.057 A 
ATOM      3  C3  UNL d   1       6.000   5.990  -2.302  0.00  0.00     0.033 A 
ATOM      4  C4  UNL d   1       5.122   5.352  -1.432  0.00  0.00    -0.042 A 
ATOM      5  C5  UNL d   1       3.992   4.721  -1.942  0.00  0.00     0.033 A 
ATOM      6  C6  UNL d   1       3.749   4.728  -3.319  0.00  0.00    -0.057 A 
ENDROOT
BRANCH   1   7
ATOM      7  N   UNL d   1       4.272   5.406  -5.566  0.00  0.00    -0.732 N 
ATOM      8  C   UNL d   1       3.013   5.996  -5.970  0.00  0.00     0.284 C 
ATOM      9  H3  UNL d   1       5.056   5.650  -6.166  0.00  0.00     0.395 HD
ENDBRANCH   1   7
TORSDOF 1
ENDMDL
