MODEL 1
REMARK minimizedAffinity -1.89406395
REMARK minimizedRMSD -1
REMARK  1 active torsions:
REMARK  status: ('A' for Active; 'I' for Inactive)
REMARK    1  A    between atoms: N_2  and  C1_3 
ROOT
ATOM      1  C1  UNL d   1       4.857   5.249  -2.666  0.00  0.00     0.143 A 
ATOM      2  C2  UNL d   1       6.000   5.089  -3.457  0.00  0.00    -0.057 A 
ATOM      3  C3  UNL d   1       5.987   4.274  -4.595  0.00  0.00     0.033 A 
ATOM      4  C4  UNL d   1       4.834   3.580  -4.948  0.00  0.00    -0.042 A 
ATOM      5  C5  UNL d   1       3.694   3.705  -4.162  0.00  0.00     0.033 A 
ATOM      6  C6  UNL d   1       3.711   4.525  -3.030  0.00  0.00    -0.057 A 
ENDROOT
BRANCH   1   7
ATOM      7  N   UNL d   1       4.835   5.967  -1.467  0.00  0.00    -0.732 N 
ATOM      8  C   UNL d   1       5.997   5.999  -0.606  0.00  0.00     0.284 C 
ATOM      9  H3  UNL d   1       4.360   6.862  -1.559  0.00  0.00     0.395 HD
ENDBRANCH   1   7
TORSDOF 1
ENDMDL
