MODEL 1
REMARK minimizedAffinity 1.67346776
REMARK minimizedRMSD -1
REMARK  1 active torsions:
REMARK  status: ('A' for Active; 'I' for Inactive)
REMARK    1  A    between atoms: N_2  and  C1_3 
ROOT
ATOM      1  C1  UNL d   1       4.136   4.670  -2.207  0.00  0.00     0.143 A 
ATOM      2  C2  UNL d   1       5.127   5.640  -2.024  0.00  0.00    -0.057 A 
ATOM      3  C3  UNL d   1       5.994   5.999  -3.063  0.00  0.00     0.033 A 
ATOM      4  C4  UNL d   1       5.904   5.370  -4.300  0.00  0.00    -0.042 A 
ATOM      5  C5  UNL d   1       4.943   4.385  -4.498  0.00  0.00     0.033 A 
ATOM      6  C6  UNL d   1       4.075   4.036  -3.458  0.00  0.00    -0.057 A 
ENDROOT
BRANCH   1   7
ATOM      7  N   UNL d   1       3.308   4.200  -1.185  0.00  0.00    -0.732 N 
ATOM      8  C   UNL d   1       1.926   3.865  -1.451  0.00  0.00     0.284 C 
ATOM      9  H3  UNL d   1       3.785   3.543  -0.571  0.00  0.00     0.395 HD
ENDBRANCH   1   7
TORSDOF 1
ENDMDL
