MODEL 1
REMARK minimizedAffinity -1.83645689
REMARK minimizedRMSD -1
REMARK  1 active torsions:
REMARK  status: ('A' for Active; 'I' for Inactive)
REMARK    1  A    between atoms: N_2  and  C1_3 
ROOT
ATOM      1  C1  UNL d   1       4.496   4.408  -2.977  0.00  0.00     0.143 A 
ATOM      2  C2  UNL d   1       4.504   3.630  -4.140  0.00  0.00    -0.057 A 
ATOM      3  C3  UNL d   1       5.258   4.002  -5.259  0.00  0.00     0.033 A 
ATOM      4  C4  UNL d   1       5.999   5.180  -5.245  0.00  0.00    -0.042 A 
ATOM      5  C5  UNL d   1       5.986   5.982  -4.110  0.00  0.00     0.033 A 
ATOM      6  C6  UNL d   1       5.236   5.601  -2.993  0.00  0.00    -0.057 A 
ENDROOT
BRANCH   1   7
ATOM      7  N   UNL d   1       3.690   4.142  -1.868  0.00  0.00    -0.732 N 
ATOM      8  C   UNL d   1       2.288   4.503  -1.873  0.00  0.00     0.284 C 
ATOM      9  H3  UNL d   1       3.883   3.233  -1.456  0.00  0.00     0.395 HD
ENDBRANCH   1   7
TORSDOF 1
ENDMDL
