MODEL 1
REMARK minimizedAffinity -3.48131824
REMARK minimizedRMSD -1
REMARK  1 active torsions:
REMARK  status: ('A' for Active; 'I' for Inactive)
REMARK    1  A    between atoms: N_2  and  C1_3 
ROOT
ATOM      1  C1  UNL d   1       5.588   5.448  -3.520  0.00  0.00     0.143 A 
ATOM      2  C2  UNL d   1       5.998   5.923  -4.770  0.00  0.00    -0.057 A 
ATOM      3  C3  UNL d   1       5.634   5.267  -5.952  0.00  0.00     0.033 A 
ATOM      4  C4  UNL d   1       4.874   4.103  -5.902  0.00  0.00    -0.042 A 
ATOM      5  C5  UNL d   1       4.475   3.599  -4.670  0.00  0.00     0.033 A 
ATOM      6  C6  UNL d   1       4.837   4.262  -3.493  0.00  0.00    -0.057 A 
ENDROOT
BRANCH   1   7
ATOM      7  N   UNL d   1       5.999   6.000  -2.304  0.00  0.00    -0.732 N 
ATOM      8  C   UNL d   1       5.347   5.628  -1.067  0.00  0.00     0.284 C 
ATOM      9  H3  UNL d   1       7.011   6.074  -2.234  0.00  0.00     0.395 HD
ENDBRANCH   1   7
TORSDOF 1
ENDMDL
