MODEL 1
REMARK minimizedAffinity 3.2112298
REMARK minimizedRMSD -1
REMARK  1 active torsions:
REMARK  status: ('A' for Active; 'I' for Inactive)
REMARK    1  A    between atoms: N_2  and  C1_3 
ROOT
ATOM      1  C1  UNL d   1       3.755   4.980  -2.799  0.00  0.00     0.143 A 
ATOM      2  C2  UNL d   1       3.770   4.080  -3.870  0.00  0.00    -0.057 A 
ATOM      3  C3  UNL d   1       4.886   3.967  -4.708  0.00  0.00     0.033 A 
ATOM      4  C4  UNL d   1       6.000   4.775  -4.505  0.00  0.00    -0.042 A 
ATOM      5  C5  UNL d   1       5.997   5.694  -3.461  0.00  0.00     0.033 A 
ATOM      6  C6  UNL d   1       4.882   5.798  -2.624  0.00  0.00    -0.057 A 
ENDROOT
BRANCH   1   7
ATOM      7  N   UNL d   1       2.638   5.208  -1.991  0.00  0.00    -0.732 N 
ATOM      8  C   UNL d   1       1.492   5.927  -2.504  0.00  0.00     0.284 C 
ATOM      9  H3  UNL d   1       2.401   4.401  -1.419  0.00  0.00     0.395 HD
ENDBRANCH   1   7
TORSDOF 1
ENDMDL
