MODEL 1
REMARK minimizedAffinity 6.36750269
REMARK minimizedRMSD -1
REMARK  1 active torsions:
REMARK  status: ('A' for Active; 'I' for Inactive)
REMARK    1  A    between atoms: N_2  and  C1_3 
ROOT
ATOM      1  C1  UNL d   1       4.016   5.339  -1.675  0.00  0.00     0.143 A 
ATOM      2  C2  UNL d   1       5.373   5.658  -1.789  0.00  0.00    -0.057 A 
ATOM      3  C3  UNL d   1       5.938   5.999  -3.024  0.00  0.00     0.033 A 
ATOM      4  C4  UNL d   1       5.158   5.997  -4.176  0.00  0.00    -0.042 A 
ATOM      5  C5  UNL d   1       3.812   5.659  -4.090  0.00  0.00     0.033 A 
ATOM      6  C6  UNL d   1       3.253   5.327  -2.853  0.00  0.00    -0.057 A 
ENDROOT
BRANCH   1   7
ATOM      7  N   UNL d   1       3.417   4.897  -0.492  0.00  0.00    -0.732 N 
ATOM      8  C   UNL d   1       2.253   4.039  -0.531  0.00  0.00     0.284 C 
ATOM      9  H3  UNL d   1       4.100   4.640   0.216  0.00  0.00     0.395 HD
ENDBRANCH   1   7
TORSDOF 1
ENDMDL
