MODEL 1
REMARK minimizedAffinity 6.06825018
REMARK minimizedRMSD -1
REMARK  1 active torsions:
REMARK  status: ('A' for Active; 'I' for Inactive)
REMARK    1  A    between atoms: N_2  and  C1_3 
ROOT
ATOM      1  C1  UNL d   1       4.758   5.353  -3.636  0.00  0.00     0.143 A 
ATOM      2  C2  UNL d   1       3.915   5.999  -2.725  0.00  0.00    -0.057 A 
ATOM      3  C3  UNL d   1       2.836   5.331  -2.134  0.00  0.00     0.033 A 
ATOM      4  C4  UNL d   1       2.562   4.008  -2.468  0.00  0.00    -0.042 A 
ATOM      5  C5  UNL d   1       3.371   3.354  -3.390  0.00  0.00     0.033 A 
ATOM      6  C6  UNL d   1       4.451   4.024  -3.971  0.00  0.00    -0.057 A 
ENDROOT
BRANCH   1   7
ATOM      7  N   UNL d   1       5.787   5.991  -4.331  0.00  0.00    -0.732 N 
ATOM      8  C   UNL d   1       5.805   6.000  -5.778  0.00  0.00     0.284 C 
ATOM      9  H3  UNL d   1       6.051   6.878  -3.907  0.00  0.00     0.395 HD
ENDBRANCH   1   7
TORSDOF 1
ENDMDL
