MODEL 1
REMARK minimizedAffinity -0.0323025659
REMARK minimizedRMSD -1
REMARK  1 active torsions:
REMARK  status: ('A' for Active; 'I' for Inactive)
REMARK    1  A    between atoms: N_2  and  C1_3 
ROOT
ATOM      1  C1  UNL d   1       3.404   4.495  -2.958  0.00  0.00     0.143 A 
ATOM      2  C2  UNL d   1       4.423   5.240  -2.355  0.00  0.00    -0.057 A 
ATOM      3  C3  UNL d   1       5.705   5.305  -2.916  0.00  0.00     0.033 A 
ATOM      4  C4  UNL d   1       5.998   4.600  -4.079  0.00  0.00    -0.042 A 
ATOM      5  C5  UNL d   1       5.008   3.833  -4.682  0.00  0.00     0.033 A 
ATOM      6  C6  UNL d   1       3.728   3.777  -4.120  0.00  0.00    -0.057 A 
ENDROOT
BRANCH   1   7
ATOM      7  N   UNL d   1       2.139   4.312  -2.397  0.00  0.00    -0.732 N 
ATOM      8  C   UNL d   1       1.995   3.978  -0.996  0.00  0.00     0.284 C 
ATOM      9  H3  UNL d   1       1.462   4.993  -2.733  0.00  0.00     0.395 HD
ENDBRANCH   1   7
TORSDOF 1
ENDMDL
