MODEL 1
REMARK minimizedAffinity -1.32294118
REMARK minimizedRMSD -1
REMARK  1 active torsions:
REMARK  status: ('A' for Active; 'I' for Inactive)
REMARK    1  A    between atoms: N_2  and  C1_3 
ROOT
ATOM      1  C1  UNL d   1       5.411   4.070  -4.624  0.00  0.00     0.143 A 
ATOM      2  C2  UNL d   1       6.000   4.404  -3.400  0.00  0.00    -0.057 A 
ATOM      3  C3  UNL d   1       5.416   5.349  -2.547  0.00  0.00     0.033 A 
ATOM      4  C4  UNL d   1       4.245   6.000  -2.919  0.00  0.00    -0.042 A 
ATOM      5  C5  UNL d   1       3.656   5.702  -4.142  0.00  0.00     0.033 A 
ATOM      6  C6  UNL d   1       4.240   4.753  -4.986  0.00  0.00    -0.057 A 
ENDROOT
BRANCH   1   7
ATOM      7  N   UNL d   1       5.995   3.211  -5.559  0.00  0.00    -0.732 N 
ATOM      8  C   UNL d   1       5.433   1.901  -5.808  0.00  0.00     0.284 C 
ATOM      9  H3  UNL d   1       6.298   3.700  -6.398  0.00  0.00     0.395 HD
ENDBRANCH   1   7
TORSDOF 1
ENDMDL
