MODEL 1
REMARK minimizedAffinity -2.77096272
REMARK minimizedRMSD -1
REMARK  1 active torsions:
REMARK  status: ('A' for Active; 'I' for Inactive)
REMARK    1  A    between atoms: N_2  and  C1_3 
ROOT
ATOM      1  C1  UNL d   1       4.528   4.729  -2.998  0.00  0.00     0.143 A 
ATOM      2  C2  UNL d   1       5.437   3.795  -3.506  0.00  0.00    -0.057 A 
ATOM      3  C3  UNL d   1       5.973   3.929  -4.792  0.00  0.00     0.033 A 
ATOM      4  C4  UNL d   1       5.586   4.988  -5.607  0.00  0.00    -0.042 A 
ATOM      5  C5  UNL d   1       4.664   5.914  -5.133  0.00  0.00     0.033 A 
ATOM      6  C6  UNL d   1       4.137   5.778  -3.845  0.00  0.00    -0.057 A 
ENDROOT
BRANCH   1   7
ATOM      7  N   UNL d   1       3.885   4.597  -1.765  0.00  0.00    -0.732 N 
ATOM      8  C   UNL d   1       2.491   4.212  -1.698  0.00  0.00     0.284 C 
ATOM      9  H3  UNL d   1       4.474   4.151  -1.065  0.00  0.00     0.395 HD
ENDBRANCH   1   7
TORSDOF 1
ENDMDL
