MODEL 1
REMARK minimizedAffinity 6.61359167
REMARK minimizedRMSD -1
REMARK  1 active torsions:
REMARK  status: ('A' for Active; 'I' for Inactive)
REMARK    1  A    between atoms: N_2  and  C1_3 
ROOT
ATOM      1  C1  UNL d   1       4.007   5.433  -3.562  0.00  0.00     0.143 A 
ATOM      2  C2  UNL d   1       5.003   4.515  -3.911  0.00  0.00    -0.057 A 
ATOM      3  C3  UNL d   1       5.969   4.104  -2.985  0.00  0.00     0.033 A 
ATOM      4  C4  UNL d   1       5.973   4.628  -1.696  0.00  0.00    -0.042 A 
ATOM      5  C5  UNL d   1       5.007   5.561  -1.335  0.00  0.00     0.033 A 
ATOM      6  C6  UNL d   1       4.041   5.962  -2.262  0.00  0.00    -0.057 A 
ENDROOT
BRANCH   1   7
ATOM      7  N   UNL d   1       3.079   5.954  -4.466  0.00  0.00    -0.732 N 
ATOM      8  C   UNL d   1       3.323   5.894  -5.891  0.00  0.00     0.284 C 
ATOM      9  H3  UNL d   1       2.119   5.748  -4.200  0.00  0.00     0.395 HD
ENDBRANCH   1   7
TORSDOF 1
ENDMDL
