MODEL 1
REMARK minimizedAffinity 11.2312565
REMARK minimizedRMSD -1
REMARK  0 active torsions:
REMARK  status: ('A' for Active; 'I' for Inactive)
ROOT
ATOM      1  C   UNL d   1      -3.422   2.575   6.000  0.00  0.00     0.077 C 
ATOM      2  C1  UNL d   1      -3.710   1.389   5.128  0.00  0.00    -0.074 A 
ATOM      3  C2  UNL d   1      -3.877   1.535   3.747  0.00  0.00    -0.005 A 
ATOM      4  C3  UNL d   1      -4.135   0.422   2.948  0.00  0.00     0.006 A 
ATOM      5  C4  UNL d   1      -4.228  -0.847   3.520  0.00  0.00    -0.005 A 
ATOM      6  C5  UNL d   1      -4.063  -1.013   4.899  0.00  0.00    -0.074 A 
ATOM      7  C6  UNL d   1      -4.150  -2.372   5.529  0.00  0.00     0.077 C 
ATOM      8  C7  UNL d   1      -3.797   0.109   5.695  0.00  0.00    -0.001 A 
ENDROOT
TORSDOF 0
ENDMDL
