MODEL 1
REMARK minimizedAffinity 14.6095142
REMARK minimizedRMSD -1
REMARK  0 active torsions:
REMARK  status: ('A' for Active; 'I' for Inactive)
ROOT
ATOM      1  C   UNL d   1       4.451  -2.149  -0.329  0.00  0.00     0.077 C 
ATOM      2  C1  UNL d   1       3.927  -0.804  -0.738  0.00  0.00    -0.074 A 
ATOM      3  C2  UNL d   1       4.429   0.368  -0.163  0.00  0.00    -0.005 A 
ATOM      4  C3  UNL d   1       3.939   1.612  -0.561  0.00  0.00     0.006 A 
ATOM      5  C4  UNL d   1       2.944   1.696  -1.535  0.00  0.00    -0.005 A 
ATOM      6  C5  UNL d   1       2.430   0.535  -2.122  0.00  0.00    -0.074 A 
ATOM      7  C6  UNL d   1       1.368   0.608  -3.178  0.00  0.00     0.077 C 
ATOM      8  C7  UNL d   1       2.933  -0.711  -1.722  0.00  0.00    -0.001 A 
ENDROOT
TORSDOF 0
ENDMDL
