MODEL 1
REMARK minimizedAffinity 15.8229103
REMARK minimizedRMSD -1
REMARK  0 active torsions:
REMARK  status: ('A' for Active; 'I' for Inactive)
ROOT
ATOM      1  C   UNL d   1       1.792  -2.194  -0.609  0.00  0.00     0.077 C 
ATOM      2  C1  UNL d   1       2.504  -3.512  -0.686  0.00  0.00    -0.074 A 
ATOM      3  C2  UNL d   1       1.830  -4.709  -0.424  0.00  0.00    -0.005 A 
ATOM      4  C3  UNL d   1       2.502  -5.928  -0.509  0.00  0.00     0.006 A 
ATOM      5  C4  UNL d   1       3.854  -5.963  -0.856  0.00  0.00    -0.005 A 
ATOM      6  C5  UNL d   1       4.544  -4.776  -1.123  0.00  0.00    -0.074 A 
ATOM      7  C6  UNL d   1       5.994  -4.796  -1.506  0.00  0.00     0.077 C 
ATOM      8  C7  UNL d   1       3.859  -3.555  -1.042  0.00  0.00    -0.001 A 
ENDROOT
TORSDOF 0
ENDMDL
