MODEL 1
REMARK minimizedAffinity 9.72795486
REMARK minimizedRMSD -1
REMARK  0 active torsions:
REMARK  status: ('A' for Active; 'I' for Inactive)
ROOT
ATOM      1  C   UNL d   1       4.475  -2.294  -0.023  0.00  0.00     0.077 C 
ATOM      2  C1  UNL d   1       3.244  -1.815  -0.732  0.00  0.00    -0.074 A 
ATOM      3  C2  UNL d   1       3.153  -0.503  -1.209  0.00  0.00    -0.005 A 
ATOM      4  C3  UNL d   1       2.005  -0.075  -1.875  0.00  0.00     0.006 A 
ATOM      5  C4  UNL d   1       0.937  -0.952  -2.071  0.00  0.00    -0.005 A 
ATOM      6  C5  UNL d   1       1.010  -2.267  -1.602  0.00  0.00    -0.074 A 
ATOM      7  C6  UNL d   1      -0.124  -3.226  -1.812  0.00  0.00     0.077 C 
ATOM      8  C7  UNL d   1       2.170  -2.692  -0.940  0.00  0.00    -0.001 A 
ENDROOT
TORSDOF 0
ENDMDL
