MODEL 1
REMARK minimizedAffinity 22.8907433
REMARK minimizedRMSD -1
REMARK  0 active torsions:
REMARK  status: ('A' for Active; 'I' for Inactive)
ROOT
ATOM      1  C   UNL d   1       3.005  -5.999  -0.321  0.00  0.00     0.077 C 
ATOM      2  C1  UNL d   1       1.802  -5.300  -0.880  0.00  0.00    -0.074 A 
ATOM      3  C2  UNL d   1       1.394  -4.060  -0.377  0.00  0.00    -0.005 A 
ATOM      4  C3  UNL d   1       0.278  -3.417  -0.914  0.00  0.00     0.006 A 
ATOM      5  C4  UNL d   1      -0.438  -4.005  -1.957  0.00  0.00    -0.005 A 
ATOM      6  C5  UNL d   1      -0.044  -5.243  -2.473  0.00  0.00    -0.074 A 
ATOM      7  C6  UNL d   1      -0.797  -5.885  -3.600  0.00  0.00     0.077 C 
ATOM      8  C7  UNL d   1       1.082  -5.880  -1.933  0.00  0.00    -0.001 A 
ENDROOT
TORSDOF 0
ENDMDL
