MODEL 1
REMARK minimizedAffinity 3.38318706
REMARK minimizedRMSD -1
REMARK  0 active torsions:
REMARK  status: ('A' for Active; 'I' for Inactive)
ROOT
ATOM      1  C   UNL d   1       1.882   0.803  -1.750  0.00  0.00     0.077 C 
ATOM      2  C1  UNL d   1       1.781  -0.675  -1.518  0.00  0.00    -0.074 A 
ATOM      3  C2  UNL d   1       2.829  -1.382  -0.920  0.00  0.00    -0.005 A 
ATOM      4  C3  UNL d   1       2.717  -2.755  -0.701  0.00  0.00     0.006 A 
ATOM      5  C4  UNL d   1       1.558  -3.434  -1.078  0.00  0.00    -0.005 A 
ATOM      6  C5  UNL d   1       0.499  -2.744  -1.676  0.00  0.00    -0.074 A 
ATOM      7  C6  UNL d   1      -0.758  -3.457  -2.078  0.00  0.00     0.077 C 
ATOM      8  C7  UNL d   1       0.616  -1.363  -1.886  0.00  0.00    -0.001 A 
ENDROOT
TORSDOF 0
ENDMDL
