MODEL 1
REMARK minimizedAffinity 11.5468044
REMARK minimizedRMSD -1
REMARK  0 active torsions:
REMARK  status: ('A' for Active; 'I' for Inactive)
ROOT
ATOM      1  C   UNL d   1       0.679   1.524   2.804  0.00  0.00     0.077 C 
ATOM      2  C1  UNL d   1       1.598   1.185   1.668  0.00  0.00    -0.074 A 
ATOM      3  C2  UNL d   1       2.915   1.653   1.646  0.00  0.00    -0.005 A 
ATOM      4  C3  UNL d   1       3.762   1.323   0.587  0.00  0.00     0.006 A 
ATOM      5  C4  UNL d   1       3.299   0.522  -0.458  0.00  0.00    -0.005 A 
ATOM      6  C5  UNL d   1       1.985   0.044  -0.453  0.00  0.00    -0.074 A 
ATOM      7  C6  UNL d   1       1.475  -0.825  -1.564  0.00  0.00     0.077 C 
ATOM      8  C7  UNL d   1       1.143   0.375   0.618  0.00  0.00    -0.001 A 
ENDROOT
TORSDOF 0
ENDMDL
