MODEL 1
REMARK minimizedAffinity 9.94152069
REMARK minimizedRMSD -1
REMARK  0 active torsions:
REMARK  status: ('A' for Active; 'I' for Inactive)
ROOT
ATOM      1  C   UNL d   1       2.411   0.858  -0.032  0.00  0.00     0.077 C 
ATOM      2  C1  UNL d   1       1.902  -0.395  -0.681  0.00  0.00    -0.074 A 
ATOM      3  C2  UNL d   1       1.061  -0.336  -1.796  0.00  0.00    -0.005 A 
ATOM      4  C3  UNL d   1       0.604  -1.510  -2.395  0.00  0.00     0.006 A 
ATOM      5  C4  UNL d   1       0.983  -2.753  -1.885  0.00  0.00    -0.005 A 
ATOM      6  C5  UNL d   1       1.824  -2.831  -0.771  0.00  0.00    -0.074 A 
ATOM      7  C6  UNL d   1       2.249  -4.158  -0.217  0.00  0.00     0.077 C 
ATOM      8  C7  UNL d   1       2.285  -1.647  -0.179  0.00  0.00    -0.001 A 
ENDROOT
TORSDOF 0
ENDMDL
