MODEL 1
REMARK minimizedAffinity 15.0695629
REMARK minimizedRMSD -1
REMARK  0 active torsions:
REMARK  status: ('A' for Active; 'I' for Inactive)
ROOT
ATOM      1  C   UNL d   1      -6.000  -1.569   2.399  0.00  0.00     0.077 C 
ATOM      2  C1  UNL d   1      -5.041  -0.755   3.215  0.00  0.00    -0.074 A 
ATOM      3  C2  UNL d   1      -4.651  -1.170   4.493  0.00  0.00    -0.005 A 
ATOM      4  C3  UNL d   1      -3.751  -0.407   5.236  0.00  0.00     0.006 A 
ATOM      5  C4  UNL d   1      -3.231   0.776   4.711  0.00  0.00    -0.005 A 
ATOM      6  C5  UNL d   1      -3.608   1.207   3.435  0.00  0.00    -0.074 A 
ATOM      7  C6  UNL d   1      -3.052   2.471   2.851  0.00  0.00     0.077 C 
ATOM      8  C7  UNL d   1      -4.508   0.431   2.691  0.00  0.00    -0.001 A 
ENDROOT
TORSDOF 0
ENDMDL
