MODEL 1
REMARK minimizedAffinity 20.2941189
REMARK minimizedRMSD -1
REMARK  0 active torsions:
REMARK  status: ('A' for Active; 'I' for Inactive)
ROOT
ATOM      1  C   UNL d   1       2.139  -6.000  -0.723  0.00  0.00     0.077 C 
ATOM      2  C1  UNL d   1       0.956  -5.390  -1.413  0.00  0.00    -0.074 A 
ATOM      3  C2  UNL d   1       0.320  -4.261  -0.887  0.00  0.00    -0.005 A 
ATOM      4  C3  UNL d   1      -0.774  -3.699  -1.545  0.00  0.00     0.006 A 
ATOM      5  C4  UNL d   1      -1.242  -4.259  -2.735  0.00  0.00    -0.005 A 
ATOM      6  C5  UNL d   1      -0.618  -5.388  -3.276  0.00  0.00    -0.074 A 
ATOM      7  C6  UNL d   1      -1.102  -5.996  -4.559  0.00  0.00     0.077 C 
ATOM      8  C7  UNL d   1       0.485  -5.942  -2.613  0.00  0.00    -0.001 A 
ENDROOT
TORSDOF 0
ENDMDL
