MODEL 1
REMARK minimizedAffinity 22.5174141
REMARK minimizedRMSD -1
REMARK  0 active torsions:
REMARK  status: ('A' for Active; 'I' for Inactive)
ROOT
ATOM      1  C   UNL d   1       0.743   1.871   6.000  0.00  0.00     0.077 C 
ATOM      2  C1  UNL d   1       0.025   1.543   4.725  0.00  0.00    -0.074 A 
ATOM      3  C2  UNL d   1       0.713   1.015   3.628  0.00  0.00    -0.005 A 
ATOM      4  C3  UNL d   1       0.030   0.706   2.451  0.00  0.00     0.006 A 
ATOM      5  C4  UNL d   1      -1.346   0.922   2.361  0.00  0.00    -0.005 A 
ATOM      6  C5  UNL d   1      -2.051   1.448   3.448  0.00  0.00    -0.074 A 
ATOM      7  C6  UNL d   1      -3.531   1.677   3.370  0.00  0.00     0.077 C 
ATOM      8  C7  UNL d   1      -1.358   1.749   4.629  0.00  0.00    -0.001 A 
ENDROOT
TORSDOF 0
ENDMDL
