MODEL 1
REMARK minimizedAffinity 10.7361555
REMARK minimizedRMSD -1
REMARK  0 active torsions:
REMARK  status: ('A' for Active; 'I' for Inactive)
ROOT
ATOM      1  C   UNL d   1       1.404   0.334  -3.581  0.00  0.00     0.077 C 
ATOM      2  C1  UNL d   1       1.125  -0.698  -2.529  0.00  0.00    -0.074 A 
ATOM      3  C2  UNL d   1       1.829  -0.701  -1.320  0.00  0.00    -0.005 A 
ATOM      4  C3  UNL d   1       1.552  -1.662  -0.347  0.00  0.00     0.006 A 
ATOM      5  C4  UNL d   1       0.569  -2.627  -0.573  0.00  0.00    -0.005 A 
ATOM      6  C5  UNL d   1      -0.146  -2.639  -1.774  0.00  0.00    -0.074 A 
ATOM      7  C6  UNL d   1      -1.211  -3.663  -2.028  0.00  0.00     0.077 C 
ATOM      8  C7  UNL d   1       0.134  -1.666  -2.744  0.00  0.00    -0.001 A 
ENDROOT
TORSDOF 0
ENDMDL
