MODEL 1
REMARK minimizedAffinity 14.2193689
REMARK minimizedRMSD -1
REMARK  0 active torsions:
REMARK  status: ('A' for Active; 'I' for Inactive)
ROOT
ATOM      1  C   UNL d   1       1.871   1.122   3.762  0.00  0.00     0.077 C 
ATOM      2  C1  UNL d   1       0.510   1.496   4.271  0.00  0.00    -0.074 A 
ATOM      3  C2  UNL d   1       0.347   2.056   5.542  0.00  0.00    -0.005 A 
ATOM      4  C3  UNL d   1      -0.924   2.407   5.997  0.00  0.00     0.006 A 
ATOM      5  C4  UNL d   1      -2.042   2.203   5.188  0.00  0.00    -0.005 A 
ATOM      6  C5  UNL d   1      -1.898   1.646   3.913  0.00  0.00    -0.074 A 
ATOM      7  C6  UNL d   1      -3.088   1.428   3.027  0.00  0.00     0.077 C 
ATOM      8  C7  UNL d   1      -0.617   1.302   3.460  0.00  0.00    -0.001 A 
ENDROOT
TORSDOF 0
ENDMDL
