MODEL 1
REMARK minimizedAffinity 22.1394024
REMARK minimizedRMSD -1
REMARK  0 active torsions:
REMARK  status: ('A' for Active; 'I' for Inactive)
ROOT
ATOM      1  C   UNL d   1       0.324   5.679   1.534  0.00  0.00     0.077 C 
ATOM      2  C1  UNL d   1       1.076   5.149   0.350  0.00  0.00    -0.074 A 
ATOM      3  C2  UNL d   1       1.479   5.999  -0.686  0.00  0.00    -0.005 A 
ATOM      4  C3  UNL d   1       2.186   5.494  -1.776  0.00  0.00     0.006 A 
ATOM      5  C4  UNL d   1       2.497   4.135  -1.843  0.00  0.00    -0.005 A 
ATOM      6  C5  UNL d   1       2.104   3.270  -0.817  0.00  0.00    -0.074 A 
ATOM      7  C6  UNL d   1       2.440   1.809  -0.869  0.00  0.00     0.077 C 
ATOM      8  C7  UNL d   1       1.400   3.787   0.279  0.00  0.00    -0.001 A 
ENDROOT
TORSDOF 0
ENDMDL
