MODEL 1
REMARK minimizedAffinity 15.4964933
REMARK minimizedRMSD -1
REMARK  0 active torsions:
REMARK  status: ('A' for Active; 'I' for Inactive)
ROOT
ATOM      1  C   UNL d   1       0.181  -3.374  -2.668  0.00  0.00     0.077 C 
ATOM      2  C1  UNL d   1       0.595  -2.184  -1.853  0.00  0.00    -0.074 A 
ATOM      3  C2  UNL d   1       0.505  -2.202  -0.458  0.00  0.00    -0.005 A 
ATOM      4  C3  UNL d   1       0.902  -1.092   0.287  0.00  0.00     0.006 A 
ATOM      5  C4  UNL d   1       1.392   0.046  -0.355  0.00  0.00    -0.005 A 
ATOM      6  C5  UNL d   1       1.490   0.082  -1.749  0.00  0.00    -0.074 A 
ATOM      7  C6  UNL d   1       2.024   1.294  -2.455  0.00  0.00     0.077 C 
ATOM      8  C7  UNL d   1       1.096  -1.040  -2.490  0.00  0.00    -0.001 A 
ENDROOT
TORSDOF 0
ENDMDL
