MODEL 1
REMARK minimizedAffinity 11.1298628
REMARK minimizedRMSD -1
REMARK  0 active torsions:
REMARK  status: ('A' for Active; 'I' for Inactive)
ROOT
ATOM      1  C   UNL d   1      -1.731   2.249   6.000  0.00  0.00     0.077 C 
ATOM      2  C1  UNL d   1      -1.863   1.888   4.550  0.00  0.00    -0.074 A 
ATOM      3  C2  UNL d   1      -3.121   1.733   3.960  0.00  0.00    -0.005 A 
ATOM      4  C3  UNL d   1      -3.228   1.406   2.608  0.00  0.00     0.006 A 
ATOM      5  C4  UNL d   1      -2.080   1.231   1.834  0.00  0.00    -0.005 A 
ATOM      6  C5  UNL d   1      -0.813   1.383   2.407  0.00  0.00    -0.074 A 
ATOM      7  C6  UNL d   1       0.431   1.208   1.588  0.00  0.00     0.077 C 
ATOM      8  C7  UNL d   1      -0.714   1.718   3.765  0.00  0.00    -0.001 A 
ENDROOT
TORSDOF 0
ENDMDL
