MODEL 1
REMARK minimizedAffinity -0.377129138
REMARK minimizedRMSD -1
REMARK  1 active torsions:
REMARK  status: ('A' for Active; 'I' for Inactive)
REMARK    1  A    between atoms: C1_2  and  C2_3 
ROOT
ATOM      1  C2  UNL d   1       0.047   0.525   0.367  0.00  0.00    -0.073 A 
ATOM      2  C3  UNL d   1       0.380   1.882   0.437  0.00  0.00    -0.002 A 
ATOM      3  C4  UNL d   1      -0.540   2.810   0.927  0.00  0.00     0.004 A 
ATOM      4  C5  UNL d   1      -1.798   2.389   1.359  0.00  0.00    -0.004 A 
ATOM      5  C6  UNL d   1      -2.145   1.036   1.308  0.00  0.00    -0.075 A 
ATOM      6  C7  UNL d   1      -3.496   0.568   1.766  0.00  0.00     0.076 C 
ATOM      7  C8  UNL d   1      -1.217   0.111   0.811  0.00  0.00     0.001 A 
ENDROOT
BRANCH   1   8
ATOM      8  C1  UNL d   1       1.040  -0.481  -0.156  0.00  0.00     0.053 C 
ATOM      9  C   UNL d   1       0.543  -1.909   0.005  0.00  0.00     0.018 C 
ENDBRANCH   1   8
TORSDOF 1
ENDMDL
