MODEL 1
REMARK minimizedAffinity -3.29058599
REMARK minimizedRMSD -1
REMARK  1 active torsions:
REMARK  status: ('A' for Active; 'I' for Inactive)
REMARK    1  A    between atoms: C1_2  and  C2_3 
ROOT
ATOM      1  C2  UNL d   1      -0.355  -2.089  -0.502  0.00  0.00    -0.073 A 
ATOM      2  C3  UNL d   1       0.307  -2.522  -1.657  0.00  0.00    -0.002 A 
ATOM      3  C4  UNL d   1      -0.364  -3.295  -2.605  0.00  0.00     0.004 A 
ATOM      4  C5  UNL d   1      -1.703  -3.636  -2.414  0.00  0.00    -0.004 A 
ATOM      5  C6  UNL d   1      -2.384  -3.203  -1.272  0.00  0.00    -0.075 A 
ATOM      6  C7  UNL d   1      -3.824  -3.563  -1.050  0.00  0.00     0.076 C 
ATOM      7  C8  UNL d   1      -1.703  -2.429  -0.322  0.00  0.00     0.001 A 
ENDROOT
BRANCH   1   8
ATOM      8  C1  UNL d   1       0.363  -1.248   0.522  0.00  0.00     0.053 C 
ATOM      9  C   UNL d   1      -0.250   0.137   0.654  0.00  0.00     0.018 C 
ENDBRANCH   1   8
TORSDOF 1
ENDMDL
