MODEL 1
REMARK minimizedAffinity -2.20780826
REMARK minimizedRMSD -1
REMARK  1 active torsions:
REMARK  status: ('A' for Active; 'I' for Inactive)
REMARK    1  A    between atoms: C1_2  and  C2_3 
ROOT
ATOM      1  C2  UNL d   1      -0.279  -0.091   0.293  0.00  0.00    -0.073 A 
ATOM      2  C3  UNL d   1       0.504   1.045   0.527  0.00  0.00    -0.002 A 
ATOM      3  C4  UNL d   1      -0.094   2.249   0.898  0.00  0.00     0.004 A 
ATOM      4  C5  UNL d   1      -1.479   2.329   1.044  0.00  0.00    -0.004 A 
ATOM      5  C6  UNL d   1      -2.278   1.202   0.826  0.00  0.00    -0.075 A 
ATOM      6  C7  UNL d   1      -3.769   1.272   0.977  0.00  0.00     0.076 C 
ATOM      7  C8  UNL d   1      -1.669  -0.003   0.451  0.00  0.00     0.001 A 
ENDROOT
BRANCH   1   8
ATOM      8  C1  UNL d   1       0.364  -1.396  -0.102  0.00  0.00     0.053 C 
ATOM      9  C   UNL d   1      -0.625  -2.341  -0.765  0.00  0.00     0.018 C 
ENDBRANCH   1   8
TORSDOF 1
ENDMDL
