MODEL 1
REMARK minimizedAffinity -4.63438416
REMARK minimizedRMSD -1
REMARK  1 active torsions:
REMARK  status: ('A' for Active; 'I' for Inactive)
REMARK    1  A    between atoms: C1_2  and  C2_3 
ROOT
ATOM      1  C2  UNL d   1      -0.076  -0.404   0.033  0.00  0.00    -0.073 A 
ATOM      2  C3  UNL d   1      -1.317  -0.350   0.678  0.00  0.00    -0.002 A 
ATOM      3  C4  UNL d   1      -1.907   0.881   0.969  0.00  0.00     0.004 A 
ATOM      4  C5  UNL d   1      -1.268   2.068   0.612  0.00  0.00    -0.004 A 
ATOM      5  C6  UNL d   1      -0.033   2.034  -0.043  0.00  0.00    -0.075 A 
ATOM      6  C7  UNL d   1       0.670   3.302  -0.432  0.00  0.00     0.076 C 
ATOM      7  C8  UNL d   1       0.555   0.795  -0.329  0.00  0.00     0.001 A 
ENDROOT
BRANCH   1   8
ATOM      8  C1  UNL d   1       0.562  -1.730  -0.288  0.00  0.00     0.053 C 
ATOM      9  C   UNL d   1      -0.182  -2.469  -1.389  0.00  0.00     0.018 C 
ENDBRANCH   1   8
TORSDOF 1
ENDMDL
