MODEL 1
REMARK minimizedAffinity -5.00827122
REMARK minimizedRMSD -1
REMARK  1 active torsions:
REMARK  status: ('A' for Active; 'I' for Inactive)
REMARK    1  A    between atoms: C1_2  and  C2_3 
ROOT
ATOM      1  C2  UNL d   1      -0.214  -0.087   0.423  0.00  0.00    -0.073 A 
ATOM      2  C3  UNL d   1      -1.429  -0.111   1.116  0.00  0.00    -0.002 A 
ATOM      3  C4  UNL d   1      -2.103   1.078   1.399  0.00  0.00     0.004 A 
ATOM      4  C5  UNL d   1      -1.574   2.300   0.986  0.00  0.00    -0.004 A 
ATOM      5  C6  UNL d   1      -0.366   2.344   0.281  0.00  0.00    -0.075 A 
ATOM      6  C7  UNL d   1       0.218   3.651  -0.168  0.00  0.00     0.076 C 
ATOM      7  C8  UNL d   1       0.306   1.146   0.004  0.00  0.00     0.001 A 
ENDROOT
BRANCH   1   8
ATOM      8  C1  UNL d   1       0.515  -1.368   0.110  0.00  0.00     0.053 C 
ATOM      9  C   UNL d   1      -0.226  -2.209  -0.917  0.00  0.00     0.018 C 
ENDBRANCH   1   8
TORSDOF 1
ENDMDL
