MODEL 1
REMARK minimizedAffinity -3.47295165
REMARK minimizedRMSD -1
REMARK  1 active torsions:
REMARK  status: ('A' for Active; 'I' for Inactive)
REMARK    1  A    between atoms: C1_2  and  C2_3 
ROOT
ATOM      1  C2  UNL d   1      -0.357   0.172  -0.293  0.00  0.00    -0.073 A 
ATOM      2  C3  UNL d   1      -1.184   1.253   0.030  0.00  0.00    -0.002 A 
ATOM      3  C4  UNL d   1      -0.669   2.356   0.712  0.00  0.00     0.004 A 
ATOM      4  C5  UNL d   1       0.678   2.392   1.072  0.00  0.00    -0.004 A 
ATOM      5  C6  UNL d   1       1.524   1.326   0.748  0.00  0.00    -0.075 A 
ATOM      6  C7  UNL d   1       2.975   1.348   1.130  0.00  0.00     0.076 C 
ATOM      7  C8  UNL d   1       0.998   0.221   0.065  0.00  0.00     0.001 A 
ENDROOT
BRANCH   1   8
ATOM      8  C1  UNL d   1      -0.908  -1.019  -1.035  0.00  0.00     0.053 C 
ATOM      9  C   UNL d   1      -0.771  -2.303  -0.234  0.00  0.00     0.018 C 
ENDBRANCH   1   8
TORSDOF 1
ENDMDL
