MODEL 1
REMARK minimizedAffinity 3.44640207
REMARK minimizedRMSD -1
REMARK  1 active torsions:
REMARK  status: ('A' for Active; 'I' for Inactive)
REMARK    1  A    between atoms: C1_2  and  C2_3 
ROOT
ATOM      1  C2  UNL d   1      -0.689   0.257   0.637  0.00  0.00    -0.073 A 
ATOM      2  C3  UNL d   1      -1.119  -0.490  -0.466  0.00  0.00    -0.002 A 
ATOM      3  C4  UNL d   1      -0.195  -1.163  -1.266  0.00  0.00     0.004 A 
ATOM      4  C5  UNL d   1       1.166  -1.102  -0.968  0.00  0.00    -0.004 A 
ATOM      5  C6  UNL d   1       1.615  -0.371   0.136  0.00  0.00    -0.075 A 
ATOM      6  C7  UNL d   1       3.076  -0.294   0.468  0.00  0.00     0.076 C 
ATOM      7  C8  UNL d   1       0.681   0.304   0.933  0.00  0.00     0.001 A 
ENDROOT
BRANCH   1   8
ATOM      8  C1  UNL d   1      -1.684   0.980   1.507  0.00  0.00     0.053 C 
ATOM      9  C   UNL d   1      -1.362   2.460   1.632  0.00  0.00     0.018 C 
ENDBRANCH   1   8
TORSDOF 1
ENDMDL
