MODEL 1
REMARK minimizedAffinity -6.69425678
REMARK minimizedRMSD -1
REMARK  1 active torsions:
REMARK  status: ('A' for Active; 'I' for Inactive)
REMARK    1  A    between atoms: C1_2  and  C2_3 
ROOT
ATOM      1  C2  UNL d   1      -0.605   0.623   0.748  0.00  0.00    -0.073 A 
ATOM      2  C3  UNL d   1      -1.380   1.725   0.371  0.00  0.00    -0.002 A 
ATOM      3  C4  UNL d   1      -0.770   2.935   0.037  0.00  0.00     0.004 A 
ATOM      4  C5  UNL d   1       0.620   3.053   0.070  0.00  0.00    -0.004 A 
ATOM      5  C6  UNL d   1       1.412   1.959   0.433  0.00  0.00    -0.075 A 
ATOM      6  C7  UNL d   1       2.908   2.070   0.476  0.00  0.00     0.076 C 
ATOM      7  C8  UNL d   1       0.792   0.748   0.770  0.00  0.00     0.001 A 
ENDROOT
BRANCH   1   8
ATOM      8  C1  UNL d   1      -1.259  -0.688   1.104  0.00  0.00     0.053 C 
ATOM      9  C   UNL d   1      -2.580  -0.487   1.828  0.00  0.00     0.018 C 
ENDBRANCH   1   8
TORSDOF 1
ENDMDL
