MODEL 1
REMARK minimizedAffinity -4.25384283
REMARK minimizedRMSD -1
REMARK  1 active torsions:
REMARK  status: ('A' for Active; 'I' for Inactive)
REMARK    1  A    between atoms: C1_2  and  C2_3 
ROOT
ATOM      1  C2  UNL d   1       0.098   0.191   0.360  0.00  0.00    -0.073 A 
ATOM      2  C3  UNL d   1      -1.100   0.536   0.996  0.00  0.00    -0.002 A 
ATOM      3  C4  UNL d   1      -1.381   1.870   1.294  0.00  0.00     0.004 A 
ATOM      4  C5  UNL d   1      -0.472   2.872   0.953  0.00  0.00    -0.004 A 
ATOM      5  C6  UNL d   1       0.725   2.548   0.307  0.00  0.00    -0.075 A 
ATOM      6  C7  UNL d   1       1.714   3.614  -0.064  0.00  0.00     0.076 C 
ATOM      7  C8  UNL d   1       1.001   1.206   0.013  0.00  0.00     0.001 A 
ENDROOT
BRANCH   1   8
ATOM      8  C1  UNL d   1       0.403  -1.248   0.030  0.00  0.00     0.053 C 
ATOM      9  C   UNL d   1      -0.558  -1.812  -1.004  0.00  0.00     0.018 C 
ENDBRANCH   1   8
TORSDOF 1
ENDMDL
