MODEL 1
REMARK minimizedAffinity -5.7008462
REMARK minimizedRMSD -1
REMARK  1 active torsions:
REMARK  status: ('A' for Active; 'I' for Inactive)
REMARK    1  A    between atoms: C1_2  and  C2_3 
ROOT
ATOM      1  C2  UNL d   1      -0.327   1.027   0.278  0.00  0.00    -0.073 A 
ATOM      2  C3  UNL d   1      -0.923   2.291   0.364  0.00  0.00    -0.002 A 
ATOM      3  C4  UNL d   1      -0.138   3.444   0.318  0.00  0.00     0.004 A 
ATOM      4  C5  UNL d   1       1.246   3.346   0.178  0.00  0.00    -0.004 A 
ATOM      5  C6  UNL d   1       1.858   2.093   0.079  0.00  0.00    -0.075 A 
ATOM      6  C7  UNL d   1       3.347   1.971  -0.069  0.00  0.00     0.076 C 
ATOM      7  C8  UNL d   1       1.064   0.939   0.129  0.00  0.00     0.001 A 
ENDROOT
BRANCH   1   8
ATOM      8  C1  UNL d   1      -1.171  -0.221   0.321  0.00  0.00     0.053 C 
ATOM      9  C   UNL d   1      -0.369  -1.463  -0.034  0.00  0.00     0.018 C 
ENDBRANCH   1   8
TORSDOF 1
ENDMDL
