MODEL 1
REMARK minimizedAffinity -3.8727262
REMARK minimizedRMSD -1
REMARK  1 active torsions:
REMARK  status: ('A' for Active; 'I' for Inactive)
REMARK    1  A    between atoms: C1_2  and  C2_3 
ROOT
ATOM      1  C2  UNL d   1      -1.144  -0.160   0.083  0.00  0.00    -0.073 A 
ATOM      2  C3  UNL d   1       0.122  -0.347   0.649  0.00  0.00    -0.002 A 
ATOM      3  C4  UNL d   1       0.895  -1.455   0.298  0.00  0.00     0.004 A 
ATOM      4  C5  UNL d   1       0.413  -2.382  -0.626  0.00  0.00    -0.004 A 
ATOM      5  C6  UNL d   1      -0.845  -2.206  -1.211  0.00  0.00    -0.075 A 
ATOM      6  C7  UNL d   1      -1.379  -3.196  -2.205  0.00  0.00     0.076 C 
ATOM      7  C8  UNL d   1      -1.616  -1.093  -0.851  0.00  0.00     0.001 A 
ENDROOT
BRANCH   1   8
ATOM      8  C1  UNL d   1      -1.979   1.038   0.455  0.00  0.00     0.053 C 
ATOM      9  C   UNL d   1      -1.122   2.228   0.857  0.00  0.00     0.018 C 
ENDBRANCH   1   8
TORSDOF 1
ENDMDL
