MODEL 1
REMARK minimizedAffinity -4.3276844
REMARK minimizedRMSD -1
REMARK  1 active torsions:
REMARK  status: ('A' for Active; 'I' for Inactive)
REMARK    1  A    between atoms: C1_2  and  C2_3 
ROOT
ATOM      1  C2  UNL d   1       0.190  -0.491   0.553  0.00  0.00    -0.073 A 
ATOM      2  C3  UNL d   1       1.492  -0.826   0.941  0.00  0.00    -0.002 A 
ATOM      3  C4  UNL d   1       2.537   0.080   0.759  0.00  0.00     0.004 A 
ATOM      4  C5  UNL d   1       2.291   1.331   0.194  0.00  0.00    -0.004 A 
ATOM      5  C6  UNL d   1       0.995   1.690  -0.189  0.00  0.00    -0.075 A 
ATOM      6  C7  UNL d   1       0.714   3.031  -0.800  0.00  0.00     0.076 C 
ATOM      7  C8  UNL d   1      -0.049   0.773  -0.006  0.00  0.00     0.001 A 
ENDROOT
BRANCH   1   8
ATOM      8  C1  UNL d   1      -0.944  -1.463   0.753  0.00  0.00     0.053 C 
ATOM      9  C   UNL d   1      -0.884  -2.619  -0.234  0.00  0.00     0.018 C 
ENDBRANCH   1   8
TORSDOF 1
ENDMDL
