MODEL 1
REMARK minimizedAffinity 4.31991053
REMARK minimizedRMSD -1
REMARK  0 active torsions:
REMARK  status: ('A' for Active; 'I' for Inactive)
ROOT
ATOM      1  C   UNL d   1      -1.263   0.626   2.678  0.00  0.00     0.078 C 
ATOM      2  C1  UNL d   1      -0.453   1.851   2.377  0.00  0.00    -0.077 A 
ATOM      3  C2  UNL d   1      -1.025   2.951   1.726  0.00  0.00    -0.001 A 
ATOM      4  C3  UNL d   1      -0.256   4.082   1.444  0.00  0.00     0.003 A 
ATOM      5  C4  UNL d   1       1.088   4.123   1.808  0.00  0.00    -0.005 A 
ATOM      6  C5  UNL d   1       1.666   3.032   2.454  0.00  0.00     0.003 A 
ATOM      7  C6  UNL d   1       0.899   1.901   2.737  0.00  0.00    -0.001 A 
ENDROOT
TORSDOF 0
ENDMDL
