MODEL 1
REMARK minimizedAffinity 6.23771858
REMARK minimizedRMSD -1
REMARK  0 active torsions:
REMARK  status: ('A' for Active; 'I' for Inactive)
ROOT
ATOM      1  C   UNL d   1       0.345   3.610  -4.978  0.00  0.00     0.078 C 
ATOM      2  C1  UNL d   1       1.698   4.153  -5.328  0.00  0.00    -0.077 A 
ATOM      3  C2  UNL d   1       1.874   5.509  -5.631  0.00  0.00    -0.001 A 
ATOM      4  C3  UNL d   1       3.137   5.999  -5.965  0.00  0.00     0.003 A 
ATOM      5  C4  UNL d   1       4.234   5.141  -5.999  0.00  0.00    -0.005 A 
ATOM      6  C5  UNL d   1       4.069   3.790  -5.700  0.00  0.00     0.003 A 
ATOM      7  C6  UNL d   1       2.806   3.298  -5.367  0.00  0.00    -0.001 A 
ENDROOT
TORSDOF 0
ENDMDL
