MODEL 1
REMARK minimizedAffinity 9.21942616
REMARK minimizedRMSD -1
REMARK  0 active torsions:
REMARK  status: ('A' for Active; 'I' for Inactive)
ROOT
ATOM      1  C   UNL d   1       1.858   3.071   2.897  0.00  0.00     0.078 C 
ATOM      2  C1  UNL d   1       1.675   4.094   3.978  0.00  0.00    -0.077 A 
ATOM      3  C2  UNL d   1       2.627   4.247   4.994  0.00  0.00    -0.001 A 
ATOM      4  C3  UNL d   1       2.439   5.197   6.000  0.00  0.00     0.003 A 
ATOM      5  C4  UNL d   1       1.300   6.000   6.000  0.00  0.00    -0.005 A 
ATOM      6  C5  UNL d   1       0.347   5.853   4.994  0.00  0.00     0.003 A 
ATOM      7  C6  UNL d   1       0.533   4.904   3.988  0.00  0.00    -0.001 A 
ENDROOT
TORSDOF 0
ENDMDL
