MODEL 1
REMARK minimizedAffinity 7.73693323
REMARK minimizedRMSD -1
REMARK  0 active torsions:
REMARK  status: ('A' for Active; 'I' for Inactive)
ROOT
ATOM      1  C   UNL d   1      -0.486  -1.082   3.047  0.00  0.00     0.078 C 
ATOM      2  C1  UNL d   1       0.612  -1.457   2.096  0.00  0.00    -0.077 A 
ATOM      3  C2  UNL d   1       0.625  -0.972   0.783  0.00  0.00    -0.001 A 
ATOM      4  C3  UNL d   1       1.648  -1.337  -0.094  0.00  0.00     0.003 A 
ATOM      5  C4  UNL d   1       2.665  -2.188   0.333  0.00  0.00    -0.005 A 
ATOM      6  C5  UNL d   1       2.659  -2.677   1.637  0.00  0.00     0.003 A 
ATOM      7  C6  UNL d   1       1.637  -2.314   2.516  0.00  0.00    -0.001 A 
ENDROOT
TORSDOF 0
ENDMDL
