MODEL 1
REMARK minimizedAffinity 13.42097
REMARK minimizedRMSD -1
REMARK  0 active torsions:
REMARK  status: ('A' for Active; 'I' for Inactive)
ROOT
ATOM      1  C   UNL d   1      -5.999   0.348  -3.835  0.00  0.00     0.078 C 
ATOM      2  C1  UNL d   1      -4.877  -0.182  -2.994  0.00  0.00    -0.077 A 
ATOM      3  C2  UNL d   1      -4.092   0.677  -2.214  0.00  0.00    -0.001 A 
ATOM      4  C3  UNL d   1      -3.045   0.171  -1.443  0.00  0.00     0.003 A 
ATOM      5  C4  UNL d   1      -2.771  -1.195  -1.445  0.00  0.00    -0.005 A 
ATOM      6  C5  UNL d   1      -3.545  -2.057  -2.219  0.00  0.00     0.003 A 
ATOM      7  C6  UNL d   1      -4.593  -1.553  -2.990  0.00  0.00    -0.001 A 
ENDROOT
TORSDOF 0
ENDMDL
