MODEL 1
REMARK minimizedAffinity 4.46176243
REMARK minimizedRMSD -1
REMARK  0 active torsions:
REMARK  status: ('A' for Active; 'I' for Inactive)
ROOT
ATOM      1  C   UNL d   1       4.138  -2.716   3.454  0.00  0.00     0.078 C 
ATOM      2  C1  UNL d   1       3.259  -2.859   2.248  0.00  0.00    -0.077 A 
ATOM      3  C2  UNL d   1       2.415  -1.817   1.843  0.00  0.00    -0.001 A 
ATOM      4  C3  UNL d   1       1.595  -1.967   0.724  0.00  0.00     0.003 A 
ATOM      5  C4  UNL d   1       1.609  -3.158   0.001  0.00  0.00    -0.005 A 
ATOM      6  C5  UNL d   1       2.444  -4.201   0.397  0.00  0.00     0.003 A 
ATOM      7  C6  UNL d   1       3.265  -4.053   1.516  0.00  0.00    -0.001 A 
ENDROOT
TORSDOF 0
ENDMDL
