MODEL 1
REMARK minimizedAffinity 4.1114893
REMARK minimizedRMSD -1
REMARK  0 active torsions:
REMARK  status: ('A' for Active; 'I' for Inactive)
ROOT
ATOM      1  C   UNL d   1       4.640  -2.942   3.954  0.00  0.00     0.078 C 
ATOM      2  C1  UNL d   1       3.661  -2.915   2.819  0.00  0.00    -0.077 A 
ATOM      3  C2  UNL d   1       3.741  -3.843   1.774  0.00  0.00    -0.001 A 
ATOM      4  C3  UNL d   1       2.829  -3.800   0.719  0.00  0.00     0.003 A 
ATOM      5  C4  UNL d   1       1.830  -2.828   0.697  0.00  0.00    -0.005 A 
ATOM      6  C5  UNL d   1       1.743  -1.898   1.731  0.00  0.00     0.003 A 
ATOM      7  C6  UNL d   1       2.655  -1.941   2.787  0.00  0.00    -0.001 A 
ENDROOT
TORSDOF 0
ENDMDL
