MODEL 1
REMARK minimizedAffinity -2.41054821
REMARK minimizedRMSD -1
REMARK  0 active torsions:
REMARK  status: ('A' for Active; 'I' for Inactive)
ROOT
ATOM      1  C   UNL d   1       5.864   2.395  -5.988  0.00  0.00     0.078 C 
ATOM      2  C1  UNL d   1       4.952   3.586  -5.999  0.00  0.00    -0.077 A 
ATOM      3  C2  UNL d   1       5.467   4.888  -5.995  0.00  0.00    -0.001 A 
ATOM      4  C3  UNL d   1       4.606   5.987  -5.995  0.00  0.00     0.003 A 
ATOM      5  C4  UNL d   1       3.226   5.795  -5.998  0.00  0.00    -0.005 A 
ATOM      6  C5  UNL d   1       2.705   4.503  -6.000  0.00  0.00     0.003 A 
ATOM      7  C6  UNL d   1       3.564   3.403  -6.000  0.00  0.00    -0.001 A 
ENDROOT
TORSDOF 0
ENDMDL
