MODEL 1
REMARK minimizedAffinity 7.42697096
REMARK minimizedRMSD -1
REMARK  0 active torsions:
REMARK  status: ('A' for Active; 'I' for Inactive)
ROOT
ATOM      1  C   UNL d   1       2.063  -2.400   0.898  0.00  0.00     0.078 C 
ATOM      2  C1  UNL d   1       3.375  -3.125   0.871  0.00  0.00    -0.077 A 
ATOM      3  C2  UNL d   1       4.568  -2.448   0.590  0.00  0.00    -0.001 A 
ATOM      4  C3  UNL d   1       5.781  -3.137   0.559  0.00  0.00     0.003 A 
ATOM      5  C4  UNL d   1       5.813  -4.508   0.807  0.00  0.00    -0.005 A 
ATOM      6  C5  UNL d   1       4.631  -5.191   1.086  0.00  0.00     0.003 A 
ATOM      7  C6  UNL d   1       3.417  -4.503   1.117  0.00  0.00    -0.001 A 
ENDROOT
TORSDOF 0
ENDMDL
