MODEL 1
REMARK minimizedAffinity 6.43254375
REMARK minimizedRMSD -1
REMARK  0 active torsions:
REMARK  status: ('A' for Active; 'I' for Inactive)
ROOT
ATOM      1  C   UNL d   1       3.847  -3.065   3.882  0.00  0.00     0.078 C 
ATOM      2  C1  UNL d   1       3.125  -3.100   2.568  0.00  0.00    -0.077 A 
ATOM      3  C2  UNL d   1       2.265  -2.062   2.190  0.00  0.00    -0.001 A 
ATOM      4  C3  UNL d   1       1.592  -2.112   0.968  0.00  0.00     0.003 A 
ATOM      5  C4  UNL d   1       1.772  -3.198   0.114  0.00  0.00    -0.005 A 
ATOM      6  C5  UNL d   1       2.625  -4.237   0.482  0.00  0.00     0.003 A 
ATOM      7  C6  UNL d   1       3.298  -4.189   1.704  0.00  0.00    -0.001 A 
ENDROOT
TORSDOF 0
ENDMDL
