MODEL 1
REMARK minimizedAffinity 0.767372608
REMARK minimizedRMSD -1
REMARK  0 active torsions:
REMARK  status: ('A' for Active; 'I' for Inactive)
ROOT
ATOM      1  C   UNL d   1       4.971  -3.888   4.290  0.00  0.00     0.078 C 
ATOM      2  C1  UNL d   1       4.587  -3.603   2.869  0.00  0.00    -0.077 A 
ATOM      3  C2  UNL d   1       5.547  -3.596   1.850  0.00  0.00    -0.001 A 
ATOM      4  C3  UNL d   1       5.176  -3.320   0.533  0.00  0.00     0.003 A 
ATOM      5  C4  UNL d   1       3.845  -3.047   0.223  0.00  0.00    -0.005 A 
ATOM      6  C5  UNL d   1       2.883  -3.049   1.231  0.00  0.00     0.003 A 
ATOM      7  C6  UNL d   1       3.252  -3.326   2.548  0.00  0.00    -0.001 A 
ENDROOT
TORSDOF 0
ENDMDL
