MODEL 1
REMARK minimizedAffinity 2.1998105
REMARK minimizedRMSD -1
REMARK  0 active torsions:
REMARK  status: ('A' for Active; 'I' for Inactive)
ROOT
ATOM      1  C   UNL d   1      -3.862  -1.299   1.791  0.00  0.00     0.078 C 
ATOM      2  C1  UNL d   1      -2.759  -0.330   2.101  0.00  0.00    -0.077 A 
ATOM      3  C2  UNL d   1      -1.468  -0.523   1.596  0.00  0.00    -0.001 A 
ATOM      4  C3  UNL d   1      -0.449   0.381   1.900  0.00  0.00     0.003 A 
ATOM      5  C4  UNL d   1      -0.711   1.484   2.711  0.00  0.00    -0.005 A 
ATOM      6  C5  UNL d   1      -1.993   1.682   3.220  0.00  0.00     0.003 A 
ATOM      7  C6  UNL d   1      -3.013   0.779   2.917  0.00  0.00    -0.001 A 
ENDROOT
TORSDOF 0
ENDMDL
