MODEL 1
REMARK minimizedAffinity 5.69820309
REMARK minimizedRMSD -1
REMARK  0 active torsions:
REMARK  status: ('A' for Active; 'I' for Inactive)
ROOT
ATOM      1  C   UNL d   1       0.479  -3.525  -3.234  0.00  0.00     0.078 C 
ATOM      2  C1  UNL d   1       1.262  -2.750  -2.217  0.00  0.00    -0.077 A 
ATOM      3  C2  UNL d   1       1.851  -3.390  -1.119  0.00  0.00    -0.001 A 
ATOM      4  C3  UNL d   1       2.570  -2.655  -0.175  0.00  0.00     0.003 A 
ATOM      5  C4  UNL d   1       2.705  -1.275  -0.319  0.00  0.00    -0.005 A 
ATOM      6  C5  UNL d   1       2.121  -0.629  -1.406  0.00  0.00     0.003 A 
ATOM      7  C6  UNL d   1       1.402  -1.363  -2.351  0.00  0.00    -0.001 A 
ENDROOT
TORSDOF 0
ENDMDL
