MODEL 1
REMARK minimizedAffinity 8.77772522
REMARK minimizedRMSD -1
REMARK  0 active torsions:
REMARK  status: ('A' for Active; 'I' for Inactive)
ROOT
ATOM      1  C   UNL d   1       4.160   1.798   1.006  0.00  0.00     0.078 C 
ATOM      2  C1  UNL d   1       3.690   0.432   0.607  0.00  0.00    -0.077 A 
ATOM      3  C2  UNL d   1       4.401  -0.714   0.984  0.00  0.00    -0.001 A 
ATOM      4  C3  UNL d   1       3.957  -1.980   0.597  0.00  0.00     0.003 A 
ATOM      5  C4  UNL d   1       2.802  -2.111  -0.170  0.00  0.00    -0.005 A 
ATOM      6  C5  UNL d   1       2.089  -0.977  -0.553  0.00  0.00     0.003 A 
ATOM      7  C6  UNL d   1       2.531   0.289  -0.166  0.00  0.00    -0.001 A 
ENDROOT
TORSDOF 0
ENDMDL
