MODEL 1
REMARK minimizedAffinity 10.2006292
REMARK minimizedRMSD -1
REMARK  0 active torsions:
REMARK  status: ('A' for Active; 'I' for Inactive)
ROOT
ATOM      1  C   UNL d   1      -5.883   3.425   3.618  0.00  0.00     0.078 C 
ATOM      2  C1  UNL d   1      -4.620   2.778   4.101  0.00  0.00    -0.077 A 
ATOM      3  C2  UNL d   1      -3.839   1.991   3.245  0.00  0.00    -0.001 A 
ATOM      4  C3  UNL d   1      -2.671   1.387   3.710  0.00  0.00     0.003 A 
ATOM      5  C4  UNL d   1      -2.273   1.561   5.034  0.00  0.00    -0.005 A 
ATOM      6  C5  UNL d   1      -3.044   2.340   5.894  0.00  0.00     0.003 A 
ATOM      7  C6  UNL d   1      -4.213   2.946   5.430  0.00  0.00    -0.001 A 
ENDROOT
TORSDOF 0
ENDMDL
