MODEL 1
REMARK minimizedAffinity 6.04552126
REMARK minimizedRMSD -1
REMARK  0 active torsions:
REMARK  status: ('A' for Active; 'I' for Inactive)
ROOT
ATOM      1  C   UNL d   1       0.969   1.460   2.771  0.00  0.00     0.078 C 
ATOM      2  C1  UNL d   1       2.035   1.620   1.728  0.00  0.00    -0.077 A 
ATOM      3  C2  UNL d   1       1.967   0.925   0.514  0.00  0.00    -0.001 A 
ATOM      4  C3  UNL d   1       2.971   1.076  -0.443  0.00  0.00     0.003 A 
ATOM      5  C4  UNL d   1       4.052   1.920  -0.196  0.00  0.00    -0.005 A 
ATOM      6  C5  UNL d   1       4.130   2.614   1.010  0.00  0.00     0.003 A 
ATOM      7  C6  UNL d   1       3.127   2.464   1.968  0.00  0.00    -0.001 A 
ENDROOT
TORSDOF 0
ENDMDL
