MODEL 1
REMARK minimizedAffinity 4.69420958
REMARK minimizedRMSD -1
REMARK  0 active torsions:
REMARK  status: ('A' for Active; 'I' for Inactive)
ROOT
ATOM      1  C   UNL d   1       1.181  -4.524  -3.101  0.00  0.00     0.078 C 
ATOM      2  C1  UNL d   1       1.802  -3.673  -2.034  0.00  0.00    -0.077 A 
ATOM      3  C2  UNL d   1       2.665  -4.227  -1.081  0.00  0.00    -0.001 A 
ATOM      4  C3  UNL d   1       3.228  -3.424  -0.087  0.00  0.00     0.003 A 
ATOM      5  C4  UNL d   1       2.933  -2.063  -0.037  0.00  0.00    -0.005 A 
ATOM      6  C5  UNL d   1       2.074  -1.503  -0.980  0.00  0.00     0.003 A 
ATOM      7  C6  UNL d   1       1.510  -2.304  -1.975  0.00  0.00    -0.001 A 
ENDROOT
TORSDOF 0
ENDMDL
