MODEL 1
REMARK minimizedAffinity 7.59895277
REMARK minimizedRMSD -1
REMARK  0 active torsions:
REMARK  status: ('A' for Active; 'I' for Inactive)
ROOT
ATOM      1  C   UNL d   1       2.076  -0.242  -0.387  0.00  0.00     0.078 C 
ATOM      2  C1  UNL d   1       2.080  -1.679  -0.818  0.00  0.00    -0.077 A 
ATOM      3  C2  UNL d   1       2.815  -2.641  -0.115  0.00  0.00    -0.001 A 
ATOM      4  C3  UNL d   1       2.817  -3.972  -0.533  0.00  0.00     0.003 A 
ATOM      5  C4  UNL d   1       2.086  -4.354  -1.657  0.00  0.00    -0.005 A 
ATOM      6  C5  UNL d   1       1.353  -3.404  -2.364  0.00  0.00     0.003 A 
ATOM      7  C6  UNL d   1       1.350  -2.071  -1.947  0.00  0.00    -0.001 A 
ENDROOT
TORSDOF 0
ENDMDL
