MODEL 1
REMARK minimizedAffinity 3.8011713
REMARK minimizedRMSD -1
REMARK  0 active torsions:
REMARK  status: ('A' for Active; 'I' for Inactive)
ROOT
ATOM      1  C   UNL d   1      -2.830  -4.129  -5.407  0.00  0.00     0.078 C 
ATOM      2  C1  UNL d   1      -2.013  -4.769  -4.325  0.00  0.00    -0.077 A 
ATOM      3  C2  UNL d   1      -0.614  -4.768  -4.380  0.00  0.00    -0.001 A 
ATOM      4  C3  UNL d   1       0.134  -5.376  -3.370  0.00  0.00     0.003 A 
ATOM      5  C4  UNL d   1      -0.509  -5.991  -2.298  0.00  0.00    -0.005 A 
ATOM      6  C5  UNL d   1      -1.901  -6.000  -2.235  0.00  0.00     0.003 A 
ATOM      7  C6  UNL d   1      -2.650  -5.392  -3.244  0.00  0.00    -0.001 A 
ENDROOT
TORSDOF 0
ENDMDL
