MODEL 1
REMARK minimizedAffinity 10.8454218
REMARK minimizedRMSD -1
REMARK  0 active torsions:
REMARK  status: ('A' for Active; 'I' for Inactive)
ROOT
ATOM      1  C   UNL d   1      -2.606   0.754   2.360  0.00  0.00     0.078 C 
ATOM      2  C1  UNL d   1      -3.256   1.293   3.599  0.00  0.00    -0.077 A 
ATOM      3  C2  UNL d   1      -2.654   1.141   4.854  0.00  0.00    -0.001 A 
ATOM      4  C3  UNL d   1      -3.276   1.639   6.000  0.00  0.00     0.003 A 
ATOM      5  C4  UNL d   1      -4.503   2.291   5.903  0.00  0.00    -0.005 A 
ATOM      6  C5  UNL d   1      -5.111   2.445   4.659  0.00  0.00     0.003 A 
ATOM      7  C6  UNL d   1      -4.491   1.948   3.511  0.00  0.00    -0.001 A 
ENDROOT
TORSDOF 0
ENDMDL
