MODEL 1
REMARK minimizedAffinity 15.439105
REMARK minimizedRMSD -1
REMARK  0 active torsions:
REMARK  status: ('A' for Active; 'I' for Inactive)
ROOT
ATOM      1  C   UNL d   1      -2.984   0.760   2.436  0.00  0.00     0.078 C 
ATOM      2  C1  UNL d   1      -3.653   1.384   3.624  0.00  0.00    -0.077 A 
ATOM      3  C2  UNL d   1      -4.868   2.067   3.492  0.00  0.00    -0.001 A 
ATOM      4  C3  UNL d   1      -5.474   2.651   4.605  0.00  0.00     0.003 A 
ATOM      5  C4  UNL d   1      -4.872   2.560   5.858  0.00  0.00    -0.005 A 
ATOM      6  C5  UNL d   1      -3.662   1.884   5.999  0.00  0.00     0.003 A 
ATOM      7  C6  UNL d   1      -3.054   1.299   4.887  0.00  0.00    -0.001 A 
ENDROOT
TORSDOF 0
ENDMDL
