MODEL 1
REMARK minimizedAffinity 12.6469774
REMARK minimizedRMSD -1
REMARK  0 active torsions:
REMARK  status: ('A' for Active; 'I' for Inactive)
ROOT
ATOM      1  C   UNL d   1       2.117  -0.893  -0.593  0.00  0.00     0.078 C 
ATOM      2  C1  UNL d   1       2.820  -2.184  -0.297  0.00  0.00    -0.077 A 
ATOM      3  C2  UNL d   1       2.098  -3.360  -0.056  0.00  0.00    -0.001 A 
ATOM      4  C3  UNL d   1       2.766  -4.552   0.227  0.00  0.00     0.003 A 
ATOM      5  C4  UNL d   1       4.159  -4.580   0.274  0.00  0.00    -0.005 A 
ATOM      6  C5  UNL d   1       4.885  -3.415   0.038  0.00  0.00     0.003 A 
ATOM      7  C6  UNL d   1       4.219  -2.222  -0.246  0.00  0.00    -0.001 A 
ENDROOT
TORSDOF 0
ENDMDL
