MODEL 1
REMARK minimizedAffinity 8.22900009
REMARK minimizedRMSD -1
REMARK  0 active torsions:
REMARK  status: ('A' for Active; 'I' for Inactive)
ROOT
ATOM      1  C   UNL d   1       3.038  -3.361   0.332  0.00  0.00     0.078 C 
ATOM      2  C1  UNL d   1       3.089  -1.911   0.712  0.00  0.00    -0.077 A 
ATOM      3  C2  UNL d   1       4.262  -1.340   1.221  0.00  0.00    -0.001 A 
ATOM      4  C3  UNL d   1       4.292   0.008   1.580  0.00  0.00     0.003 A 
ATOM      5  C4  UNL d   1       3.152   0.797   1.436  0.00  0.00    -0.005 A 
ATOM      6  C5  UNL d   1       1.980   0.237   0.933  0.00  0.00     0.003 A 
ATOM      7  C6  UNL d   1       1.947  -1.111   0.573  0.00  0.00    -0.001 A 
ENDROOT
TORSDOF 0
ENDMDL
