MODEL 1
REMARK minimizedAffinity 11.2191391
REMARK minimizedRMSD -1
REMARK  0 active torsions:
REMARK  status: ('A' for Active; 'I' for Inactive)
ROOT
ATOM      1  C   UNL d   1       0.541  -4.216  -3.750  0.00  0.00     0.078 C 
ATOM      2  C1  UNL d   1       1.525  -4.478  -2.650  0.00  0.00    -0.077 A 
ATOM      3  C2  UNL d   1       1.887  -3.468  -1.750  0.00  0.00    -0.001 A 
ATOM      4  C3  UNL d   1       2.812  -3.724  -0.737  0.00  0.00     0.003 A 
ATOM      5  C4  UNL d   1       3.383  -4.989  -0.613  0.00  0.00    -0.005 A 
ATOM      6  C5  UNL d   1       3.030  -6.000  -1.505  0.00  0.00     0.003 A 
ATOM      7  C6  UNL d   1       2.106  -5.746  -2.519  0.00  0.00    -0.001 A 
ENDROOT
TORSDOF 0
ENDMDL
