MODEL 1
REMARK minimizedAffinity 7.62584782
REMARK minimizedRMSD -1
REMARK  0 active torsions:
REMARK  status: ('A' for Active; 'I' for Inactive)
ROOT
ATOM      1  C   UNL d   1      -3.331  -2.680   4.861  0.00  0.00     0.078 C 
ATOM      2  C1  UNL d   1      -3.407  -1.182   4.843  0.00  0.00    -0.077 A 
ATOM      3  C2  UNL d   1      -3.767  -0.493   3.679  0.00  0.00    -0.001 A 
ATOM      4  C3  UNL d   1      -3.824   0.902   3.674  0.00  0.00     0.003 A 
ATOM      5  C4  UNL d   1      -3.520   1.619   4.829  0.00  0.00    -0.005 A 
ATOM      6  C5  UNL d   1      -3.159   0.941   5.992  0.00  0.00     0.003 A 
ATOM      7  C6  UNL d   1      -3.101  -0.453   5.999  0.00  0.00    -0.001 A 
ENDROOT
TORSDOF 0
ENDMDL
