MODEL 1
REMARK minimizedAffinity 0.9233374
REMARK minimizedRMSD -1
REMARK  0 active torsions:
REMARK  status: ('A' for Active; 'I' for Inactive)
ROOT
ATOM      1  C   UNL d   1       2.291  -1.327  -1.900  0.00  0.00     0.078 C 
ATOM      2  C1  UNL d   1       2.333  -2.817  -1.736  0.00  0.00    -0.077 A 
ATOM      3  C2  UNL d   1       3.285  -3.425  -0.909  0.00  0.00    -0.001 A 
ATOM      4  C3  UNL d   1       3.318  -4.814  -0.773  0.00  0.00     0.003 A 
ATOM      5  C4  UNL d   1       2.402  -5.607  -1.462  0.00  0.00    -0.005 A 
ATOM      6  C5  UNL d   1       1.453  -5.011  -2.290  0.00  0.00     0.003 A 
ATOM      7  C6  UNL d   1       1.418  -3.622  -2.427  0.00  0.00    -0.001 A 
ENDROOT
TORSDOF 0
ENDMDL
