MODEL 1
REMARK minimizedAffinity 12.0319748
REMARK minimizedRMSD -1
REMARK  0 active torsions:
REMARK  status: ('A' for Active; 'I' for Inactive)
ROOT
ATOM      1  C   UNL d   1       0.409  -3.897  -3.098  0.00  0.00     0.078 C 
ATOM      2  C1  UNL d   1       1.092  -3.010  -2.100  0.00  0.00    -0.077 A 
ATOM      3  C2  UNL d   1       1.513  -3.509  -0.861  0.00  0.00    -0.001 A 
ATOM      4  C3  UNL d   1       2.139  -2.670   0.062  0.00  0.00     0.003 A 
ATOM      5  C4  UNL d   1       2.348  -1.326  -0.244  0.00  0.00    -0.005 A 
ATOM      6  C5  UNL d   1       1.931  -0.821  -1.473  0.00  0.00     0.003 A 
ATOM      7  C6  UNL d   1       1.305  -1.659  -2.397  0.00  0.00    -0.001 A 
ENDROOT
TORSDOF 0
ENDMDL
