MODEL 1
REMARK minimizedAffinity 14.1615658
REMARK minimizedRMSD -1
REMARK  0 active torsions:
REMARK  status: ('A' for Active; 'I' for Inactive)
ROOT
ATOM      1  C   UNL d   1       4.112  -6.000   0.006  0.00  0.00     0.078 C 
ATOM      2  C1  UNL d   1       3.620  -4.588  -0.112  0.00  0.00    -0.077 A 
ATOM      3  C2  UNL d   1       2.271  -4.313  -0.365  0.00  0.00    -0.001 A 
ATOM      4  C3  UNL d   1       1.829  -2.995  -0.482  0.00  0.00     0.003 A 
ATOM      5  C4  UNL d   1       2.730  -1.940  -0.348  0.00  0.00    -0.005 A 
ATOM      6  C5  UNL d   1       4.075  -2.204  -0.098  0.00  0.00     0.003 A 
ATOM      7  C6  UNL d   1       4.519  -3.522   0.019  0.00  0.00    -0.001 A 
ENDROOT
TORSDOF 0
ENDMDL
