MODEL 1
REMARK minimizedAffinity 11.1011562
REMARK minimizedRMSD -1
REMARK  0 active torsions:
REMARK  status: ('A' for Active; 'I' for Inactive)
ROOT
ATOM      1  C   UNL d   1      -0.949  -0.399   6.000  0.00  0.00     0.023 A 
ATOM      2  C1  UNL d   1       0.421  -0.145   5.931  0.00  0.00     0.003 A 
ATOM      3  C2  UNL d   1       1.115  -0.367   4.740  0.00  0.00     0.048 A 
ATOM      4  C3  UNL d   1       0.432  -0.842   3.621  0.00  0.00     0.023 A 
ATOM      5  C4  UNL d   1      -0.939  -1.097   3.684  0.00  0.00     0.048 A 
ATOM      6  C5  UNL d   1      -1.628  -0.874   4.878  0.00  0.00     0.003 A 
ATOM      7  I   UNL d   1       1.463  -1.173   1.846  0.00  0.00    -0.146 I 
ENDROOT
TORSDOF 0
ENDMDL
