MODEL 1
REMARK minimizedAffinity 17.9814587
REMARK minimizedRMSD -1
REMARK  0 active torsions:
REMARK  status: ('A' for Active; 'I' for Inactive)
ROOT
ATOM      1  C   UNL d   1      -2.291   4.756  -2.262  0.00  0.00     0.023 A 
ATOM      2  C1  UNL d   1      -3.456   5.007  -1.536  0.00  0.00     0.003 A 
ATOM      3  C2  UNL d   1      -4.521   4.105  -1.588  0.00  0.00     0.048 A 
ATOM      4  C3  UNL d   1      -4.414   2.954  -2.367  0.00  0.00     0.023 A 
ATOM      5  C4  UNL d   1      -3.250   2.698  -3.094  0.00  0.00     0.048 A 
ATOM      6  C5  UNL d   1      -2.188   3.603  -3.040  0.00  0.00     0.003 A 
ATOM      7  I   UNL d   1      -5.997   1.610  -2.446  0.00  0.00    -0.146 I 
ENDROOT
TORSDOF 0
ENDMDL
