MODEL 1
REMARK minimizedAffinity 19.9795017
REMARK minimizedRMSD -1
REMARK  0 active torsions:
REMARK  status: ('A' for Active; 'I' for Inactive)
ROOT
ATOM      1  C   UNL d   1      -0.300  -2.186   2.427  0.00  0.00     0.023 A 
ATOM      2  C1  UNL d   1      -0.302  -0.907   2.984  0.00  0.00     0.003 A 
ATOM      3  C2  UNL d   1       0.748  -0.026   2.719  0.00  0.00     0.048 A 
ATOM      4  C3  UNL d   1       1.797  -0.430   1.894  0.00  0.00     0.023 A 
ATOM      5  C4  UNL d   1       1.804  -1.708   1.333  0.00  0.00     0.048 A 
ATOM      6  C5  UNL d   1       0.752  -2.586   1.602  0.00  0.00     0.003 A 
ATOM      7  I   UNL d   1       3.362   0.879   1.497  0.00  0.00    -0.146 I 
ENDROOT
TORSDOF 0
ENDMDL
