MODEL 1
REMARK minimizedAffinity 9.4815464
REMARK minimizedRMSD -1
REMARK  0 active torsions:
REMARK  status: ('A' for Active; 'I' for Inactive)
ROOT
ATOM      1  C   UNL d   1      -0.572  -0.121   4.894  0.00  0.00     0.023 A 
ATOM      2  C1  UNL d   1       0.645   0.101   5.539  0.00  0.00     0.003 A 
ATOM      3  C2  UNL d   1       1.816   0.244   4.793  0.00  0.00     0.048 A 
ATOM      4  C3  UNL d   1       1.763   0.166   3.402  0.00  0.00     0.023 A 
ATOM      5  C4  UNL d   1       0.548  -0.055   2.752  0.00  0.00     0.048 A 
ATOM      6  C5  UNL d   1      -0.621  -0.199   3.502  0.00  0.00     0.003 A 
ATOM      7  I   UNL d   1       3.505   0.380   2.288  0.00  0.00    -0.146 I 
ENDROOT
TORSDOF 0
ENDMDL
