MODEL 1
REMARK minimizedAffinity 3.71872592
REMARK minimizedRMSD -1
REMARK  0 active torsions:
REMARK  status: ('A' for Active; 'I' for Inactive)
ROOT
ATOM      1  C   UNL d   1       0.736  -1.355   3.814  0.00  0.00     0.023 A 
ATOM      2  C1  UNL d   1       0.387  -2.632   3.373  0.00  0.00     0.003 A 
ATOM      3  C2  UNL d   1      -0.648  -3.330   3.999  0.00  0.00     0.048 A 
ATOM      4  C3  UNL d   1      -1.330  -2.745   5.065  0.00  0.00     0.023 A 
ATOM      5  C4  UNL d   1      -0.985  -1.467   5.509  0.00  0.00     0.048 A 
ATOM      6  C5  UNL d   1       0.051  -0.774   4.881  0.00  0.00     0.003 A 
ATOM      7  I   UNL d   1      -2.871  -3.781   5.998  0.00  0.00    -0.146 I 
ENDROOT
TORSDOF 0
ENDMDL
