MODEL 1
REMARK minimizedAffinity 16.1827927
REMARK minimizedRMSD -1
REMARK  0 active torsions:
REMARK  status: ('A' for Active; 'I' for Inactive)
ROOT
ATOM      1  C   UNL d   1      -0.051  -0.726   3.873  0.00  0.00     0.023 A 
ATOM      2  C1  UNL d   1       0.902  -0.039   4.625  0.00  0.00     0.003 A 
ATOM      3  C2  UNL d   1       2.130   0.301   4.055  0.00  0.00     0.048 A 
ATOM      4  C3  UNL d   1       2.399  -0.048   2.732  0.00  0.00     0.023 A 
ATOM      5  C4  UNL d   1       1.449  -0.735   1.975  0.00  0.00     0.048 A 
ATOM      6  C5  UNL d   1       0.222  -1.074   2.550  0.00  0.00     0.003 A 
ATOM      7  I   UNL d   1       4.227   0.457   1.881  0.00  0.00    -0.146 I 
ENDROOT
TORSDOF 0
ENDMDL
