MODEL 1
REMARK minimizedAffinity 7.43905973
REMARK minimizedRMSD -1
REMARK  0 active torsions:
REMARK  status: ('A' for Active; 'I' for Inactive)
ROOT
ATOM      1  C   UNL d   1       1.857   4.497   0.076  0.00  0.00     0.023 A 
ATOM      2  C1  UNL d   1       1.033   3.481   0.559  0.00  0.00     0.003 A 
ATOM      3  C2  UNL d   1      -0.061   3.050  -0.195  0.00  0.00     0.048 A 
ATOM      4  C3  UNL d   1      -0.324   3.639  -1.431  0.00  0.00     0.023 A 
ATOM      5  C4  UNL d   1       0.498   4.656  -1.918  0.00  0.00     0.048 A 
ATOM      6  C5  UNL d   1       1.590   5.084  -1.161  0.00  0.00     0.003 A 
ATOM      7  I   UNL d   1      -1.952   3.000  -2.554  0.00  0.00    -0.146 I 
ENDROOT
TORSDOF 0
ENDMDL
