MODEL 1
REMARK minimizedAffinity 13.766118
REMARK minimizedRMSD -1
REMARK  0 active torsions:
REMARK  status: ('A' for Active; 'I' for Inactive)
ROOT
ATOM      1  C   UNL d   1       1.412  -0.603   2.825  0.00  0.00     0.023 A 
ATOM      2  C1  UNL d   1       1.183  -1.451   1.741  0.00  0.00     0.003 A 
ATOM      3  C2  UNL d   1      -0.031  -2.133   1.631  0.00  0.00     0.048 A 
ATOM      4  C3  UNL d   1      -1.012  -1.960   2.606  0.00  0.00     0.023 A 
ATOM      5  C4  UNL d   1      -0.788  -1.112   3.692  0.00  0.00     0.048 A 
ATOM      6  C5  UNL d   1       0.428  -0.434   3.799  0.00  0.00     0.003 A 
ATOM      7  I   UNL d   1      -2.820  -2.973   2.443  0.00  0.00    -0.146 I 
ENDROOT
TORSDOF 0
ENDMDL
