MODEL 1
REMARK minimizedAffinity 13.7116756
REMARK minimizedRMSD -1
REMARK  0 active torsions:
REMARK  status: ('A' for Active; 'I' for Inactive)
ROOT
ATOM      1  C   UNL d   1       3.309  -0.299   1.865  0.00  0.00     0.023 A 
ATOM      2  C1  UNL d   1       3.275   0.452   3.040  0.00  0.00     0.003 A 
ATOM      3  C2  UNL d   1       2.134   0.438   3.846  0.00  0.00     0.048 A 
ATOM      4  C3  UNL d   1       1.032  -0.329   3.472  0.00  0.00     0.023 A 
ATOM      5  C4  UNL d   1       1.062  -1.083   2.297  0.00  0.00     0.048 A 
ATOM      6  C5  UNL d   1       2.204  -1.065   1.494  0.00  0.00     0.003 A 
ATOM      7  I   UNL d   1      -0.666  -0.350   4.670  0.00  0.00    -0.146 I 
ENDROOT
TORSDOF 0
ENDMDL
