MODEL 1
REMARK minimizedAffinity 7.0820322
REMARK minimizedRMSD -1
REMARK  0 active torsions:
REMARK  status: ('A' for Active; 'I' for Inactive)
ROOT
ATOM      1  C   UNL d   1      -3.183   3.777  -1.869  0.00  0.00     0.023 A 
ATOM      2  C1  UNL d   1      -3.307   5.161  -1.987  0.00  0.00     0.003 A 
ATOM      3  C2  UNL d   1      -2.918   5.801  -3.165  0.00  0.00     0.048 A 
ATOM      4  C3  UNL d   1      -2.406   5.050  -4.223  0.00  0.00     0.023 A 
ATOM      5  C4  UNL d   1      -2.281   3.664  -4.110  0.00  0.00     0.048 A 
ATOM      6  C5  UNL d   1      -2.671   3.029  -2.929  0.00  0.00     0.003 A 
ATOM      7  I   UNL d   1      -1.826   5.999  -5.978  0.00  0.00    -0.146 I 
ENDROOT
TORSDOF 0
ENDMDL
