MODEL 1
REMARK minimizedAffinity 18.1311092
REMARK minimizedRMSD -1
REMARK  0 active torsions:
REMARK  status: ('A' for Active; 'I' for Inactive)
ROOT
ATOM      1  C   UNL d   1       3.974   0.862   2.134  0.00  0.00     0.023 A 
ATOM      2  C1  UNL d   1       3.750   1.884   1.212  0.00  0.00     0.003 A 
ATOM      3  C2  UNL d   1       3.901   1.639  -0.155  0.00  0.00     0.048 A 
ATOM      4  C3  UNL d   1       4.275   0.369  -0.592  0.00  0.00     0.023 A 
ATOM      5  C4  UNL d   1       4.500  -0.657   0.328  0.00  0.00     0.048 A 
ATOM      6  C5  UNL d   1       4.349  -0.407   1.693  0.00  0.00     0.003 A 
ATOM      7  I   UNL d   1       4.500   0.000  -2.625  0.00  0.00    -0.146 I 
ENDROOT
TORSDOF 0
ENDMDL
