MODEL 1
REMARK minimizedAffinity 10.8332357
REMARK minimizedRMSD -1
REMARK  0 active torsions:
REMARK  status: ('A' for Active; 'I' for Inactive)
ROOT
ATOM      1  C   UNL d   1      -0.114  -2.436   1.827  0.00  0.00     0.023 A 
ATOM      2  C1  UNL d   1      -1.202  -3.045   2.452  0.00  0.00     0.003 A 
ATOM      3  C2  UNL d   1      -1.711  -2.519   3.642  0.00  0.00     0.048 A 
ATOM      4  C3  UNL d   1      -1.127  -1.382   4.200  0.00  0.00     0.023 A 
ATOM      5  C4  UNL d   1      -0.039  -0.768   3.577  0.00  0.00     0.048 A 
ATOM      6  C5  UNL d   1       0.467  -1.298   2.389  0.00  0.00     0.003 A 
ATOM      7  I   UNL d   1      -1.882  -0.596   5.969  0.00  0.00    -0.146 I 
ENDROOT
TORSDOF 0
ENDMDL
