MODEL 1
REMARK minimizedAffinity 6.69442797
REMARK minimizedRMSD -1
REMARK  0 active torsions:
REMARK  status: ('A' for Active; 'I' for Inactive)
ROOT
ATOM      1  C   UNL d   1      -2.524  -4.397  -0.178  0.00  0.00     0.023 A 
ATOM      2  C1  UNL d   1      -2.309  -4.465   1.199  0.00  0.00     0.003 A 
ATOM      3  C2  UNL d   1      -1.309  -3.689   1.790  0.00  0.00     0.048 A 
ATOM      4  C3  UNL d   1      -0.530  -2.846   0.998  0.00  0.00     0.023 A 
ATOM      5  C4  UNL d   1      -0.742  -2.774  -0.379  0.00  0.00     0.048 A 
ATOM      6  C5  UNL d   1      -1.742  -3.552  -0.966  0.00  0.00     0.003 A 
ATOM      7  I   UNL d   1       0.958  -1.691   1.876  0.00  0.00    -0.146 I 
ENDROOT
TORSDOF 0
ENDMDL
