MODEL 1
REMARK minimizedAffinity 7.6081748
REMARK minimizedRMSD -1
REMARK  0 active torsions:
REMARK  status: ('A' for Active; 'I' for Inactive)
ROOT
ATOM      1  C   UNL d   1       1.137   6.000   0.237  0.00  0.00     0.023 A 
ATOM      2  C1  UNL d   1       0.603   4.916   0.935  0.00  0.00     0.003 A 
ATOM      3  C2  UNL d   1       0.103   3.814   0.239  0.00  0.00     0.048 A 
ATOM      4  C3  UNL d   1       0.140   3.801  -1.155  0.00  0.00     0.023 A 
ATOM      5  C4  UNL d   1       0.674   4.882  -1.857  0.00  0.00     0.048 A 
ATOM      6  C5  UNL d   1       1.172   5.983  -1.158  0.00  0.00     0.003 A 
ATOM      7  I   UNL d   1      -0.603   2.161  -2.192  0.00  0.00    -0.146 I 
ENDROOT
TORSDOF 0
ENDMDL
