MODEL 1
REMARK minimizedAffinity -0.936605811
REMARK minimizedRMSD -1
REMARK  0 active torsions:
REMARK  status: ('A' for Active; 'I' for Inactive)
ROOT
ATOM      1  C   UNL d   1      -0.589  -2.615  -1.405  0.00  0.00     0.124 A 
ATOM      2  C1  UNL d   1      -0.666  -2.224  -0.076  0.00  0.00     0.062 A 
ATOM      3  C2  UNL d   1      -0.367  -0.914   0.287  0.00  0.00     0.162 A 
ATOM      4  C3  UNL d   1       0.012   0.015  -0.682  0.00  0.00    -0.034 A 
ATOM      5  C4  UNL d   1       0.088  -0.386  -2.017  0.00  0.00     0.162 A 
ATOM      6  C5  UNL d   1      -0.212  -1.696  -2.374  0.00  0.00     0.062 A 
ATOM      7  F   UNL d   1      -0.138  -2.072  -3.659  0.00  0.00    -0.097 F 
ATOM      8  F1  UNL d   1       0.448   0.482  -2.974  0.00  0.00    -0.096 F 
ATOM      9  I   UNL d   1       0.460   1.975  -0.144  0.00  0.00    -0.060 I 
ATOM     10  F2  UNL d   1      -0.449  -0.564   1.579  0.00  0.00    -0.096 F 
ATOM     11  F3  UNL d   1      -1.028  -3.111   0.862  0.00  0.00    -0.097 F 
ATOM     12  F4  UNL d   1      -0.876  -3.877  -1.751  0.00  0.00    -0.092 F 
ENDROOT
TORSDOF 0
ENDMDL
