MODEL 1
REMARK minimizedAffinity -4.37482262
REMARK minimizedRMSD -1
REMARK  0 active torsions:
REMARK  status: ('A' for Active; 'I' for Inactive)
ROOT
ATOM      1  C   UNL d   1      -0.496  -2.292  -1.219  0.00  0.00     0.124 A 
ATOM      2  C1  UNL d   1      -0.770  -1.918   0.090  0.00  0.00     0.062 A 
ATOM      3  C2  UNL d   1      -0.445  -0.640   0.535  0.00  0.00     0.162 A 
ATOM      4  C3  UNL d   1       0.158   0.274  -0.329  0.00  0.00    -0.034 A 
ATOM      5  C4  UNL d   1       0.432  -0.110  -1.643  0.00  0.00     0.162 A 
ATOM      6  C5  UNL d   1       0.104  -1.388  -2.083  0.00  0.00     0.062 A 
ATOM      7  F   UNL d   1       0.370  -1.748  -3.348  0.00  0.00    -0.097 F 
ATOM      8  F1  UNL d   1       1.011   0.744  -2.500  0.00  0.00    -0.096 F 
ATOM      9  I   UNL d   1       0.647   2.186   0.333  0.00  0.00    -0.060 I 
ATOM     10  F2  UNL d   1      -0.721  -0.305   1.804  0.00  0.00    -0.096 F 
ATOM     11  F3  UNL d   1      -1.350  -2.789   0.928  0.00  0.00    -0.097 F 
ATOM     12  F4  UNL d   1      -0.810  -3.522  -1.644  0.00  0.00    -0.092 F 
ENDROOT
TORSDOF 0
ENDMDL
