MODEL 1
REMARK minimizedAffinity 2.11258435
REMARK minimizedRMSD -1
REMARK  0 active torsions:
REMARK  status: ('A' for Active; 'I' for Inactive)
ROOT
ATOM      1  C   UNL d   1      -0.623  -1.797  -0.362  0.00  0.00     0.124 A 
ATOM      2  C1  UNL d   1      -0.330  -0.952  -1.423  0.00  0.00     0.062 A 
ATOM      3  C2  UNL d   1      -0.061   0.394  -1.192  0.00  0.00     0.162 A 
ATOM      4  C3  UNL d   1      -0.082   0.903   0.106  0.00  0.00    -0.034 A 
ATOM      5  C4  UNL d   1      -0.378   0.047   1.168  0.00  0.00     0.162 A 
ATOM      6  C5  UNL d   1      -0.647  -1.297   0.932  0.00  0.00     0.062 A 
ATOM      7  F   UNL d   1      -0.930  -2.113   1.958  0.00  0.00    -0.097 F 
ATOM      8  F1  UNL d   1      -0.407   0.503   2.429  0.00  0.00    -0.096 F 
ATOM      9  I   UNL d   1       0.320   2.915   0.456  0.00  0.00    -0.060 I 
ATOM     10  F2  UNL d   1       0.219   1.188  -2.237  0.00  0.00    -0.096 F 
ATOM     11  F3  UNL d   1      -0.307  -1.432  -2.675  0.00  0.00    -0.097 F 
ATOM     12  F4  UNL d   1      -0.883  -3.092  -0.588  0.00  0.00    -0.092 F 
ENDROOT
TORSDOF 0
ENDMDL
