MODEL 1
REMARK minimizedAffinity -1.60056651
REMARK minimizedRMSD -1
REMARK  0 active torsions:
REMARK  status: ('A' for Active; 'I' for Inactive)
ROOT
ATOM      1  C   UNL d   1      -0.463   0.999   0.547  0.00  0.00     0.124 A 
ATOM      2  C1  UNL d   1      -1.401   0.098   1.031  0.00  0.00     0.062 A 
ATOM      3  C2  UNL d   1      -1.331  -1.246   0.674  0.00  0.00     0.162 A 
ATOM      4  C3  UNL d   1      -0.317  -1.697  -0.170  0.00  0.00    -0.034 A 
ATOM      5  C4  UNL d   1       0.623  -0.785  -0.654  0.00  0.00     0.162 A 
ATOM      6  C5  UNL d   1       0.548   0.557  -0.295  0.00  0.00     0.062 A 
ATOM      7  F   UNL d   1       1.455   1.425  -0.763  0.00  0.00    -0.097 F 
ATOM      8  F1  UNL d   1       1.611  -1.186  -1.468  0.00  0.00    -0.096 F 
ATOM      9  I   UNL d   1      -0.208  -3.706  -0.706  0.00  0.00    -0.060 I 
ATOM     10  F2  UNL d   1      -2.251  -2.094   1.157  0.00  0.00    -0.096 F 
ATOM     11  F3  UNL d   1      -2.379   0.523   1.844  0.00  0.00    -0.097 F 
ATOM     12  F4  UNL d   1      -0.534   2.291   0.891  0.00  0.00    -0.092 F 
ENDROOT
TORSDOF 0
ENDMDL
