MODEL 1
REMARK minimizedAffinity 3.5484817
REMARK minimizedRMSD -1
REMARK  0 active torsions:
REMARK  status: ('A' for Active; 'I' for Inactive)
ROOT
ATOM      1  C   UNL d   1      -0.510  -1.867  -0.772  0.00  0.00     0.124 A 
ATOM      2  C1  UNL d   1      -0.649  -1.477   0.552  0.00  0.00     0.062 A 
ATOM      3  C2  UNL d   1      -0.386  -0.162   0.927  0.00  0.00     0.162 A 
ATOM      4  C3  UNL d   1       0.019   0.773  -0.026  0.00  0.00    -0.034 A 
ATOM      5  C4  UNL d   1       0.158   0.373  -1.356  0.00  0.00     0.162 A 
ATOM      6  C5  UNL d   1      -0.106  -0.942  -1.725  0.00  0.00     0.062 A 
ATOM      7  F   UNL d   1       0.029  -1.316  -3.005  0.00  0.00    -0.097 F 
ATOM      8  F1  UNL d   1       0.545   1.247  -2.297  0.00  0.00    -0.096 F 
ATOM      9  I   UNL d   1       0.413   2.740   0.530  0.00  0.00    -0.060 I 
ATOM     10  F2  UNL d   1      -0.529   0.187   2.214  0.00  0.00    -0.096 F 
ATOM     11  F3  UNL d   1      -1.038  -2.369   1.475  0.00  0.00    -0.097 F 
ATOM     12  F4  UNL d   1      -0.763  -3.132  -1.130  0.00  0.00    -0.092 F 
ENDROOT
TORSDOF 0
ENDMDL
