MODEL 1
REMARK minimizedAffinity -0.915149331
REMARK minimizedRMSD -1
REMARK  0 active torsions:
REMARK  status: ('A' for Active; 'I' for Inactive)
ROOT
ATOM      1  C   UNL d   1      -0.620  -2.794  -0.758  0.00  0.00     0.124 A 
ATOM      2  C1  UNL d   1      -0.832  -2.198   0.477  0.00  0.00     0.062 A 
ATOM      3  C2  UNL d   1      -0.656  -0.826   0.632  0.00  0.00     0.162 A 
ATOM      4  C3  UNL d   1      -0.267  -0.040  -0.453  0.00  0.00    -0.034 A 
ATOM      5  C4  UNL d   1      -0.054  -0.647  -1.692  0.00  0.00     0.162 A 
ATOM      6  C5  UNL d   1      -0.232  -2.019  -1.841  0.00  0.00     0.062 A 
ATOM      7  F   UNL d   1      -0.026  -2.593  -3.035  0.00  0.00    -0.097 F 
ATOM      8  F1  UNL d   1       0.321   0.079  -2.755  0.00  0.00    -0.096 F 
ATOM      9  I   UNL d   1      -0.002   2.012  -0.226  0.00  0.00    -0.060 I 
ATOM     10  F2  UNL d   1      -0.868  -0.277   1.837  0.00  0.00    -0.096 F 
ATOM     11  F3  UNL d   1      -1.207  -2.946   1.525  0.00  0.00    -0.097 F 
ATOM     12  F4  UNL d   1      -0.789  -4.115  -0.904  0.00  0.00    -0.092 F 
ENDROOT
TORSDOF 0
ENDMDL
