MODEL 1
REMARK minimizedAffinity -0.60019654
REMARK minimizedRMSD -1
REMARK  0 active torsions:
REMARK  status: ('A' for Active; 'I' for Inactive)
ROOT
ATOM      1  C   UNL d   1      -0.655  -1.800  -0.184  0.00  0.00     0.124 A 
ATOM      2  C1  UNL d   1      -0.030  -1.033  -1.158  0.00  0.00     0.062 A 
ATOM      3  C2  UNL d   1       0.070   0.346  -1.006  0.00  0.00     0.162 A 
ATOM      4  C3  UNL d   1      -0.455   0.969   0.127  0.00  0.00    -0.034 A 
ATOM      5  C4  UNL d   1      -1.083   0.192   1.102  0.00  0.00     0.162 A 
ATOM      6  C5  UNL d   1      -1.180  -1.187   0.944  0.00  0.00     0.062 A 
ATOM      7  F   UNL d   1      -1.784  -1.926   1.886  0.00  0.00    -0.097 F 
ATOM      8  F1  UNL d   1      -1.598   0.758   2.203  0.00  0.00    -0.096 F 
ATOM      9  I   UNL d   1      -0.307   3.032   0.359  0.00  0.00    -0.060 I 
ATOM     10  F2  UNL d   1       0.679   1.062  -1.963  0.00  0.00    -0.096 F 
ATOM     11  F3  UNL d   1       0.478  -1.623  -2.250  0.00  0.00    -0.097 F 
ATOM     12  F4  UNL d   1      -0.751  -3.127  -0.334  0.00  0.00    -0.092 F 
ENDROOT
TORSDOF 0
ENDMDL
