MODEL 1
REMARK minimizedAffinity 0.0101058232
REMARK minimizedRMSD -1
REMARK  0 active torsions:
REMARK  status: ('A' for Active; 'I' for Inactive)
ROOT
ATOM      1  C   UNL d   1      -0.547  -2.282  -0.612  0.00  0.00     0.124 A 
ATOM      2  C1  UNL d   1      -0.174  -1.425  -1.639  0.00  0.00     0.062 A 
ATOM      3  C2  UNL d   1       0.098  -0.087  -1.370  0.00  0.00     0.162 A 
ATOM      4  C3  UNL d   1      -0.001   0.403  -0.067  0.00  0.00    -0.034 A 
ATOM      5  C4  UNL d   1      -0.378  -0.464   0.960  0.00  0.00     0.162 A 
ATOM      6  C5  UNL d   1      -0.649  -1.801   0.685  0.00  0.00     0.062 A 
ATOM      7  F   UNL d   1      -1.009  -2.627   1.678  0.00  0.00    -0.097 F 
ATOM      8  F1  UNL d   1      -0.483  -0.026   2.223  0.00  0.00    -0.096 F 
ATOM      9  I   UNL d   1       0.405   2.404   0.339  0.00  0.00    -0.060 I 
ATOM     10  F2  UNL d   1       0.456   0.718  -2.381  0.00  0.00    -0.096 F 
ATOM     11  F3  UNL d   1      -0.076  -1.887  -2.894  0.00  0.00    -0.097 F 
ATOM     12  F4  UNL d   1      -0.809  -3.569  -0.874  0.00  0.00    -0.092 F 
ENDROOT
TORSDOF 0
ENDMDL
