MODEL 1
REMARK minimizedAffinity 3.13730097
REMARK minimizedRMSD -1
REMARK  0 active torsions:
REMARK  status: ('A' for Active; 'I' for Inactive)
ROOT
ATOM      1  C   UNL d   1       1.071   2.754   0.264  0.00  0.00     0.124 A 
ATOM      2  C1  UNL d   1       0.379   2.092  -0.741  0.00  0.00     0.062 A 
ATOM      3  C2  UNL d   1      -0.131   0.817  -0.517  0.00  0.00     0.162 A 
ATOM      4  C3  UNL d   1       0.047   0.195   0.719  0.00  0.00    -0.034 A 
ATOM      5  C4  UNL d   1       0.745   0.866   1.724  0.00  0.00     0.162 A 
ATOM      6  C5  UNL d   1       1.253   2.141   1.495  0.00  0.00     0.062 A 
ATOM      7  F   UNL d   1       1.921   2.779   2.467  0.00  0.00    -0.097 F 
ATOM      8  F1  UNL d   1       0.935   0.298   2.924  0.00  0.00    -0.096 F 
ATOM      9  I   UNL d   1      -0.714  -1.712   1.058  0.00  0.00    -0.060 I 
ATOM     10  F2  UNL d   1      -0.795   0.201  -1.506  0.00  0.00    -0.096 F 
ATOM     11  F3  UNL d   1       0.203   2.682  -1.932  0.00  0.00    -0.097 F 
ATOM     12  F4  UNL d   1       1.562   3.981   0.045  0.00  0.00    -0.092 F 
ENDROOT
TORSDOF 0
ENDMDL
