MODEL 1
REMARK minimizedAffinity -2.26150393
REMARK minimizedRMSD -1
REMARK  0 active torsions:
REMARK  status: ('A' for Active; 'I' for Inactive)
ROOT
ATOM      1  C   UNL d   1      -0.631  -2.504  -0.795  0.00  0.00     0.124 A 
ATOM      2  C1  UNL d   1      -0.822  -1.989   0.480  0.00  0.00     0.062 A 
ATOM      3  C2  UNL d   1      -0.590  -0.640   0.732  0.00  0.00     0.162 A 
ATOM      4  C3  UNL d   1      -0.165   0.205  -0.294  0.00  0.00    -0.034 A 
ATOM      5  C4  UNL d   1       0.026  -0.321  -1.573  0.00  0.00     0.162 A 
ATOM      6  C5  UNL d   1      -0.207  -1.670  -1.820  0.00  0.00     0.062 A 
ATOM      7  F   UNL d   1      -0.021  -2.166  -3.052  0.00  0.00    -0.097 F 
ATOM      8  F1  UNL d   1       0.434   0.463  -2.582  0.00  0.00    -0.096 F 
ATOM      9  I   UNL d   1       0.183   2.223   0.078  0.00  0.00    -0.060 I 
ATOM     10  F2  UNL d   1      -0.783  -0.169   1.973  0.00  0.00    -0.096 F 
ATOM     11  F3  UNL d   1      -1.231  -2.793   1.472  0.00  0.00    -0.097 F 
ATOM     12  F4  UNL d   1      -0.854  -3.803  -1.034  0.00  0.00    -0.092 F 
ENDROOT
TORSDOF 0
ENDMDL
