MODEL 1
REMARK minimizedAffinity -1.12233078
REMARK minimizedRMSD -1
REMARK  0 active torsions:
REMARK  status: ('A' for Active; 'I' for Inactive)
ROOT
ATOM      1  C   UNL d   1      -0.809  -2.534  -0.727  0.00  0.00     0.124 A 
ATOM      2  C1  UNL d   1      -0.329  -1.761  -1.775  0.00  0.00     0.062 A 
ATOM      3  C2  UNL d   1       0.007  -0.427  -1.564  0.00  0.00     0.162 A 
ATOM      4  C3  UNL d   1      -0.134   0.143  -0.298  0.00  0.00    -0.034 A 
ATOM      5  C4  UNL d   1      -0.618  -0.641   0.750  0.00  0.00     0.162 A 
ATOM      6  C5  UNL d   1      -0.953  -1.974   0.534  0.00  0.00     0.062 A 
ATOM      7  F   UNL d   1      -1.416  -2.720   1.548  0.00  0.00    -0.097 F 
ATOM      8  F1  UNL d   1      -0.766  -0.125   1.980  0.00  0.00    -0.096 F 
ATOM      9  I   UNL d   1       0.367   2.137   0.022  0.00  0.00    -0.060 I 
ATOM     10  F2  UNL d   1       0.468   0.297  -2.595  0.00  0.00    -0.096 F 
ATOM     11  F3  UNL d   1      -0.190  -2.299  -2.995  0.00  0.00    -0.097 F 
ATOM     12  F4  UNL d   1      -1.132  -3.817  -0.933  0.00  0.00    -0.092 F 
ENDROOT
TORSDOF 0
ENDMDL
