MODEL 1
REMARK minimizedAffinity 0.320294082
REMARK minimizedRMSD -1
REMARK  0 active torsions:
REMARK  status: ('A' for Active; 'I' for Inactive)
ROOT
ATOM      1  C   UNL d   1      -0.839  -2.459  -0.588  0.00  0.00     0.124 A 
ATOM      2  C1  UNL d   1      -1.003  -1.826   0.637  0.00  0.00     0.062 A 
ATOM      3  C2  UNL d   1      -0.720  -0.470   0.767  0.00  0.00     0.162 A 
ATOM      4  C3  UNL d   1      -0.272   0.265  -0.331  0.00  0.00    -0.034 A 
ATOM      5  C4  UNL d   1      -0.109  -0.379  -1.560  0.00  0.00     0.162 A 
ATOM      6  C5  UNL d   1      -0.393  -1.735  -1.685  0.00  0.00     0.062 A 
ATOM      7  F   UNL d   1      -0.235  -2.344  -2.869  0.00  0.00    -0.097 F 
ATOM      8  F1  UNL d   1       0.320   0.297  -2.636  0.00  0.00    -0.096 F 
ATOM      9  I   UNL d   1       0.152   2.293  -0.141  0.00  0.00    -0.060 I 
ATOM     10  F2  UNL d   1      -0.886   0.116   1.962  0.00  0.00    -0.096 F 
ATOM     11  F3  UNL d   1      -1.433  -2.524   1.698  0.00  0.00    -0.097 F 
ATOM     12  F4  UNL d   1      -1.111  -3.764  -0.710  0.00  0.00    -0.092 F 
ENDROOT
TORSDOF 0
ENDMDL
