MODEL 1
REMARK minimizedAffinity 4.40159321
REMARK minimizedRMSD -1
REMARK  0 active torsions:
REMARK  status: ('A' for Active; 'I' for Inactive)
ROOT
ATOM      1  C   UNL d   1      -0.885  -1.892  -0.239  0.00  0.00     0.124 A 
ATOM      2  C1  UNL d   1      -0.442  -1.114  -1.300  0.00  0.00     0.062 A 
ATOM      3  C2  UNL d   1      -0.037   0.200  -1.083  0.00  0.00     0.162 A 
ATOM      4  C3  UNL d   1      -0.073   0.745   0.200  0.00  0.00    -0.034 A 
ATOM      5  C4  UNL d   1      -0.520  -0.043   1.262  0.00  0.00     0.162 A 
ATOM      6  C5  UNL d   1      -0.923  -1.356   1.040  0.00  0.00     0.062 A 
ATOM      7  F   UNL d   1      -1.351  -2.106   2.066  0.00  0.00    -0.097 F 
ATOM      8  F1  UNL d   1      -0.567   0.449   2.509  0.00  0.00    -0.096 F 
ATOM      9  I   UNL d   1       0.531   2.709   0.528  0.00  0.00    -0.060 I 
ATOM     10  F2  UNL d   1       0.386   0.929  -2.127  0.00  0.00    -0.096 F 
ATOM     11  F3  UNL d   1      -0.405  -1.629  -2.537  0.00  0.00    -0.097 F 
ATOM     12  F4  UNL d   1      -1.274  -3.156  -0.451  0.00  0.00    -0.092 F 
ENDROOT
TORSDOF 0
ENDMDL
