MODEL 1
REMARK minimizedAffinity -0.914358914
REMARK minimizedRMSD -1
REMARK  0 active torsions:
REMARK  status: ('A' for Active; 'I' for Inactive)
ROOT
ATOM      1  C   UNL d   1      -0.316   0.596  -0.086  0.00  0.00     0.020 A 
ATOM      2  C1  UNL d   1       1.059   0.466  -0.276  0.00  0.00     0.020 A 
ATOM      3  C2  UNL d   1       1.905   1.546  -0.013  0.00  0.00     0.034 A 
ATOM      4  C3  UNL d   1       1.376   2.760   0.440  0.00  0.00     0.017 A 
ATOM      5  C4  UNL d   1      -0.004   2.889   0.629  0.00  0.00     0.017 A 
ATOM      6  C5  UNL d   1      -0.846   1.805   0.365  0.00  0.00     0.034 A 
ATOM      7 Cl   UNL d   1      -0.730   4.356   1.186  0.00  0.00    -0.070 Cl
ATOM      8 Cl1  UNL d   1       2.481   4.054   0.744  0.00  0.00    -0.070 Cl
ENDROOT
TORSDOF 0
ENDMDL
