MODEL 1
REMARK minimizedAffinity -3.50055242
REMARK minimizedRMSD -1
REMARK  0 active torsions:
REMARK  status: ('A' for Active; 'I' for Inactive)
ROOT
ATOM      1  C   UNL d   1      -1.533  -1.996   2.100  0.00  0.00     0.020 A 
ATOM      2  C1  UNL d   1      -1.395  -0.772   2.752  0.00  0.00     0.020 A 
ATOM      3  C2  UNL d   1      -0.722   0.281   2.127  0.00  0.00     0.034 A 
ATOM      4  C3  UNL d   1      -0.186   0.111   0.846  0.00  0.00     0.017 A 
ATOM      5  C4  UNL d   1      -0.325  -1.119   0.192  0.00  0.00     0.017 A 
ATOM      6  C5  UNL d   1      -0.999  -2.169   0.822  0.00  0.00     0.034 A 
ATOM      7 Cl   UNL d   1       0.310  -1.404  -1.390  0.00  0.00    -0.070 Cl
ATOM      8 Cl1  UNL d   1       0.633   1.455   0.133  0.00  0.00    -0.070 Cl
ENDROOT
TORSDOF 0
ENDMDL
