MODEL 1
REMARK minimizedAffinity -4.26185894
REMARK minimizedRMSD -1
REMARK  0 active torsions:
REMARK  status: ('A' for Active; 'I' for Inactive)
ROOT
ATOM      1  C   UNL d   1      -0.332   1.214   0.285  0.00  0.00     0.020 A 
ATOM      2  C1  UNL d   1      -0.005   1.402  -1.057  0.00  0.00     0.020 A 
ATOM      3  C2  UNL d   1       0.058   0.307  -1.921  0.00  0.00     0.034 A 
ATOM      4  C3  UNL d   1      -0.207  -0.982  -1.444  0.00  0.00     0.017 A 
ATOM      5  C4  UNL d   1      -0.536  -1.170  -0.096  0.00  0.00     0.017 A 
ATOM      6  C5  UNL d   1      -0.597  -0.070   0.764  0.00  0.00     0.034 A 
ATOM      7 Cl   UNL d   1      -0.876  -2.730   0.566  0.00  0.00    -0.070 Cl
ATOM      8 Cl1  UNL d   1      -0.112  -2.290  -2.568  0.00  0.00    -0.070 Cl
ENDROOT
TORSDOF 0
ENDMDL
