MODEL 1
REMARK minimizedAffinity -4.14200878
REMARK minimizedRMSD -1
REMARK  0 active torsions:
REMARK  status: ('A' for Active; 'I' for Inactive)
ROOT
ATOM      1  C   UNL d   1      -0.040  -3.615  -1.537  0.00  0.00     0.020 A 
ATOM      2  C1  UNL d   1       0.143  -3.791  -0.166  0.00  0.00     0.020 A 
ATOM      3  C2  UNL d   1       0.311  -2.681   0.664  0.00  0.00     0.034 A 
ATOM      4  C3  UNL d   1       0.297  -1.390   0.125  0.00  0.00     0.017 A 
ATOM      5  C4  UNL d   1       0.114  -1.214  -1.252  0.00  0.00     0.017 A 
ATOM      6  C5  UNL d   1      -0.054  -2.329  -2.079  0.00  0.00     0.034 A 
ATOM      7 Cl   UNL d   1       0.085   0.348  -1.991  0.00  0.00    -0.070 Cl
ATOM      8 Cl1  UNL d   1       0.510  -0.062   1.210  0.00  0.00    -0.070 Cl
ENDROOT
TORSDOF 0
ENDMDL
