MODEL 1
REMARK minimizedAffinity -1.1080972
REMARK minimizedRMSD -1
REMARK  0 active torsions:
REMARK  status: ('A' for Active; 'I' for Inactive)
ROOT
ATOM      1  C   UNL d   1       0.451  -0.582  -0.010  0.00  0.00     0.020 A 
ATOM      2  C1  UNL d   1      -0.728  -0.094   0.552  0.00  0.00     0.020 A 
ATOM      3  C2  UNL d   1      -0.900   1.280   0.731  0.00  0.00     0.034 A 
ATOM      4  C3  UNL d   1       0.109   2.171   0.346  0.00  0.00     0.017 A 
ATOM      5  C4  UNL d   1       1.292   1.680  -0.218  0.00  0.00     0.017 A 
ATOM      6  C5  UNL d   1       1.458   0.303  -0.394  0.00  0.00     0.034 A 
ATOM      7 Cl   UNL d   1       2.581   2.718  -0.717  0.00  0.00    -0.070 Cl
ATOM      8 Cl1  UNL d   1      -0.171   3.858   0.596  0.00  0.00    -0.070 Cl
ENDROOT
TORSDOF 0
ENDMDL
