MODEL 1
REMARK minimizedAffinity -5.0911541
REMARK minimizedRMSD -1
REMARK  0 active torsions:
REMARK  status: ('A' for Active; 'I' for Inactive)
ROOT
ATOM      1  C   UNL d   1       0.196  -2.747  -1.963  0.00  0.00     0.020 A 
ATOM      2  C1  UNL d   1      -0.124  -3.431  -0.791  0.00  0.00     0.020 A 
ATOM      3  C2  UNL d   1      -0.477  -2.719   0.358  0.00  0.00     0.034 A 
ATOM      4  C3  UNL d   1      -0.509  -1.320   0.337  0.00  0.00     0.017 A 
ATOM      5  C4  UNL d   1      -0.187  -0.635  -0.840  0.00  0.00     0.017 A 
ATOM      6  C5  UNL d   1       0.165  -1.353  -1.988  0.00  0.00     0.034 A 
ATOM      7 Cl   UNL d   1      -0.205   1.090  -0.943  0.00  0.00    -0.070 Cl
ATOM      8 Cl1  UNL d   1      -0.954  -0.505   1.794  0.00  0.00    -0.070 Cl
ENDROOT
TORSDOF 0
ENDMDL
