MODEL 1
REMARK minimizedAffinity -1.6409483
REMARK minimizedRMSD -1
REMARK  0 active torsions:
REMARK  status: ('A' for Active; 'I' for Inactive)
ROOT
ATOM      1  C   UNL d   1      -0.081  -2.777   0.656  0.00  0.00     0.020 A 
ATOM      2  C1  UNL d   1       1.124  -2.358   0.094  0.00  0.00     0.020 A 
ATOM      3  C2  UNL d   1       1.397  -0.995  -0.035  0.00  0.00     0.034 A 
ATOM      4  C3  UNL d   1       0.464  -0.046   0.398  0.00  0.00     0.017 A 
ATOM      5  C4  UNL d   1      -0.746  -0.468   0.962  0.00  0.00     0.017 A 
ATOM      6  C5  UNL d   1      -1.014  -1.834   1.089  0.00  0.00     0.034 A 
ATOM      7 Cl   UNL d   1      -1.946   0.644   1.520  0.00  0.00    -0.070 Cl
ATOM      8 Cl1  UNL d   1       0.868   1.623   0.208  0.00  0.00    -0.070 Cl
ENDROOT
TORSDOF 0
ENDMDL
