MODEL 1
REMARK minimizedAffinity -4.0586853
REMARK minimizedRMSD -1
REMARK  0 active torsions:
REMARK  status: ('A' for Active; 'I' for Inactive)
ROOT
ATOM      1  C   UNL d   1       0.751  -2.491  -0.314  0.00  0.00     0.020 A 
ATOM      2  C1  UNL d   1      -0.349  -2.913   0.431  0.00  0.00     0.020 A 
ATOM      3  C2  UNL d   1      -1.231  -1.972   0.968  0.00  0.00     0.034 A 
ATOM      4  C3  UNL d   1      -1.013  -0.605   0.761  0.00  0.00     0.017 A 
ATOM      5  C4  UNL d   1       0.092  -0.183   0.013  0.00  0.00     0.017 A 
ATOM      6  C5  UNL d   1       0.971  -1.129  -0.523  0.00  0.00     0.034 A 
ATOM      7 Cl   UNL d   1       0.427   1.487  -0.285  0.00  0.00    -0.070 Cl
ATOM      8 Cl1  UNL d   1      -2.143   0.503   1.455  0.00  0.00    -0.070 Cl
ENDROOT
TORSDOF 0
ENDMDL
