MODEL 1
REMARK minimizedAffinity -4.3126049
REMARK minimizedRMSD -1
REMARK  0 active torsions:
REMARK  status: ('A' for Active; 'I' for Inactive)
ROOT
ATOM      1  C   UNL d   1      -0.554  -2.999   1.159  0.00  0.00     0.020 A 
ATOM      2  C1  UNL d   1      -0.342  -3.807   0.042  0.00  0.00     0.020 A 
ATOM      3  C2  UNL d   1      -0.060  -3.227  -1.196  0.00  0.00     0.034 A 
ATOM      4  C3  UNL d   1       0.011  -1.835  -1.321  0.00  0.00     0.017 A 
ATOM      5  C4  UNL d   1      -0.202  -1.024  -0.200  0.00  0.00     0.017 A 
ATOM      6  C5  UNL d   1      -0.484  -1.611   1.038  0.00  0.00     0.034 A 
ATOM      7 Cl   UNL d   1      -0.131   0.701  -0.276  0.00  0.00    -0.070 Cl
ATOM      8 Cl1  UNL d   1       0.364  -1.185  -2.883  0.00  0.00    -0.070 Cl
ENDROOT
TORSDOF 0
ENDMDL
