MODEL 1
REMARK minimizedAffinity -4.55520201
REMARK minimizedRMSD -1
REMARK  0 active torsions:
REMARK  status: ('A' for Active; 'I' for Inactive)
ROOT
ATOM      1  C   UNL d   1       0.218  -2.935  -2.084  0.00  0.00     0.020 A 
ATOM      2  C1  UNL d   1      -0.156  -3.571  -0.901  0.00  0.00     0.020 A 
ATOM      3  C2  UNL d   1      -0.515  -2.814   0.216  0.00  0.00     0.034 A 
ATOM      4  C3  UNL d   1      -0.503  -1.416   0.151  0.00  0.00     0.017 A 
ATOM      5  C4  UNL d   1      -0.128  -0.778  -1.037  0.00  0.00     0.017 A 
ATOM      6  C5  UNL d   1       0.231  -1.541  -2.152  0.00  0.00     0.034 A 
ATOM      7 Cl   UNL d   1      -0.088   0.943  -1.192  0.00  0.00    -0.070 Cl
ATOM      8 Cl1  UNL d   1      -0.959  -0.542   1.570  0.00  0.00    -0.070 Cl
ENDROOT
TORSDOF 0
ENDMDL
