MODEL 1
REMARK minimizedAffinity -4.03753614
REMARK minimizedRMSD -1
REMARK  0 active torsions:
REMARK  status: ('A' for Active; 'I' for Inactive)
ROOT
ATOM      1  C   UNL d   1       0.429  -2.536  -2.638  0.00  0.00     0.020 A 
ATOM      2  C1  UNL d   1       0.027  -3.558  -1.779  0.00  0.00     0.020 A 
ATOM      3  C2  UNL d   1      -0.352  -3.259  -0.468  0.00  0.00     0.034 A 
ATOM      4  C3  UNL d   1      -0.331  -1.936  -0.013  0.00  0.00     0.017 A 
ATOM      5  C4  UNL d   1       0.073  -0.911  -0.876  0.00  0.00     0.017 A 
ATOM      6  C5  UNL d   1       0.451  -1.215  -2.187  0.00  0.00     0.034 A 
ATOM      7 Cl   UNL d   1       0.125   0.746  -0.387  0.00  0.00    -0.070 Cl
ATOM      8 Cl1  UNL d   1      -0.813  -1.640   1.620  0.00  0.00    -0.070 Cl
ENDROOT
TORSDOF 0
ENDMDL
