MODEL 1
REMARK minimizedAffinity -3.17699647
REMARK minimizedRMSD -1
REMARK  0 active torsions:
REMARK  status: ('A' for Active; 'I' for Inactive)
ROOT
ATOM      1  C   UNL d   1      -0.856  -2.290   1.028  0.00  0.00     0.020 A 
ATOM      2  C1  UNL d   1      -1.020  -1.136   1.794  0.00  0.00     0.020 A 
ATOM      3  C2  UNL d   1      -0.734   0.115   1.243  0.00  0.00     0.034 A 
ATOM      4  C3  UNL d   1      -0.281   0.215  -0.077  0.00  0.00     0.017 A 
ATOM      5  C4  UNL d   1      -0.116  -0.943  -0.846  0.00  0.00     0.017 A 
ATOM      6  C5  UNL d   1      -0.405  -2.193  -0.289  0.00  0.00     0.034 A 
ATOM      7 Cl   UNL d   1       0.438  -0.898  -2.482  0.00  0.00    -0.070 Cl
ATOM      8 Cl1  UNL d   1       0.054   1.794  -0.693  0.00  0.00    -0.070 Cl
ENDROOT
TORSDOF 0
ENDMDL
