MODEL 1
REMARK minimizedAffinity -2.69119859
REMARK minimizedRMSD -1
REMARK  0 active torsions:
REMARK  status: ('A' for Active; 'I' for Inactive)
ROOT
ATOM      1  C   UNL d   1      -1.006  -3.147  -0.058  0.00  0.00     0.020 A 
ATOM      2  C1  UNL d   1      -1.071  -2.298   1.045  0.00  0.00     0.020 A 
ATOM      3  C2  UNL d   1      -0.762  -0.943   0.903  0.00  0.00     0.034 A 
ATOM      4  C3  UNL d   1      -0.385  -0.435  -0.345  0.00  0.00     0.017 A 
ATOM      5  C4  UNL d   1      -0.320  -1.288  -1.452  0.00  0.00     0.017 A 
ATOM      6  C5  UNL d   1      -0.631  -2.643  -1.305  0.00  0.00     0.034 A 
ATOM      7 Cl   UNL d   1       0.137  -0.734  -3.024  0.00  0.00    -0.070 Cl
ATOM      8 Cl1  UNL d   1      -0.016   1.250  -0.448  0.00  0.00    -0.070 Cl
ENDROOT
TORSDOF 0
ENDMDL
