MODEL 1
REMARK minimizedAffinity -1.88229072
REMARK minimizedRMSD -1
REMARK  0 active torsions:
REMARK  status: ('A' for Active; 'I' for Inactive)
ROOT
ATOM      1  C   UNL d   1       1.610   4.270   0.070  0.00  0.00     0.020 A 
ATOM      2  C1  UNL d   1       1.280   3.769   1.329  0.00  0.00     0.020 A 
ATOM      3  C2  UNL d   1       0.565   2.575   1.440  0.00  0.00     0.034 A 
ATOM      4  C3  UNL d   1       0.176   1.878   0.290  0.00  0.00     0.017 A 
ATOM      5  C4  UNL d   1       0.508   2.381  -0.973  0.00  0.00     0.017 A 
ATOM      6  C5  UNL d   1       1.225   3.577  -1.078  0.00  0.00     0.034 A 
ATOM      7 Cl   UNL d   1       0.064   1.578  -2.437  0.00  0.00    -0.070 Cl
ATOM      8 Cl1  UNL d   1      -0.707   0.408   0.501  0.00  0.00    -0.070 Cl
ENDROOT
TORSDOF 0
ENDMDL
