MODEL 1
REMARK minimizedAffinity -2.80063033
REMARK minimizedRMSD -1
REMARK  0 active torsions:
REMARK  status: ('A' for Active; 'I' for Inactive)
ROOT
ATOM      1  C   UNL d   1       0.364  -0.368   1.937  0.00  0.00     0.020 A 
ATOM      2  C1  UNL d   1      -0.533  -0.954   1.045  0.00  0.00     0.020 A 
ATOM      3  C2  UNL d   1      -0.737  -0.387  -0.214  0.00  0.00     0.034 A 
ATOM      4  C3  UNL d   1      -0.044   0.771  -0.585  0.00  0.00     0.017 A 
ATOM      5  C4  UNL d   1       0.856   1.359   0.310  0.00  0.00     0.017 A 
ATOM      6  C5  UNL d   1       1.057   0.786   1.570  0.00  0.00     0.034 A 
ATOM      7 Cl   UNL d   1       1.748   2.788  -0.076  0.00  0.00    -0.070 Cl
ATOM      8 Cl1  UNL d   1      -0.346   1.419  -2.159  0.00  0.00    -0.070 Cl
ENDROOT
TORSDOF 0
ENDMDL
