MODEL 1
REMARK minimizedAffinity -3.67119336
REMARK minimizedRMSD -1
REMARK  3 active torsions:
REMARK  status: ('A' for Active; 'I' for Inactive)
REMARK    1  A    between atoms: C3'_2  and  C2'_3 
REMARK    2  A    between atoms: C2'_3  and  C1'_4 
REMARK    3  A    between atoms: C1'_4  and  C1_5 
ROOT
ATOM      1  C1  N4B d   1      -0.809   2.836   0.879  0.00  0.00    -0.075 A 
ATOM      2  C2  N4B d   1      -0.118   2.163  -0.151  0.00  0.00     0.002 A 
ATOM      3  C3  N4B d   1       0.565   1.003   0.124  0.00  0.00     0.002 A 
ATOM      4  C4  N4B d   1       0.585   0.510   1.420  0.00  0.00    -0.004 A 
ATOM      5  C5  N4B d   1      -0.107   1.153   2.405  0.00  0.00     0.002 A 
ATOM      6  C6  N4B d   1      -0.800   2.317   2.142  0.00  0.00     0.002 A 
ENDROOT
BRANCH   1   7
ATOM      7  C1' N4B d   1      -1.498   4.153   0.645  0.00  0.00     0.057 C 
BRANCH   7   8
ATOM      8  C2' N4B d   1      -2.281   4.538   1.897  0.00  0.00     0.009 C 
BRANCH   8   9
ATOM      9  C3' N4B d   1      -2.974   5.881   1.742  0.00  0.00     0.004 C 
ATOM     10  C4' N4B d   1      -4.215   5.994   2.577  0.00  0.00     0.003 C 
ENDBRANCH   8   9
ENDBRANCH   7   8
ENDBRANCH   1   7
TORSDOF 3
ENDMDL
