MODEL 1
REMARK minimizedAffinity 2.96095109
REMARK minimizedRMSD -1
REMARK  3 active torsions:
REMARK  status: ('A' for Active; 'I' for Inactive)
REMARK    1  A    between atoms: C3'_2  and  C2'_3 
REMARK    2  A    between atoms: C2'_3  and  C1'_4 
REMARK    3  A    between atoms: C1'_4  and  C1_5 
ROOT
ATOM      1  C1  N4B d   1      -0.308   1.942   1.185  0.00  0.00    -0.075 A 
ATOM      2  C2  N4B d   1      -0.494   3.191   1.818  0.00  0.00     0.002 A 
ATOM      3  C3  N4B d   1      -0.915   4.275   1.088  0.00  0.00     0.002 A 
ATOM      4  C4  N4B d   1      -1.137   4.140  -0.274  0.00  0.00    -0.004 A 
ATOM      5  C5  N4B d   1      -0.980   2.925  -0.874  0.00  0.00     0.002 A 
ATOM      6  C6  N4B d   1      -0.561   1.825  -0.151  0.00  0.00     0.002 A 
ENDROOT
BRANCH   1   7
ATOM      7  C1' N4B d   1       0.233   0.749   1.924  0.00  0.00     0.057 C 
BRANCH   7   8
ATOM      8  C2' N4B d   1       1.646   0.453   1.432  0.00  0.00     0.009 C 
BRANCH   8   9
ATOM      9  C3' N4B d   1       1.652  -0.079   0.009  0.00  0.00     0.004 C 
ATOM     10  C4' N4B d   1       2.964  -0.696  -0.375  0.00  0.00     0.003 C 
ENDBRANCH   8   9
ENDBRANCH   7   8
ENDBRANCH   1   7
TORSDOF 3
ENDMDL
