MODEL 1
REMARK minimizedAffinity -1.72892404
REMARK minimizedRMSD -1
REMARK  3 active torsions:
REMARK  status: ('A' for Active; 'I' for Inactive)
REMARK    1  A    between atoms: C3'_2  and  C2'_3 
REMARK    2  A    between atoms: C2'_3  and  C1'_4 
REMARK    3  A    between atoms: C1'_4  and  C1_5 
ROOT
ATOM      1  C1  N4B d   1      -0.636   3.445   1.092  0.00  0.00    -0.075 A 
ATOM      2  C2  N4B d   1      -0.578   2.701   2.291  0.00  0.00     0.002 A 
ATOM      3  C3  N4B d   1       0.543   2.762   3.083  0.00  0.00     0.002 A 
ATOM      4  C4  N4B d   1       1.620   3.542   2.688  0.00  0.00    -0.004 A 
ATOM      5  C5  N4B d   1       1.545   4.277   1.541  0.00  0.00     0.002 A 
ATOM      6  C6  N4B d   1       0.424   4.228   0.738  0.00  0.00     0.002 A 
ENDROOT
BRANCH   1   7
ATOM      7  C1' N4B d   1      -1.806   3.343   0.151  0.00  0.00     0.057 C 
BRANCH   7   8
ATOM      8  C2' N4B d   1      -2.760   4.504   0.411  0.00  0.00     0.009 C 
BRANCH   8   9
ATOM      9  C3' N4B d   1      -2.894   4.809   1.894  0.00  0.00     0.004 C 
ATOM     10  C4' N4B d   1      -3.782   5.986   2.167  0.00  0.00     0.003 C 
ENDBRANCH   8   9
ENDBRANCH   7   8
ENDBRANCH   1   7
TORSDOF 3
ENDMDL
