MODEL 1
REMARK minimizedAffinity 2.23080301
REMARK minimizedRMSD -1
REMARK  3 active torsions:
REMARK  status: ('A' for Active; 'I' for Inactive)
REMARK    1  A    between atoms: C3'_2  and  C2'_3 
REMARK    2  A    between atoms: C2'_3  and  C1'_4 
REMARK    3  A    between atoms: C1'_4  and  C1_5 
ROOT
ATOM      1  C1  N4B d   1      -0.804   2.377   1.944  0.00  0.00    -0.075 A 
ATOM      2  C2  N4B d   1      -1.036   3.769   1.891  0.00  0.00     0.002 A 
ATOM      3  C3  N4B d   1      -1.153   4.399   0.677  0.00  0.00     0.002 A 
ATOM      4  C4  N4B d   1      -1.023   3.665  -0.492  0.00  0.00    -0.004 A 
ATOM      5  C5  N4B d   1      -0.825   2.317  -0.433  0.00  0.00     0.002 A 
ATOM      6  C6  N4B d   1      -0.709   1.669   0.781  0.00  0.00     0.002 A 
ENDROOT
BRANCH   1   7
ATOM      7  C1' N4B d   1      -0.583   1.658   3.247  0.00  0.00     0.057 C 
BRANCH   7   8
ATOM      8  C2' N4B d   1       0.056   0.301   2.968  0.00  0.00     0.009 C 
BRANCH   8   9
ATOM      9  C3' N4B d   1      -0.604  -0.813   3.762  0.00  0.00     0.004 C 
ATOM     10  C4' N4B d   1       0.367  -1.569   4.619  0.00  0.00     0.003 C 
ENDBRANCH   8   9
ENDBRANCH   7   8
ENDBRANCH   1   7
TORSDOF 3
ENDMDL
