MODEL 1
REMARK minimizedAffinity -2.2024107
REMARK minimizedRMSD -1
REMARK  3 active torsions:
REMARK  status: ('A' for Active; 'I' for Inactive)
REMARK    1  A    between atoms: C3'_2  and  C2'_3 
REMARK    2  A    between atoms: C2'_3  and  C1'_4 
REMARK    3  A    between atoms: C1'_4  and  C1_5 
ROOT
ATOM      1  C1  N4B d   1      -0.729   2.134   1.004  0.00  0.00    -0.075 A 
ATOM      2  C2  N4B d   1      -0.666   1.119   0.024  0.00  0.00     0.002 A 
ATOM      3  C3  N4B d   1      -0.933   1.416  -1.290  0.00  0.00     0.002 A 
ATOM      4  C4  N4B d   1      -1.283   2.711  -1.643  0.00  0.00    -0.004 A 
ATOM      5  C5  N4B d   1      -1.317   3.690  -0.694  0.00  0.00     0.002 A 
ATOM      6  C6  N4B d   1      -1.047   3.407   0.629  0.00  0.00     0.002 A 
ENDROOT
BRANCH   1   7
ATOM      7  C1' N4B d   1      -0.529   1.840   2.466  0.00  0.00     0.057 C 
BRANCH   7   8
ATOM      8  C2' N4B d   1       0.245   0.533   2.612  0.00  0.00     0.009 C 
BRANCH   8   9
ATOM      9  C3' N4B d   1       0.261   0.040   4.049  0.00  0.00     0.004 C 
ATOM     10  C4' N4B d   1       0.400  -1.450   4.150  0.00  0.00     0.003 C 
ENDBRANCH   8   9
ENDBRANCH   7   8
ENDBRANCH   1   7
TORSDOF 3
ENDMDL
