MODEL 1
REMARK minimizedAffinity 5.7176013
REMARK minimizedRMSD -1
REMARK  3 active torsions:
REMARK  status: ('A' for Active; 'I' for Inactive)
REMARK    1  A    between atoms: C3'_2  and  C2'_3 
REMARK    2  A    between atoms: C2'_3  and  C1'_4 
REMARK    3  A    between atoms: C1'_4  and  C1_5 
ROOT
ATOM      1  C1  N4B d   1       0.998   0.022   1.694  0.00  0.00    -0.075 A 
ATOM      2  C2  N4B d   1       0.277   0.367   0.530  0.00  0.00     0.002 A 
ATOM      3  C3  N4B d   1      -0.816   1.193   0.619  0.00  0.00     0.002 A 
ATOM      4  C4  N4B d   1      -1.217   1.669   1.859  0.00  0.00    -0.004 A 
ATOM      5  C5  N4B d   1      -0.500   1.351   2.975  0.00  0.00     0.002 A 
ATOM      6  C6  N4B d   1       0.603   0.525   2.900  0.00  0.00     0.002 A 
ENDROOT
BRANCH   1   7
ATOM      7  C1' N4B d   1       2.148  -0.947   1.658  0.00  0.00     0.057 C 
BRANCH   7   8
ATOM      8  C2' N4B d   1       2.321  -1.571   3.040  0.00  0.00     0.009 C 
BRANCH   8   9
ATOM      9  C3' N4B d   1       3.762  -1.505   3.516  0.00  0.00     0.004 C 
ATOM     10  C4' N4B d   1       4.066  -2.512   4.586  0.00  0.00     0.003 C 
ENDBRANCH   8   9
ENDBRANCH   7   8
ENDBRANCH   1   7
TORSDOF 3
ENDMDL
