MODEL 1
REMARK minimizedAffinity 12.7471914
REMARK minimizedRMSD -1
REMARK  0 active torsions:
REMARK  status: ('A' for Active; 'I' for Inactive)
ROOT
ATOM      1  C   UNL d   1      -2.121  -0.910   4.318  0.00  0.00    -0.002 A 
ATOM      2  C1  UNL d   1      -3.383  -1.258   3.858  0.00  0.00     0.010 A 
ATOM      3  C2  UNL d   1      -3.736  -1.047   2.524  0.00  0.00     0.041 A 
ATOM      4  C3  UNL d   1      -2.789  -0.477   1.651  0.00  0.00    -0.075 A 
ATOM      5  S   UNL d   1      -2.998  -0.128  -0.025  0.00  0.00     0.015 SA
ATOM      6  C4  UNL d   1      -1.416   0.490  -0.170  0.00  0.00     0.022 A 
ATOM      7  C5  UNL d   1      -0.731   0.439   1.021  0.00  0.00     0.026 A 
ATOM      8  C6  UNL d   1      -1.511  -0.120   2.090  0.00  0.00    -0.082 A 
ATOM      9  C7  UNL d   1      -1.184  -0.345   3.449  0.00  0.00     0.045 A 
ENDROOT
TORSDOF 0
ENDMDL
