MODEL 1
REMARK minimizedAffinity 14.5801897
REMARK minimizedRMSD -1
REMARK  0 active torsions:
REMARK  status: ('A' for Active; 'I' for Inactive)
ROOT
ATOM      1  C   UNL d   1      -3.466  -1.081   3.861  0.00  0.00    -0.002 A 
ATOM      2  C1  UNL d   1      -2.093  -1.116   4.062  0.00  0.00     0.010 A 
ATOM      3  C2  UNL d   1      -1.220  -0.615   3.094  0.00  0.00     0.041 A 
ATOM      4  C3  UNL d   1      -1.756  -0.071   1.910  0.00  0.00    -0.075 A 
ATOM      5  S   UNL d   1      -0.879   0.601   0.586  0.00  0.00     0.015 SA
ATOM      6  C4  UNL d   1      -2.306   0.951  -0.277  0.00  0.00     0.022 A 
ATOM      7  C5  UNL d   1      -3.433   0.571   0.412  0.00  0.00     0.026 A 
ATOM      8  C6  UNL d   1      -3.134  -0.024   1.685  0.00  0.00    -0.082 A 
ATOM      9  C7  UNL d   1      -3.993  -0.540   2.685  0.00  0.00     0.045 A 
ENDROOT
TORSDOF 0
ENDMDL
