MODEL 1
REMARK minimizedAffinity 9.254282
REMARK minimizedRMSD -1
REMARK  0 active torsions:
REMARK  status: ('A' for Active; 'I' for Inactive)
ROOT
ATOM      1  C   UNL d   1       1.174  -0.740   3.438  0.00  0.00    -0.002 A 
ATOM      2  C1  UNL d   1       1.750  -0.252   2.274  0.00  0.00     0.010 A 
ATOM      3  C2  UNL d   1       0.960   0.329   1.280  0.00  0.00     0.041 A 
ATOM      4  C3  UNL d   1      -0.432   0.413   1.479  0.00  0.00    -0.075 A 
ATOM      5  S   UNL d   1      -1.597   1.085   0.400  0.00  0.00     0.015 SA
ATOM      6  C4  UNL d   1      -2.887   0.740   1.460  0.00  0.00     0.022 A 
ATOM      7  C5  UNL d   1      -2.457   0.128   2.613  0.00  0.00     0.026 A 
ATOM      8  C6  UNL d   1      -1.035  -0.070   2.643  0.00  0.00    -0.082 A 
ATOM      9  C7  UNL d   1      -0.207  -0.655   3.632  0.00  0.00     0.045 A 
ENDROOT
TORSDOF 0
ENDMDL
