MODEL 1
REMARK minimizedAffinity 3.37441206
REMARK minimizedRMSD -1
REMARK  0 active torsions:
REMARK  status: ('A' for Active; 'I' for Inactive)
ROOT
ATOM      1  C   UNL d   1      -2.685  -0.934   3.560  0.00  0.00    -0.002 A 
ATOM      2  C1  UNL d   1      -2.672  -0.285   2.333  0.00  0.00     0.010 A 
ATOM      3  C2  UNL d   1      -1.463   0.051   1.720  0.00  0.00     0.041 A 
ATOM      4  C3  UNL d   1      -0.256  -0.281   2.366  0.00  0.00    -0.075 A 
ATOM      5  S   UNL d   1       1.344   0.031   1.804  0.00  0.00     0.015 SA
ATOM      6  C4  UNL d   1       2.047  -0.692   3.179  0.00  0.00     0.022 A 
ATOM      7  C5  UNL d   1       1.100  -1.164   4.055  0.00  0.00     0.026 A 
ATOM      8  C6  UNL d   1      -0.244  -0.936   3.601  0.00  0.00    -0.082 A 
ATOM      9  C7  UNL d   1      -1.486  -1.262   4.197  0.00  0.00     0.045 A 
ENDROOT
TORSDOF 0
ENDMDL
