MODEL 1
REMARK minimizedAffinity 13.5386925
REMARK minimizedRMSD -1
REMARK  0 active torsions:
REMARK  status: ('A' for Active; 'I' for Inactive)
ROOT
ATOM      1  C   UNL d   1      -3.251   0.269  -1.599  0.00  0.00    -0.002 A 
ATOM      2  C1  UNL d   1      -1.928   0.047  -1.950  0.00  0.00     0.010 A 
ATOM      3  C2  UNL d   1      -0.939  -0.050  -0.969  0.00  0.00     0.041 A 
ATOM      4  C3  UNL d   1      -1.307   0.079   0.385  0.00  0.00    -0.075 A 
ATOM      5  S   UNL d   1      -0.268  -0.006   1.757  0.00  0.00     0.015 SA
ATOM      6  C4  UNL d   1      -1.557   0.249   2.843  0.00  0.00     0.022 A 
ATOM      7  C5  UNL d   1      -2.758   0.398   2.191  0.00  0.00     0.026 A 
ATOM      8  C6  UNL d   1      -2.634   0.302   0.763  0.00  0.00    -0.082 A 
ATOM      9  C7  UNL d   1      -3.613   0.397  -0.255  0.00  0.00     0.045 A 
ENDROOT
TORSDOF 0
ENDMDL
