MODEL 1
REMARK minimizedAffinity 0.0418285951
REMARK minimizedRMSD -1
REMARK  0 active torsions:
REMARK  status: ('A' for Active; 'I' for Inactive)
ROOT
ATOM      1  C   UNL d   1      -2.791   0.070   1.818  0.00  0.00    -0.002 A 
ATOM      2  C1  UNL d   1      -2.181   0.356   0.605  0.00  0.00     0.010 A 
ATOM      3  C2  UNL d   1      -0.795   0.260   0.466  0.00  0.00     0.041 A 
ATOM      4  C3  UNL d   1      -0.025  -0.134   1.578  0.00  0.00    -0.075 A 
ATOM      5  S   UNL d   1       1.688  -0.321   1.643  0.00  0.00     0.015 SA
ATOM      6  C4  UNL d   1       1.650  -0.786   3.282  0.00  0.00     0.022 A 
ATOM      7  C5  UNL d   1       0.370  -0.803   3.784  0.00  0.00     0.026 A 
ATOM      8  C6  UNL d   1      -0.616  -0.428   2.810  0.00  0.00    -0.082 A 
ATOM      9  C7  UNL d   1      -2.024  -0.320   2.919  0.00  0.00     0.045 A 
ENDROOT
TORSDOF 0
ENDMDL
