MODEL 1
REMARK minimizedAffinity 6.24154472
REMARK minimizedRMSD -1
REMARK  0 active torsions:
REMARK  status: ('A' for Active; 'I' for Inactive)
ROOT
ATOM      1  C   UNL d   1       0.967  -0.758   4.179  0.00  0.00    -0.002 A 
ATOM      2  C1  UNL d   1       1.733  -0.646   3.027  0.00  0.00     0.010 A 
ATOM      3  C2  UNL d   1       1.158  -0.213   1.831  0.00  0.00     0.041 A 
ATOM      4  C3  UNL d   1      -0.213   0.109   1.811  0.00  0.00    -0.075 A 
ATOM      5  S   UNL d   1      -1.132   0.661   0.461  0.00  0.00     0.015 SA
ATOM      6  C4  UNL d   1      -2.563   0.761   1.381  0.00  0.00     0.022 A 
ATOM      7  C5  UNL d   1      -2.363   0.387   2.689  0.00  0.00     0.026 A 
ATOM      8  C6  UNL d   1      -1.005   0.005   2.958  0.00  0.00    -0.082 A 
ATOM      9  C7  UNL d   1      -0.393  -0.437   4.156  0.00  0.00     0.045 A 
ENDROOT
TORSDOF 0
ENDMDL
