MODEL 1
REMARK minimizedAffinity 0.24673973
REMARK minimizedRMSD -1
REMARK  0 active torsions:
REMARK  status: ('A' for Active; 'I' for Inactive)
ROOT
ATOM      1  C   UNL d   1      -2.569  -0.533   3.779  0.00  0.00    -0.002 A 
ATOM      2  C1  UNL d   1      -2.623   0.101   2.545  0.00  0.00     0.010 A 
ATOM      3  C2  UNL d   1      -1.464   0.285   1.789  0.00  0.00     0.041 A 
ATOM      4  C3  UNL d   1      -0.237  -0.186   2.297  0.00  0.00    -0.075 A 
ATOM      5  S   UNL d   1       1.310  -0.073   1.546  0.00  0.00     0.015 SA
ATOM      6  C4  UNL d   1       2.081  -0.865   2.844  0.00  0.00     0.022 A 
ATOM      7  C5  UNL d   1       1.194  -1.213   3.835  0.00  0.00     0.026 A 
ATOM      8  C6  UNL d   1      -0.157  -0.828   3.536  0.00  0.00    -0.082 A 
ATOM      9  C7  UNL d   1      -1.350  -0.998   4.279  0.00  0.00     0.045 A 
ENDROOT
TORSDOF 0
ENDMDL
