MODEL 1
REMARK minimizedAffinity 3.52006531
REMARK minimizedRMSD -1
REMARK  0 active torsions:
REMARK  status: ('A' for Active; 'I' for Inactive)
ROOT
ATOM      1  C1  BNZ d   1       0.182   3.312   0.357  0.00  0.00     0.000 A 
ATOM      2  C2  BNZ d   1       0.346   3.807  -0.910  0.00  0.00     0.000 A 
ATOM      3  C3  BNZ d   1       0.318   5.153  -1.145  0.00  0.00     0.000 A 
ATOM      4  C4  BNZ d   1       0.086   6.000  -0.121  0.00  0.00     0.000 A 
ATOM      5  C5  BNZ d   1      -0.091   5.516   1.160  0.00  0.00     0.000 A 
ATOM      6  C6  BNZ d   1      -0.024   4.163   1.399  0.00  0.00     0.000 A 
ENDROOT
TORSDOF 0
ENDMDL
