MODEL 1
REMARK minimizedAffinity 3.14616394
REMARK minimizedRMSD -1
REMARK  0 active torsions:
REMARK  status: ('A' for Active; 'I' for Inactive)
ROOT
ATOM      1  C1  BNZ d   1       0.358   5.998  -0.118  0.00  0.00     0.000 A 
ATOM      2  C2  BNZ d   1       0.740   5.572   1.126  0.00  0.00     0.000 A 
ATOM      3  C3  BNZ d   1       0.729   4.243   1.445  0.00  0.00     0.000 A 
ATOM      4  C4  BNZ d   1       0.299   3.346   0.534  0.00  0.00     0.000 A 
ATOM      5  C5  BNZ d   1      -0.098   3.761  -0.722  0.00  0.00     0.000 A 
ATOM      6  C6  BNZ d   1      -0.048   5.096  -1.052  0.00  0.00     0.000 A 
ENDROOT
TORSDOF 0
ENDMDL
