MODEL 1
REMARK minimizedAffinity -2.05768466
REMARK minimizedRMSD -1
REMARK  0 active torsions:
REMARK  status: ('A' for Active; 'I' for Inactive)
ROOT
ATOM      1  C1  BNZ d   1      -0.984   6.000   0.724  0.00  0.00     0.000 A 
ATOM      2  C2  BNZ d   1      -1.051   4.872   1.498  0.00  0.00     0.000 A 
ATOM      3  C3  BNZ d   1      -0.372   3.740   1.145  0.00  0.00     0.000 A 
ATOM      4  C4  BNZ d   1       0.340   3.724  -0.000  0.00  0.00     0.000 A 
ATOM      5  C5  BNZ d   1       0.409   4.850  -0.796  0.00  0.00     0.000 A 
ATOM      6  C6  BNZ d   1      -0.244   6.000  -0.418  0.00  0.00     0.000 A 
ENDROOT
TORSDOF 0
ENDMDL
