MODEL 1
REMARK minimizedAffinity 2.08692694
REMARK minimizedRMSD -1
REMARK  0 active torsions:
REMARK  status: ('A' for Active; 'I' for Inactive)
ROOT
ATOM      1  C1  BNZ d   1      -0.012   2.826   1.584  0.00  0.00     0.000 A 
ATOM      2  C2  BNZ d   1      -0.481   3.619   0.571  0.00  0.00     0.000 A 
ATOM      3  C3  BNZ d   1       0.309   4.587   0.018  0.00  0.00     0.000 A 
ATOM      4  C4  BNZ d   1       1.551   4.789   0.505  0.00  0.00     0.000 A 
ATOM      5  C5  BNZ d   1       2.034   4.004   1.533  0.00  0.00     0.000 A 
ATOM      6  C6  BNZ d   1       1.250   3.004   2.061  0.00  0.00     0.000 A 
ENDROOT
TORSDOF 0
ENDMDL
