MODEL 1
REMARK minimizedAffinity -0.738373995
REMARK minimizedRMSD -1
REMARK  0 active torsions:
REMARK  status: ('A' for Active; 'I' for Inactive)
ROOT
ATOM      1  C1  BNZ d   1       0.556   3.790   0.118  0.00  0.00     0.000 A 
ATOM      2  C2  BNZ d   1       0.691   4.896  -0.678  0.00  0.00     0.000 A 
ATOM      3  C3  BNZ d   1      -0.091   6.000  -0.481  0.00  0.00     0.000 A 
ATOM      4  C4  BNZ d   1      -1.033   5.981   0.483  0.00  0.00     0.000 A 
ATOM      5  C5  BNZ d   1      -1.189   4.870   1.288  0.00  0.00     0.000 A 
ATOM      6  C6  BNZ d   1      -0.373   3.776   1.112  0.00  0.00     0.000 A 
ENDROOT
TORSDOF 0
ENDMDL
