MODEL 1
REMARK minimizedAffinity 6.9035387
REMARK minimizedRMSD -1
REMARK  0 active torsions:
REMARK  status: ('A' for Active; 'I' for Inactive)
ROOT
ATOM      1  C1  BNZ d   1      -2.768   0.694  -2.116  0.00  0.00     0.000 A 
ATOM      2  C2  BNZ d   1      -2.361   0.121  -0.941  0.00  0.00     0.000 A 
ATOM      3  C3  BNZ d   1      -1.293  -0.732  -0.912  0.00  0.00     0.000 A 
ATOM      4  C4  BNZ d   1      -0.661  -1.042  -2.063  0.00  0.00     0.000 A 
ATOM      5  C5  BNZ d   1      -1.066  -0.480  -3.257  0.00  0.00     0.000 A 
ATOM      6  C6  BNZ d   1      -2.116   0.409  -3.276  0.00  0.00     0.000 A 
ENDROOT
TORSDOF 0
ENDMDL
