MODEL 1
REMARK minimizedAffinity 3.87697935
REMARK minimizedRMSD -1
REMARK  0 active torsions:
REMARK  status: ('A' for Active; 'I' for Inactive)
ROOT
ATOM      1  C1  BNZ d   1       5.999  -5.484  -1.369  0.00  0.00     0.000 A 
ATOM      2  C2  BNZ d   1       5.964  -5.999  -0.101  0.00  0.00     0.000 A 
ATOM      3  C3  BNZ d   1       4.806  -5.991   0.626  0.00  0.00     0.000 A 
ATOM      4  C4  BNZ d   1       3.697  -5.434   0.100  0.00  0.00     0.000 A 
ATOM      5  C5  BNZ d   1       3.718  -4.903  -1.174  0.00  0.00     0.000 A 
ATOM      6  C6  BNZ d   1       4.875  -4.947  -1.917  0.00  0.00     0.000 A 
ENDROOT
TORSDOF 0
ENDMDL
