MODEL 1
REMARK minimizedAffinity -5.10075188
REMARK minimizedRMSD -1
REMARK  0 active torsions:
REMARK  status: ('A' for Active; 'I' for Inactive)
ROOT
ATOM      1  C4' PXY d   1       2.036   3.020   1.445  0.00  0.00     0.077 C 
ATOM      2  C1' PXY d   1      -1.317  -1.254  -0.532  0.00  0.00     0.077 C 
ATOM      3  C1  PXY d   1      -0.448  -0.127  -0.008  0.00  0.00    -0.082 A 
ATOM      4  C2  PXY d   1       0.695   0.152  -0.612  0.00  0.00     0.003 A 
ATOM      5  C3  PXY d   1       1.508   1.147  -0.133  0.00  0.00     0.003 A 
ATOM      6  C4  PXY d   1       1.122   1.897   0.945  0.00  0.00    -0.082 A 
ATOM      7  C5  PXY d   1      -0.048   1.625   1.561  0.00  0.00     0.003 A 
ATOM      8  C6  PXY d   1      -0.840   0.585   1.083  0.00  0.00     0.003 A 
ENDROOT
TORSDOF 0
ENDMDL
