MODEL 1
REMARK minimizedAffinity -4.47010326
REMARK minimizedRMSD -1
REMARK  0 active torsions:
REMARK  status: ('A' for Active; 'I' for Inactive)
ROOT
ATOM      1  C4' PXY d   1      -2.223   0.913   1.945  0.00  0.00     0.077 C 
ATOM      2  C1' PXY d   1       3.153   1.121  -0.169  0.00  0.00     0.077 C 
ATOM      3  C1  PXY d   1       1.739   1.059   0.376  0.00  0.00    -0.082 A 
ATOM      4  C2  PXY d   1       1.286   2.045   1.133  0.00  0.00     0.003 A 
ATOM      5  C3  PXY d   1       0.021   1.989   1.660  0.00  0.00     0.003 A 
ATOM      6  C4  PXY d   1      -0.806   0.938   1.366  0.00  0.00    -0.082 A 
ATOM      7  C5  PXY d   1      -0.354  -0.067   0.586  0.00  0.00     0.003 A 
ATOM      8  C6  PXY d   1       0.947  -0.011   0.095  0.00  0.00     0.003 A 
ENDROOT
TORSDOF 0
ENDMDL
