MODEL 1
REMARK minimizedAffinity -4.40531969
REMARK minimizedRMSD -1
REMARK  0 active torsions:
REMARK  status: ('A' for Active; 'I' for Inactive)
ROOT
ATOM      1  C4' PXY d   1      -0.047  -1.125  -0.450  0.00  0.00     0.077 C 
ATOM      2  C1' PXY d   1       3.146   3.309   1.436  0.00  0.00     0.077 C 
ATOM      3  C1  PXY d   1       2.317   2.145   0.930  0.00  0.00    -0.082 A 
ATOM      4  C2  PXY d   1       1.069   2.001   1.348  0.00  0.00     0.003 A 
ATOM      5  C3  PXY d   1       0.315   0.937   0.926  0.00  0.00     0.003 A 
ATOM      6  C4  PXY d   1       0.825   0.040   0.026  0.00  0.00    -0.082 A 
ATOM      7  C5  PXY d   1       2.093   0.186  -0.413  0.00  0.00     0.003 A 
ATOM      8  C6  PXY d   1       2.856   1.250   0.059  0.00  0.00     0.003 A 
ENDROOT
TORSDOF 0
ENDMDL
