MODEL 1
REMARK minimizedAffinity -1.75912702
REMARK minimizedRMSD -1
REMARK  0 active torsions:
REMARK  status: ('A' for Active; 'I' for Inactive)
ROOT
ATOM      1  C4' PXY d   1       3.305   1.505   1.394  0.00  0.00     0.077 C 
ATOM      2  C1' PXY d   1      -1.276  -1.239  -0.819  0.00  0.00     0.077 C 
ATOM      3  C1  PXY d   1      -0.083  -0.510  -0.234  0.00  0.00    -0.082 A 
ATOM      4  C2  PXY d   1       1.126  -0.737  -0.722  0.00  0.00     0.003 A 
ATOM      5  C3  PXY d   1       2.220  -0.110  -0.184  0.00  0.00     0.003 A 
ATOM      6  C4  PXY d   1       2.070   0.798   0.829  0.00  0.00    -0.082 A 
ATOM      7  C5  PXY d   1       0.839   1.044   1.325  0.00  0.00     0.003 A 
ATOM      8  C6  PXY d   1      -0.254   0.367   0.792  0.00  0.00     0.003 A 
ENDROOT
TORSDOF 0
ENDMDL
