MODEL 1
REMARK minimizedAffinity -4.24857759
REMARK minimizedRMSD -1
REMARK  0 active torsions:
REMARK  status: ('A' for Active; 'I' for Inactive)
ROOT
ATOM      1  C4' PXY d   1      -1.930  -1.296  -1.522  0.00  0.00     0.077 C 
ATOM      2  C1' PXY d   1       1.576   2.401   1.210  0.00  0.00     0.077 C 
ATOM      3  C1  PXY d   1       0.660   1.422   0.502  0.00  0.00    -0.082 A 
ATOM      4  C2  PXY d   1       0.339   1.625  -0.766  0.00  0.00     0.003 A 
ATOM      5  C3  PXY d   1      -0.514   0.768  -1.412  0.00  0.00     0.003 A 
ATOM      6  C4  PXY d   1      -1.001  -0.339  -0.770  0.00  0.00    -0.082 A 
ATOM      7  C5  PXY d   1      -0.670  -0.560   0.520  0.00  0.00     0.003 A 
ATOM      8  C6  PXY d   1       0.164   0.345   1.171  0.00  0.00     0.003 A 
ENDROOT
TORSDOF 0
ENDMDL
