MODEL 1
REMARK minimizedAffinity -5.75010824
REMARK minimizedRMSD -1
REMARK  0 active torsions:
REMARK  status: ('A' for Active; 'I' for Inactive)
ROOT
ATOM      1  C4' PXY d   1      -0.162  -1.467  -0.747  0.00  0.00     0.077 C 
ATOM      2  C1' PXY d   1       2.312   3.139   1.718  0.00  0.00     0.077 C 
ATOM      3  C1  PXY d   1       1.656   1.930   1.082  0.00  0.00    -0.082 A 
ATOM      4  C2  PXY d   1       2.287   1.272   0.123  0.00  0.00     0.003 A 
ATOM      5  C3  PXY d   1       1.695   0.195  -0.485  0.00  0.00     0.003 A 
ATOM      6  C4  PXY d   1       0.466  -0.246  -0.070  0.00  0.00    -0.082 A 
ATOM      7  C5  PXY d   1      -0.179   0.414   0.915  0.00  0.00     0.003 A 
ATOM      8  C6  PXY d   1       0.421   1.529   1.491  0.00  0.00     0.003 A 
ENDROOT
TORSDOF 0
ENDMDL
