MODEL 1
REMARK minimizedAffinity -3.68098378
REMARK minimizedRMSD -1
REMARK  0 active torsions:
REMARK  status: ('A' for Active; 'I' for Inactive)
ROOT
ATOM      1  C4' PXY d   1       2.449  -1.826  -1.288  0.00  0.00     0.077 C 
ATOM      2  C1' PXY d   1      -1.931   0.768   1.451  0.00  0.00     0.077 C 
ATOM      3  C1  PXY d   1      -0.791   0.078   0.728  0.00  0.00    -0.082 A 
ATOM      4  C2  PXY d   1       0.447   0.220   1.174  0.00  0.00     0.003 A 
ATOM      5  C3  PXY d   1       1.494  -0.370   0.513  0.00  0.00     0.003 A 
ATOM      6  C4  PXY d   1       1.265  -1.157  -0.584  0.00  0.00    -0.082 A 
ATOM      7  C5  PXY d   1       0.004  -1.315  -1.038  0.00  0.00     0.003 A 
ATOM      8  C6  PXY d   1      -1.040  -0.674  -0.378  0.00  0.00     0.003 A 
ENDROOT
TORSDOF 0
ENDMDL
