MODEL 1
REMARK minimizedAffinity -3.76398349
REMARK minimizedRMSD -1
REMARK  0 active torsions:
REMARK  status: ('A' for Active; 'I' for Inactive)
ROOT
ATOM      1  C4' PXY d   1      -1.287  -2.250  -1.011  0.00  0.00     0.077 C 
ATOM      2  C1' PXY d   1       1.112   2.258   1.697  0.00  0.00     0.077 C 
ATOM      3  C1  PXY d   1       0.490   1.078   0.977  0.00  0.00    -0.082 A 
ATOM      4  C2  PXY d   1      -0.709   0.650   1.336  0.00  0.00     0.003 A 
ATOM      5  C3  PXY d   1      -1.272  -0.436   0.717  0.00  0.00     0.003 A 
ATOM      6  C4  PXY d   1      -0.624  -1.057  -0.318  0.00  0.00    -0.082 A 
ATOM      7  C5  PXY d   1       0.595  -0.619  -0.698  0.00  0.00     0.003 A 
ATOM      8  C6  PXY d   1       1.167   0.459  -0.028  0.00  0.00     0.003 A 
ENDROOT
TORSDOF 0
ENDMDL
