MODEL 1
REMARK minimizedAffinity -5.24898148
REMARK minimizedRMSD -1
REMARK  0 active torsions:
REMARK  status: ('A' for Active; 'I' for Inactive)
ROOT
ATOM      1  C4' PXY d   1      -0.785  -0.924  -0.076  0.00  0.00     0.077 C 
ATOM      2  C1' PXY d   1       3.212   3.136   0.906  0.00  0.00     0.077 C 
ATOM      3  C1  PXY d   1       2.158   2.075   0.660  0.00  0.00    -0.082 A 
ATOM      4  C2  PXY d   1       2.431   1.054  -0.137  0.00  0.00     0.003 A 
ATOM      5  C3  PXY d   1       1.479   0.102  -0.396  0.00  0.00     0.003 A 
ATOM      6  C4  PXY d   1       0.252   0.167   0.209  0.00  0.00    -0.082 A 
ATOM      7  C5  PXY d   1      -0.031   1.199   1.031  0.00  0.00     0.003 A 
ATOM      8  C6  PXY d   1       0.935   2.177   1.248  0.00  0.00     0.003 A 
ENDROOT
TORSDOF 0
ENDMDL
