MODEL 1
REMARK minimizedAffinity -5.5876236
REMARK minimizedRMSD -1
REMARK  0 active torsions:
REMARK  status: ('A' for Active; 'I' for Inactive)
ROOT
ATOM      1  C4' PXY d   1      -0.820  -1.486  -0.482  0.00  0.00     0.077 C 
ATOM      2  C1' PXY d   1       2.174   3.023   1.548  0.00  0.00     0.077 C 
ATOM      3  C1  PXY d   1       1.383   1.839   1.028  0.00  0.00    -0.082 A 
ATOM      4  C2  PXY d   1       1.832   1.161  -0.016  0.00  0.00     0.003 A 
ATOM      5  C3  PXY d   1       1.113   0.108  -0.520  0.00  0.00     0.003 A 
ATOM      6  C4  PXY d   1      -0.050  -0.289   0.084  0.00  0.00    -0.082 A 
ATOM      7  C5  PXY d   1      -0.509   0.391   1.156  0.00  0.00     0.003 A 
ATOM      8  C6  PXY d   1       0.214   1.483   1.626  0.00  0.00     0.003 A 
ENDROOT
TORSDOF 0
ENDMDL
