MODEL 1
REMARK minimizedAffinity -6.33273697
REMARK minimizedRMSD -1
REMARK  0 active torsions:
REMARK  status: ('A' for Active; 'I' for Inactive)
ROOT
ATOM      1  C4' PXY d   1       2.919   3.473   1.781  0.00  0.00     0.077 C 
ATOM      2  C1' PXY d   1       0.037  -1.056  -0.364  0.00  0.00     0.077 C 
ATOM      3  C1  PXY d   1       0.804   0.126   0.196  0.00  0.00    -0.082 A 
ATOM      4  C2  PXY d   1       0.233   0.910   1.096  0.00  0.00     0.003 A 
ATOM      5  C3  PXY d   1       0.900   2.001   1.589  0.00  0.00     0.003 A 
ATOM      6  C4  PXY d   1       2.185   2.263   1.196  0.00  0.00    -0.082 A 
ATOM      7  C5  PXY d   1       2.779   1.462   0.285  0.00  0.00     0.003 A 
ATOM      8  C6  PXY d   1       2.069   0.383  -0.233  0.00  0.00     0.003 A 
ENDROOT
TORSDOF 0
ENDMDL
