MODEL 1
REMARK minimizedAffinity -5.49587154
REMARK minimizedRMSD -1
REMARK  0 active torsions:
REMARK  status: ('A' for Active; 'I' for Inactive)
ROOT
ATOM      1  C4' PXY d   1       3.404   0.702  -0.352  0.00  0.00     0.077 C 
ATOM      2  C1' PXY d   1      -1.893   0.362   1.936  0.00  0.00     0.077 C 
ATOM      3  C1  PXY d   1      -0.503   0.463   1.340  0.00  0.00    -0.082 A 
ATOM      4  C2  PXY d   1      -0.150  -0.354   0.362  0.00  0.00     0.003 A 
ATOM      5  C3  PXY d   1       1.114  -0.297  -0.167  0.00  0.00     0.003 A 
ATOM      6  C4  PXY d   1       2.008   0.641   0.274  0.00  0.00    -0.082 A 
ATOM      7  C5  PXY d   1       1.652   1.486   1.265  0.00  0.00     0.003 A 
ATOM      8  C6  PXY d   1       0.378   1.385   1.816  0.00  0.00     0.003 A 
ENDROOT
TORSDOF 0
ENDMDL
