MODEL 1
REMARK minimizedAffinity -3.88393426
REMARK minimizedRMSD -1
REMARK  0 active torsions:
REMARK  status: ('A' for Active; 'I' for Inactive)
ROOT
ATOM      1  C4' PXY d   1      -0.654  -0.975  -0.413  0.00  0.00     0.077 C 
ATOM      2  C1' PXY d   1       2.849   3.270   1.353  0.00  0.00     0.077 C 
ATOM      3  C1  PXY d   1       1.935   2.159   0.877  0.00  0.00    -0.082 A 
ATOM      4  C2  PXY d   1       0.863   1.844   1.588  0.00  0.00     0.003 A 
ATOM      5  C3  PXY d   1       0.043   0.821   1.189  0.00  0.00     0.003 A 
ATOM      6  C4  PXY d   1       0.292   0.147   0.024  0.00  0.00    -0.082 A 
ATOM      7  C5  PXY d   1       1.377   0.469  -0.712  0.00  0.00     0.003 A 
ATOM      8  C6  PXY d   1       2.220   1.484  -0.269  0.00  0.00     0.003 A 
ENDROOT
TORSDOF 0
ENDMDL
