MODEL 1
REMARK minimizedAffinity -6.42656803
REMARK minimizedRMSD -1
REMARK  0 active torsions:
REMARK  status: ('A' for Active; 'I' for Inactive)
ROOT
ATOM      1  C4' PXY d   1      -0.090  -0.870  -0.485  0.00  0.00     0.077 C 
ATOM      2  C1' PXY d   1       2.791   3.544   1.889  0.00  0.00     0.077 C 
ATOM      3  C1  PXY d   1       2.044   2.386   1.257  0.00  0.00    -0.082 A 
ATOM      4  C2  PXY d   1       0.741   2.265   1.449  0.00  0.00     0.003 A 
ATOM      5  C3  PXY d   1       0.056   1.206   0.911  0.00  0.00     0.003 A 
ATOM      6  C4  PXY d   1       0.703   0.289   0.126  0.00  0.00    -0.082 A 
ATOM      7  C5  PXY d   1       2.031   0.412  -0.083  0.00  0.00     0.003 A 
ATOM      8  C6  PXY d   1       2.715   1.471   0.505  0.00  0.00     0.003 A 
ENDROOT
TORSDOF 0
ENDMDL
