MODEL 1
REMARK minimizedAffinity -3.38338661
REMARK minimizedRMSD -1
REMARK  0 active torsions:
REMARK  status: ('A' for Active; 'I' for Inactive)
ROOT
ATOM      1  C4' PXY d   1       3.014   1.466   1.383  0.00  0.00     0.077 C 
ATOM      2  C1' PXY d   1      -1.428  -1.252  -1.127  0.00  0.00     0.077 C 
ATOM      3  C1  PXY d   1      -0.271  -0.529  -0.466  0.00  0.00    -0.082 A 
ATOM      4  C2  PXY d   1       0.970  -0.805  -0.836  0.00  0.00     0.003 A 
ATOM      5  C3  PXY d   1       2.029  -0.184  -0.225  0.00  0.00     0.003 A 
ATOM      6  C4  PXY d   1       1.815   0.767   0.736  0.00  0.00    -0.082 A 
ATOM      7  C5  PXY d   1       0.552   1.062   1.111  0.00  0.00     0.003 A 
ATOM      8  C6  PXY d   1      -0.508   0.391   0.508  0.00  0.00     0.003 A 
ENDROOT
TORSDOF 0
ENDMDL
