MODEL 1
REMARK minimizedAffinity -5.65100098
REMARK minimizedRMSD -1
REMARK  0 active torsions:
REMARK  status: ('A' for Active; 'I' for Inactive)
ROOT
ATOM      1  C4' PXY d   1       1.054  -1.724  -0.313  0.00  0.00     0.077 C 
ATOM      2  C1' PXY d   1       2.769   3.570   1.250  0.00  0.00     0.077 C 
ATOM      3  C1  PXY d   1       2.328   2.181   0.832  0.00  0.00    -0.082 A 
ATOM      4  C2  PXY d   1       1.078   1.801   1.040  0.00  0.00     0.003 A 
ATOM      5  C3  PXY d   1       0.672   0.537   0.696  0.00  0.00     0.003 A 
ATOM      6  C4  PXY d   1       1.540  -0.328   0.085  0.00  0.00    -0.082 A 
ATOM      7  C5  PXY d   1       2.814   0.057  -0.140  0.00  0.00     0.003 A 
ATOM      8  C6  PXY d   1       3.218   1.329   0.253  0.00  0.00     0.003 A 
ENDROOT
TORSDOF 0
ENDMDL
