MODEL 1
REMARK minimizedAffinity -2.85940456
REMARK minimizedRMSD -1
REMARK  0 active torsions:
REMARK  status: ('A' for Active; 'I' for Inactive)
ROOT
ATOM      1  C4' PXY d   1       2.584   1.636   1.885  0.00  0.00     0.077 C 
ATOM      2  C1' PXY d   1      -0.795  -2.083  -0.973  0.00  0.00     0.077 C 
ATOM      3  C1  PXY d   1       0.101  -1.115  -0.226  0.00  0.00    -0.082 A 
ATOM      4  C2  PXY d   1      -0.423  -0.299   0.673  0.00  0.00     0.003 A 
ATOM      5  C3  PXY d   1       0.368   0.605   1.335  0.00  0.00     0.003 A 
ATOM      6  C4  PXY d   1       1.719   0.636   1.113  0.00  0.00    -0.082 A 
ATOM      7  C5  PXY d   1       2.263  -0.201   0.205  0.00  0.00     0.003 A 
ATOM      8  C6  PXY d   1       1.437  -1.082  -0.486  0.00  0.00     0.003 A 
ENDROOT
TORSDOF 0
ENDMDL
