MODEL 1
REMARK minimizedAffinity -4.34687662
REMARK minimizedRMSD -1
REMARK  0 active torsions:
REMARK  status: ('A' for Active; 'I' for Inactive)
ROOT
ATOM      1  C4' PXY d   1       0.109  -1.631  -0.838  0.00  0.00     0.077 C 
ATOM      2  C1' PXY d   1       2.214   2.968   1.961  0.00  0.00     0.077 C 
ATOM      3  C1  PXY d   1       1.670   1.764   1.217  0.00  0.00    -0.082 A 
ATOM      4  C2  PXY d   1       0.432   1.358   1.446  0.00  0.00     0.003 A 
ATOM      5  C3  PXY d   1      -0.065   0.252   0.806  0.00  0.00     0.003 A 
ATOM      6  C4  PXY d   1       0.696  -0.415  -0.117  0.00  0.00    -0.082 A 
ATOM      7  C5  PXY d   1       1.957  -0.001  -0.364  0.00  0.00     0.003 A 
ATOM      8  C6  PXY d   1       2.456   1.100   0.327  0.00  0.00     0.003 A 
ENDROOT
TORSDOF 0
ENDMDL
