MODEL 1
REMARK minimizedAffinity -1.83660197
REMARK minimizedRMSD -1
REMARK  0 active torsions:
REMARK  status: ('A' for Active; 'I' for Inactive)
ROOT
ATOM      1  C4' PXY d   1       2.003  -0.197  -0.824  0.00  0.00     0.077 C 
ATOM      2  C1' PXY d   1      -2.349   1.204   2.714  0.00  0.00     0.077 C 
ATOM      3  C1  PXY d   1      -1.214   0.825   1.783  0.00  0.00    -0.082 A 
ATOM      4  C2  PXY d   1       0.001   1.300   2.006  0.00  0.00     0.003 A 
ATOM      5  C3  PXY d   1       1.032   0.994   1.155  0.00  0.00     0.003 A 
ATOM      6  C4  PXY d   1       0.829   0.151   0.096  0.00  0.00    -0.082 A 
ATOM      7  C5  PXY d   1      -0.405  -0.346  -0.132  0.00  0.00     0.003 A 
ATOM      8  C6  PXY d   1      -1.447   0.010   0.719  0.00  0.00     0.003 A 
ENDROOT
TORSDOF 0
ENDMDL
