MODEL 1
REMARK minimizedAffinity 4.26199818
REMARK minimizedRMSD -1
REMARK  0 active torsions:
REMARK  status: ('A' for Active; 'I' for Inactive)
ROOT
ATOM      1  C   UNL d   1       0.851   0.196   2.866  0.00  0.00     0.172 C 
ATOM      2  N   UNL d   1       1.744  -0.204   3.929  0.00  0.00    -0.070 N 
ATOM      3  C1  UNL d   1       2.586   0.626   4.618  0.00  0.00    -0.004 A 
ATOM      4  C2  UNL d   1       3.264  -0.136   5.545  0.00  0.00    -0.047 A 
ATOM      5  C3  UNL d   1       2.814  -1.470   5.407  0.00  0.00    -0.047 A 
ATOM      6  C4  UNL d   1       1.873  -1.484   4.399  0.00  0.00    -0.004 A 
ENDROOT
TORSDOF 0
ENDMDL
