MODEL 1
REMARK minimizedAffinity 2.68606806
REMARK minimizedRMSD -1
REMARK  0 active torsions:
REMARK  status: ('A' for Active; 'I' for Inactive)
ROOT
ATOM      1  C   UNL d   1       1.664  -2.856   4.643  0.00  0.00     0.172 C 
ATOM      2  N   UNL d   1       1.181  -1.757   3.839  0.00  0.00    -0.070 N 
ATOM      3  C1  UNL d   1       1.214  -0.435   4.193  0.00  0.00    -0.004 A 
ATOM      4  C2  UNL d   1       0.662   0.292   3.159  0.00  0.00    -0.047 A 
ATOM      5  C3  UNL d   1       0.285  -0.626   2.151  0.00  0.00    -0.047 A 
ATOM      6  C4  UNL d   1       0.617  -1.887   2.597  0.00  0.00    -0.004 A 
ENDROOT
TORSDOF 0
ENDMDL
