MODEL 1
REMARK minimizedAffinity 3.46180177
REMARK minimizedRMSD -1
REMARK  0 active torsions:
REMARK  status: ('A' for Active; 'I' for Inactive)
ROOT
ATOM      1  C   UNL d   1       1.250  -0.108  -3.851  0.00  0.00     0.172 C 
ATOM      2  N   UNL d   1       0.230  -1.116  -3.680  0.00  0.00    -0.070 N 
ATOM      3  C1  UNL d   1       0.037  -1.874  -2.557  0.00  0.00    -0.004 A 
ATOM      4  C2  UNL d   1      -1.032  -2.713  -2.792  0.00  0.00    -0.047 A 
ATOM      5  C3  UNL d   1      -1.496  -2.450  -4.102  0.00  0.00    -0.047 A 
ATOM      6  C4  UNL d   1      -0.697  -1.457  -4.629  0.00  0.00    -0.004 A 
ENDROOT
TORSDOF 0
ENDMDL
