MODEL 1
REMARK minimizedAffinity 4.8520565
REMARK minimizedRMSD -1
REMARK  0 active torsions:
REMARK  status: ('A' for Active; 'I' for Inactive)
ROOT
ATOM      1  C   UNL d   1      -1.958  -3.324  -2.637  0.00  0.00     0.172 C 
ATOM      2  N   UNL d   1      -2.060  -4.178  -3.798  0.00  0.00    -0.070 N 
ATOM      3  C1  UNL d   1      -2.296  -3.758  -5.080  0.00  0.00    -0.004 A 
ATOM      4  C2  UNL d   1      -2.319  -4.871  -5.891  0.00  0.00    -0.047 A 
ATOM      5  C3  UNL d   1      -2.091  -6.000  -5.068  0.00  0.00    -0.047 A 
ATOM      6  C4  UNL d   1      -1.934  -5.542  -3.777  0.00  0.00    -0.004 A 
ENDROOT
TORSDOF 0
ENDMDL
