MODEL 1
REMARK minimizedAffinity 6.52737904
REMARK minimizedRMSD -1
REMARK  0 active torsions:
REMARK  status: ('A' for Active; 'I' for Inactive)
ROOT
ATOM      1  C   UNL d   1       2.883  -0.013  -4.062  0.00  0.00     0.172 C 
ATOM      2  N   UNL d   1       1.540  -0.533  -3.953  0.00  0.00    -0.070 N 
ATOM      3  C1  UNL d   1       0.751  -0.933  -4.998  0.00  0.00    -0.004 A 
ATOM      4  C2  UNL d   1      -0.451  -1.362  -4.479  0.00  0.00    -0.047 A 
ATOM      5  C3  UNL d   1      -0.382  -1.215  -3.073  0.00  0.00    -0.047 A 
ATOM      6  C4  UNL d   1       0.861  -0.700  -2.775  0.00  0.00    -0.004 A 
ENDROOT
TORSDOF 0
ENDMDL
