MODEL 1
REMARK minimizedAffinity 4.57182407
REMARK minimizedRMSD -1
REMARK  0 active torsions:
REMARK  status: ('A' for Active; 'I' for Inactive)
ROOT
ATOM      1  C   UNL d   1      -0.435  -2.019  -1.296  0.00  0.00     0.172 C 
ATOM      2  N   UNL d   1       0.468  -1.577  -2.332  0.00  0.00    -0.070 N 
ATOM      3  C1  UNL d   1       1.785  -1.934  -2.449  0.00  0.00    -0.004 A 
ATOM      4  C2  UNL d   1       2.295  -1.304  -3.564  0.00  0.00    -0.047 A 
ATOM      5  C3  UNL d   1       1.249  -0.541  -4.135  0.00  0.00    -0.047 A 
ATOM      6  C4  UNL d   1       0.130  -0.728  -3.353  0.00  0.00    -0.004 A 
ENDROOT
TORSDOF 0
ENDMDL
