MODEL 1
REMARK minimizedAffinity 2.08431292
REMARK minimizedRMSD -1
REMARK  0 active torsions:
REMARK  status: ('A' for Active; 'I' for Inactive)
ROOT
ATOM      1  C4' PXY d   1      -5.529  -0.973  -1.877  0.00  0.00     0.077 C 
ATOM      2  C1' PXY d   1      -1.981   0.189   2.536  0.00  0.00     0.077 C 
ATOM      3  C1  PXY d   1      -2.901  -0.119   1.372  0.00  0.00    -0.082 A 
ATOM      4  C2  PXY d   1      -4.074   0.487   1.287  0.00  0.00     0.003 A 
ATOM      5  C3  PXY d   1      -4.932   0.196   0.257  0.00  0.00     0.003 A 
ATOM      6  C4  PXY d   1      -4.563  -0.686  -0.723  0.00  0.00    -0.082 A 
ATOM      7  C5  PXY d   1      -3.364  -1.300  -0.649  0.00  0.00     0.003 A 
ATOM      8  C6  PXY d   1      -2.524  -1.022   0.426  0.00  0.00     0.003 A 
ENDROOT
TORSDOF 0
ENDMDL
