MODEL 1
REMARK minimizedAffinity 3.69675231
REMARK minimizedRMSD -1
REMARK  0 active torsions:
REMARK  status: ('A' for Active; 'I' for Inactive)
ROOT
ATOM      1  C4' PXY d   1      -2.130  -1.832  -1.856  0.00  0.00     0.077 C 
ATOM      2  C1' PXY d   1      -2.307  -1.098   3.875  0.00  0.00     0.077 C 
ATOM      3  C1  PXY d   1      -2.253  -1.302   2.374  0.00  0.00    -0.082 A 
ATOM      4  C2  PXY d   1      -2.415  -0.265   1.568  0.00  0.00     0.003 A 
ATOM      5  C3  PXY d   1      -2.401  -0.436   0.207  0.00  0.00     0.003 A 
ATOM      6  C4  PXY d   1      -2.167  -1.672  -0.333  0.00  0.00    -0.082 A 
ATOM      7  C5  PXY d   1      -1.990  -2.733   0.483  0.00  0.00     0.003 A 
ATOM      8  C6  PXY d   1      -2.048  -2.545   1.861  0.00  0.00     0.003 A 
ENDROOT
TORSDOF 0
ENDMDL
