MODEL 1
REMARK minimizedAffinity 12.1730728
REMARK minimizedRMSD -1
REMARK  0 active torsions:
REMARK  status: ('A' for Active; 'I' for Inactive)
ROOT
ATOM      1  C4' PXY d   1      -2.644  -0.759   0.783  0.00  0.00     0.077 C 
ATOM      2  C1' PXY d   1      -0.687  -6.000  -0.673  0.00  0.00     0.077 C 
ATOM      3  C1  PXY d   1      -1.195  -4.620  -0.302  0.00  0.00    -0.082 A 
ATOM      4  C2  PXY d   1      -1.461  -4.340   0.963  0.00  0.00     0.003 A 
ATOM      5  C3  PXY d   1      -1.951  -3.108   1.312  0.00  0.00     0.003 A 
ATOM      6  C4  PXY d   1      -2.121  -2.135   0.363  0.00  0.00    -0.082 A 
ATOM      7  C5  PXY d   1      -1.841  -2.411  -0.928  0.00  0.00     0.003 A 
ATOM      8  C6  PXY d   1      -1.383  -3.681  -1.267  0.00  0.00     0.003 A 
ENDROOT
TORSDOF 0
ENDMDL
