MODEL 1
REMARK minimizedAffinity 0.839455068
REMARK minimizedRMSD -1
REMARK  0 active torsions:
REMARK  status: ('A' for Active; 'I' for Inactive)
ROOT
ATOM      1  C4' PXY d   1      -2.627  -0.510   2.986  0.00  0.00     0.077 C 
ATOM      2  C1' PXY d   1      -6.000  -1.274  -1.645  0.00  0.00     0.077 C 
ATOM      3  C1  PXY d   1      -5.106  -1.079  -0.437  0.00  0.00    -0.082 A 
ATOM      4  C2  PXY d   1      -5.648  -0.919   0.759  0.00  0.00     0.003 A 
ATOM      5  C3  PXY d   1      -4.855  -0.710   1.858  0.00  0.00     0.003 A 
ATOM      6  C4  PXY d   1      -3.491  -0.718   1.740  0.00  0.00    -0.082 A 
ATOM      7  C5  PXY d   1      -2.930  -0.892   0.524  0.00  0.00     0.003 A 
ATOM      8  C6  PXY d   1      -3.753  -1.062  -0.585  0.00  0.00     0.003 A 
ENDROOT
TORSDOF 0
ENDMDL
