MODEL 1
REMARK minimizedAffinity 6.26161718
REMARK minimizedRMSD -1
REMARK  0 active torsions:
REMARK  status: ('A' for Active; 'I' for Inactive)
ROOT
ATOM      1  C4' PXY d   1      -1.212  -4.458  -0.054  0.00  0.00     0.077 C 
ATOM      2  C1' PXY d   1      -4.341   0.336   0.746  0.00  0.00     0.077 C 
ATOM      3  C1  PXY d   1      -3.523  -0.921   0.523  0.00  0.00    -0.082 A 
ATOM      4  C2  PXY d   1      -3.373  -1.788   1.511  0.00  0.00     0.003 A 
ATOM      5  C3  PXY d   1      -2.610  -2.913   1.337  0.00  0.00     0.003 A 
ATOM      6  C4  PXY d   1      -2.038  -3.181   0.123  0.00  0.00    -0.082 A 
ATOM      7  C5  PXY d   1      -2.194  -2.307  -0.894  0.00  0.00     0.003 A 
ATOM      8  C6  PXY d   1      -2.939  -1.150  -0.684  0.00  0.00     0.003 A 
ENDROOT
TORSDOF 0
ENDMDL
