MODEL 1
REMARK minimizedAffinity 8.79674339
REMARK minimizedRMSD -1
REMARK  0 active torsions:
REMARK  status: ('A' for Active; 'I' for Inactive)
ROOT
ATOM      1  C4' PXY d   1       4.126   1.124  -1.339  0.00  0.00     0.077 C 
ATOM      2  C1' PXY d   1       6.000   0.653   4.109  0.00  0.00     0.077 C 
ATOM      3  C1  PXY d   1       5.505   0.764   2.681  0.00  0.00    -0.082 A 
ATOM      4  C2  PXY d   1       6.000   1.700   1.888  0.00  0.00     0.003 A 
ATOM      5  C3  PXY d   1       5.540   1.835   0.603  0.00  0.00     0.003 A 
ATOM      6  C4  PXY d   1       4.603   0.969   0.108  0.00  0.00    -0.082 A 
ATOM      7  C5  PXY d   1       4.100   0.004   0.907  0.00  0.00     0.003 A 
ATOM      8  C6  PXY d   1       4.550  -0.090   2.221  0.00  0.00     0.003 A 
ENDROOT
TORSDOF 0
ENDMDL
