MODEL 1
REMARK minimizedAffinity 17.3019695
REMARK minimizedRMSD -1
REMARK  0 active torsions:
REMARK  status: ('A' for Active; 'I' for Inactive)
ROOT
ATOM      1  C4' PXY d   1      -1.720  -1.692  -3.228  0.00  0.00     0.077 C 
ATOM      2  C1' PXY d   1      -4.141   0.819   1.381  0.00  0.00     0.077 C 
ATOM      3  C1  PXY d   1      -3.518   0.157   0.167  0.00  0.00    -0.082 A 
ATOM      4  C2  PXY d   1      -2.265  -0.263   0.223  0.00  0.00     0.003 A 
ATOM      5  C3  PXY d   1      -1.675  -0.835  -0.875  0.00  0.00     0.003 A 
ATOM      6  C4  PXY d   1      -2.393  -1.027  -2.025  0.00  0.00    -0.082 A 
ATOM      7  C5  PXY d   1      -3.675  -0.610  -2.086  0.00  0.00     0.003 A 
ATOM      8  C6  PXY d   1      -4.243   0.005  -0.974  0.00  0.00     0.003 A 
ENDROOT
TORSDOF 0
ENDMDL
