MODEL 1
REMARK minimizedAffinity 15.7428913
REMARK minimizedRMSD -1
REMARK  0 active torsions:
REMARK  status: ('A' for Active; 'I' for Inactive)
ROOT
ATOM      1  C4' PXY d   1      -5.995  -1.594  -2.755  0.00  0.00     0.077 C 
ATOM      2  C1' PXY d   1      -2.870   0.221   1.757  0.00  0.00     0.077 C 
ATOM      3  C1  PXY d   1      -3.695  -0.264   0.582  0.00  0.00    -0.082 A 
ATOM      4  C2  PXY d   1      -3.290  -0.007  -0.652  0.00  0.00     0.003 A 
ATOM      5  C3  PXY d   1      -4.040  -0.411  -1.726  0.00  0.00     0.003 A 
ATOM      6  C4  PXY d   1      -5.189  -1.131  -1.537  0.00  0.00    -0.082 A 
ATOM      7  C5  PXY d   1      -5.603  -1.407  -0.283  0.00  0.00     0.003 A 
ATOM      8  C6  PXY d   1      -4.849  -0.953   0.795  0.00  0.00     0.003 A 
ENDROOT
TORSDOF 0
ENDMDL
