MODEL 1
REMARK minimizedAffinity 14.347579
REMARK minimizedRMSD -1
REMARK  0 active torsions:
REMARK  status: ('A' for Active; 'I' for Inactive)
ROOT
ATOM      1  C4' PXY d   1      -1.166  -1.408  -2.710  0.00  0.00     0.077 C 
ATOM      2  C1' PXY d   1      -4.621   0.804   1.362  0.00  0.00     0.077 C 
ATOM      3  C1  PXY d   1      -3.705   0.230   0.300  0.00  0.00    -0.082 A 
ATOM      4  C2  PXY d   1      -4.210  -0.157  -0.861  0.00  0.00     0.003 A 
ATOM      5  C3  PXY d   1      -3.401  -0.708  -1.821  0.00  0.00     0.003 A 
ATOM      6  C4  PXY d   1      -2.052  -0.815  -1.611  0.00  0.00    -0.082 A 
ATOM      7  C5  PXY d   1      -1.527  -0.412  -0.434  0.00  0.00     0.003 A 
ATOM      8  C6  PXY d   1      -2.372   0.106   0.543  0.00  0.00     0.003 A 
ENDROOT
TORSDOF 0
ENDMDL
