MODEL 1
REMARK minimizedAffinity 16.9097862
REMARK minimizedRMSD -1
REMARK  0 active torsions:
REMARK  status: ('A' for Active; 'I' for Inactive)
ROOT
ATOM      1  C4' PXY d   1      -5.601   2.485  -4.508  0.00  0.00     0.077 C 
ATOM      2  C1' PXY d   1      -5.689   5.838   0.199  0.00  0.00     0.077 C 
ATOM      3  C1  PXY d   1      -5.674   4.967  -1.041  0.00  0.00    -0.082 A 
ATOM      4  C2  PXY d   1      -5.336   3.692  -0.941  0.00  0.00     0.003 A 
ATOM      5  C3  PXY d   1      -5.286   2.897  -2.057  0.00  0.00     0.003 A 
ATOM      6  C4  PXY d   1      -5.638   3.400  -3.281  0.00  0.00    -0.082 A 
ATOM      7  C5  PXY d   1      -5.995   4.697  -3.390  0.00  0.00     0.003 A 
ATOM      8  C6  PXY d   1      -5.999   5.497  -2.251  0.00  0.00     0.003 A 
ENDROOT
TORSDOF 0
ENDMDL
