MODEL 1
REMARK minimizedAffinity 8.03726292
REMARK minimizedRMSD -1
REMARK  0 active torsions:
REMARK  status: ('A' for Active; 'I' for Inactive)
ROOT
ATOM      1  C4' PXY d   1       2.999   3.812   4.326  0.00  0.00     0.077 C 
ATOM      2  C1' PXY d   1       6.000  -0.633   2.168  0.00  0.00     0.077 C 
ATOM      3  C1  PXY d   1       5.203   0.531   2.726  0.00  0.00    -0.082 A 
ATOM      4  C2  PXY d   1       5.831   1.511   3.354  0.00  0.00     0.003 A 
ATOM      5  C3  PXY d   1       5.123   2.555   3.892  0.00  0.00     0.003 A 
ATOM      6  C4  PXY d   1       3.764   2.622   3.739  0.00  0.00    -0.082 A 
ATOM      7  C5  PXY d   1       3.118   1.631   3.090  0.00  0.00     0.003 A 
ATOM      8  C6  PXY d   1       3.850   0.560   2.587  0.00  0.00     0.003 A 
ENDROOT
TORSDOF 0
ENDMDL
