MODEL 1
REMARK minimizedAffinity 10.251996
REMARK minimizedRMSD -1
REMARK  0 active torsions:
REMARK  status: ('A' for Active; 'I' for Inactive)
ROOT
ATOM      1  C4' PXY d   1       6.000   0.385   4.359  0.00  0.00     0.077 C 
ATOM      2  C1' PXY d   1       4.385   1.352  -1.106  0.00  0.00     0.077 C 
ATOM      3  C1  PXY d   1       4.819   1.106   0.325  0.00  0.00    -0.082 A 
ATOM      4  C2  PXY d   1       4.434   0.003   0.945  0.00  0.00     0.003 A 
ATOM      5  C3  PXY d   1       4.790  -0.220   2.250  0.00  0.00     0.003 A 
ATOM      6  C4  PXY d   1       5.594   0.671   2.911  0.00  0.00    -0.082 A 
ATOM      7  C5  PXY d   1       6.000   1.794   2.282  0.00  0.00     0.003 A 
ATOM      8  C6  PXY d   1       5.593   2.021   0.970  0.00  0.00     0.003 A 
ENDROOT
TORSDOF 0
ENDMDL
