MODEL 1
REMARK minimizedAffinity 12.9042883
REMARK minimizedRMSD -1
REMARK  0 active torsions:
REMARK  status: ('A' for Active; 'I' for Inactive)
ROOT
ATOM      1  C4' PXY d   1       3.994   0.843  -1.539  0.00  0.00     0.077 C 
ATOM      2  C1' PXY d   1       6.000   0.744   3.882  0.00  0.00     0.077 C 
ATOM      3  C1  PXY d   1       5.470   0.758   2.462  0.00  0.00    -0.082 A 
ATOM      4  C2  PXY d   1       6.000   1.583   1.573  0.00  0.00     0.003 A 
ATOM      5  C3  PXY d   1       5.511   1.631   0.293  0.00  0.00     0.003 A 
ATOM      6  C4  PXY d   1       4.504   0.788  -0.096  0.00  0.00    -0.082 A 
ATOM      7  C5  PXY d   1       3.966  -0.064   0.801  0.00  0.00     0.003 A 
ATOM      8  C6  PXY d   1       4.448  -0.068   2.107  0.00  0.00     0.003 A 
ENDROOT
TORSDOF 0
ENDMDL
