MODEL 1
REMARK minimizedAffinity 4.87814808
REMARK minimizedRMSD -1
REMARK  1 active torsions:
REMARK  status: ('A' for Active; 'I' for Inactive)
REMARK    1  A    between atoms: C3_4  and  O_7 
ROOT
ATOM      1  C   UNL d   1      -1.597  -0.921  -2.989  0.00  0.00    -0.033 A 
ATOM      2  C1  UNL d   1      -0.289  -1.121  -2.544  0.00  0.00     0.039 A 
ATOM      3  C2  UNL d   1       0.408  -0.079  -1.930  0.00  0.00    -0.080 A 
ATOM      4  C3  UNL d   1      -0.214   1.156  -1.765  0.00  0.00     0.150 A 
ATOM      5  C4  UNL d   1      -1.518   1.361  -2.202  0.00  0.00    -0.007 A 
ATOM      6  C5  UNL d   1      -2.212   0.319  -2.816  0.00  0.00     0.039 A 
ENDROOT
BRANCH   4   7
ATOM      7  O   UNL d   1       0.428   2.204  -1.175  0.00  0.00    -0.526 OA
ATOM      8  H5  UNL d   1       1.331   1.925  -0.950  0.00  0.00     0.418 HD
ENDBRANCH   4   7
TORSDOF 1
ENDMDL
