MODEL 1
REMARK minimizedAffinity 1.47710729
REMARK minimizedRMSD -1
REMARK  1 active torsions:
REMARK  status: ('A' for Active; 'I' for Inactive)
REMARK    1  A    between atoms: C3_4  and  O_7 
ROOT
ATOM      1  C   UNL d   1       0.022   3.864   1.432  0.00  0.00    -0.033 A 
ATOM      2  C1  UNL d   1       0.212   2.951   2.471  0.00  0.00     0.039 A 
ATOM      3  C2  UNL d   1      -0.829   2.105   2.858  0.00  0.00    -0.080 A 
ATOM      4  C3  UNL d   1      -2.053   2.181   2.200  0.00  0.00     0.150 A 
ATOM      5  C4  UNL d   1      -2.248   3.086   1.161  0.00  0.00    -0.007 A 
ATOM      6  C5  UNL d   1      -1.208   3.930   0.776  0.00  0.00     0.039 A 
ENDROOT
BRANCH   4   7
ATOM      7  O   UNL d   1      -3.100   1.380   2.546  0.00  0.00    -0.526 OA
ATOM      8  H5  UNL d   1      -2.828   0.826   3.297  0.00  0.00     0.418 HD
ENDBRANCH   4   7
TORSDOF 1
ENDMDL
