MODEL 1
REMARK minimizedAffinity 0.140857667
REMARK minimizedRMSD -1
REMARK  1 active torsions:
REMARK  status: ('A' for Active; 'I' for Inactive)
REMARK    1  A    between atoms: C3_4  and  O_7 
ROOT
ATOM      1  C   UNL d   1      -6.000  -3.572   5.138  0.00  0.00    -0.033 A 
ATOM      2  C1  UNL d   1      -5.035  -3.014   5.979  0.00  0.00     0.039 A 
ATOM      3  C2  UNL d   1      -3.723  -2.853   5.529  0.00  0.00    -0.080 A 
ATOM      4  C3  UNL d   1      -3.390  -3.251   4.238  0.00  0.00     0.150 A 
ATOM      5  C4  UNL d   1      -4.347  -3.804   3.393  0.00  0.00    -0.007 A 
ATOM      6  C5  UNL d   1      -5.656  -3.966   3.845  0.00  0.00     0.039 A 
ENDROOT
BRANCH   4   7
ATOM      7  O   UNL d   1      -2.122  -3.118   3.756  0.00  0.00    -0.526 OA
ATOM      8  H5  UNL d   1      -1.562  -2.748   4.459  0.00  0.00     0.418 HD
ENDBRANCH   4   7
TORSDOF 1
ENDMDL
