MODEL 1
REMARK minimizedAffinity 3.79005241
REMARK minimizedRMSD -1
REMARK  1 active torsions:
REMARK  status: ('A' for Active; 'I' for Inactive)
REMARK    1  A    between atoms: C3_4  and  O_7 
ROOT
ATOM      1  C   UNL d   1      -0.718  -0.704   2.663  0.00  0.00    -0.033 A 
ATOM      2  C1  UNL d   1      -2.012  -0.179   2.658  0.00  0.00     0.039 A 
ATOM      3  C2  UNL d   1      -2.258   1.071   2.088  0.00  0.00    -0.080 A 
ATOM      4  C3  UNL d   1      -1.203   1.786   1.526  0.00  0.00     0.150 A 
ATOM      5  C4  UNL d   1       0.087   1.267   1.524  0.00  0.00    -0.007 A 
ATOM      6  C5  UNL d   1       0.331   0.019   2.095  0.00  0.00     0.039 A 
ENDROOT
BRANCH   4   7
ATOM      7  O   UNL d   1      -1.394   3.012   0.962  0.00  0.00    -0.526 OA
ATOM      8  H5  UNL d   1      -2.330   3.255   1.062  0.00  0.00     0.418 HD
ENDBRANCH   4   7
TORSDOF 1
ENDMDL
