MODEL 1
REMARK minimizedAffinity 1.32096708
REMARK minimizedRMSD -1
REMARK  1 active torsions:
REMARK  status: ('A' for Active; 'I' for Inactive)
REMARK    1  A    between atoms: C3_4  and  O_7 
ROOT
ATOM      1  C   UNL d   1      -0.343   3.429  -0.721  0.00  0.00    -0.033 A 
ATOM      2  C1  UNL d   1      -0.017   2.079  -0.582  0.00  0.00     0.039 A 
ATOM      3  C2  UNL d   1      -0.649   1.303   0.392  0.00  0.00    -0.080 A 
ATOM      4  C3  UNL d   1      -1.605   1.888   1.217  0.00  0.00     0.150 A 
ATOM      5  C4  UNL d   1      -1.938   3.232   1.081  0.00  0.00    -0.007 A 
ATOM      6  C5  UNL d   1      -1.305   4.005   0.109  0.00  0.00     0.039 A 
ENDROOT
BRANCH   4   7
ATOM      7  O   UNL d   1      -2.245   1.172   2.185  0.00  0.00    -0.526 OA
ATOM      8  H5  UNL d   1      -1.893   0.266   2.182  0.00  0.00     0.418 HD
ENDBRANCH   4   7
TORSDOF 1
ENDMDL
