MODEL 1
REMARK minimizedAffinity 6.61718178
REMARK minimizedRMSD -1
REMARK  1 active torsions:
REMARK  status: ('A' for Active; 'I' for Inactive)
REMARK    1  A    between atoms: C3_4  and  O_7 
ROOT
ATOM      1  C   UNL d   1      -1.502  -0.953  -2.809  0.00  0.00    -0.033 A 
ATOM      2  C1  UNL d   1      -2.196   0.213  -3.134  0.00  0.00     0.039 A 
ATOM      3  C2  UNL d   1      -1.649   1.461  -2.830  0.00  0.00    -0.080 A 
ATOM      4  C3  UNL d   1      -0.408   1.529  -2.201  0.00  0.00     0.150 A 
ATOM      5  C4  UNL d   1       0.291   0.370  -1.878  0.00  0.00    -0.007 A 
ATOM      6  C5  UNL d   1      -0.258  -0.875  -2.182  0.00  0.00     0.039 A 
ENDROOT
BRANCH   4   7
ATOM      7  O   UNL d   1       0.164   2.724  -1.880  0.00  0.00    -0.526 OA
ATOM      8  H5  UNL d   1      -0.446   3.436  -2.137  0.00  0.00     0.418 HD
ENDBRANCH   4   7
TORSDOF 1
ENDMDL
