MODEL 1
REMARK minimizedAffinity 1.9811635
REMARK minimizedRMSD -1
REMARK  1 active torsions:
REMARK  status: ('A' for Active; 'I' for Inactive)
REMARK    1  A    between atoms: C3_4  and  O_7 
ROOT
ATOM      1  C   UNL d   1      -1.303  -0.691  -3.483  0.00  0.00    -0.033 A 
ATOM      2  C1  UNL d   1       0.011  -0.316  -3.766  0.00  0.00     0.039 A 
ATOM      3  C2  UNL d   1       0.571   0.799  -3.141  0.00  0.00    -0.080 A 
ATOM      4  C3  UNL d   1      -0.192   1.530  -2.234  0.00  0.00     0.150 A 
ATOM      5  C4  UNL d   1      -1.501   1.159  -1.944  0.00  0.00    -0.007 A 
ATOM      6  C5  UNL d   1      -2.059   0.046  -2.571  0.00  0.00     0.039 A 
ENDROOT
BRANCH   4   7
ATOM      7  O   UNL d   1       0.309   2.629  -1.603  0.00  0.00    -0.526 OA
ATOM      8  H5  UNL d   1       1.214   2.781  -1.923  0.00  0.00     0.418 HD
ENDBRANCH   4   7
TORSDOF 1
ENDMDL
