MODEL 1
REMARK minimizedAffinity 4.53157949
REMARK minimizedRMSD -1
REMARK  1 active torsions:
REMARK  status: ('A' for Active; 'I' for Inactive)
REMARK    1  A    between atoms: C3_4  and  O_7 
ROOT
ATOM      1  C   UNL d   1       0.417   1.983  -1.121  0.00  0.00    -0.033 A 
ATOM      2  C1  UNL d   1       0.608   1.184  -2.251  0.00  0.00     0.039 A 
ATOM      3  C2  UNL d   1      -0.429   0.377  -2.721  0.00  0.00    -0.080 A 
ATOM      4  C3  UNL d   1      -1.651   0.377  -2.054  0.00  0.00     0.150 A 
ATOM      5  C4  UNL d   1      -1.850   1.173  -0.930  0.00  0.00    -0.007 A 
ATOM      6  C5  UNL d   1      -0.812   1.978  -0.462  0.00  0.00     0.039 A 
ENDROOT
BRANCH   4   7
ATOM      7  O   UNL d   1      -2.692  -0.398  -2.472  0.00  0.00    -0.526 OA
ATOM      8  H5  UNL d   1      -2.400  -0.915  -3.241  0.00  0.00     0.418 HD
ENDBRANCH   4   7
TORSDOF 1
ENDMDL
