MODEL 1
REMARK minimizedAffinity 3.64055562
REMARK minimizedRMSD -1
REMARK  1 active torsions:
REMARK  status: ('A' for Active; 'I' for Inactive)
REMARK    1  A    between atoms: C3_4  and  O_7 
ROOT
ATOM      1  C   UNL d   1       0.080   1.473  -0.166  0.00  0.00    -0.033 A 
ATOM      2  C1  UNL d   1       0.788   0.358  -0.619  0.00  0.00     0.039 A 
ATOM      3  C2  UNL d   1       1.255   0.312  -1.934  0.00  0.00    -0.080 A 
ATOM      4  C3  UNL d   1       1.009   1.386  -2.784  0.00  0.00     0.150 A 
ATOM      5  C4  UNL d   1       0.308   2.502  -2.338  0.00  0.00    -0.007 A 
ATOM      6  C5  UNL d   1      -0.159   2.546  -1.025  0.00  0.00     0.039 A 
ENDROOT
BRANCH   4   7
ATOM      7  O   UNL d   1       1.441   1.385  -4.077  0.00  0.00    -0.526 OA
ATOM      8  H5  UNL d   1       1.885   0.539  -4.252  0.00  0.00     0.418 HD
ENDBRANCH   4   7
TORSDOF 1
ENDMDL
