MODEL 1
REMARK minimizedAffinity 5.46527481
REMARK minimizedRMSD -1
REMARK  0 active torsions:
REMARK  status: ('A' for Active; 'I' for Inactive)
ROOT
ATOM      1  C2' OXE d   1      -3.112   4.349  -3.992  0.00  0.00     0.078 C 
ATOM      2  C1' OXE d   1      -4.897   5.164  -6.000  0.00  0.00     0.078 C 
ATOM      3  C1  OXE d   1      -5.002   3.745  -5.498  0.00  0.00    -0.078 A 
ATOM      4  C2  OXE d   1      -4.094   3.341  -4.548  0.00  0.00    -0.078 A 
ATOM      5  C3  OXE d   1      -4.182   2.060  -4.012  0.00  0.00     0.003 A 
ATOM      6  C4  OXE d   1      -5.087   1.131  -4.539  0.00  0.00    -0.002 A 
ATOM      7  C5  OXE d   1      -5.994   1.510  -5.534  0.00  0.00    -0.002 A 
ATOM      8  C6  OXE d   1      -5.993   2.822  -5.993  0.00  0.00     0.003 A 
ENDROOT
TORSDOF 0
ENDMDL
