MODEL 1
REMARK minimizedAffinity 8.68011951
REMARK minimizedRMSD -1
REMARK  0 active torsions:
REMARK  status: ('A' for Active; 'I' for Inactive)
ROOT
ATOM      1  C2' OXE d   1       0.146  -1.394  -0.503  0.00  0.00     0.078 C 
ATOM      2  C1' OXE d   1       0.635   0.506  -2.510  0.00  0.00     0.078 C 
ATOM      3  C1  OXE d   1       0.430   1.007  -1.102  0.00  0.00    -0.078 A 
ATOM      4  C2  OXE d   1       0.145   0.074  -0.134  0.00  0.00    -0.078 A 
ATOM      5  C3  OXE d   1       0.001   0.476   1.190  0.00  0.00     0.003 A 
ATOM      6  C4  OXE d   1      -0.008   1.837   1.521  0.00  0.00    -0.002 A 
ATOM      7  C5  OXE d   1       0.240   2.807   0.544  0.00  0.00    -0.002 A 
ATOM      8  C6  OXE d   1       0.503   2.407  -0.762  0.00  0.00     0.003 A 
ENDROOT
TORSDOF 0
ENDMDL
