MODEL 1
REMARK minimizedAffinity 5.61939144
REMARK minimizedRMSD -1
REMARK  0 active torsions:
REMARK  status: ('A' for Active; 'I' for Inactive)
ROOT
ATOM      1  C2' OXE d   1       1.152   4.453   2.898  0.00  0.00     0.078 C 
ATOM      2  C1' OXE d   1       1.169   4.926   0.131  0.00  0.00     0.078 C 
ATOM      3  C1  OXE d   1       0.664   3.589   0.613  0.00  0.00    -0.078 A 
ATOM      4  C2  OXE d   1       0.704   3.349   1.965  0.00  0.00    -0.078 A 
ATOM      5  C3  OXE d   1       0.200   2.153   2.468  0.00  0.00     0.003 A 
ATOM      6  C4  OXE d   1      -0.204   1.132   1.598  0.00  0.00    -0.002 A 
ATOM      7  C5  OXE d   1      -0.215   1.342   0.215  0.00  0.00    -0.002 A 
ATOM      8  C6  OXE d   1       0.175   2.577  -0.291  0.00  0.00     0.003 A 
ENDROOT
TORSDOF 0
ENDMDL
