MODEL 1
REMARK minimizedAffinity 3.38702369
REMARK minimizedRMSD -1
REMARK  0 active torsions:
REMARK  status: ('A' for Active; 'I' for Inactive)
ROOT
ATOM      1  C2' OXE d   1      -3.426   4.669  -5.924  0.00  0.00     0.078 C 
ATOM      2  C1' OXE d   1      -2.225   3.149  -3.892  0.00  0.00     0.078 C 
ATOM      3  C1  OXE d   1      -3.542   2.667  -4.447  0.00  0.00    -0.078 A 
ATOM      4  C2  OXE d   1      -4.146   3.442  -5.408  0.00  0.00    -0.078 A 
ATOM      5  C3  OXE d   1      -5.335   3.014  -5.992  0.00  0.00     0.003 A 
ATOM      6  C4  OXE d   1      -5.998   1.883  -5.502  0.00  0.00    -0.002 A 
ATOM      7  C5  OXE d   1      -5.421   1.102  -4.495  0.00  0.00    -0.002 A 
ATOM      8  C6  OXE d   1      -4.176   1.455  -3.988  0.00  0.00     0.003 A 
ENDROOT
TORSDOF 0
ENDMDL
