MODEL 1
REMARK minimizedAffinity 5.75347805
REMARK minimizedRMSD -1
REMARK  0 active torsions:
REMARK  status: ('A' for Active; 'I' for Inactive)
ROOT
ATOM      1  C2' OXE d   1      -3.518   1.877  -3.262  0.00  0.00     0.078 C 
ATOM      2  C1' OXE d   1      -5.503   0.697  -4.857  0.00  0.00     0.078 C 
ATOM      3  C1  OXE d   1      -5.266   2.179  -5.010  0.00  0.00    -0.078 A 
ATOM      4  C2  OXE d   1      -4.325   2.756  -4.192  0.00  0.00    -0.078 A 
ATOM      5  C3  OXE d   1      -4.029   4.109  -4.331  0.00  0.00     0.003 A 
ATOM      6  C4  OXE d   1      -4.787   4.917  -5.187  0.00  0.00    -0.002 A 
ATOM      7  C5  OXE d   1      -5.778   4.356  -6.000  0.00  0.00    -0.002 A 
ATOM      8  C6  OXE d   1      -6.000   2.984  -5.955  0.00  0.00     0.003 A 
ENDROOT
TORSDOF 0
ENDMDL
