MODEL 1
REMARK minimizedAffinity 7.79951048
REMARK minimizedRMSD -1
REMARK  0 active torsions:
REMARK  status: ('A' for Active; 'I' for Inactive)
ROOT
ATOM      1  C2' OXE d   1       1.574   0.909  -2.066  0.00  0.00     0.078 C 
ATOM      2  C1' OXE d   1       1.804  -1.162  -0.185  0.00  0.00     0.078 C 
ATOM      3  C1  OXE d   1       1.122   0.111   0.250  0.00  0.00    -0.078 A 
ATOM      4  C2  OXE d   1       1.055   1.136  -0.663  0.00  0.00    -0.078 A 
ATOM      5  C3  OXE d   1       0.389   2.312  -0.331  0.00  0.00     0.003 A 
ATOM      6  C4  OXE d   1      -0.079   2.519   0.972  0.00  0.00    -0.002 A 
ATOM      7  C5  OXE d   1       0.014   1.502   1.929  0.00  0.00    -0.002 A 
ATOM      8  C6  OXE d   1       0.572   0.280   1.573  0.00  0.00     0.003 A 
ENDROOT
TORSDOF 0
ENDMDL
