MODEL 1
REMARK minimizedAffinity 0.216442257
REMARK minimizedRMSD -1
REMARK  0 active torsions:
REMARK  status: ('A' for Active; 'I' for Inactive)
ROOT
ATOM      1  C2' OXE d   1      -2.331   1.927  -4.484  0.00  0.00     0.078 C 
ATOM      2  C1' OXE d   1      -2.242   4.496  -5.610  0.00  0.00     0.078 C 
ATOM      3  C1  OXE d   1      -3.581   3.805  -5.538  0.00  0.00    -0.078 A 
ATOM      4  C2  OXE d   1      -3.608   2.530  -5.028  0.00  0.00    -0.078 A 
ATOM      5  C3  OXE d   1      -4.824   1.868  -4.889  0.00  0.00     0.003 A 
ATOM      6  C4  OXE d   1      -5.999   2.429  -5.405  0.00  0.00    -0.002 A 
ATOM      7  C5  OXE d   1      -5.988   3.711  -5.964  0.00  0.00    -0.002 A 
ATOM      8  C6  OXE d   1      -4.797   4.428  -6.000  0.00  0.00     0.003 A 
ENDROOT
TORSDOF 0
ENDMDL
