MODEL 1
REMARK minimizedAffinity 2.8406992
REMARK minimizedRMSD -1
REMARK  0 active torsions:
REMARK  status: ('A' for Active; 'I' for Inactive)
ROOT
ATOM      1  C2' OXE d   1      -5.999   1.377  -5.866  0.00  0.00     0.078 C 
ATOM      2  C1' OXE d   1      -5.998   4.181  -5.999  0.00  0.00     0.078 C 
ATOM      3  C1  OXE d   1      -5.026   3.522  -5.052  0.00  0.00    -0.078 A 
ATOM      4  C2  OXE d   1      -5.066   2.151  -4.959  0.00  0.00    -0.078 A 
ATOM      5  C3  OXE d   1      -4.155   1.489  -4.141  0.00  0.00     0.003 A 
ATOM      6  C4  OXE d   1      -3.302   2.213  -3.299  0.00  0.00    -0.002 A 
ATOM      7  C5  OXE d   1      -3.273   3.611  -3.349  0.00  0.00    -0.002 A 
ATOM      8  C6  OXE d   1      -4.097   4.278  -4.249  0.00  0.00     0.003 A 
ENDROOT
TORSDOF 0
ENDMDL
