MODEL 1
REMARK minimizedAffinity 13.4314194
REMARK minimizedRMSD -1
REMARK  0 active torsions:
REMARK  status: ('A' for Active; 'I' for Inactive)
ROOT
ATOM      1  C2' OXE d   1      -1.310   1.776  -1.141  0.00  0.00     0.078 C 
ATOM      2  C1' OXE d   1       0.293   0.275   0.606  0.00  0.00     0.078 C 
ATOM      3  C1  OXE d   1       0.299   1.775   0.760  0.00  0.00    -0.078 A 
ATOM      4  C2  OXE d   1      -0.452   2.505  -0.129  0.00  0.00    -0.078 A 
ATOM      5  C3  OXE d   1      -0.525   3.889   0.003  0.00  0.00     0.003 A 
ATOM      6  C4  OXE d   1       0.279   4.555   0.935  0.00  0.00    -0.002 A 
ATOM      7  C5  OXE d   1       1.082   3.834   1.824  0.00  0.00    -0.002 A 
ATOM      8  C6  OXE d   1       1.071   2.444   1.778  0.00  0.00     0.003 A 
ENDROOT
TORSDOF 0
ENDMDL
