MODEL 1
REMARK minimizedAffinity 6.39191341
REMARK minimizedRMSD -1
REMARK  0 active torsions:
REMARK  status: ('A' for Active; 'I' for Inactive)
ROOT
ATOM      1  C2' OXE d   1      -3.503   1.504  -3.025  0.00  0.00     0.078 C 
ATOM      2  C1' OXE d   1      -4.894  -0.085  -4.875  0.00  0.00     0.078 C 
ATOM      3  C1  OXE d   1      -5.046   1.412  -4.979  0.00  0.00    -0.078 A 
ATOM      4  C2  OXE d   1      -4.399   2.180  -4.041  0.00  0.00    -0.078 A 
ATOM      5  C3  OXE d   1      -4.462   3.568  -4.124  0.00  0.00     0.003 A 
ATOM      6  C4  OXE d   1      -5.301   4.184  -5.060  0.00  0.00    -0.002 A 
ATOM      7  C5  OXE d   1      -6.000   3.419  -6.000  0.00  0.00    -0.002 A 
ATOM      8  C6  OXE d   1      -5.850   2.036  -6.000  0.00  0.00     0.003 A 
ENDROOT
TORSDOF 0
ENDMDL
