MODEL 1
REMARK minimizedAffinity 3.62975049
REMARK minimizedRMSD -1
REMARK  0 active torsions:
REMARK  status: ('A' for Active; 'I' for Inactive)
ROOT
ATOM      1  C2' OXE d   1       1.004   1.024  -2.161  0.00  0.00     0.078 C 
ATOM      2  C1' OXE d   1       0.724  -1.113  -0.363  0.00  0.00     0.078 C 
ATOM      3  C1  OXE d   1       0.540   0.285   0.172  0.00  0.00    -0.078 A 
ATOM      4  C2  OXE d   1       0.724   1.327  -0.705  0.00  0.00    -0.078 A 
ATOM      5  C3  OXE d   1       0.513   2.634  -0.277  0.00  0.00     0.003 A 
ATOM      6  C4  OXE d   1       0.265   2.906   1.074  0.00  0.00    -0.002 A 
ATOM      7  C5  OXE d   1       0.112   1.862   1.992  0.00  0.00    -0.002 A 
ATOM      8  C6  OXE d   1       0.204   0.547   1.550  0.00  0.00     0.003 A 
ENDROOT
TORSDOF 0
ENDMDL
