MODEL 1
REMARK minimizedAffinity 5.40028572
REMARK minimizedRMSD -1
REMARK  0 active torsions:
REMARK  status: ('A' for Active; 'I' for Inactive)
ROOT
ATOM      1  C2' OXE d   1       0.423  -1.285  -0.024  0.00  0.00     0.078 C 
ATOM      2  C1' OXE d   1       1.279  -0.337   2.476  0.00  0.00     0.078 C 
ATOM      3  C1  OXE d   1       0.741   0.669   1.489  0.00  0.00    -0.078 A 
ATOM      4  C2  OXE d   1       0.368   0.202   0.251  0.00  0.00    -0.078 A 
ATOM      5  C3  OXE d   1      -0.185   1.079  -0.677  0.00  0.00     0.003 A 
ATOM      6  C4  OXE d   1      -0.223   2.454  -0.419  0.00  0.00    -0.002 A 
ATOM      7  C5  OXE d   1       0.188   2.956   0.821  0.00  0.00    -0.002 A 
ATOM      8  C6  OXE d   1       0.633   2.073   1.799  0.00  0.00     0.003 A 
ENDROOT
TORSDOF 0
ENDMDL
