MODEL 1
REMARK minimizedAffinity 3.22657776
REMARK minimizedRMSD -1
REMARK  0 active torsions:
REMARK  status: ('A' for Active; 'I' for Inactive)
ROOT
ATOM      1  C2' OXE d   1      -0.371  -0.805  -0.068  0.00  0.00     0.078 C 
ATOM      2  C1' OXE d   1      -0.282   1.315  -1.906  0.00  0.00     0.078 C 
ATOM      3  C1  OXE d   1      -0.119   1.645  -0.443  0.00  0.00    -0.078 A 
ATOM      4  C2  OXE d   1      -0.210   0.607   0.453  0.00  0.00    -0.078 A 
ATOM      5  C3  OXE d   1      -0.013   0.848   1.809  0.00  0.00     0.003 A 
ATOM      6  C4  OXE d   1       0.125   2.158   2.284  0.00  0.00    -0.002 A 
ATOM      7  C5  OXE d   1       0.181   3.234   1.391  0.00  0.00    -0.002 A 
ATOM      8  C6  OXE d   1       0.104   2.991   0.024  0.00  0.00     0.003 A 
ENDROOT
TORSDOF 0
ENDMDL
