MODEL 1
REMARK minimizedAffinity 0.996003449
REMARK minimizedRMSD -1
REMARK  0 active torsions:
REMARK  status: ('A' for Active; 'I' for Inactive)
ROOT
ATOM      1  C2' OXE d   1      -3.867   1.875  -2.215  0.00  0.00     0.078 C 
ATOM      2  C1' OXE d   1      -5.638   0.002  -3.326  0.00  0.00     0.078 C 
ATOM      3  C1  OXE d   1      -5.387   1.275  -4.095  0.00  0.00    -0.078 A 
ATOM      4  C2  OXE d   1      -4.555   2.206  -3.522  0.00  0.00    -0.078 A 
ATOM      5  C3  OXE d   1      -4.246   3.373  -4.214  0.00  0.00     0.003 A 
ATOM      6  C4  OXE d   1      -4.894   3.676  -5.418  0.00  0.00    -0.002 A 
ATOM      7  C5  OXE d   1      -5.775   2.759  -6.000  0.00  0.00    -0.002 A 
ATOM      8  C6  OXE d   1      -6.000   1.538  -5.374  0.00  0.00     0.003 A 
ENDROOT
TORSDOF 0
ENDMDL
