MODEL 1
REMARK minimizedAffinity 3.57015395
REMARK minimizedRMSD -1
REMARK  0 active torsions:
REMARK  status: ('A' for Active; 'I' for Inactive)
ROOT
ATOM      1  C2' OXE d   1       0.990   4.704   0.410  0.00  0.00     0.078 C 
ATOM      2  C1' OXE d   1       1.262   3.576   2.966  0.00  0.00     0.078 C 
ATOM      3  C1  OXE d   1       0.703   2.706   1.869  0.00  0.00    -0.078 A 
ATOM      4  C2  OXE d   1       0.530   3.280   0.633  0.00  0.00    -0.078 A 
ATOM      5  C3  OXE d   1       0.069   2.506  -0.428  0.00  0.00     0.003 A 
ATOM      6  C4  OXE d   1      -0.363   1.192  -0.212  0.00  0.00    -0.002 A 
ATOM      7  C5  OXE d   1      -0.233   0.600   1.049  0.00  0.00    -0.002 A 
ATOM      8  C6  OXE d   1       0.337   1.328   2.088  0.00  0.00     0.003 A 
ENDROOT
TORSDOF 0
ENDMDL
