MODEL 1
REMARK minimizedAffinity 7.42217779
REMARK minimizedRMSD -1
REMARK  0 active torsions:
REMARK  status: ('A' for Active; 'I' for Inactive)
ROOT
ATOM      1  C2' OXE d   1      -0.349  -0.682   0.012  0.00  0.00     0.078 C 
ATOM      2  C1' OXE d   1       0.396   1.178  -1.955  0.00  0.00     0.078 C 
ATOM      3  C1  OXE d   1       0.341   1.651  -0.523  0.00  0.00    -0.078 A 
ATOM      4  C2  OXE d   1      -0.070   0.747   0.426  0.00  0.00    -0.078 A 
ATOM      5  C3  OXE d   1      -0.086   1.116   1.768  0.00  0.00     0.003 A 
ATOM      6  C4  OXE d   1       0.164   2.442   2.142  0.00  0.00    -0.002 A 
ATOM      7  C5  OXE d   1       0.546   3.389   1.185  0.00  0.00    -0.002 A 
ATOM      8  C6  OXE d   1       0.680   3.000  -0.143  0.00  0.00     0.003 A 
ENDROOT
TORSDOF 0
ENDMDL
