MODEL 1
REMARK minimizedAffinity 1.54482889
REMARK minimizedRMSD -1
REMARK  0 active torsions:
REMARK  status: ('A' for Active; 'I' for Inactive)
ROOT
ATOM      1  C2' OXE d   1      -4.498   1.414  -3.153  0.00  0.00     0.078 C 
ATOM      2  C1' OXE d   1      -5.779   3.060  -5.032  0.00  0.00     0.078 C 
ATOM      3  C1  OXE d   1      -4.292   3.234  -4.842  0.00  0.00    -0.078 A 
ATOM      4  C2  OXE d   1      -3.682   2.456  -3.887  0.00  0.00    -0.078 A 
ATOM      5  C3  OXE d   1      -2.304   2.538  -3.710  0.00  0.00     0.003 A 
ATOM      6  C4  OXE d   1      -1.558   3.511  -4.386  0.00  0.00    -0.002 A 
ATOM      7  C5  OXE d   1      -2.168   4.341  -5.333  0.00  0.00    -0.002 A 
ATOM      8  C6  OXE d   1      -3.523   4.186  -5.604  0.00  0.00     0.003 A 
ENDROOT
TORSDOF 0
ENDMDL
