MODEL 1
REMARK minimizedAffinity -1.65152645
REMARK minimizedRMSD -1
REMARK  0 active torsions:
REMARK  status: ('A' for Active; 'I' for Inactive)
ROOT
ATOM      1  C2' OXE d   1      -5.363   5.170  -6.000  0.00  0.00     0.078 C 
ATOM      2  C1' OXE d   1      -2.657   4.432  -5.899  0.00  0.00     0.078 C 
ATOM      3  C1  OXE d   1      -3.687   3.330  -5.921  0.00  0.00    -0.078 A 
ATOM      4  C2  OXE d   1      -5.010   3.701  -5.923  0.00  0.00    -0.078 A 
ATOM      5  C3  OXE d   1      -5.999   2.725  -5.999  0.00  0.00     0.003 A 
ATOM      6  C4  OXE d   1      -5.664   1.368  -5.917  0.00  0.00    -0.002 A 
ATOM      7  C5  OXE d   1      -4.324   0.969  -5.875  0.00  0.00    -0.002 A 
ATOM      8  C6  OXE d   1      -3.324   1.934  -5.919  0.00  0.00     0.003 A 
ENDROOT
TORSDOF 0
ENDMDL
