MODEL 1
REMARK minimizedAffinity -3.3810277
REMARK minimizedRMSD -1
REMARK  1 active torsions:
REMARK  status: ('A' for Active; 'I' for Inactive)
REMARK    1  A    between atoms: C3_4  and  O_7 
ROOT
ATOM      1  C   UNL d   1       4.865   5.146  -2.192  0.00  0.00    -0.033 A 
ATOM      2  C1  UNL d   1       6.000   5.254  -2.998  0.00  0.00     0.039 A 
ATOM      3  C2  UNL d   1       5.999   4.710  -4.284  0.00  0.00    -0.080 A 
ATOM      4  C3  UNL d   1       4.858   4.063  -4.752  0.00  0.00     0.150 A 
ATOM      5  C4  UNL d   1       3.723   3.956  -3.955  0.00  0.00    -0.007 A 
ATOM      6  C5  UNL d   1       3.726   4.498  -2.671  0.00  0.00     0.039 A 
ENDROOT
BRANCH   4   7
ATOM      7  O   UNL d   1       4.812   3.513  -5.998  0.00  0.00    -0.526 OA
ATOM      8  H5  UNL d   1       5.677   3.639  -6.423  0.00  0.00     0.418 HD
ENDBRANCH   4   7
TORSDOF 1
ENDMDL
