MODEL 1
REMARK minimizedAffinity -3.73921156
REMARK minimizedRMSD -1
REMARK  1 active torsions:
REMARK  status: ('A' for Active; 'I' for Inactive)
REMARK    1  A    between atoms: C3_4  and  O_7 
ROOT
ATOM      1  C   UNL d   1       4.879   4.398  -5.918  0.00  0.00    -0.033 A 
ATOM      2  C1  UNL d   1       3.991   5.295  -5.321  0.00  0.00     0.039 A 
ATOM      3  C2  UNL d   1       4.105   5.592  -3.962  0.00  0.00    -0.080 A 
ATOM      4  C3  UNL d   1       5.109   4.986  -3.212  0.00  0.00     0.150 A 
ATOM      5  C4  UNL d   1       6.000   4.094  -3.801  0.00  0.00    -0.007 A 
ATOM      6  C5  UNL d   1       5.884   3.799  -5.158  0.00  0.00     0.039 A 
ENDROOT
BRANCH   4   7
ATOM      7  O   UNL d   1       5.256   5.241  -1.880  0.00  0.00    -0.526 OA
ATOM      8  H5  UNL d   1       4.554   5.853  -1.605  0.00  0.00     0.418 HD
ENDBRANCH   4   7
TORSDOF 1
ENDMDL
