MODEL 1
REMARK minimizedAffinity -1.70179069
REMARK minimizedRMSD -1
REMARK  1 active torsions:
REMARK  status: ('A' for Active; 'I' for Inactive)
REMARK    1  A    between atoms: C3_4  and  O_7 
ROOT
ATOM      1  C   UNL d   1       4.083   5.447  -4.905  0.00  0.00    -0.033 A 
ATOM      2  C1  UNL d   1       3.437   4.893  -3.798  0.00  0.00     0.039 A 
ATOM      3  C2  UNL d   1       4.068   4.883  -2.552  0.00  0.00    -0.080 A 
ATOM      4  C3  UNL d   1       5.342   5.430  -2.427  0.00  0.00     0.150 A 
ATOM      5  C4  UNL d   1       5.990   5.986  -3.525  0.00  0.00    -0.007 A 
ATOM      6  C5  UNL d   1       5.359   5.995  -4.768  0.00  0.00     0.039 A 
ENDROOT
BRANCH   4   7
ATOM      7  O   UNL d   1       5.999   5.438  -1.233  0.00  0.00    -0.526 OA
ATOM      8  H5  UNL d   1       5.442   4.995  -0.572  0.00  0.00     0.418 HD
ENDBRANCH   4   7
TORSDOF 1
ENDMDL
