MODEL 1
REMARK minimizedAffinity -2.31633568
REMARK minimizedRMSD -1
REMARK  1 active torsions:
REMARK  status: ('A' for Active; 'I' for Inactive)
REMARK    1  A    between atoms: C3_4  and  O_7 
ROOT
ATOM      1  C   UNL d   1       4.924   5.239  -5.981  0.00  0.00    -0.033 A 
ATOM      2  C1  UNL d   1       5.878   4.389  -5.421  0.00  0.00     0.039 A 
ATOM      3  C2  UNL d   1       6.000   4.291  -4.033  0.00  0.00    -0.080 A 
ATOM      4  C3  UNL d   1       5.161   5.047  -3.219  0.00  0.00     0.150 A 
ATOM      5  C4  UNL d   1       4.206   5.894  -3.771  0.00  0.00    -0.007 A 
ATOM      6  C5  UNL d   1       4.086   5.991  -5.156  0.00  0.00     0.039 A 
ENDROOT
BRANCH   4   7
ATOM      7  O   UNL d   1       5.246   4.988  -1.859  0.00  0.00    -0.526 OA
ATOM      8  H5  UNL d   1       5.969   4.385  -1.622  0.00  0.00     0.418 HD
ENDBRANCH   4   7
TORSDOF 1
ENDMDL
