MODEL 1
REMARK minimizedAffinity -4.10729647
REMARK minimizedRMSD -1
REMARK  1 active torsions:
REMARK  status: ('A' for Active; 'I' for Inactive)
REMARK    1  A    between atoms: C3_4  and  O_7 
ROOT
ATOM      1  C   UNL d   1       4.143   4.118  -4.953  0.00  0.00    -0.033 A 
ATOM      2  C1  UNL d   1       3.314   4.870  -4.118  0.00  0.00     0.039 A 
ATOM      3  C2  UNL d   1       3.826   5.437  -2.950  0.00  0.00    -0.080 A 
ATOM      4  C3  UNL d   1       5.167   5.246  -2.628  0.00  0.00     0.150 A 
ATOM      5  C4  UNL d   1       6.000   4.501  -3.457  0.00  0.00    -0.007 A 
ATOM      6  C5  UNL d   1       5.486   3.935  -4.623  0.00  0.00     0.039 A 
ENDROOT
BRANCH   4   7
ATOM      7  O   UNL d   1       5.712   5.775  -1.496  0.00  0.00    -0.526 OA
ATOM      8  H5  UNL d   1       5.012   6.240  -1.007  0.00  0.00     0.418 HD
ENDBRANCH   4   7
TORSDOF 1
ENDMDL
