MODEL 1
REMARK minimizedAffinity -3.45387721
REMARK minimizedRMSD -1
REMARK  1 active torsions:
REMARK  status: ('A' for Active; 'I' for Inactive)
REMARK    1  A    between atoms: C3_4  and  O_7 
ROOT
ATOM      1  C   UNL d   1       4.887   5.661  -2.252  0.00  0.00    -0.033 A 
ATOM      2  C1  UNL d   1       3.776   4.881  -2.579  0.00  0.00     0.039 A 
ATOM      3  C2  UNL d   1       3.774   4.121  -3.751  0.00  0.00    -0.080 A 
ATOM      4  C3  UNL d   1       4.888   4.150  -4.585  0.00  0.00     0.150 A 
ATOM      5  C4  UNL d   1       6.000   4.922  -4.264  0.00  0.00    -0.007 A 
ATOM      6  C5  UNL d   1       5.999   5.680  -3.094  0.00  0.00     0.039 A 
ENDROOT
BRANCH   4   7
ATOM      7  O   UNL d   1       4.931   3.430  -5.742  0.00  0.00    -0.526 OA
ATOM      8  H5  UNL d   1       4.082   2.967  -5.848  0.00  0.00     0.418 HD
ENDBRANCH   4   7
TORSDOF 1
ENDMDL
