MODEL 1
REMARK minimizedAffinity -2.82488537
REMARK minimizedRMSD -1
REMARK  1 active torsions:
REMARK  status: ('A' for Active; 'I' for Inactive)
REMARK    1  A    between atoms: C3_4  and  O_7 
ROOT
ATOM      1  C   UNL d   1       4.167   5.269  -4.537  0.00  0.00    -0.033 A 
ATOM      2  C1  UNL d   1       5.367   5.960  -4.358  0.00  0.00     0.039 A 
ATOM      3  C2  UNL d   1       5.999   5.954  -3.113  0.00  0.00    -0.080 A 
ATOM      4  C3  UNL d   1       5.422   5.254  -2.057  0.00  0.00     0.150 A 
ATOM      5  C4  UNL d   1       4.229   4.560  -2.229  0.00  0.00    -0.007 A 
ATOM      6  C5  UNL d   1       3.599   4.568  -3.473  0.00  0.00     0.039 A 
ENDROOT
BRANCH   4   7
ATOM      7  O   UNL d   1       6.000   5.223  -0.822  0.00  0.00    -0.526 OA
ATOM      8  H5  UNL d   1       6.803   5.769  -0.845  0.00  0.00     0.418 HD
ENDBRANCH   4   7
TORSDOF 1
ENDMDL
