MODEL 1
REMARK minimizedAffinity -3.28495884
REMARK minimizedRMSD -1
REMARK  1 active torsions:
REMARK  status: ('A' for Active; 'I' for Inactive)
REMARK    1  A    between atoms: C3_4  and  O_7 
ROOT
ATOM      1  C   UNL d   1       5.098   3.914  -5.968  0.00  0.00    -0.033 A 
ATOM      2  C1  UNL d   1       4.250   4.910  -5.480  0.00  0.00     0.039 A 
ATOM      3  C2  UNL d   1       4.274   5.247  -4.125  0.00  0.00    -0.080 A 
ATOM      4  C3  UNL d   1       5.150   4.583  -3.271  0.00  0.00     0.150 A 
ATOM      5  C4  UNL d   1       6.000   3.593  -3.751  0.00  0.00    -0.007 A 
ATOM      6  C5  UNL d   1       5.974   3.256  -5.103  0.00  0.00     0.039 A 
ENDROOT
BRANCH   4   7
ATOM      7  O   UNL d   1       5.205   4.875  -1.940  0.00  0.00    -0.526 OA
ATOM      8  H5  UNL d   1       4.542   5.558  -1.747  0.00  0.00     0.418 HD
ENDBRANCH   4   7
TORSDOF 1
ENDMDL
