MODEL 1
REMARK minimizedAffinity -3.75255132
REMARK minimizedRMSD -1
REMARK  1 active torsions:
REMARK  status: ('A' for Active; 'I' for Inactive)
REMARK    1  A    between atoms: C3_4  and  O_7 
ROOT
ATOM      1  C   UNL d   1       3.892   3.732  -4.452  0.00  0.00    -0.033 A 
ATOM      2  C1  UNL d   1       5.277   3.866  -4.569  0.00  0.00     0.039 A 
ATOM      3  C2  UNL d   1       5.999   4.552  -3.590  0.00  0.00    -0.080 A 
ATOM      4  C3  UNL d   1       5.325   5.096  -2.500  0.00  0.00     0.150 A 
ATOM      5  C4  UNL d   1       3.946   4.962  -2.375  0.00  0.00    -0.007 A 
ATOM      6  C5  UNL d   1       3.227   4.278  -3.354  0.00  0.00     0.039 A 
ENDROOT
BRANCH   4   7
ATOM      7  O   UNL d   1       5.986   5.778  -1.522  0.00  0.00    -0.526 OA
ATOM      8  H5  UNL d   1       6.928   5.815  -1.755  0.00  0.00     0.418 HD
ENDBRANCH   4   7
TORSDOF 1
ENDMDL
