MODEL 1
REMARK minimizedAffinity -4.72369385
REMARK minimizedRMSD -1
REMARK  1 active torsions:
REMARK  status: ('A' for Active; 'I' for Inactive)
REMARK    1  A    between atoms: C3_4  and  O_7 
ROOT
ATOM      1  C   UNL d   1       3.728   4.550  -4.168  0.00  0.00    -0.033 A 
ATOM      2  C1  UNL d   1       5.077   4.237  -3.991  0.00  0.00     0.039 A 
ATOM      3  C2  UNL d   1       5.726   4.588  -2.806  0.00  0.00    -0.080 A 
ATOM      4  C3  UNL d   1       5.016   5.249  -1.807  0.00  0.00     0.150 A 
ATOM      5  C4  UNL d   1       3.671   5.561  -1.976  0.00  0.00    -0.007 A 
ATOM      6  C5  UNL d   1       3.025   5.211  -3.160  0.00  0.00     0.039 A 
ENDROOT
BRANCH   4   7
ATOM      7  O   UNL d   1       5.609   5.616  -0.635  0.00  0.00    -0.526 OA
ATOM      8  H5  UNL d   1       6.546   5.361  -0.671  0.00  0.00     0.418 HD
ENDBRANCH   4   7
TORSDOF 1
ENDMDL
