MODEL 1
REMARK minimizedAffinity -1.71053016
REMARK minimizedRMSD -1
REMARK  1 active torsions:
REMARK  status: ('A' for Active; 'I' for Inactive)
REMARK    1  A    between atoms: C3_4  and  O_7 
ROOT
ATOM      1  C   UNL d   1       5.995   2.904  -4.806  0.00  0.00    -0.033 A 
ATOM      2  C1  UNL d   1       5.860   3.847  -3.785  0.00  0.00     0.039 A 
ATOM      3  C2  UNL d   1       4.859   4.818  -3.858  0.00  0.00    -0.080 A 
ATOM      4  C3  UNL d   1       4.001   4.833  -4.954  0.00  0.00     0.150 A 
ATOM      5  C4  UNL d   1       4.128   3.894  -5.973  0.00  0.00    -0.007 A 
ATOM      6  C5  UNL d   1       5.129   2.926  -5.899  0.00  0.00     0.039 A 
ENDROOT
BRANCH   4   7
ATOM      7  O   UNL d   1       3.012   5.764  -5.072  0.00  0.00    -0.526 OA
ATOM      8  H5  UNL d   1       3.062   6.365  -4.310  0.00  0.00     0.418 HD
ENDBRANCH   4   7
TORSDOF 1
ENDMDL
