MODEL 1
REMARK minimizedAffinity -1.59497654
REMARK minimizedRMSD -1
REMARK  1 active torsions:
REMARK  status: ('A' for Active; 'I' for Inactive)
REMARK    1  A    between atoms: C3_4  and  O_7 
ROOT
ATOM      1  C   UNL d   1       2.900   5.083  -4.078  0.00  0.00    -0.033 A 
ATOM      2  C1  UNL d   1       2.867   4.056  -3.132  0.00  0.00     0.039 A 
ATOM      3  C2  UNL d   1       3.887   3.943  -2.186  0.00  0.00    -0.080 A 
ATOM      4  C3  UNL d   1       4.933   4.862  -2.196  0.00  0.00     0.150 A 
ATOM      5  C4  UNL d   1       4.970   5.889  -3.133  0.00  0.00    -0.007 A 
ATOM      6  C5  UNL d   1       3.951   6.000  -4.077  0.00  0.00     0.039 A 
ENDROOT
BRANCH   4   7
ATOM      7  O   UNL d   1       5.954   4.789  -1.295  0.00  0.00    -0.526 OA
ATOM      8  H5  UNL d   1       5.810   4.013  -0.729  0.00  0.00     0.418 HD
ENDBRANCH   4   7
TORSDOF 1
ENDMDL
