MODEL 1
REMARK minimizedAffinity -2.22578549
REMARK minimizedRMSD -1
REMARK  1 active torsions:
REMARK  status: ('A' for Active; 'I' for Inactive)
REMARK    1  A    between atoms: C3_4  and  O_7 
ROOT
ATOM      1  C   UNL d   1       4.349   4.525  -5.422  0.00  0.00    -0.033 A 
ATOM      2  C1  UNL d   1       3.788   5.597  -4.726  0.00  0.00     0.039 A 
ATOM      3  C2  UNL d   1       4.330   6.000  -3.505  0.00  0.00    -0.080 A 
ATOM      4  C3  UNL d   1       5.433   5.323  -2.991  0.00  0.00     0.150 A 
ATOM      5  C4  UNL d   1       6.000   4.256  -3.680  0.00  0.00    -0.007 A 
ATOM      6  C5  UNL d   1       5.456   3.855  -4.900  0.00  0.00     0.039 A 
ENDROOT
BRANCH   4   7
ATOM      7  O   UNL d   1       5.995   5.677  -1.800  0.00  0.00    -0.526 OA
ATOM      8  H5  UNL d   1       5.481   6.411  -1.423  0.00  0.00     0.418 HD
ENDBRANCH   4   7
TORSDOF 1
ENDMDL
