MODEL 1
REMARK minimizedAffinity -1.90979755
REMARK minimizedRMSD -1
REMARK  1 active torsions:
REMARK  status: ('A' for Active; 'I' for Inactive)
REMARK    1  A    between atoms: C3_4  and  O_7 
ROOT
ATOM      1  C   UNL d   1       4.871   4.389  -1.953  0.00  0.00    -0.033 A 
ATOM      2  C1  UNL d   1       5.999   4.975  -2.530  0.00  0.00     0.039 A 
ATOM      3  C2  UNL d   1       5.995   5.318  -3.883  0.00  0.00    -0.080 A 
ATOM      4  C3  UNL d   1       4.857   5.071  -4.647  0.00  0.00     0.150 A 
ATOM      5  C4  UNL d   1       3.729   4.492  -4.078  0.00  0.00    -0.007 A 
ATOM      6  C5  UNL d   1       3.735   4.149  -2.726  0.00  0.00     0.039 A 
ENDROOT
BRANCH   4   7
ATOM      7  O   UNL d   1       4.808   5.385  -5.973  0.00  0.00    -0.526 OA
ATOM      8  H5  UNL d   1       5.669   5.751  -6.235  0.00  0.00     0.418 HD
ENDBRANCH   4   7
TORSDOF 1
ENDMDL
