MODEL 1
REMARK minimizedAffinity -1.32889771
REMARK minimizedRMSD -1
REMARK  1 active torsions:
REMARK  status: ('A' for Active; 'I' for Inactive)
REMARK    1  A    between atoms: C3_4  and  O_7 
ROOT
ATOM      1  C   UNL d   1       5.998   4.013  -2.420  0.00  0.00    -0.033 A 
ATOM      2  C1  UNL d   1       5.264   3.300  -3.370  0.00  0.00     0.039 A 
ATOM      3  C2  UNL d   1       4.255   3.935  -4.097  0.00  0.00    -0.080 A 
ATOM      4  C3  UNL d   1       3.991   5.282  -3.866  0.00  0.00     0.150 A 
ATOM      5  C4  UNL d   1       4.721   6.000  -2.924  0.00  0.00    -0.007 A 
ATOM      6  C5  UNL d   1       5.727   5.364  -2.198  0.00  0.00     0.039 A 
ENDROOT
BRANCH   4   7
ATOM      7  O   UNL d   1       3.014   5.944  -4.547  0.00  0.00    -0.526 OA
ATOM      8  H5  UNL d   1       2.574   5.315  -5.143  0.00  0.00     0.418 HD
ENDBRANCH   4   7
TORSDOF 1
ENDMDL
