MODEL 1
REMARK minimizedAffinity -3.19553256
REMARK minimizedRMSD -1
REMARK  1 active torsions:
REMARK  status: ('A' for Active; 'I' for Inactive)
REMARK    1  A    between atoms: C3_4  and  O_7 
ROOT
ATOM      1  C   UNL d   1       4.543   5.231  -5.762  0.00  0.00    -0.033 A 
ATOM      2  C1  UNL d   1       3.754   5.960  -4.870  0.00  0.00     0.039 A 
ATOM      3  C2  UNL d   1       4.085   6.000  -3.514  0.00  0.00    -0.080 A 
ATOM      4  C3  UNL d   1       5.206   5.309  -3.064  0.00  0.00     0.150 A 
ATOM      5  C4  UNL d   1       5.999   4.584  -3.948  0.00  0.00    -0.007 A 
ATOM      6  C5  UNL d   1       5.667   4.544  -5.301  0.00  0.00     0.039 A 
ENDROOT
BRANCH   4   7
ATOM      7  O   UNL d   1       5.566   5.314  -1.749  0.00  0.00    -0.526 OA
ATOM      8  H5  UNL d   1       4.910   5.832  -1.253  0.00  0.00     0.418 HD
ENDBRANCH   4   7
TORSDOF 1
ENDMDL
