MODEL 1
REMARK minimizedAffinity -5.74288464
REMARK minimizedRMSD -1
REMARK  0 active torsions:
REMARK  status: ('A' for Active; 'I' for Inactive)
ROOT
ATOM      1  C4' PXY d   1      -1.132   3.104   2.304  0.00  0.00     0.077 C 
ATOM      2  C1' PXY d   1       0.379  -1.433  -0.944  0.00  0.00     0.077 C 
ATOM      3  C1  PXY d   1      -0.019  -0.236  -0.103  0.00  0.00    -0.082 A 
ATOM      4  C2  PXY d   1       0.377  -0.161   1.158  0.00  0.00     0.003 A 
ATOM      5  C3  PXY d   1      -0.001   0.898   1.942  0.00  0.00     0.003 A 
ATOM      6  C4  PXY d   1      -0.746   1.919   1.415  0.00  0.00    -0.082 A 
ATOM      7  C5  PXY d   1      -1.145   1.856   0.127  0.00  0.00     0.003 A 
ATOM      8  C6  PXY d   1      -0.786   0.751  -0.641  0.00  0.00     0.003 A 
ENDROOT
TORSDOF 0
ENDMDL
