MODEL 1
REMARK minimizedAffinity -4.32728052
REMARK minimizedRMSD -1
REMARK  0 active torsions:
REMARK  status: ('A' for Active; 'I' for Inactive)
ROOT
ATOM      1  C4' PXY d   1       0.142  -1.584  -0.685  0.00  0.00     0.077 C 
ATOM      2  C1' PXY d   1      -1.434   3.549   1.458  0.00  0.00     0.077 C 
ATOM      3  C1  PXY d   1      -1.012   2.201   0.906  0.00  0.00    -0.082 A 
ATOM      4  C2  PXY d   1      -1.173   1.943  -0.382  0.00  0.00     0.003 A 
ATOM      5  C3  PXY d   1      -0.827   0.718  -0.892  0.00  0.00     0.003 A 
ATOM      6  C4  PXY d   1      -0.261  -0.233  -0.086  0.00  0.00    -0.082 A 
ATOM      7  C5  PXY d   1      -0.084   0.027   1.227  0.00  0.00     0.003 A 
ATOM      8  C6  PXY d   1      -0.480   1.262   1.733  0.00  0.00     0.003 A 
ENDROOT
TORSDOF 0
ENDMDL
