MODEL 1
REMARK minimizedAffinity -4.88944817
REMARK minimizedRMSD -1
REMARK  0 active torsions:
REMARK  status: ('A' for Active; 'I' for Inactive)
ROOT
ATOM      1  C4' PXY d   1      -0.264   0.831   2.097  0.00  0.00     0.077 C 
ATOM      2  C1' PXY d   1      -0.236  -3.222  -2.025  0.00  0.00     0.077 C 
ATOM      3  C1  PXY d   1      -0.231  -2.155  -0.948  0.00  0.00    -0.082 A 
ATOM      4  C2  PXY d   1      -0.962  -2.323   0.142  0.00  0.00     0.003 A 
ATOM      5  C3  PXY d   1      -0.995  -1.354   1.111  0.00  0.00     0.003 A 
ATOM      6  C4  PXY d   1      -0.230  -0.224   0.988  0.00  0.00    -0.082 A 
ATOM      7  C5  PXY d   1       0.526  -0.050  -0.117  0.00  0.00     0.003 A 
ATOM      8  C6  PXY d   1       0.513  -1.027  -1.108  0.00  0.00     0.003 A 
ENDROOT
TORSDOF 0
ENDMDL
