MODEL 1
REMARK minimizedAffinity -4.07427025
REMARK minimizedRMSD -1
REMARK  0 active torsions:
REMARK  status: ('A' for Active; 'I' for Inactive)
ROOT
ATOM      1  C4' PXY d   1       0.752  -1.139  -0.749  0.00  0.00     0.077 C 
ATOM      2  C1' PXY d   1      -1.672   3.776   1.093  0.00  0.00     0.077 C 
ATOM      3  C1  PXY d   1      -1.043   2.488   0.598  0.00  0.00    -0.082 A 
ATOM      4  C2  PXY d   1      -0.592   1.603   1.472  0.00  0.00     0.003 A 
ATOM      5  C3  PXY d   1       0.009   0.448   1.042  0.00  0.00     0.003 A 
ATOM      6  C4  PXY d   1       0.101   0.171  -0.296  0.00  0.00    -0.082 A 
ATOM      7  C5  PXY d   1      -0.367   1.064  -1.193  0.00  0.00     0.003 A 
ATOM      8  C6  PXY d   1      -0.936   2.250  -0.737  0.00  0.00     0.003 A 
ENDROOT
TORSDOF 0
ENDMDL
