MODEL 1
REMARK minimizedAffinity 5.05995131
REMARK minimizedRMSD -1
REMARK  0 active torsions:
REMARK  status: ('A' for Active; 'I' for Inactive)
ROOT
ATOM      1  C4' PXY d   1      -1.138  -3.610  -2.197  0.00  0.00     0.077 C 
ATOM      2  C1' PXY d   1      -1.200   2.100  -1.301  0.00  0.00     0.077 C 
ATOM      3  C1  PXY d   1      -1.193   0.601  -1.527  0.00  0.00    -0.082 A 
ATOM      4  C2  PXY d   1      -0.111   0.019  -2.018  0.00  0.00     0.003 A 
ATOM      5  C3  PXY d   1      -0.099  -1.331  -2.259  0.00  0.00     0.003 A 
ATOM      6  C4  PXY d   1      -1.187  -2.101  -1.943  0.00  0.00    -0.082 A 
ATOM      7  C5  PXY d   1      -2.290  -1.515  -1.432  0.00  0.00     0.003 A 
ATOM      8  C6  PXY d   1      -2.297  -0.138  -1.234  0.00  0.00     0.003 A 
ENDROOT
TORSDOF 0
ENDMDL
