MODEL 1
REMARK minimizedAffinity -3.31108856
REMARK minimizedRMSD -1
REMARK  0 active torsions:
REMARK  status: ('A' for Active; 'I' for Inactive)
ROOT
ATOM      1  C4' PXY d   1       0.813  -1.661  -1.017  0.00  0.00     0.077 C 
ATOM      2  C1' PXY d   1      -1.348   2.814   1.936  0.00  0.00     0.077 C 
ATOM      3  C1  PXY d   1      -0.771   1.640   1.169  0.00  0.00    -0.082 A 
ATOM      4  C2  PXY d   1      -1.171   1.409  -0.070  0.00  0.00     0.003 A 
ATOM      5  C3  PXY d   1      -0.683   0.333  -0.767  0.00  0.00     0.003 A 
ATOM      6  C4  PXY d   1       0.264  -0.483  -0.208  0.00  0.00    -0.082 A 
ATOM      7  C5  PXY d   1       0.685  -0.247   1.052  0.00  0.00     0.003 A 
ATOM      8  C6  PXY d   1       0.147   0.826   1.757  0.00  0.00     0.003 A 
ENDROOT
TORSDOF 0
ENDMDL
