MODEL 1
REMARK minimizedAffinity -4.66721153
REMARK minimizedRMSD -1
REMARK  0 active torsions:
REMARK  status: ('A' for Active; 'I' for Inactive)
ROOT
ATOM      1  C4' PXY d   1       0.102  -0.546   2.857  0.00  0.00     0.077 C 
ATOM      2  C1' PXY d   1      -0.639   2.662  -1.894  0.00  0.00     0.077 C 
ATOM      3  C1  PXY d   1      -0.445   1.810  -0.656  0.00  0.00    -0.082 A 
ATOM      4  C2  PXY d   1      -0.822   2.275   0.524  0.00  0.00     0.003 A 
ATOM      5  C3  PXY d   1      -0.625   1.531   1.659  0.00  0.00     0.003 A 
ATOM      6  C4  PXY d   1      -0.083   0.276   1.578  0.00  0.00    -0.082 A 
ATOM      7  C5  PXY d   1       0.295  -0.210   0.377  0.00  0.00     0.003 A 
ATOM      8  C6  PXY d   1       0.123   0.578  -0.758  0.00  0.00     0.003 A 
ENDROOT
TORSDOF 0
ENDMDL
