MODEL 1
REMARK minimizedAffinity 14.4946709
REMARK minimizedRMSD -1
REMARK  0 active torsions:
REMARK  status: ('A' for Active; 'I' for Inactive)
ROOT
ATOM      1  C   UNL d   1       1.737   2.552   0.404  0.00  0.00     0.078 C 
ATOM      2  C1  UNL d   1       0.831   3.746   0.444  0.00  0.00    -0.077 A 
ATOM      3  C2  UNL d   1      -0.367   3.768  -0.281  0.00  0.00    -0.001 A 
ATOM      4  C3  UNL d   1      -1.196   4.890  -0.242  0.00  0.00     0.003 A 
ATOM      5  C4  UNL d   1      -0.836   6.000   0.519  0.00  0.00    -0.005 A 
ATOM      6  C5  UNL d   1       0.355   5.989   1.242  0.00  0.00     0.003 A 
ATOM      7  C6  UNL d   1       1.185   4.867   1.205  0.00  0.00    -0.001 A 
ENDROOT
TORSDOF 0
ENDMDL
