MODEL 1
REMARK minimizedAffinity 3.93180227
REMARK minimizedRMSD -1
REMARK  0 active torsions:
REMARK  status: ('A' for Active; 'I' for Inactive)
ROOT
ATOM      1  C   UNL d   1      -3.808  -1.938   3.026  0.00  0.00     0.078 C 
ATOM      2  C1  UNL d   1      -2.436  -1.336   3.065  0.00  0.00    -0.077 A 
ATOM      3  C2  UNL d   1      -1.349  -2.050   3.585  0.00  0.00    -0.001 A 
ATOM      4  C3  UNL d   1      -0.079  -1.473   3.623  0.00  0.00     0.003 A 
ATOM      5  C4  UNL d   1       0.117  -0.180   3.144  0.00  0.00    -0.005 A 
ATOM      6  C5  UNL d   1      -0.958   0.539   2.626  0.00  0.00     0.003 A 
ATOM      7  C6  UNL d   1      -2.229  -0.036   2.587  0.00  0.00    -0.001 A 
ENDROOT
TORSDOF 0
ENDMDL
