MODEL 1
REMARK minimizedAffinity 10.63167
REMARK minimizedRMSD -1
REMARK  0 active torsions:
REMARK  status: ('A' for Active; 'I' for Inactive)
ROOT
ATOM      1  C   UNL d   1       1.550  -4.597  -6.000  0.00  0.00     0.078 C 
ATOM      2  C1  UNL d   1       1.489  -3.149  -5.612  0.00  0.00    -0.077 A 
ATOM      3  C2  UNL d   1       0.411  -2.344  -6.000  0.00  0.00    -0.001 A 
ATOM      4  C3  UNL d   1       0.372  -0.996  -5.640  0.00  0.00     0.003 A 
ATOM      5  C4  UNL d   1       1.408  -0.441  -4.891  0.00  0.00    -0.005 A 
ATOM      6  C5  UNL d   1       2.485  -1.235  -4.501  0.00  0.00     0.003 A 
ATOM      7  C6  UNL d   1       2.526  -2.583  -4.861  0.00  0.00    -0.001 A 
ENDROOT
TORSDOF 0
ENDMDL
