MODEL 1
REMARK minimizedAffinity 6.70112944
REMARK minimizedRMSD -1
REMARK  0 active torsions:
REMARK  status: ('A' for Active; 'I' for Inactive)
ROOT
ATOM      1  C   UNL d   1       1.146  -2.816   4.281  0.00  0.00     0.078 C 
ATOM      2  C1  UNL d   1       0.766  -1.714   3.338  0.00  0.00    -0.077 A 
ATOM      3  C2  UNL d   1      -0.406  -1.789   2.576  0.00  0.00    -0.001 A 
ATOM      4  C3  UNL d   1      -0.742  -0.760   1.695  0.00  0.00     0.003 A 
ATOM      5  C4  UNL d   1       0.089   0.350   1.566  0.00  0.00    -0.005 A 
ATOM      6  C5  UNL d   1       1.260   0.433   2.318  0.00  0.00     0.003 A 
ATOM      7  C6  UNL d   1       1.597  -0.595   3.200  0.00  0.00    -0.001 A 
ENDROOT
TORSDOF 0
ENDMDL
