MODEL 1
REMARK minimizedAffinity 8.63750648
REMARK minimizedRMSD -1
REMARK  0 active torsions:
REMARK  status: ('A' for Active; 'I' for Inactive)
ROOT
ATOM      1  C   UNL d   1       3.972  -0.000  -5.273  0.00  0.00     0.078 C 
ATOM      2  C1  UNL d   1       2.712  -0.786  -5.484  0.00  0.00    -0.077 A 
ATOM      3  C2  UNL d   1       2.709  -2.183  -5.391  0.00  0.00    -0.001 A 
ATOM      4  C3  UNL d   1       1.531  -2.902  -5.599  0.00  0.00     0.003 A 
ATOM      5  C4  UNL d   1       0.347  -2.232  -5.902  0.00  0.00    -0.005 A 
ATOM      6  C5  UNL d   1       0.341  -0.842  -5.999  0.00  0.00     0.003 A 
ATOM      7  C6  UNL d   1       1.518  -0.122  -5.791  0.00  0.00    -0.001 A 
ENDROOT
TORSDOF 0
ENDMDL
