MODEL 1
REMARK minimizedAffinity 5.02923822
REMARK minimizedRMSD -1
REMARK  0 active torsions:
REMARK  status: ('A' for Active; 'I' for Inactive)
ROOT
ATOM      1  C   UNL d   1       5.341   1.952   4.846  0.00  0.00     0.078 C 
ATOM      2  C1  UNL d   1       4.835   3.363   4.894  0.00  0.00    -0.077 A 
ATOM      3  C2  UNL d   1       5.360   4.347   4.046  0.00  0.00    -0.001 A 
ATOM      4  C3  UNL d   1       4.887   5.658   4.109  0.00  0.00     0.003 A 
ATOM      5  C4  UNL d   1       3.887   5.999   5.018  0.00  0.00    -0.005 A 
ATOM      6  C5  UNL d   1       3.360   5.028   5.867  0.00  0.00     0.003 A 
ATOM      7  C6  UNL d   1       3.832   3.716   5.806  0.00  0.00    -0.001 A 
ENDROOT
TORSDOF 0
ENDMDL
