MODEL 1
REMARK minimizedAffinity 3.71586037
REMARK minimizedRMSD -1
REMARK  0 active torsions:
REMARK  status: ('A' for Active; 'I' for Inactive)
ROOT
ATOM      1  C   UNL d   1       4.513   1.703   3.000  0.00  0.00     0.078 C 
ATOM      2  C1  UNL d   1       4.479   3.200   2.911  0.00  0.00    -0.077 A 
ATOM      3  C2  UNL d   1       4.085   3.844   1.732  0.00  0.00    -0.001 A 
ATOM      4  C3  UNL d   1       4.068   5.238   1.661  0.00  0.00     0.003 A 
ATOM      5  C4  UNL d   1       4.444   5.999   2.765  0.00  0.00    -0.005 A 
ATOM      6  C5  UNL d   1       4.840   5.368   3.942  0.00  0.00     0.003 A 
ATOM      7  C6  UNL d   1       4.858   3.974   4.015  0.00  0.00    -0.001 A 
ENDROOT
TORSDOF 0
ENDMDL
