MODEL 1
REMARK minimizedAffinity 3.10387421
REMARK minimizedRMSD -1
REMARK  0 active torsions:
REMARK  status: ('A' for Active; 'I' for Inactive)
ROOT
ATOM      1  C   UNL d   1       0.766   2.234   5.690  0.00  0.00     0.078 C 
ATOM      2  C1  UNL d   1       0.649   1.202   4.608  0.00  0.00    -0.077 A 
ATOM      3  C2  UNL d   1      -0.166   1.419   3.490  0.00  0.00    -0.001 A 
ATOM      4  C3  UNL d   1      -0.273   0.447   2.495  0.00  0.00     0.003 A 
ATOM      5  C4  UNL d   1       0.432  -0.750   2.608  0.00  0.00    -0.005 A 
ATOM      6  C5  UNL d   1       1.244  -0.976   3.717  0.00  0.00     0.003 A 
ATOM      7  C6  UNL d   1       1.352  -0.004   4.714  0.00  0.00    -0.001 A 
ENDROOT
TORSDOF 0
ENDMDL
