MODEL 1
REMARK minimizedAffinity 12.2897081
REMARK minimizedRMSD -1
REMARK  0 active torsions:
REMARK  status: ('A' for Active; 'I' for Inactive)
ROOT
ATOM      1  C   UNL d   1      -2.256  -1.889   2.238  0.00  0.00     0.078 C 
ATOM      2  C1  UNL d   1      -0.899  -1.477   2.725  0.00  0.00    -0.077 A 
ATOM      3  C2  UNL d   1      -0.002  -2.419   3.242  0.00  0.00    -0.001 A 
ATOM      4  C3  UNL d   1       1.255  -2.020   3.700  0.00  0.00     0.003 A 
ATOM      5  C4  UNL d   1       1.625  -0.678   3.648  0.00  0.00    -0.005 A 
ATOM      6  C5  UNL d   1       0.738   0.267   3.137  0.00  0.00     0.003 A 
ATOM      7  C6  UNL d   1      -0.519  -0.130   2.678  0.00  0.00    -0.001 A 
ENDROOT
TORSDOF 0
ENDMDL
