MODEL 1
REMARK minimizedAffinity 3.03929281
REMARK minimizedRMSD -1
REMARK  0 active torsions:
REMARK  status: ('A' for Active; 'I' for Inactive)
ROOT
ATOM      1  C   UNL d   1       1.681  -2.949   4.699  0.00  0.00     0.078 C 
ATOM      2  C1  UNL d   1       1.060  -1.799   3.963  0.00  0.00    -0.077 A 
ATOM      3  C2  UNL d   1       1.738  -0.582   3.823  0.00  0.00    -0.001 A 
ATOM      4  C3  UNL d   1       1.144   0.483   3.144  0.00  0.00     0.003 A 
ATOM      5  C4  UNL d   1      -0.132   0.342   2.601  0.00  0.00    -0.005 A 
ATOM      6  C5  UNL d   1      -0.815  -0.864   2.738  0.00  0.00     0.003 A 
ATOM      7  C6  UNL d   1      -0.222  -1.931   3.416  0.00  0.00    -0.001 A 
ENDROOT
TORSDOF 0
ENDMDL
