MODEL 1
REMARK minimizedAffinity 8.74123383
REMARK minimizedRMSD -1
REMARK  1 active torsions:
REMARK  status: ('A' for Active; 'I' for Inactive)
REMARK    1  A    between atoms: C1_2  and  C2_3 
ROOT
ATOM      1  C2  UNL d   1       0.097   1.073  -1.875  0.00  0.00    -0.073 A 
ATOM      2  C3  UNL d   1      -0.421   2.185  -2.550  0.00  0.00    -0.002 A 
ATOM      3  C4  UNL d   1      -1.773   2.510  -2.438  0.00  0.00     0.004 A 
ATOM      4  C5  UNL d   1      -2.619   1.734  -1.645  0.00  0.00    -0.004 A 
ATOM      5  C6  UNL d   1      -2.117   0.626  -0.954  0.00  0.00    -0.075 A 
ATOM      6  C7  UNL d   1      -3.014  -0.220  -0.099  0.00  0.00     0.076 C 
ATOM      7  C8  UNL d   1      -0.759   0.304  -1.073  0.00  0.00     0.001 A 
ENDROOT
BRANCH   1   8
ATOM      8  C1  UNL d   1       1.558   0.722  -1.988  0.00  0.00     0.053 C 
ATOM      9  C   UNL d   1       2.025  -0.150  -0.833  0.00  0.00     0.018 C 
ENDBRANCH   1   8
TORSDOF 1
ENDMDL
