MODEL 1
REMARK minimizedAffinity 0.409545094
REMARK minimizedRMSD -1
REMARK  1 active torsions:
REMARK  status: ('A' for Active; 'I' for Inactive)
REMARK    1  A    between atoms: C1_2  and  C2_3 
ROOT
ATOM      1  C2  UNL d   1      -0.644  -1.973   2.451  0.00  0.00    -0.073 A 
ATOM      2  C3  UNL d   1      -0.640  -0.919   1.531  0.00  0.00    -0.002 A 
ATOM      3  C4  UNL d   1       0.327  -0.863   0.526  0.00  0.00     0.004 A 
ATOM      4  C5  UNL d   1       1.294  -1.863   0.427  0.00  0.00    -0.004 A 
ATOM      5  C6  UNL d   1       1.300  -2.931   1.330  0.00  0.00    -0.075 A 
ATOM      6  C7  UNL d   1       2.335  -4.013   1.238  0.00  0.00     0.076 C 
ATOM      7  C8  UNL d   1       0.327  -2.978   2.338  0.00  0.00     0.001 A 
ENDROOT
BRANCH   1   8
ATOM      8  C1  UNL d   1      -1.690  -2.041   3.534  0.00  0.00     0.053 C 
ATOM      9  C   UNL d   1      -2.103  -3.472   3.839  0.00  0.00     0.018 C 
ENDBRANCH   1   8
TORSDOF 1
ENDMDL
