MODEL 1
REMARK minimizedAffinity -2.0103929
REMARK minimizedRMSD -1
REMARK  1 active torsions:
REMARK  status: ('A' for Active; 'I' for Inactive)
REMARK    1  A    between atoms: C1_2  and  C2_3 
ROOT
ATOM      1  C2  UNL d   1       1.342  -2.486   1.788  0.00  0.00    -0.073 A 
ATOM      2  C3  UNL d   1       0.610  -2.082   2.910  0.00  0.00    -0.002 A 
ATOM      3  C4  UNL d   1      -0.400  -1.127   2.787  0.00  0.00     0.004 A 
ATOM      4  C5  UNL d   1      -0.693  -0.572   1.542  0.00  0.00    -0.004 A 
ATOM      5  C6  UNL d   1       0.019  -0.971   0.406  0.00  0.00    -0.075 A 
ATOM      6  C7  UNL d   1      -0.283  -0.382  -0.940  0.00  0.00     0.076 C 
ATOM      7  C8  UNL d   1       1.033  -1.929   0.538  0.00  0.00     0.001 A 
ENDROOT
BRANCH   1   8
ATOM      8  C1  UNL d   1       2.429  -3.522   1.914  0.00  0.00     0.053 C 
ATOM      9  C   UNL d   1       2.094  -4.795   1.153  0.00  0.00     0.018 C 
ENDBRANCH   1   8
TORSDOF 1
ENDMDL
