MODEL 1
REMARK minimizedAffinity 3.5153141
REMARK minimizedRMSD -1
REMARK  1 active torsions:
REMARK  status: ('A' for Active; 'I' for Inactive)
REMARK    1  A    between atoms: C1_2  and  C2_3 
ROOT
ATOM      1  C2  UNL d   1       0.944  -0.278   0.024  0.00  0.00    -0.073 A 
ATOM      2  C3  UNL d   1       1.430  -1.547   0.359  0.00  0.00    -0.002 A 
ATOM      3  C4  UNL d   1       0.760  -2.333   1.298  0.00  0.00     0.004 A 
ATOM      4  C5  UNL d   1      -0.404  -1.862   1.906  0.00  0.00    -0.004 A 
ATOM      5  C6  UNL d   1      -0.911  -0.601   1.576  0.00  0.00    -0.075 A 
ATOM      6  C7  UNL d   1      -2.160  -0.079   2.222  0.00  0.00     0.076 C 
ATOM      7  C8  UNL d   1      -0.231   0.183   0.634  0.00  0.00     0.001 A 
ENDROOT
BRANCH   1   8
ATOM      8  C1  UNL d   1       1.661   0.571  -0.994  0.00  0.00     0.053 C 
ATOM      9  C   UNL d   1       3.048   0.978  -0.522  0.00  0.00     0.018 C 
ENDBRANCH   1   8
TORSDOF 1
ENDMDL
