MODEL 1
REMARK minimizedAffinity -5.96489811
REMARK minimizedRMSD -1
REMARK  0 active torsions:
REMARK  status: ('A' for Active; 'I' for Inactive)
ROOT
ATOM      1  N1  IND d   1      -0.636   1.007   1.155  0.00  0.00    -0.196 N 
ATOM      2  C2  IND d   1       0.517   0.667   0.505  0.00  0.00     0.054 A 
ATOM      3  C3  IND d   1       0.571  -0.670   0.311  0.00  0.00    -0.031 A 
ATOM      4  C4  IND d   1      -1.169  -2.478   0.891  0.00  0.00     0.051 A 
ATOM      5  C5  IND d   1      -2.366  -2.657   1.526  0.00  0.00    -0.031 A 
ATOM      6  C6  IND d   1      -3.063  -1.602   2.079  0.00  0.00     0.015 A 
ATOM      7  C7  IND d   1      -2.592  -0.321   2.007  0.00  0.00    -0.016 A 
ATOM      8  C8  IND d   1      -1.373  -0.137   1.369  0.00  0.00    -0.047 A 
ATOM      9  C9  IND d   1      -0.641  -1.209   0.843  0.00  0.00    -0.096 A 
ATOM     10  HN1 IND d   1      -0.863   1.802   1.392  0.00  0.00     0.298 HD
ENDROOT
TORSDOF 0
ENDMDL
