MODEL 1
REMARK minimizedAffinity -2.8521049
REMARK minimizedRMSD -1
REMARK  0 active torsions:
REMARK  status: ('A' for Active; 'I' for Inactive)
ROOT
ATOM      1  N1  IND d   1      -2.715   0.418   1.801  0.00  0.00    -0.196 N 
ATOM      2  C2  IND d   1      -3.209  -0.154   2.941  0.00  0.00     0.054 A 
ATOM      3  C3  IND d   1      -2.533  -1.288   3.229  0.00  0.00    -0.031 A 
ATOM      4  C4  IND d   1      -0.515  -2.340   2.026  0.00  0.00     0.051 A 
ATOM      5  C5  IND d   1       0.270  -2.201   0.916  0.00  0.00    -0.031 A 
ATOM      6  C6  IND d   1       0.099  -1.159   0.028  0.00  0.00     0.015 A 
ATOM      7  C7  IND d   1      -0.862  -0.207   0.224  0.00  0.00    -0.016 A 
ATOM      8  C8  IND d   1      -1.665  -0.349   1.346  0.00  0.00    -0.047 A 
ATOM      9  C9  IND d   1      -1.523  -1.428   2.228  0.00  0.00    -0.096 A 
ATOM     10  HN1 IND d   1      -3.011   1.135   1.431  0.00  0.00     0.298 HD
ENDROOT
TORSDOF 0
ENDMDL
