MODEL 1
REMARK minimizedAffinity -4.60482597
REMARK minimizedRMSD -1
REMARK  0 active torsions:
REMARK  status: ('A' for Active; 'I' for Inactive)
ROOT
ATOM      1  N1  IND d   1      -0.417   0.745   0.194  0.00  0.00    -0.196 N 
ATOM      2  C2  IND d   1       0.791   0.213  -0.163  0.00  0.00     0.054 A 
ATOM      3  C3  IND d   1       0.896  -1.058   0.286  0.00  0.00    -0.031 A 
ATOM      4  C4  IND d   1      -0.831  -2.498   1.539  0.00  0.00     0.051 A 
ATOM      5  C5  IND d   1      -2.067  -2.437   2.120  0.00  0.00    -0.031 A 
ATOM      6  C6  IND d   1      -2.832  -1.289   2.085  0.00  0.00     0.015 A 
ATOM      7  C7  IND d   1      -2.393  -0.159   1.456  0.00  0.00    -0.016 A 
ATOM      8  C8  IND d   1      -1.136  -0.216   0.871  0.00  0.00    -0.047 A 
ATOM      9  C9  IND d   1      -0.337  -1.364   0.940  0.00  0.00    -0.096 A 
ATOM     10  HN1 IND d   1      -0.683   1.545   0.025  0.00  0.00     0.298 HD
ENDROOT
TORSDOF 0
ENDMDL
