MODEL 1
REMARK minimizedAffinity -5.738626
REMARK minimizedRMSD -1
REMARK  0 active torsions:
REMARK  status: ('A' for Active; 'I' for Inactive)
ROOT
ATOM      1  N1  IND d   1      -1.171   1.643   1.107  0.00  0.00    -0.196 N 
ATOM      2  C2  IND d   1      -0.103   1.914   0.299  0.00  0.00     0.054 A 
ATOM      3  C3  IND d   1       0.383   0.772  -0.237  0.00  0.00    -0.031 A 
ATOM      4  C4  IND d   1      -0.485  -1.641  -0.007  0.00  0.00     0.051 A 
ATOM      5  C5  IND d   1      -1.414  -2.393   0.655  0.00  0.00    -0.031 A 
ATOM      6  C6  IND d   1      -2.331  -1.826   1.517  0.00  0.00     0.015 A 
ATOM      7  C7  IND d   1      -2.359  -0.479   1.741  0.00  0.00    -0.016 A 
ATOM      8  C8  IND d   1      -1.412   0.287   1.076  0.00  0.00    -0.047 A 
ATOM      9  C9  IND d   1      -0.452  -0.288   0.233  0.00  0.00    -0.096 A 
ATOM     10  HN1 IND d   1      -1.618   2.222   1.559  0.00  0.00     0.298 HD
ENDROOT
TORSDOF 0
ENDMDL
