MODEL 1
REMARK minimizedAffinity -3.37518406
REMARK minimizedRMSD -1
REMARK  0 active torsions:
REMARK  status: ('A' for Active; 'I' for Inactive)
ROOT
ATOM      1  N1  IND d   1      -1.535   1.450   1.179  0.00  0.00    -0.196 N 
ATOM      2  C2  IND d   1      -0.485   1.939   0.454  0.00  0.00     0.054 A 
ATOM      3  C3  IND d   1       0.371   0.942   0.133  0.00  0.00    -0.031 A 
ATOM      4  C4  IND d   1       0.192  -1.582   0.607  0.00  0.00     0.051 A 
ATOM      5  C5  IND d   1      -0.571  -2.502   1.269  0.00  0.00    -0.031 A 
ATOM      6  C6  IND d   1      -1.719  -2.145   1.946  0.00  0.00     0.015 A 
ATOM      7  C7  IND d   1      -2.155  -0.851   1.977  0.00  0.00    -0.016 A 
ATOM      8  C8  IND d   1      -1.379   0.087   1.312  0.00  0.00    -0.047 A 
ATOM      9  C9  IND d   1      -0.190  -0.262   0.659  0.00  0.00    -0.096 A 
ATOM     10  HN1 IND d   1      -2.184   1.915   1.498  0.00  0.00     0.298 HD
ENDROOT
TORSDOF 0
ENDMDL
