MODEL 1
REMARK minimizedAffinity 0.902024329
REMARK minimizedRMSD -1
REMARK  0 active torsions:
REMARK  status: ('A' for Active; 'I' for Inactive)
ROOT
ATOM      1  N1  IND d   1      -1.043   0.965   0.564  0.00  0.00    -0.196 N 
ATOM      2  C2  IND d   1      -0.085   1.395  -0.311  0.00  0.00     0.054 A 
ATOM      3  C3  IND d   1       0.884   0.461  -0.444  0.00  0.00    -0.031 A 
ATOM      4  C4  IND d   1       1.047  -1.886   0.599  0.00  0.00     0.051 A 
ATOM      5  C5  IND d   1       0.428  -2.713   1.494  0.00  0.00    -0.031 A 
ATOM      6  C6  IND d   1      -0.739  -2.349   2.136  0.00  0.00     0.015 A 
ATOM      7  C7  IND d   1      -1.338  -1.145   1.897  0.00  0.00    -0.016 A 
ATOM      8  C8  IND d   1      -0.708  -0.300   0.994  0.00  0.00    -0.047 A 
ATOM      9  C9  IND d   1       0.499  -0.646   0.372  0.00  0.00    -0.096 A 
ATOM     10  HN1 IND d   1      -1.738   1.410   0.805  0.00  0.00     0.298 HD
ENDROOT
TORSDOF 0
ENDMDL
