MODEL 1
REMARK minimizedAffinity -4.98048258
REMARK minimizedRMSD -1
REMARK  0 active torsions:
REMARK  status: ('A' for Active; 'I' for Inactive)
ROOT
ATOM      1  N1  IND d   1       0.987  -0.632   0.740  0.00  0.00    -0.196 N 
ATOM      2  C2  IND d   1       0.766   0.474  -0.033  0.00  0.00     0.054 A 
ATOM      3  C3  IND d   1      -0.560   0.677  -0.196  0.00  0.00    -0.031 A 
ATOM      4  C4  IND d   1      -2.548  -0.620   0.800  0.00  0.00     0.051 A 
ATOM      5  C5  IND d   1      -2.848  -1.729   1.540  0.00  0.00    -0.031 A 
ATOM      6  C6  IND d   1      -1.865  -2.544   2.064  0.00  0.00     0.015 A 
ATOM      7  C7  IND d   1      -0.540  -2.272   1.877  0.00  0.00    -0.016 A 
ATOM      8  C8  IND d   1      -0.231  -1.151   1.120  0.00  0.00    -0.047 A 
ATOM      9  C9  IND d   1      -1.225  -0.344   0.550  0.00  0.00    -0.096 A 
ATOM     10  HN1 IND d   1       1.757  -0.949   0.953  0.00  0.00     0.298 HD
ENDROOT
TORSDOF 0
ENDMDL
