MODEL 1
REMARK minimizedAffinity -4.22984123
REMARK minimizedRMSD -1
REMARK  0 active torsions:
REMARK  status: ('A' for Active; 'I' for Inactive)
ROOT
ATOM      1  N1  IND d   1      -1.454   1.314   0.862  0.00  0.00    -0.196 N 
ATOM      2  C2  IND d   1      -0.513   2.156   0.340  0.00  0.00     0.054 A 
ATOM      3  C3  IND d   1       0.651   1.497   0.143  0.00  0.00    -0.031 A 
ATOM      4  C4  IND d   1       1.205  -0.990   0.512  0.00  0.00     0.051 A 
ATOM      5  C5  IND d   1       0.678  -2.148   1.010  0.00  0.00    -0.031 A 
ATOM      6  C6  IND d   1      -0.613  -2.214   1.492  0.00  0.00     0.015 A 
ATOM      7  C7  IND d   1      -1.433  -1.121   1.482  0.00  0.00    -0.016 A 
ATOM      8  C8  IND d   1      -0.899   0.058   0.984  0.00  0.00    -0.047 A 
ATOM      9  C9  IND d   1       0.424   0.142   0.533  0.00  0.00    -0.096 A 
ATOM     10  HN1 IND d   1      -2.257   1.531   1.079  0.00  0.00     0.298 HD
ENDROOT
TORSDOF 0
ENDMDL
