MODEL 1
REMARK minimizedAffinity -1.31576943
REMARK minimizedRMSD -1
REMARK  0 active torsions:
REMARK  status: ('A' for Active; 'I' for Inactive)
ROOT
ATOM      1  N1  IND d   1      -0.960   1.401   0.995  0.00  0.00    -0.196 N 
ATOM      2  C2  IND d   1      -0.130   1.967   0.068  0.00  0.00     0.054 A 
ATOM      3  C3  IND d   1       0.746   1.051  -0.401  0.00  0.00    -0.031 A 
ATOM      4  C4  IND d   1       0.932  -1.460   0.136  0.00  0.00     0.051 A 
ATOM      5  C5  IND d   1       0.415  -2.428   0.950  0.00  0.00    -0.031 A 
ATOM      6  C6  IND d   1      -0.609  -2.165   1.837  0.00  0.00     0.015 A 
ATOM      7  C7  IND d   1      -1.165  -0.921   1.935  0.00  0.00    -0.016 A 
ATOM      8  C8  IND d   1      -0.638   0.067   1.115  0.00  0.00    -0.047 A 
ATOM      9  C9  IND d   1       0.430  -0.184   0.243  0.00  0.00    -0.096 A 
ATOM     10  HN1 IND d   1      -1.579   1.809   1.430  0.00  0.00     0.298 HD
ENDROOT
TORSDOF 0
ENDMDL
