MODEL 1
REMARK minimizedAffinity -2.41729593
REMARK minimizedRMSD -1
REMARK  0 active torsions:
REMARK  status: ('A' for Active; 'I' for Inactive)
ROOT
ATOM      1  N1  IND d   1       0.570   0.009   0.835  0.00  0.00    -0.196 N 
ATOM      2  C2  IND d   1       1.371  -1.088   0.986  0.00  0.00     0.054 A 
ATOM      3  C3  IND d   1       0.626  -2.177   1.282  0.00  0.00    -0.031 A 
ATOM      4  C4  IND d   1      -1.931  -2.409   1.465  0.00  0.00     0.051 A 
ATOM      5  C5  IND d   1      -3.083  -1.675   1.444  0.00  0.00    -0.031 A 
ATOM      6  C6  IND d   1      -3.077  -0.315   1.211  0.00  0.00     0.015 A 
ATOM      7  C7  IND d   1      -1.914   0.363   0.979  0.00  0.00    -0.016 A 
ATOM      8  C8  IND d   1      -0.741  -0.378   1.006  0.00  0.00    -0.047 A 
ATOM      9  C9  IND d   1      -0.737  -1.751   1.284  0.00  0.00    -0.096 A 
ATOM     10  HN1 IND d   1       0.839   0.807   0.661  0.00  0.00     0.298 HD
ENDROOT
TORSDOF 0
ENDMDL
