MODEL 1
REMARK minimizedAffinity -5.36453485
REMARK minimizedRMSD -1
REMARK  0 active torsions:
REMARK  status: ('A' for Active; 'I' for Inactive)
ROOT
ATOM      1  N1  IND d   1      -0.451   0.874   0.347  0.00  0.00    -0.196 N 
ATOM      2  C2  IND d   1       0.822   0.526  -0.009  0.00  0.00     0.054 A 
ATOM      3  C3  IND d   1       1.042  -0.782   0.249  0.00  0.00    -0.031 A 
ATOM      4  C4  IND d   1      -0.578  -2.564   1.160  0.00  0.00     0.051 A 
ATOM      5  C5  IND d   1      -1.840  -2.716   1.664  0.00  0.00    -0.031 A 
ATOM      6  C6  IND d   1      -2.721  -1.658   1.754  0.00  0.00     0.015 A 
ATOM      7  C7  IND d   1      -2.377  -0.406   1.331  0.00  0.00    -0.016 A 
ATOM      8  C8  IND d   1      -1.094  -0.246   0.825  0.00  0.00    -0.047 A 
ATOM      9  C9  IND d   1      -0.181  -1.307   0.771  0.00  0.00    -0.096 A 
ATOM     10  HN1 IND d   1      -0.792   1.661   0.283  0.00  0.00     0.298 HD
ENDROOT
TORSDOF 0
ENDMDL
