MODEL 1
REMARK minimizedAffinity -5.79393435
REMARK minimizedRMSD -1
REMARK  0 active torsions:
REMARK  status: ('A' for Active; 'I' for Inactive)
ROOT
ATOM      1  N1  IND d   1      -0.423   0.774   0.010  0.00  0.00    -0.196 N 
ATOM      2  C2  IND d   1       0.905   0.581   0.274  0.00  0.00     0.054 A 
ATOM      3  C3  IND d   1       1.079  -0.532   1.021  0.00  0.00    -0.031 A 
ATOM      4  C4  IND d   1      -0.662  -2.243   1.839  0.00  0.00     0.051 A 
ATOM      5  C5  IND d   1      -2.008  -2.475   1.879  0.00  0.00    -0.031 A 
ATOM      6  C6  IND d   1      -2.913  -1.620   1.283  0.00  0.00     0.015 A 
ATOM      7  C7  IND d   1      -2.502  -0.502   0.613  0.00  0.00    -0.016 A 
ATOM      8  C8  IND d   1      -1.136  -0.260   0.577  0.00  0.00    -0.047 A 
ATOM      9  C9  IND d   1      -0.216  -1.101   1.216  0.00  0.00    -0.096 A 
ATOM     10  HN1 IND d   1      -0.756   1.430  -0.434  0.00  0.00     0.298 HD
ENDROOT
TORSDOF 0
ENDMDL
