MODEL 1
REMARK minimizedAffinity -5.54803658
REMARK minimizedRMSD -1
REMARK  0 active torsions:
REMARK  status: ('A' for Active; 'I' for Inactive)
ROOT
ATOM      1  N1  IND d   1      -0.954   1.105   0.488  0.00  0.00    -0.196 N 
ATOM      2  C2  IND d   1       0.009   0.654  -0.372  0.00  0.00     0.054 A 
ATOM      3  C3  IND d   1       0.016  -0.698  -0.402  0.00  0.00    -0.031 A 
ATOM      4  C4  IND d   1      -1.529  -2.370   0.799  0.00  0.00     0.051 A 
ATOM      5  C5  IND d   1      -2.538  -2.435   1.719  0.00  0.00    -0.031 A 
ATOM      6  C6  IND d   1      -3.083  -1.301   2.285  0.00  0.00     0.015 A 
ATOM      7  C7  IND d   1      -2.645  -0.053   1.942  0.00  0.00    -0.016 A 
ATOM      8  C8  IND d   1      -1.616   0.017   1.014  0.00  0.00    -0.047 A 
ATOM      9  C9  IND d   1      -1.031  -1.132   0.467  0.00  0.00    -0.096 A 
ATOM     10  HN1 IND d   1      -1.118   1.929   0.670  0.00  0.00     0.298 HD
ENDROOT
TORSDOF 0
ENDMDL
