MODEL 1
REMARK minimizedAffinity 7.26286411
REMARK minimizedRMSD -1
REMARK  0 active torsions:
REMARK  status: ('A' for Active; 'I' for Inactive)
ROOT
ATOM      1  N1  IND d   1      -0.654   0.257   0.005  0.00  0.00    -0.196 N 
ATOM      2  C2  IND d   1       0.359  -0.421   0.624  0.00  0.00     0.054 A 
ATOM      3  C3  IND d   1       1.518  -0.255  -0.052  0.00  0.00    -0.031 A 
ATOM      4  C4  IND d   1       2.003   1.171  -2.140  0.00  0.00     0.051 A 
ATOM      5  C5  IND d   1       1.386   1.943  -3.084  0.00  0.00    -0.031 A 
ATOM      6  C6  IND d   1       0.031   2.200  -3.045  0.00  0.00     0.015 A 
ATOM      7  C7  IND d   1      -0.760   1.701  -2.048  0.00  0.00    -0.016 A 
ATOM      8  C8  IND d   1      -0.138   0.911  -1.092  0.00  0.00    -0.047 A 
ATOM      9  C9  IND d   1       1.229   0.612  -1.151  0.00  0.00    -0.096 A 
ATOM     10  HN1 IND d   1      -1.476   0.272   0.259  0.00  0.00     0.298 HD
ENDROOT
TORSDOF 0
ENDMDL
