MODEL 1
REMARK minimizedAffinity -0.680968344
REMARK minimizedRMSD -1
REMARK  0 active torsions:
REMARK  status: ('A' for Active; 'I' for Inactive)
ROOT
ATOM      1  N1  IND d   1      -1.680   0.422   1.685  0.00  0.00    -0.196 N 
ATOM      2  C2  IND d   1      -1.264   1.601   1.132  0.00  0.00     0.054 A 
ATOM      3  C3  IND d   1      -0.038   1.456   0.581  0.00  0.00    -0.031 A 
ATOM      4  C4  IND d   1       1.426  -0.653   0.381  0.00  0.00     0.051 A 
ATOM      5  C5  IND d   1       1.486  -1.963   0.767  0.00  0.00    -0.031 A 
ATOM      6  C6  IND d   1       0.473  -2.557   1.491  0.00  0.00     0.015 A 
ATOM      7  C7  IND d   1      -0.649  -1.864   1.848  0.00  0.00    -0.016 A 
ATOM      8  C8  IND d   1      -0.711  -0.532   1.463  0.00  0.00    -0.047 A 
ATOM      9  C9  IND d   1       0.333   0.088   0.765  0.00  0.00    -0.096 A 
ATOM     10  HN1 IND d   1      -2.422   0.298   2.101  0.00  0.00     0.298 HD
ENDROOT
TORSDOF 0
ENDMDL
