MODEL 1
REMARK minimizedAffinity -6.83134317
REMARK minimizedRMSD -1
REMARK  0 active torsions:
REMARK  status: ('A' for Active; 'I' for Inactive)
ROOT
ATOM      1  N1  IND d   1      -2.657   0.449   2.056  0.00  0.00    -0.196 N 
ATOM      2  C2  IND d   1      -3.277  -0.606   2.665  0.00  0.00     0.054 A 
ATOM      3  C3  IND d   1      -2.668  -1.766   2.332  0.00  0.00    -0.031 A 
ATOM      4  C4  IND d   1      -0.575  -2.157   0.885  0.00  0.00     0.051 A 
ATOM      5  C5  IND d   1       0.318  -1.503   0.084  0.00  0.00    -0.031 A 
ATOM      6  C6  IND d   1       0.266  -0.136  -0.102  0.00  0.00     0.015 A 
ATOM      7  C7  IND d   1      -0.678   0.631   0.518  0.00  0.00    -0.016 A 
ATOM      8  C8  IND d   1      -1.592  -0.031   1.326  0.00  0.00    -0.047 A 
ATOM      9  C9  IND d   1      -1.570  -1.422   1.485  0.00  0.00    -0.096 A 
ATOM     10  HN1 IND d   1      -2.893   1.274   2.119  0.00  0.00     0.298 HD
ENDROOT
TORSDOF 0
ENDMDL
