MODEL 1
REMARK minimizedAffinity -1.93590701
REMARK minimizedRMSD -1
REMARK  0 active torsions:
REMARK  status: ('A' for Active; 'I' for Inactive)
ROOT
ATOM      1  O1  BZF d   1       1.333  -0.270   0.535  0.00  0.00    -0.204 OA
ATOM      2  C2  BZF d   1       1.491   0.292  -0.717  0.00  0.00     0.174 A 
ATOM      3  C3  BZF d   1       0.294   0.494  -1.305  0.00  0.00    -0.012 A 
ATOM      4  C3A BZF d   1      -0.676   0.114  -0.324  0.00  0.00    -0.107 A 
ATOM      5  C4  BZF d   1      -2.041   0.105  -0.308  0.00  0.00     0.055 A 
ATOM      6  C5  BZF d   1      -2.686  -0.395   0.779  0.00  0.00    -0.016 A 
ATOM      7  C6  BZF d   1      -1.997  -0.897   1.864  0.00  0.00     0.022 A 
ATOM      8  C7  BZF d   1      -0.643  -0.904   1.897  0.00  0.00     0.029 A 
ATOM      9  C7A BZF d   1       0.011  -0.369   0.814  0.00  0.00     0.058 A 
ENDROOT
TORSDOF 0
ENDMDL
