MODEL 1
REMARK minimizedAffinity -2.7823112
REMARK minimizedRMSD -1
REMARK  0 active torsions:
REMARK  status: ('A' for Active; 'I' for Inactive)
ROOT
ATOM      1  O1  BZF d   1       1.051   0.418   0.721  0.00  0.00    -0.204 OA
ATOM      2  C2  BZF d   1       1.747   0.836  -0.397  0.00  0.00     0.174 A 
ATOM      3  C3  BZF d   1       1.051   0.570  -1.521  0.00  0.00    -0.012 A 
ATOM      4  C3A BZF d   1      -0.196   0.031  -1.073  0.00  0.00    -0.107 A 
ATOM      5  C4  BZF d   1      -1.316  -0.409  -1.719  0.00  0.00     0.055 A 
ATOM      6  C5  BZF d   1      -2.331  -0.944  -0.992  0.00  0.00    -0.016 A 
ATOM      7  C6  BZF d   1      -2.259  -1.058   0.381  0.00  0.00     0.022 A 
ATOM      8  C7  BZF d   1      -1.172  -0.630   1.067  0.00  0.00     0.029 A 
ATOM      9  C7A BZF d   1      -0.157  -0.059   0.338  0.00  0.00     0.058 A 
ENDROOT
TORSDOF 0
ENDMDL
