MODEL 1
REMARK minimizedAffinity -2.84232187
REMARK minimizedRMSD -1
REMARK  0 active torsions:
REMARK  status: ('A' for Active; 'I' for Inactive)
ROOT
ATOM      1  O1  BZF d   1       0.408   0.359   1.160  0.00  0.00    -0.204 OA
ATOM      2  C2  BZF d   1       0.092  -0.127  -0.094  0.00  0.00     0.174 A 
ATOM      3  C3  BZF d   1       0.936   0.364  -1.024  0.00  0.00    -0.012 A 
ATOM      4  C3A BZF d   1       1.893   1.137  -0.294  0.00  0.00    -0.107 A 
ATOM      5  C4  BZF d   1       2.992   1.861  -0.660  0.00  0.00     0.055 A 
ATOM      6  C5  BZF d   1       3.669   2.558   0.290  0.00  0.00    -0.016 A 
ATOM      7  C6  BZF d   1       3.274   2.559   1.611  0.00  0.00     0.022 A 
ATOM      8  C7  BZF d   1       2.193   1.852   2.023  0.00  0.00     0.029 A 
ATOM      9  C7A BZF d   1       1.525   1.120   1.072  0.00  0.00     0.058 A 
ENDROOT
TORSDOF 0
ENDMDL
