MODEL 1
REMARK minimizedAffinity -3.95170832
REMARK minimizedRMSD -1
REMARK  0 active torsions:
REMARK  status: ('A' for Active; 'I' for Inactive)
ROOT
ATOM      1  O1  BZF d   1      -2.060  -0.324  -1.307  0.00  0.00    -0.204 OA
ATOM      2  C2  BZF d   1      -2.966  -0.525  -0.284  0.00  0.00     0.174 A 
ATOM      3  C3  BZF d   1      -2.351  -0.482   0.915  0.00  0.00    -0.012 A 
ATOM      4  C3A BZF d   1      -0.990  -0.146   0.628  0.00  0.00    -0.107 A 
ATOM      5  C4  BZF d   1       0.111   0.058   1.409  0.00  0.00     0.055 A 
ATOM      6  C5  BZF d   1       1.309   0.299   0.813  0.00  0.00    -0.016 A 
ATOM      7  C6  BZF d   1       1.441   0.338  -0.560  0.00  0.00     0.022 A 
ATOM      8  C7  BZF d   1       0.376   0.147  -1.376  0.00  0.00     0.029 A 
ATOM      9  C7A BZF d   1      -0.841  -0.065  -0.776  0.00  0.00     0.058 A 
ENDROOT
TORSDOF 0
ENDMDL
