MODEL 1
REMARK minimizedAffinity -4.25114012
REMARK minimizedRMSD -1
REMARK  0 active torsions:
REMARK  status: ('A' for Active; 'I' for Inactive)
ROOT
ATOM      1  O1  BZF d   1       0.561   0.289  -0.687  0.00  0.00    -0.204 OA
ATOM      2  C2  BZF d   1       1.668  -0.025   0.077  0.00  0.00     0.174 A 
ATOM      3  C3  BZF d   1       1.302  -0.642   1.219  0.00  0.00    -0.012 A 
ATOM      4  C3A BZF d   1      -0.117  -0.800   1.123  0.00  0.00    -0.107 A 
ATOM      5  C4  BZF d   1      -1.057  -1.358   1.942  0.00  0.00     0.055 A 
ATOM      6  C5  BZF d   1      -2.367  -1.284   1.589  0.00  0.00    -0.016 A 
ATOM      7  C6  BZF d   1      -2.773  -0.658   0.428  0.00  0.00     0.022 A 
ATOM      8  C7  BZF d   1      -1.876  -0.096  -0.418  0.00  0.00     0.029 A 
ATOM      9  C7A BZF d   1      -0.549  -0.197  -0.081  0.00  0.00     0.058 A 
ENDROOT
TORSDOF 0
ENDMDL
