MODEL 1
REMARK minimizedAffinity -1.92349792
REMARK minimizedRMSD -1
REMARK  0 active torsions:
REMARK  status: ('A' for Active; 'I' for Inactive)
ROOT
ATOM      1  O1  BZF d   1      -2.632  -1.059   0.831  0.00  0.00    -0.204 OA
ATOM      2  C2  BZF d   1      -3.382  -1.287  -0.307  0.00  0.00     0.174 A 
ATOM      3  C3  BZF d   1      -2.673  -0.988  -1.415  0.00  0.00    -0.012 A 
ATOM      4  C3A BZF d   1      -1.370  -0.633  -0.943  0.00  0.00    -0.107 A 
ATOM      5  C4  BZF d   1      -0.217  -0.253  -1.568  0.00  0.00     0.055 A 
ATOM      6  C5  BZF d   1       0.859   0.095  -0.814  0.00  0.00    -0.016 A 
ATOM      7  C6  BZF d   1       0.815   0.080   0.564  0.00  0.00     0.022 A 
ATOM      8  C7  BZF d   1      -0.305  -0.295   1.229  0.00  0.00     0.029 A 
ATOM      9  C7A BZF d   1      -1.383  -0.679   0.470  0.00  0.00     0.058 A 
ENDROOT
TORSDOF 0
ENDMDL
