MODEL 1
REMARK minimizedAffinity -3.13838792
REMARK minimizedRMSD -1
REMARK  0 active torsions:
REMARK  status: ('A' for Active; 'I' for Inactive)
ROOT
ATOM      1  O1  BZF d   1      -2.678  -0.607  -1.379  0.00  0.00    -0.204 OA
ATOM      2  C2  BZF d   1      -3.467  -1.058  -0.338  0.00  0.00     0.174 A 
ATOM      3  C3  BZF d   1      -2.732  -1.227   0.781  0.00  0.00    -0.012 A 
ATOM      4  C3A BZF d   1      -1.420  -0.770   0.441  0.00  0.00    -0.107 A 
ATOM      5  C4  BZF d   1      -0.250  -0.671   1.139  0.00  0.00     0.055 A 
ATOM      6  C5  BZF d   1       0.871  -0.253   0.495  0.00  0.00    -0.016 A 
ATOM      7  C6  BZF d   1       0.859   0.069  -0.847  0.00  0.00     0.022 A 
ATOM      8  C7  BZF d   1      -0.278  -0.008  -1.580  0.00  0.00     0.029 A 
ATOM      9  C7A BZF d   1      -1.419  -0.399  -0.923  0.00  0.00     0.058 A 
ENDROOT
TORSDOF 0
ENDMDL
