MODEL 1
REMARK minimizedAffinity -2.50956893
REMARK minimizedRMSD -1
REMARK  0 active torsions:
REMARK  status: ('A' for Active; 'I' for Inactive)
ROOT
ATOM      1  O1  BZF d   1      -2.096  -0.434   0.473  0.00  0.00    -0.204 OA
ATOM      2  C2  BZF d   1      -2.735  -0.130  -0.714  0.00  0.00     0.174 A 
ATOM      3  C3  BZF d   1      -1.857   0.345  -1.622  0.00  0.00    -0.012 A 
ATOM      4  C3A BZF d   1      -0.576   0.249  -0.992  0.00  0.00    -0.107 A 
ATOM      5  C4  BZF d   1       0.693   0.552  -1.395  0.00  0.00     0.055 A 
ATOM      6  C5  BZF d   1       1.718   0.410  -0.513  0.00  0.00    -0.016 A 
ATOM      7  C6  BZF d   1       1.509  -0.027   0.778  0.00  0.00     0.022 A 
ATOM      8  C7  BZF d   1       0.268  -0.345   1.222  0.00  0.00     0.029 A 
ATOM      9  C7A BZF d   1      -0.765  -0.234   0.324  0.00  0.00     0.058 A 
ENDROOT
TORSDOF 0
ENDMDL
