MODEL 1
REMARK minimizedAffinity -2.8763361
REMARK minimizedRMSD -1
REMARK  0 active torsions:
REMARK  status: ('A' for Active; 'I' for Inactive)
ROOT
ATOM      1  O1  BZF d   1       2.545  -0.596   0.999  0.00  0.00    -0.204 OA
ATOM      2  C2  BZF d   1       2.954   0.342   0.070  0.00  0.00     0.174 A 
ATOM      3  C3  BZF d   1       1.894   0.995  -0.449  0.00  0.00    -0.012 A 
ATOM      4  C3A BZF d   1       0.758   0.494   0.262  0.00  0.00    -0.107 A 
ATOM      5  C4  BZF d   1      -0.579   0.767   0.208  0.00  0.00     0.055 A 
ATOM      6  C5  BZF d   1      -1.432   0.050   0.986  0.00  0.00    -0.016 A 
ATOM      7  C6  BZF d   1      -0.984  -0.951   1.823  0.00  0.00     0.022 A 
ATOM      8  C7  BZF d   1       0.334  -1.255   1.914  0.00  0.00     0.029 A 
ATOM      9  C7A BZF d   1       1.202  -0.509   1.154  0.00  0.00     0.058 A 
ENDROOT
TORSDOF 0
ENDMDL
