MODEL 1
REMARK minimizedAffinity -3.97949219
REMARK minimizedRMSD -1
REMARK  0 active torsions:
REMARK  status: ('A' for Active; 'I' for Inactive)
ROOT
ATOM      1  O1  BZF d   1       0.933   0.096  -1.199  0.00  0.00    -0.204 OA
ATOM      2  C2  BZF d   1       1.853   0.019  -0.171  0.00  0.00     0.174 A 
ATOM      3  C3  BZF d   1       1.238  -0.228   1.004  0.00  0.00    -0.012 A 
ATOM      4  C3A BZF d   1      -0.144  -0.401   0.676  0.00  0.00    -0.107 A 
ATOM      5  C4  BZF d   1      -1.256  -0.685   1.417  0.00  0.00     0.055 A 
ATOM      6  C5  BZF d   1      -2.468  -0.714   0.803  0.00  0.00    -0.016 A 
ATOM      7  C6  BZF d   1      -2.605  -0.460  -0.546  0.00  0.00     0.022 A 
ATOM      8  C7  BZF d   1      -1.531  -0.179  -1.323  0.00  0.00     0.029 A 
ATOM      9  C7A BZF d   1      -0.300  -0.181  -0.712  0.00  0.00     0.058 A 
ENDROOT
TORSDOF 0
ENDMDL
