MODEL 1
REMARK minimizedAffinity 1.04719269
REMARK minimizedRMSD -1
REMARK  0 active torsions:
REMARK  status: ('A' for Active; 'I' for Inactive)
ROOT
ATOM      1  O1  BZF d   1      -5.967   5.999   1.869  0.00  0.00    -0.204 OA
ATOM      2  C2  BZF d   1      -4.973   5.903   0.914  0.00  0.00     0.174 A 
ATOM      3  C3  BZF d   1      -3.759   5.814   1.494  0.00  0.00    -0.012 A 
ATOM      4  C3A BZF d   1      -4.017   5.763   2.900  0.00  0.00    -0.107 A 
ATOM      5  C4  BZF d   1      -3.213   5.657   3.999  0.00  0.00     0.055 A 
ATOM      6  C5  BZF d   1      -3.774   5.710   5.236  0.00  0.00    -0.016 A 
ATOM      7  C6  BZF d   1      -5.132   5.874   5.410  0.00  0.00     0.022 A 
ATOM      8  C7  BZF d   1      -5.971   5.979   4.351  0.00  0.00     0.029 A 
ATOM      9  C7A BZF d   1      -5.411   5.892   3.099  0.00  0.00     0.058 A 
ENDROOT
TORSDOF 0
ENDMDL
