MODEL 1
REMARK minimizedAffinity -5.17339611
REMARK minimizedRMSD -1
REMARK  0 active torsions:
REMARK  status: ('A' for Active; 'I' for Inactive)
ROOT
ATOM      1  O1  BZF d   1       4.407   4.667  -1.176  0.00  0.00    -0.204 OA
ATOM      2  C2  BZF d   1       4.666   4.082  -2.400  0.00  0.00     0.174 A 
ATOM      3  C3  BZF d   1       4.118   2.852  -2.468  0.00  0.00    -0.012 A 
ATOM      4  C3A BZF d   1       3.399   2.692  -1.242  0.00  0.00    -0.107 A 
ATOM      5  C4  BZF d   1       2.634   1.685  -0.727  0.00  0.00     0.055 A 
ATOM      6  C5  BZF d   1       2.132   1.813   0.530  0.00  0.00    -0.016 A 
ATOM      7  C6  BZF d   1       2.381   2.930   1.300  0.00  0.00     0.022 A 
ATOM      8  C7  BZF d   1       3.130   3.957   0.831  0.00  0.00     0.029 A 
ATOM      9  C7A BZF d   1       3.611   3.845  -0.451  0.00  0.00     0.058 A 
ENDROOT
TORSDOF 0
ENDMDL
