MODEL 1
REMARK minimizedAffinity -2.63073516
REMARK minimizedRMSD -1
REMARK  0 active torsions:
REMARK  status: ('A' for Active; 'I' for Inactive)
ROOT
ATOM      1  O1  BZF d   1       1.308   0.358  -1.116  0.00  0.00    -0.204 OA
ATOM      2  C2  BZF d   1       2.141   0.131  -0.038  0.00  0.00     0.174 A 
ATOM      3  C3  BZF d   1       1.433  -0.266   1.039  0.00  0.00    -0.012 A 
ATOM      4  C3A BZF d   1       0.082  -0.378   0.581  0.00  0.00    -0.107 A 
ATOM      5  C4  BZF d   1      -1.086  -0.748   1.184  0.00  0.00     0.055 A 
ATOM      6  C5  BZF d   1      -2.245  -0.680   0.476  0.00  0.00    -0.016 A 
ATOM      7  C6  BZF d   1      -2.272  -0.243  -0.832  0.00  0.00     0.022 A 
ATOM      8  C7  BZF d   1      -1.138   0.129  -1.474  0.00  0.00     0.029 A 
ATOM      9  C7A BZF d   1       0.039   0.030  -0.772  0.00  0.00     0.058 A 
ENDROOT
TORSDOF 0
ENDMDL
