MODEL 1
REMARK minimizedAffinity -3.97446084
REMARK minimizedRMSD -1
REMARK  0 active torsions:
REMARK  status: ('A' for Active; 'I' for Inactive)
ROOT
ATOM      1  O1  BZF d   1      -2.307  -0.373  -1.728  0.00  0.00    -0.204 OA
ATOM      2  C2  BZF d   1      -3.316  -0.368  -0.785  0.00  0.00     0.174 A 
ATOM      3  C3  BZF d   1      -2.805  -0.317   0.462  0.00  0.00    -0.012 A 
ATOM      4  C3A BZF d   1      -1.391  -0.196   0.285  0.00  0.00    -0.107 A 
ATOM      5  C4  BZF d   1      -0.342  -0.086   1.153  0.00  0.00     0.055 A 
ATOM      6  C5  BZF d   1       0.924  -0.059   0.659  0.00  0.00    -0.016 A 
ATOM      7  C6  BZF d   1       1.177  -0.144  -0.695  0.00  0.00     0.022 A 
ATOM      8  C7  BZF d   1       0.169  -0.249  -1.594  0.00  0.00     0.029 A 
ATOM      9  C7A BZF d   1      -1.113  -0.244  -1.101  0.00  0.00     0.058 A 
ENDROOT
TORSDOF 0
ENDMDL
