MODEL 1
REMARK minimizedAffinity -4.67004538
REMARK minimizedRMSD -1
REMARK  0 active torsions:
REMARK  status: ('A' for Active; 'I' for Inactive)
ROOT
ATOM      1  O1  BZF d   1      -1.453  -1.444   1.541  0.00  0.00    -0.204 OA
ATOM      2  C2  BZF d   1      -2.667  -1.300   0.897  0.00  0.00     0.174 A 
ATOM      3  C3  BZF d   1      -2.526  -0.574  -0.231  0.00  0.00    -0.012 A 
ATOM      4  C3A BZF d   1      -1.122  -0.322  -0.344  0.00  0.00    -0.107 A 
ATOM      5  C4  BZF d   1      -0.358   0.336  -1.264  0.00  0.00     0.055 A 
ATOM      6  C5  BZF d   1       0.977   0.464  -1.043  0.00  0.00    -0.016 A 
ATOM      7  C6  BZF d   1       1.579  -0.048   0.088  0.00  0.00     0.022 A 
ATOM      8  C7  BZF d   1       0.862  -0.714   1.026  0.00  0.00     0.029 A 
ATOM      9  C7A BZF d   1      -0.481  -0.874   0.790  0.00  0.00     0.058 A 
ENDROOT
TORSDOF 0
ENDMDL
