MODEL 1
REMARK minimizedAffinity 4.92187595
REMARK minimizedRMSD -1
REMARK  1 active torsions:
REMARK  status: ('A' for Active; 'I' for Inactive)
REMARK    1  A    between atoms: C1_2  and  C2_3 
ROOT
ATOM      1  C2  UNL d   1      -0.312   1.955   1.780  0.00  0.00    -0.076 A 
ATOM      2  C3  UNL d   1      -0.835   2.118   3.075  0.00  0.00     0.004 A 
ATOM      3  C4  UNL d   1      -0.398   3.153   3.900  0.00  0.00    -0.003 A 
ATOM      4  C5  UNL d   1       0.568   4.043   3.442  0.00  0.00     0.000 A 
ATOM      5  C6  UNL d   1       1.084   3.907   2.154  0.00  0.00     0.000 A 
ATOM      6  C7  UNL d   1       0.643   2.878   1.304  0.00  0.00    -0.073 A 
ATOM      7  C8  UNL d   1       1.238   2.775  -0.073  0.00  0.00     0.078 C 
ENDROOT
BRANCH   1   8
ATOM      8  C1  UNL d   1      -0.804   0.797   0.941  0.00  0.00     0.053 C 
ATOM      9  C   UNL d   1      -1.866   1.216  -0.064  0.00  0.00     0.018 C 
ENDBRANCH   1   8
TORSDOF 1
ENDMDL
