MODEL 1
REMARK minimizedAffinity 14.3870087
REMARK minimizedRMSD -1
REMARK  1 active torsions:
REMARK  status: ('A' for Active; 'I' for Inactive)
REMARK    1  A    between atoms: C1_2  and  C2_3 
ROOT
ATOM      1  C2  UNL d   1      -0.984   2.555   3.294  0.00  0.00    -0.076 A 
ATOM      2  C3  UNL d   1      -2.296   2.214   3.666  0.00  0.00     0.004 A 
ATOM      3  C4  UNL d   1      -2.845   2.671   4.863  0.00  0.00    -0.003 A 
ATOM      4  C5  UNL d   1      -2.090   3.477   5.708  0.00  0.00     0.000 A 
ATOM      5  C6  UNL d   1      -0.793   3.840   5.346  0.00  0.00     0.000 A 
ATOM      6  C7  UNL d   1      -0.231   3.402   4.135  0.00  0.00    -0.073 A 
ATOM      7  C8  UNL d   1       1.174   3.819   3.799  0.00  0.00     0.078 C 
ENDROOT
BRANCH   1   8
ATOM      8  C1  UNL d   1      -0.433   2.007   1.997  0.00  0.00     0.053 C 
ATOM      9  C   UNL d   1      -0.796   0.546   1.781  0.00  0.00     0.018 C 
ENDBRANCH   1   8
TORSDOF 1
ENDMDL
