MODEL 1
REMARK minimizedAffinity 6.83108187
REMARK minimizedRMSD -1
REMARK  1 active torsions:
REMARK  status: ('A' for Active; 'I' for Inactive)
REMARK    1  A    between atoms: C1_2  and  C2_3 
ROOT
ATOM      1  C2  UNL d   1       2.255  -2.252  -2.127  0.00  0.00    -0.076 A 
ATOM      2  C3  UNL d   1       2.418  -1.184  -1.228  0.00  0.00     0.004 A 
ATOM      3  C4  UNL d   1       3.442  -0.255  -1.396  0.00  0.00    -0.003 A 
ATOM      4  C5  UNL d   1       4.321  -0.378  -2.467  0.00  0.00     0.000 A 
ATOM      5  C6  UNL d   1       4.163  -1.421  -3.379  0.00  0.00     0.000 A 
ATOM      6  C7  UNL d   1       3.125  -2.357  -3.233  0.00  0.00    -0.073 A 
ATOM      7  C8  UNL d   1       3.006  -3.466  -4.242  0.00  0.00     0.078 C 
ENDROOT
BRANCH   1   8
ATOM      8  C1  UNL d   1       1.142  -3.245  -1.878  0.00  0.00     0.053 C 
ATOM      9  C   UNL d   1      -0.111  -2.588  -1.319  0.00  0.00     0.018 C 
ENDBRANCH   1   8
TORSDOF 1
ENDMDL
