MODEL 1
REMARK minimizedAffinity -2.28871393
REMARK minimizedRMSD -1
REMARK  1 active torsions:
REMARK  status: ('A' for Active; 'I' for Inactive)
REMARK    1  A    between atoms: C1_2  and  C2_3 
ROOT
ATOM      1  C2  UNL d   1       0.137   3.184   1.995  0.00  0.00    -0.076 A 
ATOM      2  C3  UNL d   1       1.162   3.995   2.512  0.00  0.00     0.004 A 
ATOM      3  C4  UNL d   1       2.487   3.816   2.117  0.00  0.00    -0.003 A 
ATOM      4  C5  UNL d   1       2.808   2.822   1.199  0.00  0.00     0.000 A 
ATOM      5  C6  UNL d   1       1.801   2.020   0.662  0.00  0.00     0.000 A 
ATOM      6  C7  UNL d   1       0.459   2.199   1.037  0.00  0.00    -0.073 A 
ATOM      7  C8  UNL d   1      -0.586   1.301   0.432  0.00  0.00     0.078 C 
ENDROOT
BRANCH   1   8
ATOM      8  C1  UNL d   1      -1.277   3.407   2.481  0.00  0.00     0.053 C 
ATOM      9  C   UNL d   1      -1.336   3.776   3.955  0.00  0.00     0.018 C 
ENDBRANCH   1   8
TORSDOF 1
ENDMDL
