MODEL 1
REMARK minimizedAffinity -3.22791123
REMARK minimizedRMSD -1
REMARK  1 active torsions:
REMARK  status: ('A' for Active; 'I' for Inactive)
REMARK    1  A    between atoms: C1_2  and  C2_3 
ROOT
ATOM      1  C2  UNL d   1      -3.392  -0.017   1.907  0.00  0.00    -0.076 A 
ATOM      2  C3  UNL d   1      -4.513   0.827   1.822  0.00  0.00     0.004 A 
ATOM      3  C4  UNL d   1      -5.595   0.672   2.686  0.00  0.00    -0.003 A 
ATOM      4  C5  UNL d   1      -5.574  -0.329   3.651  0.00  0.00     0.000 A 
ATOM      5  C6  UNL d   1      -4.463  -1.165   3.761  0.00  0.00     0.000 A 
ATOM      6  C7  UNL d   1      -3.357  -1.012   2.907  0.00  0.00    -0.073 A 
ATOM      7  C8  UNL d   1      -2.188  -1.945   3.067  0.00  0.00     0.078 C 
ENDROOT
BRANCH   1   8
ATOM      8  C1  UNL d   1      -2.260   0.181   0.924  0.00  0.00     0.053 C 
ATOM      9  C   UNL d   1      -1.684   1.587   0.975  0.00  0.00     0.018 C 
ENDBRANCH   1   8
TORSDOF 1
ENDMDL
