MODEL 1
REMARK minimizedAffinity -3.96150517
REMARK minimizedRMSD -1
REMARK  1 active torsions:
REMARK  status: ('A' for Active; 'I' for Inactive)
REMARK    1  A    between atoms: C1_2  and  C2_3 
ROOT
ATOM      1  C2  UNL d   1       3.699   3.976  -5.041  0.00  0.00    -0.076 A 
ATOM      2  C3  UNL d   1       2.988   3.192  -4.115  0.00  0.00     0.004 A 
ATOM      3  C4  UNL d   1       3.654   2.351  -3.226  0.00  0.00    -0.003 A 
ATOM      4  C5  UNL d   1       5.042   2.281  -3.246  0.00  0.00     0.000 A 
ATOM      5  C6  UNL d   1       5.765   3.064  -4.145  0.00  0.00     0.000 A 
ATOM      6  C7  UNL d   1       5.110   3.930  -5.038  0.00  0.00    -0.073 A 
ATOM      7  C8  UNL d   1       5.939   4.747  -5.990  0.00  0.00     0.078 C 
ENDROOT
BRANCH   1   8
ATOM      8  C1  UNL d   1       2.922   4.849  -6.000  0.00  0.00     0.053 C 
ATOM      9  C   UNL d   1       1.427   4.572  -5.958  0.00  0.00     0.018 C 
ENDBRANCH   1   8
TORSDOF 1
ENDMDL
