MODEL 1
REMARK minimizedAffinity 1.35106909
REMARK minimizedRMSD -1
REMARK  1 active torsions:
REMARK  status: ('A' for Active; 'I' for Inactive)
REMARK    1  A    between atoms: C1_2  and  C2_3 
ROOT
ATOM      1  C2  UNL d   1      -2.080  -0.614   2.626  0.00  0.00    -0.076 A 
ATOM      2  C3  UNL d   1      -3.143   0.237   2.973  0.00  0.00     0.004 A 
ATOM      3  C4  UNL d   1      -3.926  -0.014   4.098  0.00  0.00    -0.003 A 
ATOM      4  C5  UNL d   1      -3.658  -1.121   4.896  0.00  0.00     0.000 A 
ATOM      5  C6  UNL d   1      -2.596  -1.966   4.577  0.00  0.00     0.000 A 
ATOM      6  C7  UNL d   1      -1.786  -1.718   3.455  0.00  0.00    -0.073 A 
ATOM      7  C8  UNL d   1      -0.658  -2.666   3.155  0.00  0.00     0.078 C 
ENDROOT
BRANCH   1   8
ATOM      8  C1  UNL d   1      -1.282  -0.306   1.379  0.00  0.00     0.053 C 
ATOM      9  C   UNL d   1      -1.674   1.022   0.750  0.00  0.00     0.018 C 
ENDBRANCH   1   8
TORSDOF 1
ENDMDL
