MODEL 1
REMARK minimizedAffinity 2.50033665
REMARK minimizedRMSD -1
REMARK  1 active torsions:
REMARK  status: ('A' for Active; 'I' for Inactive)
REMARK    1  A    between atoms: C1_2  and  C2_3 
ROOT
ATOM      1  C2  UNL d   1       4.617   2.597  -3.537  0.00  0.00    -0.076 A 
ATOM      2  C3  UNL d   1       3.366   2.300  -2.971  0.00  0.00     0.004 A 
ATOM      3  C4  UNL d   1       2.206   2.320  -3.743  0.00  0.00    -0.003 A 
ATOM      4  C5  UNL d   1       2.279   2.637  -5.095  0.00  0.00     0.000 A 
ATOM      5  C6  UNL d   1       3.514   2.918  -5.677  0.00  0.00     0.000 A 
ATOM      6  C7  UNL d   1       4.695   2.886  -4.916  0.00  0.00    -0.073 A 
ATOM      7  C8  UNL d   1       6.000   3.203  -5.594  0.00  0.00     0.078 C 
ENDROOT
BRANCH   1   8
ATOM      8  C1  UNL d   1       5.838   2.586  -2.644  0.00  0.00     0.053 C 
ATOM      9  C   UNL d   1       5.837   3.731  -1.642  0.00  0.00     0.018 C 
ENDBRANCH   1   8
TORSDOF 1
ENDMDL
