MODEL 1
REMARK minimizedAffinity 7.78530741
REMARK minimizedRMSD -1
REMARK  1 active torsions:
REMARK  status: ('A' for Active; 'I' for Inactive)
REMARK    1  A    between atoms: C1_2  and  C2_3 
ROOT
ATOM      1  C2  UNL d   1       3.566   2.049  -3.850  0.00  0.00    -0.076 A 
ATOM      2  C3  UNL d   1       4.823   2.008  -3.223  0.00  0.00     0.004 A 
ATOM      3  C4  UNL d   1       5.997   1.967  -3.972  0.00  0.00    -0.003 A 
ATOM      4  C5  UNL d   1       5.933   1.968  -5.361  0.00  0.00     0.000 A 
ATOM      5  C6  UNL d   1       4.695   2.027  -6.000  0.00  0.00     0.000 A 
ATOM      6  C7  UNL d   1       3.502   2.085  -5.259  0.00  0.00    -0.073 A 
ATOM      7  C8  UNL d   1       2.194   2.141  -6.000  0.00  0.00     0.078 C 
ENDROOT
BRANCH   1   8
ATOM      8  C1  UNL d   1       2.325   2.064  -2.985  0.00  0.00     0.053 C 
ATOM      9  C   UNL d   1       2.262   0.877  -2.036  0.00  0.00     0.018 C 
ENDBRANCH   1   8
TORSDOF 1
ENDMDL
