MODEL 1
REMARK minimizedAffinity 5.07217264
REMARK minimizedRMSD -1
REMARK  1 active torsions:
REMARK  status: ('A' for Active; 'I' for Inactive)
REMARK    1  A    between atoms: C1_2  and  C2_3 
ROOT
ATOM      1  C2  UNL d   1      -0.276   3.479   2.355  0.00  0.00    -0.076 A 
ATOM      2  C3  UNL d   1       1.046   3.278   1.921  0.00  0.00     0.004 A 
ATOM      3  C4  UNL d   1       2.126   3.578   2.749  0.00  0.00    -0.003 A 
ATOM      4  C5  UNL d   1       1.903   4.083   4.025  0.00  0.00     0.000 A 
ATOM      5  C6  UNL d   1       0.598   4.272   4.478  0.00  0.00     0.000 A 
ATOM      6  C7  UNL d   1      -0.503   3.960   3.662  0.00  0.00    -0.073 A 
ATOM      7  C8  UNL d   1      -1.889   4.190   4.200  0.00  0.00     0.078 C 
ENDROOT
BRANCH   1   8
ATOM      8  C1  UNL d   1      -1.407   3.162   1.403  0.00  0.00     0.053 C 
ATOM      9  C   UNL d   1      -1.571   1.668   1.170  0.00  0.00     0.018 C 
ENDBRANCH   1   8
TORSDOF 1
ENDMDL
