MODEL 1
REMARK minimizedAffinity 2.87894964
REMARK minimizedRMSD -1
REMARK  1 active torsions:
REMARK  status: ('A' for Active; 'I' for Inactive)
REMARK    1  A    between atoms: C1_2  and  C2_3 
ROOT
ATOM      1  C2  UNL d   1       4.365   2.740  -4.041  0.00  0.00    -0.076 A 
ATOM      2  C3  UNL d   1       4.485   3.432  -5.259  0.00  0.00     0.004 A 
ATOM      3  C4  UNL d   1       3.357   3.781  -6.000  0.00  0.00    -0.003 A 
ATOM      4  C5  UNL d   1       2.091   3.444  -5.535  0.00  0.00     0.000 A 
ATOM      5  C6  UNL d   1       1.952   2.773  -4.321  0.00  0.00     0.000 A 
ATOM      6  C7  UNL d   1       3.078   2.428  -3.553  0.00  0.00    -0.073 A 
ATOM      7  C8  UNL d   1       2.871   1.699  -2.254  0.00  0.00     0.078 C 
ENDROOT
BRANCH   1   8
ATOM      8  C1  UNL d   1       5.625   2.364  -3.295  0.00  0.00     0.053 C 
ATOM      9  C   UNL d   1       5.995   3.382  -2.227  0.00  0.00     0.018 C 
ENDBRANCH   1   8
TORSDOF 1
ENDMDL
