MODEL 1
REMARK minimizedAffinity 1.65218949
REMARK minimizedRMSD -1
REMARK  1 active torsions:
REMARK  status: ('A' for Active; 'I' for Inactive)
REMARK    1  A    between atoms: C1_2  and  C2_3 
ROOT
ATOM      1  C2  UNL d   1       0.111   2.588   2.121  0.00  0.00    -0.076 A 
ATOM      2  C3  UNL d   1      -1.235   2.319   1.815  0.00  0.00     0.004 A 
ATOM      3  C4  UNL d   1      -1.576   1.487   0.751  0.00  0.00    -0.003 A 
ATOM      4  C5  UNL d   1      -0.577   0.909  -0.025  0.00  0.00     0.000 A 
ATOM      5  C6  UNL d   1       0.763   1.149   0.276  0.00  0.00     0.000 A 
ATOM      6  C7  UNL d   1       1.124   1.973   1.356  0.00  0.00    -0.073 A 
ATOM      7  C8  UNL d   1       2.585   2.203   1.631  0.00  0.00     0.078 C 
ENDROOT
BRANCH   1   8
ATOM      8  C1  UNL d   1       0.420   3.520   3.271  0.00  0.00     0.053 C 
ATOM      9  C   UNL d   1      -0.675   4.552   3.495  0.00  0.00     0.018 C 
ENDBRANCH   1   8
TORSDOF 1
ENDMDL
