MODEL 1
REMARK minimizedAffinity 7.90594387
REMARK minimizedRMSD -1
REMARK  1 active torsions:
REMARK  status: ('A' for Active; 'I' for Inactive)
REMARK    1  A    between atoms: C1_2  and  C2_3 
ROOT
ATOM      1  C2  UNL d   1      -1.217  -3.562  -1.684  0.00  0.00    -0.076 A 
ATOM      2  C3  UNL d   1      -1.094  -2.733  -0.555  0.00  0.00     0.004 A 
ATOM      3  C4  UNL d   1       0.148  -2.235  -0.163  0.00  0.00    -0.003 A 
ATOM      4  C5  UNL d   1       1.286  -2.558  -0.893  0.00  0.00     0.000 A 
ATOM      5  C6  UNL d   1       1.180  -3.365  -2.026  0.00  0.00     0.000 A 
ATOM      6  C7  UNL d   1      -0.067  -3.861  -2.445  0.00  0.00    -0.073 A 
ATOM      7  C8  UNL d   1      -0.122  -4.732  -3.670  0.00  0.00     0.078 C 
ENDROOT
BRANCH   1   8
ATOM      8  C1  UNL d   1      -2.585  -4.094  -2.046  0.00  0.00     0.053 C 
ATOM      9  C   UNL d   1      -3.325  -4.663  -0.845  0.00  0.00     0.018 C 
ENDBRANCH   1   8
TORSDOF 1
ENDMDL
