MODEL 1
REMARK minimizedAffinity 3.27401829
REMARK minimizedRMSD -1
REMARK  3 active torsions:
REMARK  status: ('A' for Active; 'I' for Inactive)
REMARK    1  A    between atoms: C3'_2  and  C2'_3 
REMARK    2  A    between atoms: C2'_3  and  C1'_4 
REMARK    3  A    between atoms: C1'_4  and  C1_5 
ROOT
ATOM      1  C1  N4B d   1       5.682  -3.848   3.299  0.00  0.00    -0.075 A 
ATOM      2  C2  N4B d   1       5.832  -3.000   2.179  0.00  0.00     0.002 A 
ATOM      3  C3  N4B d   1       5.990  -1.648   2.357  0.00  0.00     0.002 A 
ATOM      4  C4  N4B d   1       5.981  -1.120   3.640  0.00  0.00    -0.004 A 
ATOM      5  C5  N4B d   1       5.861  -1.948   4.717  0.00  0.00     0.002 A 
ATOM      6  C6  N4B d   1       5.706  -3.309   4.553  0.00  0.00     0.002 A 
ENDROOT
BRANCH   1   7
ATOM      7  C1' N4B d   1       5.422  -5.322   3.150  0.00  0.00     0.057 C 
BRANCH   7   8
ATOM      8  C2' N4B d   1       5.541  -5.991   4.516  0.00  0.00     0.009 C 
BRANCH   8   9
ATOM      9  C3' N4B d   1       4.227  -5.966   5.278  0.00  0.00     0.004 C 
ATOM     10  C4' N4B d   1       3.062  -5.586   4.414  0.00  0.00     0.003 C 
ENDBRANCH   8   9
ENDBRANCH   7   8
ENDBRANCH   1   7
TORSDOF 3
ENDMDL
