MODEL 1
REMARK minimizedAffinity 0.738370657
REMARK minimizedRMSD -1
REMARK  3 active torsions:
REMARK  status: ('A' for Active; 'I' for Inactive)
REMARK    1  A    between atoms: C3'_2  and  C2'_3 
REMARK    2  A    between atoms: C2'_3  and  C1'_4 
REMARK    3  A    between atoms: C1'_4  and  C1_5 
ROOT
ATOM      1  C1  N4B d   1       5.918  -4.280   4.929  0.00  0.00    -0.075 A 
ATOM      2  C2  N4B d   1       5.949  -4.068   3.533  0.00  0.00     0.002 A 
ATOM      3  C3  N4B d   1       5.996  -2.789   3.033  0.00  0.00     0.002 A 
ATOM      4  C4  N4B d   1       5.994  -1.712   3.906  0.00  0.00    -0.004 A 
ATOM      5  C5  N4B d   1       5.989  -1.925   5.253  0.00  0.00     0.002 A 
ATOM      6  C6  N4B d   1       5.946  -3.205   5.770  0.00  0.00     0.002 A 
ENDROOT
BRANCH   1   7
ATOM      7  C1' N4B d   1       5.779  -5.656   5.520  0.00  0.00     0.057 C 
BRANCH   7   8
ATOM      8  C2' N4B d   1       4.341  -5.857   5.989  0.00  0.00     0.009 C 
BRANCH   8   9
ATOM      9  C3' N4B d   1       3.376  -5.981   4.823  0.00  0.00     0.004 C 
ATOM     10  C4' N4B d   1       3.130  -4.673   4.131  0.00  0.00     0.003 C 
ENDBRANCH   8   9
ENDBRANCH   7   8
ENDBRANCH   1   7
TORSDOF 3
ENDMDL
