MODEL 1
REMARK minimizedAffinity -1.93372488
REMARK minimizedRMSD -1
REMARK  3 active torsions:
REMARK  status: ('A' for Active; 'I' for Inactive)
REMARK    1  A    between atoms: C3'_2  and  C2'_3 
REMARK    2  A    between atoms: C2'_3  and  C1'_4 
REMARK    3  A    between atoms: C1'_4  and  C1_5 
ROOT
ATOM      1  C1  N4B d   1       5.692  -4.027   4.673  0.00  0.00    -0.075 A 
ATOM      2  C2  N4B d   1       5.752  -4.762   3.469  0.00  0.00     0.002 A 
ATOM      3  C3  N4B d   1       5.910  -4.107   2.272  0.00  0.00     0.002 A 
ATOM      4  C4  N4B d   1       5.991  -2.722   2.253  0.00  0.00    -0.004 A 
ATOM      5  C5  N4B d   1       5.958  -2.022   3.424  0.00  0.00     0.002 A 
ATOM      6  C6  N4B d   1       5.804  -2.667   4.634  0.00  0.00     0.002 A 
ENDROOT
BRANCH   1   7
ATOM      7  C1' N4B d   1       5.434  -4.692   5.998  0.00  0.00     0.057 C 
BRANCH   7   8
ATOM      8  C2' N4B d   1       4.451  -5.841   5.798  0.00  0.00     0.009 C 
BRANCH   8   9
ATOM      9  C3' N4B d   1       3.021  -5.348   5.660  0.00  0.00     0.004 C 
ATOM     10  C4' N4B d   1       2.873  -3.895   6.000  0.00  0.00     0.003 C 
ENDBRANCH   8   9
ENDBRANCH   7   8
ENDBRANCH   1   7
TORSDOF 3
ENDMDL
