MODEL 1
REMARK minimizedAffinity -2.1957624
REMARK minimizedRMSD -1
REMARK  3 active torsions:
REMARK  status: ('A' for Active; 'I' for Inactive)
REMARK    1  A    between atoms: C3'_2  and  C2'_3 
REMARK    2  A    between atoms: C2'_3  and  C1'_4 
REMARK    3  A    between atoms: C1'_4  and  C1_5 
ROOT
ATOM      1  C1  N4B d   1       5.992  -3.520   3.705  0.00  0.00    -0.075 A 
ATOM      2  C2  N4B d   1       5.997  -4.799   4.303  0.00  0.00     0.002 A 
ATOM      3  C3  N4B d   1       5.992  -5.925   3.516  0.00  0.00     0.002 A 
ATOM      4  C4  N4B d   1       5.964  -5.797   2.135  0.00  0.00    -0.004 A 
ATOM      5  C5  N4B d   1       5.986  -4.557   1.565  0.00  0.00     0.002 A 
ATOM      6  C6  N4B d   1       5.994  -3.417   2.344  0.00  0.00     0.002 A 
ENDROOT
BRANCH   1   7
ATOM      7  C1' N4B d   1       5.910  -2.261   4.524  0.00  0.00     0.057 C 
BRANCH   7   8
ATOM      8  C2' N4B d   1       5.485  -2.615   5.946  0.00  0.00     0.009 C 
BRANCH   8   9
ATOM      9  C3' N4B d   1       4.168  -3.373   5.973  0.00  0.00     0.004 C 
ATOM     10  C4' N4B d   1       3.009  -2.539   5.514  0.00  0.00     0.003 C 
ENDBRANCH   8   9
ENDBRANCH   7   8
ENDBRANCH   1   7
TORSDOF 3
ENDMDL
