MODEL 1
REMARK minimizedAffinity -1.43117011
REMARK minimizedRMSD -1
REMARK  3 active torsions:
REMARK  status: ('A' for Active; 'I' for Inactive)
REMARK    1  A    between atoms: C3'_2  and  C2'_3 
REMARK    2  A    between atoms: C2'_3  and  C1'_4 
REMARK    3  A    between atoms: C1'_4  and  C1_5 
ROOT
ATOM      1  C1  N4B d   1       5.628  -2.828   3.698  0.00  0.00    -0.075 A 
ATOM      2  C2  N4B d   1       5.485  -1.891   2.651  0.00  0.00     0.002 A 
ATOM      3  C3  N4B d   1       5.604  -2.298   1.345  0.00  0.00     0.002 A 
ATOM      4  C4  N4B d   1       5.882  -3.627   1.063  0.00  0.00    -0.004 A 
ATOM      5  C5  N4B d   1       5.993  -4.531   2.079  0.00  0.00     0.002 A 
ATOM      6  C6  N4B d   1       5.872  -4.136   3.397  0.00  0.00     0.002 A 
ENDROOT
BRANCH   1   7
ATOM      7  C1' N4B d   1       5.591  -2.414   5.144  0.00  0.00     0.057 C 
BRANCH   7   8
ATOM      8  C2' N4B d   1       5.022  -3.558   5.978  0.00  0.00     0.009 C 
BRANCH   8   9
ATOM      9  C3' N4B d   1       5.948  -4.762   6.000  0.00  0.00     0.004 C 
ATOM     10  C4' N4B d   1       5.313  -5.994   5.428  0.00  0.00     0.003 C 
ENDBRANCH   8   9
ENDBRANCH   7   8
ENDBRANCH   1   7
TORSDOF 3
ENDMDL
