MODEL 1
REMARK minimizedAffinity -0.485256702
REMARK minimizedRMSD -1
REMARK  3 active torsions:
REMARK  status: ('A' for Active; 'I' for Inactive)
REMARK    1  A    between atoms: C3'_2  and  C2'_3 
REMARK    2  A    between atoms: C2'_3  and  C1'_4 
REMARK    3  A    between atoms: C1'_4  and  C1_5 
ROOT
ATOM      1  C1  N4B d   1       5.811  -4.296   3.192  0.00  0.00    -0.075 A 
ATOM      2  C2  N4B d   1       5.596  -3.039   3.797  0.00  0.00     0.002 A 
ATOM      3  C3  N4B d   1       5.573  -1.901   3.028  0.00  0.00     0.002 A 
ATOM      4  C4  N4B d   1       5.780  -1.995   1.659  0.00  0.00    -0.004 A 
ATOM      5  C5  N4B d   1       5.961  -3.216   1.079  0.00  0.00     0.002 A 
ATOM      6  C6  N4B d   1       5.983  -4.368   1.840  0.00  0.00     0.002 A 
ENDROOT
BRANCH   1   7
ATOM      7  C1' N4B d   1       5.931  -5.558   4.003  0.00  0.00     0.057 C 
BRANCH   7   8
ATOM      8  C2' N4B d   1       5.491  -5.275   5.436  0.00  0.00     0.009 C 
BRANCH   8   9
ATOM      9  C3' N4B d   1       4.201  -5.997   5.787  0.00  0.00     0.004 C 
ATOM     10  C4' N4B d   1       3.212  -6.000   4.659  0.00  0.00     0.003 C 
ENDBRANCH   8   9
ENDBRANCH   7   8
ENDBRANCH   1   7
TORSDOF 3
ENDMDL
