MODEL 1
REMARK minimizedAffinity -1.3906374
REMARK minimizedRMSD -1
REMARK  3 active torsions:
REMARK  status: ('A' for Active; 'I' for Inactive)
REMARK    1  A    between atoms: C3'_2  and  C2'_3 
REMARK    2  A    between atoms: C2'_3  and  C1'_4 
REMARK    3  A    between atoms: C1'_4  and  C1_5 
ROOT
ATOM      1  C1  N4B d   1       5.970  -3.258   3.698  0.00  0.00    -0.075 A 
ATOM      2  C2  N4B d   1       5.996  -4.127   4.812  0.00  0.00     0.002 A 
ATOM      3  C3  N4B d   1       5.981  -5.487   4.622  0.00  0.00     0.002 A 
ATOM      4  C4  N4B d   1       5.920  -5.999   3.334  0.00  0.00    -0.004 A 
ATOM      5  C5  N4B d   1       5.920  -5.154   2.264  0.00  0.00     0.002 A 
ATOM      6  C6  N4B d   1       5.940  -3.785   2.439  0.00  0.00     0.002 A 
ENDROOT
BRANCH   1   7
ATOM      7  C1' N4B d   1       5.899  -1.764   3.858  0.00  0.00     0.057 C 
BRANCH   7   8
ATOM      8  C2' N4B d   1       5.860  -1.421   5.345  0.00  0.00     0.009 C 
BRANCH   8   9
ATOM      9  C3' N4B d   1       4.527  -1.783   5.977  0.00  0.00     0.004 C 
ATOM     10  C4' N4B d   1       3.574  -2.409   5.003  0.00  0.00     0.003 C 
ENDBRANCH   8   9
ENDBRANCH   7   8
ENDBRANCH   1   7
TORSDOF 3
ENDMDL
