MODEL 1
REMARK minimizedAffinity 0.696413696
REMARK minimizedRMSD -1
REMARK  3 active torsions:
REMARK  status: ('A' for Active; 'I' for Inactive)
REMARK    1  A    between atoms: C3'_2  and  C2'_3 
REMARK    2  A    between atoms: C2'_3  and  C1'_4 
REMARK    3  A    between atoms: C1'_4  and  C1_5 
ROOT
ATOM      1  C1  N4B d   1       5.737  -3.960   2.813  0.00  0.00    -0.075 A 
ATOM      2  C2  N4B d   1       5.428  -2.800   3.556  0.00  0.00     0.002 A 
ATOM      3  C3  N4B d   1       5.404  -1.574   2.938  0.00  0.00     0.002 A 
ATOM      4  C4  N4B d   1       5.703  -1.481   1.587  0.00  0.00    -0.004 A 
ATOM      5  C5  N4B d   1       5.975  -2.610   0.870  0.00  0.00     0.002 A 
ATOM      6  C6  N4B d   1       5.999  -3.849   1.478  0.00  0.00     0.002 A 
ENDROOT
BRANCH   1   7
ATOM      7  C1' N4B d   1       5.859  -5.311   3.463  0.00  0.00     0.057 C 
BRANCH   7   8
ATOM      8  C2' N4B d   1       4.848  -5.412   4.601  0.00  0.00     0.009 C 
BRANCH   8   9
ATOM      9  C3' N4B d   1       3.460  -4.971   4.169  0.00  0.00     0.004 C 
ATOM     10  C4' N4B d   1       2.375  -5.854   4.710  0.00  0.00     0.003 C 
ENDBRANCH   8   9
ENDBRANCH   7   8
ENDBRANCH   1   7
TORSDOF 3
ENDMDL
