MODEL 1
REMARK minimizedAffinity 3.72909784
REMARK minimizedRMSD -1
REMARK  0 active torsions:
REMARK  status: ('A' for Active; 'I' for Inactive)
ROOT
ATOM      1  C   UNL d   1      -0.055   2.613  -0.612  0.00  0.00     0.078 C 
ATOM      2  C1  UNL d   1      -0.343   2.364   0.838  0.00  0.00    -0.077 A 
ATOM      3  C2  UNL d   1       0.641   2.564   1.814  0.00  0.00    -0.001 A 
ATOM      4  C3  UNL d   1       0.362   2.318   3.159  0.00  0.00     0.003 A 
ATOM      5  C4  UNL d   1      -0.901   1.870   3.541  0.00  0.00    -0.005 A 
ATOM      6  C5  UNL d   1      -1.886   1.666   2.577  0.00  0.00     0.003 A 
ATOM      7  C6  UNL d   1      -1.608   1.911   1.231  0.00  0.00    -0.001 A 
ENDROOT
TORSDOF 0
ENDMDL
