MODEL 1
REMARK minimizedAffinity 1.68135953
REMARK minimizedRMSD -1
REMARK  0 active torsions:
REMARK  status: ('A' for Active; 'I' for Inactive)
ROOT
ATOM      1  C   UNL d   1      -3.648   5.560   0.802  0.00  0.00     0.078 C 
ATOM      2  C1  UNL d   1      -2.266   5.017   0.590  0.00  0.00    -0.077 A 
ATOM      3  C2  UNL d   1      -1.180   5.873   0.372  0.00  0.00    -0.001 A 
ATOM      4  C3  UNL d   1       0.099   5.353   0.167  0.00  0.00     0.003 A 
ATOM      5  C4  UNL d   1       0.303   3.974   0.176  0.00  0.00    -0.005 A 
ATOM      6  C5  UNL d   1      -0.772   3.114   0.389  0.00  0.00     0.003 A 
ATOM      7  C6  UNL d   1      -2.052   3.633   0.595  0.00  0.00    -0.001 A 
ENDROOT
TORSDOF 0
ENDMDL
