MODEL 1
REMARK minimizedAffinity 6.92162514
REMARK minimizedRMSD -1
REMARK  0 active torsions:
REMARK  status: ('A' for Active; 'I' for Inactive)
ROOT
ATOM      1  C   UNL d   1      -0.950   3.737  -3.131  0.00  0.00     0.078 C 
ATOM      2  C1  UNL d   1      -0.297   3.612  -1.787  0.00  0.00    -0.077 A 
ATOM      3  C2  UNL d   1      -0.545   2.505  -0.966  0.00  0.00    -0.001 A 
ATOM      4  C3  UNL d   1       0.063   2.406   0.287  0.00  0.00     0.003 A 
ATOM      5  C4  UNL d   1       0.921   3.410   0.730  0.00  0.00    -0.005 A 
ATOM      6  C5  UNL d   1       1.172   4.516  -0.080  0.00  0.00     0.003 A 
ATOM      7  C6  UNL d   1       0.565   4.617  -1.333  0.00  0.00    -0.001 A 
ENDROOT
TORSDOF 0
ENDMDL
