MODEL 1
REMARK minimizedAffinity 2.82661772
REMARK minimizedRMSD -1
REMARK  0 active torsions:
REMARK  status: ('A' for Active; 'I' for Inactive)
ROOT
ATOM      1  C   UNL d   1      -5.904  -4.692   3.226  0.00  0.00     0.078 C 
ATOM      2  C1  UNL d   1      -5.916  -3.810   2.014  0.00  0.00    -0.077 A 
ATOM      3  C2  UNL d   1      -5.998  -4.355   0.726  0.00  0.00    -0.001 A 
ATOM      4  C3  UNL d   1      -5.998  -3.523  -0.394  0.00  0.00     0.003 A 
ATOM      5  C4  UNL d   1      -5.916  -2.141  -0.238  0.00  0.00    -0.005 A 
ATOM      6  C5  UNL d   1      -5.832  -1.589   1.039  0.00  0.00     0.003 A 
ATOM      7  C6  UNL d   1      -5.831  -2.420   2.160  0.00  0.00    -0.001 A 
ENDROOT
TORSDOF 0
ENDMDL
