MODEL 1
REMARK minimizedAffinity 6.5197587
REMARK minimizedRMSD -1
REMARK  0 active torsions:
REMARK  status: ('A' for Active; 'I' for Inactive)
ROOT
ATOM      1  C   UNL d   1      -5.360   5.972   3.961  0.00  0.00     0.078 C 
ATOM      2  C1  UNL d   1      -4.815   5.988   2.564  0.00  0.00    -0.077 A 
ATOM      3  C2  UNL d   1      -5.671   5.988   1.455  0.00  0.00    -0.001 A 
ATOM      4  C3  UNL d   1      -5.149   5.994   0.161  0.00  0.00     0.003 A 
ATOM      5  C4  UNL d   1      -3.770   5.998  -0.038  0.00  0.00    -0.005 A 
ATOM      6  C5  UNL d   1      -2.911   5.996   1.059  0.00  0.00     0.003 A 
ATOM      7  C6  UNL d   1      -3.430   5.990   2.354  0.00  0.00    -0.001 A 
ENDROOT
TORSDOF 0
ENDMDL
