MODEL 1
REMARK minimizedAffinity 15.1248465
REMARK minimizedRMSD -1
REMARK  0 active torsions:
REMARK  status: ('A' for Active; 'I' for Inactive)
ROOT
ATOM      1  C   UNL d   1      -4.869   6.000   2.848  0.00  0.00     0.078 C 
ATOM      2  C1  UNL d   1      -4.565   5.753   1.400  0.00  0.00    -0.077 A 
ATOM      3  C2  UNL d   1      -5.525   6.000   0.410  0.00  0.00    -0.001 A 
ATOM      4  C3  UNL d   1      -5.232   5.757  -0.933  0.00  0.00     0.003 A 
ATOM      5  C4  UNL d   1      -3.980   5.265  -1.298  0.00  0.00    -0.005 A 
ATOM      6  C5  UNL d   1      -3.020   5.014  -0.319  0.00  0.00     0.003 A 
ATOM      7  C6  UNL d   1      -3.311   5.257   1.024  0.00  0.00    -0.001 A 
ENDROOT
TORSDOF 0
ENDMDL
