MODEL 1
REMARK minimizedAffinity -3.14056134
REMARK minimizedRMSD -1
REMARK  0 active torsions:
REMARK  status: ('A' for Active; 'I' for Inactive)
ROOT
ATOM      1  C   UNL d   1       0.391   3.689  -0.538  0.00  0.00     0.078 C 
ATOM      2  C1  UNL d   1      -0.156   2.891   0.608  0.00  0.00    -0.077 A 
ATOM      3  C2  UNL d   1      -0.944   1.755   0.384  0.00  0.00    -0.001 A 
ATOM      4  C3  UNL d   1      -1.454   1.027   1.460  0.00  0.00     0.003 A 
ATOM      5  C4  UNL d   1      -1.182   1.427   2.767  0.00  0.00    -0.005 A 
ATOM      6  C5  UNL d   1      -0.401   2.557   3.000  0.00  0.00     0.003 A 
ATOM      7  C6  UNL d   1       0.110   3.286   1.925  0.00  0.00    -0.001 A 
ENDROOT
TORSDOF 0
ENDMDL
