MODEL 1
REMARK minimizedAffinity 2.78406644
REMARK minimizedRMSD -1
REMARK  0 active torsions:
REMARK  status: ('A' for Active; 'I' for Inactive)
ROOT
ATOM      1  C   UNL d   1      -1.684   0.367   3.228  0.00  0.00     0.078 C 
ATOM      2  C1  UNL d   1      -1.370  -1.098   3.306  0.00  0.00    -0.077 A 
ATOM      3  C2  UNL d   1      -2.207  -1.979   4.002  0.00  0.00    -0.001 A 
ATOM      4  C3  UNL d   1      -1.897  -3.338   4.074  0.00  0.00     0.003 A 
ATOM      5  C4  UNL d   1      -0.749  -3.828   3.454  0.00  0.00    -0.005 A 
ATOM      6  C5  UNL d   1       0.090  -2.958   2.761  0.00  0.00     0.003 A 
ATOM      7  C6  UNL d   1      -0.218  -1.599   2.687  0.00  0.00    -0.001 A 
ENDROOT
TORSDOF 0
ENDMDL
