MODEL 1
REMARK minimizedAffinity -5.24438953
REMARK minimizedRMSD -1
REMARK  0 active torsions:
REMARK  status: ('A' for Active; 'I' for Inactive)
ROOT
ATOM      1  C   UNL d   1       0.535   4.505  -0.130  0.00  0.00     0.078 C 
ATOM      2  C1  UNL d   1       0.176   3.551   0.969  0.00  0.00    -0.077 A 
ATOM      3  C2  UNL d   1       0.878   3.547   2.180  0.00  0.00    -0.001 A 
ATOM      4  C3  UNL d   1       0.539   2.646   3.190  0.00  0.00     0.003 A 
ATOM      5  C4  UNL d   1      -0.503   1.741   3.000  0.00  0.00    -0.005 A 
ATOM      6  C5  UNL d   1      -1.207   1.736   1.797  0.00  0.00     0.003 A 
ATOM      7  C6  UNL d   1      -0.869   2.636   0.785  0.00  0.00    -0.001 A 
ENDROOT
TORSDOF 0
ENDMDL
