MODEL 1
REMARK minimizedAffinity 1.81972682
REMARK minimizedRMSD -1
REMARK  0 active torsions:
REMARK  status: ('A' for Active; 'I' for Inactive)
ROOT
ATOM      1  C   UNL d   1      -2.246  -1.657   4.842  0.00  0.00     0.078 C 
ATOM      2  C1  UNL d   1      -2.049  -0.575   3.823  0.00  0.00    -0.077 A 
ATOM      3  C2  UNL d   1      -3.049  -0.269   2.893  0.00  0.00    -0.001 A 
ATOM      4  C3  UNL d   1      -2.848   0.734   1.944  0.00  0.00     0.003 A 
ATOM      5  C4  UNL d   1      -1.647   1.440   1.915  0.00  0.00    -0.005 A 
ATOM      6  C5  UNL d   1      -0.644   1.141   2.836  0.00  0.00     0.003 A 
ATOM      7  C6  UNL d   1      -0.844   0.138   3.785  0.00  0.00    -0.001 A 
ENDROOT
TORSDOF 0
ENDMDL
