MODEL 1
REMARK minimizedAffinity -1.73693156
REMARK minimizedRMSD -1
REMARK  0 active torsions:
REMARK  status: ('A' for Active; 'I' for Inactive)
ROOT
ATOM      1  C   UNL d   1      -1.708   1.518   2.392  0.00  0.00     0.078 C 
ATOM      2  C1  UNL d   1      -0.835   2.404   1.554  0.00  0.00    -0.077 A 
ATOM      3  C2  UNL d   1      -0.861   2.327   0.156  0.00  0.00    -0.001 A 
ATOM      4  C3  UNL d   1      -0.037   3.152  -0.612  0.00  0.00     0.003 A 
ATOM      5  C4  UNL d   1       0.821   4.057   0.010  0.00  0.00    -0.005 A 
ATOM      6  C5  UNL d   1       0.855   4.139   1.400  0.00  0.00     0.003 A 
ATOM      7  C6  UNL d   1       0.031   3.316   2.169  0.00  0.00    -0.001 A 
ENDROOT
TORSDOF 0
ENDMDL
