MODEL 1
REMARK minimizedAffinity -1.85195792
REMARK minimizedRMSD -1
REMARK  0 active torsions:
REMARK  status: ('A' for Active; 'I' for Inactive)
ROOT
ATOM      1  C   UNL d   1       0.428   2.641  -0.628  0.00  0.00     0.078 C 
ATOM      2  C1  UNL d   1       0.083   2.328   0.797  0.00  0.00    -0.077 A 
ATOM      3  C2  UNL d   1       0.336   3.250   1.820  0.00  0.00    -0.001 A 
ATOM      4  C3  UNL d   1       0.018   2.942   3.143  0.00  0.00     0.003 A 
ATOM      5  C4  UNL d   1      -0.553   1.710   3.457  0.00  0.00    -0.005 A 
ATOM      6  C5  UNL d   1      -0.806   0.785   2.446  0.00  0.00     0.003 A 
ATOM      7  C6  UNL d   1      -0.489   1.091   1.122  0.00  0.00    -0.001 A 
ENDROOT
TORSDOF 0
ENDMDL
