MODEL 1
REMARK minimizedAffinity 2.80028462
REMARK minimizedRMSD -1
REMARK  0 active torsions:
REMARK  status: ('A' for Active; 'I' for Inactive)
ROOT
ATOM      1  C   UNL d   1      -1.656  -1.197   3.495  0.00  0.00     0.078 C 
ATOM      2  C1  UNL d   1      -1.463   0.073   2.721  0.00  0.00    -0.077 A 
ATOM      3  C2  UNL d   1      -0.188   0.626   2.550  0.00  0.00    -0.001 A 
ATOM      4  C3  UNL d   1      -0.024   1.814   1.836  0.00  0.00     0.003 A 
ATOM      5  C4  UNL d   1      -1.131   2.459   1.287  0.00  0.00    -0.005 A 
ATOM      6  C5  UNL d   1      -2.404   1.917   1.454  0.00  0.00     0.003 A 
ATOM      7  C6  UNL d   1      -2.569   0.729   2.168  0.00  0.00    -0.001 A 
ENDROOT
TORSDOF 0
ENDMDL
