MODEL 1
REMARK minimizedAffinity 9.0628109
REMARK minimizedRMSD -1
REMARK  1 active torsions:
REMARK  status: ('A' for Active; 'I' for Inactive)
REMARK    1  A    between atoms: C3_4  and  O_7 
ROOT
ATOM      1  C   UNL d   1       1.813   0.269   1.670  0.00  0.00    -0.033 A 
ATOM      2  C1  UNL d   1       2.369   0.985   0.608  0.00  0.00     0.039 A 
ATOM      3  C2  UNL d   1       1.901   2.266   0.308  0.00  0.00    -0.080 A 
ATOM      4  C3  UNL d   1       0.880   2.818   1.076  0.00  0.00     0.150 A 
ATOM      5  C4  UNL d   1       0.325   2.112   2.138  0.00  0.00    -0.007 A 
ATOM      6  C5  UNL d   1       0.792   0.832   2.436  0.00  0.00     0.039 A 
ENDROOT
BRANCH   4   7
ATOM      7  O   UNL d   1       0.387   4.063   0.818  0.00  0.00    -0.526 OA
ATOM      8  H5  UNL d   1       0.846   4.420   0.039  0.00  0.00     0.418 HD
ENDBRANCH   4   7
TORSDOF 1
ENDMDL
