MODEL 1
REMARK minimizedAffinity 8.83220863
REMARK minimizedRMSD -1
REMARK  1 active torsions:
REMARK  status: ('A' for Active; 'I' for Inactive)
REMARK    1  A    between atoms: C3_4  and  O_7 
ROOT
ATOM      1  C   UNL d   1       3.832   5.337  -5.944  0.00  0.00    -0.033 A 
ATOM      2  C1  UNL d   1       5.227   5.363  -5.992  0.00  0.00     0.039 A 
ATOM      3  C2  UNL d   1       5.974   4.701  -5.015  0.00  0.00    -0.080 A 
ATOM      4  C3  UNL d   1       5.314   4.018  -3.997  0.00  0.00     0.150 A 
ATOM      5  C4  UNL d   1       3.924   3.984  -3.945  0.00  0.00    -0.007 A 
ATOM      6  C5  UNL d   1       3.181   4.647  -4.921  0.00  0.00     0.039 A 
ENDROOT
BRANCH   4   7
ATOM      7  O   UNL d   1       6.000   3.361  -3.019  0.00  0.00    -0.526 OA
ATOM      8  H5  UNL d   1       6.951   3.494  -3.168  0.00  0.00     0.418 HD
ENDBRANCH   4   7
TORSDOF 1
ENDMDL
