MODEL 1
REMARK minimizedAffinity 15.3774958
REMARK minimizedRMSD -1
REMARK  1 active torsions:
REMARK  status: ('A' for Active; 'I' for Inactive)
REMARK    1  A    between atoms: C3_4  and  O_7 
ROOT
ATOM      1  C   UNL d   1      -4.628  -4.870  -1.867  0.00  0.00    -0.033 A 
ATOM      2  C1  UNL d   1      -4.264  -3.742  -2.604  0.00  0.00     0.039 A 
ATOM      3  C2  UNL d   1      -3.076  -3.738  -3.337  0.00  0.00    -0.080 A 
ATOM      4  C3  UNL d   1      -2.262  -4.868  -3.325  0.00  0.00     0.150 A 
ATOM      5  C4  UNL d   1      -2.621  -5.997  -2.596  0.00  0.00    -0.007 A 
ATOM      6  C5  UNL d   1      -3.808  -5.998  -1.864  0.00  0.00     0.039 A 
ENDROOT
BRANCH   4   7
ATOM      7  O   UNL d   1      -1.091  -4.910  -4.021  0.00  0.00    -0.526 OA
ATOM      8  H5  UNL d   1      -0.959  -4.049  -4.453  0.00  0.00     0.418 HD
ENDBRANCH   4   7
TORSDOF 1
ENDMDL
