MODEL 1
REMARK minimizedAffinity 4.01675844
REMARK minimizedRMSD -1
REMARK  1 active torsions:
REMARK  status: ('A' for Active; 'I' for Inactive)
REMARK    1  A    between atoms: C3_4  and  O_7 
ROOT
ATOM      1  C   UNL d   1       3.315   1.817   0.738  0.00  0.00    -0.033 A 
ATOM      2  C1  UNL d   1       2.884   1.541  -0.561  0.00  0.00     0.039 A 
ATOM      3  C2  UNL d   1       2.030   0.463  -0.801  0.00  0.00    -0.080 A 
ATOM      4  C3  UNL d   1       1.615  -0.330   0.265  0.00  0.00     0.150 A 
ATOM      5  C4  UNL d   1       2.037  -0.059   1.562  0.00  0.00    -0.007 A 
ATOM      6  C5  UNL d   1       2.890   1.018   1.800  0.00  0.00     0.039 A 
ENDROOT
BRANCH   4   7
ATOM      7  O   UNL d   1       0.785  -1.396   0.079  0.00  0.00    -0.526 OA
ATOM      8  H5  UNL d   1       0.599  -1.479  -0.871  0.00  0.00     0.418 HD
ENDBRANCH   4   7
TORSDOF 1
ENDMDL
