MODEL 1
REMARK minimizedAffinity 10.6441002
REMARK minimizedRMSD -1
REMARK  1 active torsions:
REMARK  status: ('A' for Active; 'I' for Inactive)
REMARK    1  A    between atoms: C3_4  and  O_7 
ROOT
ATOM      1  C   UNL d   1       3.253   2.006  -5.229  0.00  0.00    -0.033 A 
ATOM      2  C1  UNL d   1       3.867   0.752  -5.267  0.00  0.00     0.039 A 
ATOM      3  C2  UNL d   1       4.764   0.381  -4.264  0.00  0.00    -0.080 A 
ATOM      4  C3  UNL d   1       5.038   1.270  -3.229  0.00  0.00     0.150 A 
ATOM      5  C4  UNL d   1       4.428   2.519  -3.182  0.00  0.00    -0.007 A 
ATOM      6  C5  UNL d   1       3.533   2.889  -4.185  0.00  0.00     0.039 A 
ENDROOT
BRANCH   4   7
ATOM      7  O   UNL d   1       5.911   0.954  -2.230  0.00  0.00    -0.526 OA
ATOM      8  H5  UNL d   1       6.277   0.072  -2.410  0.00  0.00     0.418 HD
ENDBRANCH   4   7
TORSDOF 1
ENDMDL
