MODEL 1
REMARK minimizedAffinity 3.19395852
REMARK minimizedRMSD -1
REMARK  1 active torsions:
REMARK  status: ('A' for Active; 'I' for Inactive)
REMARK    1  A    between atoms: C3_4  and  O_7 
ROOT
ATOM      1  C   UNL d   1      -5.992  -5.498  -3.013  0.00  0.00    -0.033 A 
ATOM      2  C1  UNL d   1      -4.964  -5.998  -2.212  0.00  0.00     0.039 A 
ATOM      3  C2  UNL d   1      -3.821  -5.230  -1.979  0.00  0.00    -0.080 A 
ATOM      4  C3  UNL d   1      -3.719  -3.966  -2.553  0.00  0.00     0.150 A 
ATOM      5  C4  UNL d   1      -4.741  -3.460  -3.349  0.00  0.00    -0.007 A 
ATOM      6  C5  UNL d   1      -5.881  -4.228  -3.581  0.00  0.00     0.039 A 
ENDROOT
BRANCH   4   7
ATOM      7  O   UNL d   1      -2.621  -3.182  -2.358  0.00  0.00    -0.526 OA
ATOM      8  H5  UNL d   1      -1.985  -3.673  -1.812  0.00  0.00     0.418 HD
ENDBRANCH   4   7
TORSDOF 1
ENDMDL
