MODEL 1
REMARK minimizedAffinity 7.21218538
REMARK minimizedRMSD -1
REMARK  1 active torsions:
REMARK  status: ('A' for Active; 'I' for Inactive)
REMARK    1  A    between atoms: C3_4  and  O_7 
ROOT
ATOM      1  C   UNL d   1       2.255   1.047   1.553  0.00  0.00    -0.033 A 
ATOM      2  C1  UNL d   1       1.170   1.336   2.383  0.00  0.00     0.039 A 
ATOM      3  C2  UNL d   1       0.491   2.549   2.250  0.00  0.00    -0.080 A 
ATOM      4  C3  UNL d   1       0.905   3.462   1.284  0.00  0.00     0.150 A 
ATOM      5  C4  UNL d   1       1.983   3.179   0.452  0.00  0.00    -0.007 A 
ATOM      6  C5  UNL d   1       2.661   1.968   0.586  0.00  0.00     0.039 A 
ENDROOT
BRANCH   4   7
ATOM      7  O   UNL d   1       0.277   4.660   1.121  0.00  0.00    -0.526 OA
ATOM      8  H5  UNL d   1      -0.430   4.730   1.784  0.00  0.00     0.418 HD
ENDBRANCH   4   7
TORSDOF 1
ENDMDL
