MODEL 1
REMARK minimizedAffinity 5.34068918
REMARK minimizedRMSD -1
REMARK  1 active torsions:
REMARK  status: ('A' for Active; 'I' for Inactive)
REMARK    1  A    between atoms: C3_4  and  O_7 
ROOT
ATOM      1  C   UNL d   1       2.235   0.980  -1.091  0.00  0.00    -0.033 A 
ATOM      2  C1  UNL d   1       3.380   0.809  -1.871  0.00  0.00     0.039 A 
ATOM      3  C2  UNL d   1       3.485   1.446  -3.109  0.00  0.00    -0.080 A 
ATOM      4  C3  UNL d   1       2.441   2.252  -3.553  0.00  0.00     0.150 A 
ATOM      5  C4  UNL d   1       1.299   2.431  -2.780  0.00  0.00    -0.007 A 
ATOM      6  C5  UNL d   1       1.195   1.793  -1.544  0.00  0.00     0.039 A 
ENDROOT
BRANCH   4   7
ATOM      7  O   UNL d   1       2.497   2.891  -4.756  0.00  0.00    -0.526 OA
ATOM      8  H5  UNL d   1       3.331   2.652  -5.193  0.00  0.00     0.418 HD
ENDBRANCH   4   7
TORSDOF 1
ENDMDL
