MODEL 1
REMARK minimizedAffinity 9.12741089
REMARK minimizedRMSD -1
REMARK  1 active torsions:
REMARK  status: ('A' for Active; 'I' for Inactive)
REMARK    1  A    between atoms: C3_4  and  O_7 
ROOT
ATOM      1  C   UNL d   1       4.301   1.436  -3.174  0.00  0.00    -0.033 A 
ATOM      2  C1  UNL d   1       3.501   1.703  -4.287  0.00  0.00     0.039 A 
ATOM      3  C2  UNL d   1       2.198   2.175  -4.115  0.00  0.00    -0.080 A 
ATOM      4  C3  UNL d   1       1.708   2.376  -2.828  0.00  0.00     0.150 A 
ATOM      5  C4  UNL d   1       2.501   2.116  -1.715  0.00  0.00    -0.007 A 
ATOM      6  C5  UNL d   1       3.801   1.644  -1.888  0.00  0.00     0.039 A 
ENDROOT
BRANCH   4   7
ATOM      7  O   UNL d   1       0.442   2.831  -2.610  0.00  0.00    -0.526 OA
ATOM      8  H5  UNL d   1       0.002   2.940  -3.470  0.00  0.00     0.418 HD
ENDBRANCH   4   7
TORSDOF 1
ENDMDL
