MODEL 1
REMARK minimizedAffinity 0.94745028
REMARK minimizedRMSD -1
REMARK  1 active torsions:
REMARK  status: ('A' for Active; 'I' for Inactive)
REMARK    1  A    between atoms: C3_4  and  O_7 
ROOT
ATOM      1  C   UNL d   1      -5.103   4.801   4.763  0.00  0.00    -0.033 A 
ATOM      2  C1  UNL d   1      -4.210   4.286   5.706  0.00  0.00     0.039 A 
ATOM      3  C2  UNL d   1      -4.212   2.921   5.999  0.00  0.00    -0.080 A 
ATOM      4  C3  UNL d   1      -5.110   2.083   5.343  0.00  0.00     0.150 A 
ATOM      5  C4  UNL d   1      -5.999   2.588   4.400  0.00  0.00    -0.007 A 
ATOM      6  C5  UNL d   1      -5.996   3.952   4.109  0.00  0.00     0.039 A 
ENDROOT
BRANCH   4   7
ATOM      7  O   UNL d   1      -5.152   0.745   5.599  0.00  0.00    -0.526 OA
ATOM      8  H5  UNL d   1      -4.501   0.543   6.292  0.00  0.00     0.418 HD
ENDBRANCH   4   7
TORSDOF 1
ENDMDL
