MODEL 1
REMARK minimizedAffinity 2.44228935
REMARK minimizedRMSD -1
REMARK  1 active torsions:
REMARK  status: ('A' for Active; 'I' for Inactive)
REMARK    1  A    between atoms: C3_4  and  O_7 
ROOT
ATOM      1  C   UNL d   1      -5.991   2.378   5.999  0.00  0.00    -0.033 A 
ATOM      2  C1  UNL d   1      -5.951   3.182   4.858  0.00  0.00     0.039 A 
ATOM      3  C2  UNL d   1      -5.584   2.634   3.628  0.00  0.00    -0.080 A 
ATOM      4  C3  UNL d   1      -5.262   1.282   3.551  0.00  0.00     0.150 A 
ATOM      5  C4  UNL d   1      -5.303   0.474   4.683  0.00  0.00    -0.007 A 
ATOM      6  C5  UNL d   1      -5.669   1.023   5.911  0.00  0.00     0.039 A 
ENDROOT
BRANCH   4   7
ATOM      7  O   UNL d   1      -4.894   0.703   2.373  0.00  0.00    -0.526 OA
ATOM      8  H5  UNL d   1      -4.882   1.388   1.684  0.00  0.00     0.418 HD
ENDBRANCH   4   7
TORSDOF 1
ENDMDL
