MODEL 1
REMARK minimizedAffinity 9.2377491
REMARK minimizedRMSD -1
REMARK  1 active torsions:
REMARK  status: ('A' for Active; 'I' for Inactive)
REMARK    1  A    between atoms: C3_4  and  O_7 
ROOT
ATOM      1  C   UNL d   1       3.160   0.848   0.085  0.00  0.00    -0.033 A 
ATOM      2  C1  UNL d   1       3.291   2.005   0.857  0.00  0.00     0.039 A 
ATOM      3  C2  UNL d   1       2.307   2.338   1.790  0.00  0.00    -0.080 A 
ATOM      4  C3  UNL d   1       1.200   1.508   1.942  0.00  0.00     0.150 A 
ATOM      5  C4  UNL d   1       1.065   0.353   1.180  0.00  0.00    -0.007 A 
ATOM      6  C5  UNL d   1       2.048   0.022   0.247  0.00  0.00     0.039 A 
ENDROOT
BRANCH   4   7
ATOM      7  O   UNL d   1       0.212   1.795   2.837  0.00  0.00    -0.526 OA
ATOM      8  H5  UNL d   1       0.426   2.637   3.272  0.00  0.00     0.418 HD
ENDBRANCH   4   7
TORSDOF 1
ENDMDL
