MODEL 1
REMARK minimizedAffinity 3.85759354
REMARK minimizedRMSD -1
REMARK  1 active torsions:
REMARK  status: ('A' for Active; 'I' for Inactive)
REMARK    1  A    between atoms: C3_4  and  O_7 
ROOT
ATOM      1  C   UNL d   1      -4.226  -5.860  -1.622  0.00  0.00    -0.033 A 
ATOM      2  C1  UNL d   1      -5.500  -6.000  -2.177  0.00  0.00     0.039 A 
ATOM      3  C2  UNL d   1      -5.976  -5.050  -3.082  0.00  0.00    -0.080 A 
ATOM      4  C3  UNL d   1      -5.170  -3.968  -3.425  0.00  0.00     0.150 A 
ATOM      5  C4  UNL d   1      -3.899  -3.825  -2.880  0.00  0.00    -0.007 A 
ATOM      6  C5  UNL d   1      -3.425  -4.774  -1.975  0.00  0.00     0.039 A 
ENDROOT
BRANCH   4   7
ATOM      7  O   UNL d   1      -5.594  -3.013  -4.301  0.00  0.00    -0.526 OA
ATOM      8  H5  UNL d   1      -6.502  -3.227  -4.574  0.00  0.00     0.418 HD
ENDBRANCH   4   7
TORSDOF 1
ENDMDL
