MODEL 1
REMARK minimizedAffinity 5.62737274
REMARK minimizedRMSD -1
REMARK  1 active torsions:
REMARK  status: ('A' for Active; 'I' for Inactive)
REMARK    1  A    between atoms: C3_4  and  O_7 
ROOT
ATOM      1  C   UNL d   1      -5.748   0.742   5.039  0.00  0.00    -0.033 A 
ATOM      2  C1  UNL d   1      -5.251   1.091   3.782  0.00  0.00     0.039 A 
ATOM      3  C2  UNL d   1      -4.984   2.428   3.481  0.00  0.00    -0.080 A 
ATOM      4  C3  UNL d   1      -5.216   3.405   4.446  0.00  0.00     0.150 A 
ATOM      5  C4  UNL d   1      -5.707   3.064   5.702  0.00  0.00    -0.007 A 
ATOM      6  C5  UNL d   1      -5.974   1.729   5.999  0.00  0.00     0.039 A 
ENDROOT
BRANCH   4   7
ATOM      7  O   UNL d   1      -4.974   4.723   4.197  0.00  0.00    -0.526 OA
ATOM      8  H5  UNL d   1      -4.666   4.812   3.280  0.00  0.00     0.418 HD
ENDBRANCH   4   7
TORSDOF 1
ENDMDL
