MODEL 1
REMARK minimizedAffinity 1.72491777
REMARK minimizedRMSD -1
REMARK  1 active torsions:
REMARK  status: ('A' for Active; 'I' for Inactive)
REMARK    1  A    between atoms: C3_4  and  O_7 
ROOT
ATOM      1  C   UNL d   1       1.046   0.363   1.442  0.00  0.00    -0.033 A 
ATOM      2  C1  UNL d   1      -0.184  -0.040   1.965  0.00  0.00     0.039 A 
ATOM      3  C2  UNL d   1      -1.248   0.862   2.029  0.00  0.00    -0.080 A 
ATOM      4  C3  UNL d   1      -1.069   2.163   1.566  0.00  0.00     0.150 A 
ATOM      5  C4  UNL d   1       0.152   2.571   1.040  0.00  0.00    -0.007 A 
ATOM      6  C5  UNL d   1       1.214   1.669   0.978  0.00  0.00     0.039 A 
ENDROOT
BRANCH   4   7
ATOM      7  O   UNL d   1      -2.076   3.080   1.612  0.00  0.00    -0.526 OA
ATOM      8  H5  UNL d   1      -2.852   2.665   2.026  0.00  0.00     0.418 HD
ENDBRANCH   4   7
TORSDOF 1
ENDMDL
