MODEL 1
REMARK minimizedAffinity -3.31467485
REMARK minimizedRMSD -1
REMARK  1 active torsions:
REMARK  status: ('A' for Active; 'I' for Inactive)
REMARK    1  A    between atoms: C1_2  and  C2_3 
ROOT
ATOM      1  C2  UNL d   1      -0.073   0.474   0.230  0.00  0.00    -0.077 A 
ATOM      2  C3  UNL d   1       0.661   1.006  -0.840  0.00  0.00     0.002 A 
ATOM      3  C4  UNL d   1       0.976   2.366  -0.873  0.00  0.00     0.002 A 
ATOM      4  C5  UNL d   1       0.565   3.204   0.161  0.00  0.00    -0.004 A 
ATOM      5  C6  UNL d   1      -0.167   2.685   1.229  0.00  0.00     0.002 A 
ATOM      6  C7  UNL d   1      -0.483   1.326   1.264  0.00  0.00     0.002 A 
ENDROOT
BRANCH   1   7
ATOM      7  C1  UNL d   1      -0.371  -1.001   0.293  0.00  0.00     0.055 C 
ATOM      8  C   UNL d   1      -0.324  -1.635  -1.089  0.00  0.00     0.019 C 
ENDBRANCH   1   7
TORSDOF 1
ENDMDL
