MODEL 1
REMARK minimizedAffinity -5.79240942
REMARK minimizedRMSD -1
REMARK  1 active torsions:
REMARK  status: ('A' for Active; 'I' for Inactive)
REMARK    1  A    between atoms: C1_2  and  C2_3 
ROOT
ATOM      1  C2  UNL d   1       0.200   0.349   0.061  0.00  0.00    -0.077 A 
ATOM      2  C3  UNL d   1      -0.833   1.079   0.665  0.00  0.00     0.002 A 
ATOM      3  C4  UNL d   1      -0.871   2.470   0.557  0.00  0.00     0.002 A 
ATOM      4  C5  UNL d   1       0.119   3.143  -0.157  0.00  0.00    -0.004 A 
ATOM      5  C6  UNL d   1       1.152   2.425  -0.760  0.00  0.00     0.002 A 
ATOM      6  C7  UNL d   1       1.192   1.035  -0.651  0.00  0.00     0.002 A 
ENDROOT
BRANCH   1   7
ATOM      7  C1  UNL d   1       0.216  -1.156   0.135  0.00  0.00     0.055 C 
ATOM      8  C   UNL d   1      -0.472  -1.777  -1.072  0.00  0.00     0.019 C 
ENDBRANCH   1   7
TORSDOF 1
ENDMDL
