MODEL 1
REMARK minimizedAffinity -5.60792923
REMARK minimizedRMSD -1
REMARK  1 active torsions:
REMARK  status: ('A' for Active; 'I' for Inactive)
REMARK    1  A    between atoms: C1_2  and  C2_3 
ROOT
ATOM      1  C2  UNL d   1      -0.022   1.253  -0.017  0.00  0.00    -0.077 A 
ATOM      2  C3  UNL d   1       1.328   0.879   0.039  0.00  0.00     0.002 A 
ATOM      3  C4  UNL d   1       2.319   1.843   0.234  0.00  0.00     0.002 A 
ATOM      4  C5  UNL d   1       1.971   3.184   0.378  0.00  0.00    -0.004 A 
ATOM      5  C6  UNL d   1       0.631   3.566   0.322  0.00  0.00     0.002 A 
ATOM      6  C7  UNL d   1      -0.361   2.604   0.126  0.00  0.00     0.002 A 
ENDROOT
BRANCH   1   7
ATOM      7  C1  UNL d   1      -1.097   0.209  -0.178  0.00  0.00     0.055 C 
ATOM      8  C   UNL d   1      -0.498  -1.172  -0.400  0.00  0.00     0.019 C 
ENDBRANCH   1   7
TORSDOF 1
ENDMDL
