MODEL 1
REMARK minimizedAffinity -5.84613085
REMARK minimizedRMSD -1
REMARK  1 active torsions:
REMARK  status: ('A' for Active; 'I' for Inactive)
REMARK    1  A    between atoms: C1_2  and  C2_3 
ROOT
ATOM      1  C2  UNL d   1       0.679   0.611   0.485  0.00  0.00    -0.077 A 
ATOM      2  C3  UNL d   1      -0.326   1.370  -0.130  0.00  0.00     0.002 A 
ATOM      3  C4  UNL d   1      -0.095   2.705  -0.469  0.00  0.00     0.002 A 
ATOM      4  C5  UNL d   1       1.141   3.290  -0.201  0.00  0.00    -0.004 A 
ATOM      5  C6  UNL d   1       2.146   2.544   0.412  0.00  0.00     0.002 A 
ATOM      6  C7  UNL d   1       1.917   1.210   0.753  0.00  0.00     0.002 A 
ENDROOT
BRANCH   1   7
ATOM      7  C1  UNL d   1       0.449  -0.843   0.807  0.00  0.00     0.055 C 
ATOM      8  C   UNL d   1      -0.100  -1.596  -0.397  0.00  0.00     0.019 C 
ENDBRANCH   1   7
TORSDOF 1
ENDMDL
