MODEL 1
REMARK minimizedAffinity -6.41592026
REMARK minimizedRMSD -1
REMARK  1 active torsions:
REMARK  status: ('A' for Active; 'I' for Inactive)
REMARK    1  A    between atoms: C1_2  and  C2_3 
ROOT
ATOM      1  C2  UNL d   1      -0.051   0.190   0.254  0.00  0.00    -0.077 A 
ATOM      2  C3  UNL d   1       1.005   0.793  -0.442  0.00  0.00     0.002 A 
ATOM      3  C4  UNL d   1       1.098   2.184  -0.519  0.00  0.00     0.002 A 
ATOM      4  C5  UNL d   1       0.140   2.983   0.103  0.00  0.00    -0.004 A 
ATOM      5  C6  UNL d   1      -0.916   2.392   0.796  0.00  0.00     0.002 A 
ATOM      6  C7  UNL d   1      -1.011   1.002   0.872  0.00  0.00     0.002 A 
ENDROOT
BRANCH   1   7
ATOM      7  C1  UNL d   1      -0.126  -1.310   0.379  0.00  0.00     0.055 C 
ATOM      8  C   UNL d   1      -0.206  -1.976  -0.987  0.00  0.00     0.019 C 
ENDBRANCH   1   7
TORSDOF 1
ENDMDL
