MODEL 1
REMARK minimizedAffinity -6.0494175
REMARK minimizedRMSD -1
REMARK  1 active torsions:
REMARK  status: ('A' for Active; 'I' for Inactive)
REMARK    1  A    between atoms: C1_2  and  C2_3 
ROOT
ATOM      1  C2  UNL d   1       1.288   1.792   0.219  0.00  0.00    -0.077 A 
ATOM      2  C3  UNL d   1       0.356   2.836   0.146  0.00  0.00     0.002 A 
ATOM      3  C4  UNL d   1      -1.013   2.561   0.121  0.00  0.00     0.002 A 
ATOM      4  C5  UNL d   1      -1.461   1.243   0.173  0.00  0.00    -0.004 A 
ATOM      5  C6  UNL d   1      -0.542   0.197   0.243  0.00  0.00     0.002 A 
ATOM      6  C7  UNL d   1       0.826   0.470   0.267  0.00  0.00     0.002 A 
ENDROOT
BRANCH   1   7
ATOM      7  C1  UNL d   1       2.763   2.088   0.296  0.00  0.00     0.055 C 
ATOM      8  C   UNL d   1       3.578   0.811   0.432  0.00  0.00     0.019 C 
ENDBRANCH   1   7
TORSDOF 1
ENDMDL
