MODEL 1
REMARK minimizedAffinity -2.17224288
REMARK minimizedRMSD -1
REMARK  1 active torsions:
REMARK  status: ('A' for Active; 'I' for Inactive)
REMARK    1  A    between atoms: C1_2  and  C2_3 
ROOT
ATOM      1  C2  UNL d   1      -0.309   1.586   0.296  0.00  0.00    -0.077 A 
ATOM      2  C3  UNL d   1       0.744   0.704   0.013  0.00  0.00     0.002 A 
ATOM      3  C4  UNL d   1       0.561  -0.675   0.135  0.00  0.00     0.002 A 
ATOM      4  C5  UNL d   1      -0.673  -1.183   0.536  0.00  0.00    -0.004 A 
ATOM      5  C6  UNL d   1      -1.725  -0.314   0.822  0.00  0.00     0.002 A 
ATOM      6  C7  UNL d   1      -1.544   1.065   0.701  0.00  0.00     0.002 A 
ENDROOT
BRANCH   1   7
ATOM      7  C1  UNL d   1      -0.128   3.071   0.117  0.00  0.00     0.055 C 
ATOM      8  C   UNL d   1       0.487   3.395  -1.237  0.00  0.00     0.019 C 
ENDBRANCH   1   7
TORSDOF 1
ENDMDL
