MODEL 1
REMARK minimizedAffinity -4.79286432
REMARK minimizedRMSD -1
REMARK  1 active torsions:
REMARK  status: ('A' for Active; 'I' for Inactive)
REMARK    1  A    between atoms: C1_2  and  C2_3 
ROOT
ATOM      1  C2  UNL d   1       1.489   1.971  -0.074  0.00  0.00    -0.077 A 
ATOM      2  C3  UNL d   1       0.737   3.089  -0.460  0.00  0.00     0.002 A 
ATOM      3  C4  UNL d   1      -0.658   3.045  -0.434  0.00  0.00     0.002 A 
ATOM      4  C5  UNL d   1      -1.313   1.887  -0.020  0.00  0.00    -0.004 A 
ATOM      5  C6  UNL d   1      -0.574   0.768   0.364  0.00  0.00     0.002 A 
ATOM      6  C7  UNL d   1       0.821   0.810   0.337  0.00  0.00     0.002 A 
ENDROOT
BRANCH   1   7
ATOM      7  C1  UNL d   1       2.994   2.033  -0.054  0.00  0.00     0.055 C 
ATOM      8  C   UNL d   1       3.582   0.944   0.832  0.00  0.00     0.019 C 
ENDBRANCH   1   7
TORSDOF 1
ENDMDL
