MODEL 1
REMARK minimizedAffinity -2.00801969
REMARK minimizedRMSD -1
REMARK  1 active torsions:
REMARK  status: ('A' for Active; 'I' for Inactive)
REMARK    1  A    between atoms: C1_2  and  C2_3 
ROOT
ATOM      1  C2  UNL d   1      -0.317  -1.049  -0.232  0.00  0.00    -0.077 A 
ATOM      2  C3  UNL d   1      -1.260  -0.012  -0.249  0.00  0.00     0.002 A 
ATOM      3  C4  UNL d   1      -0.920   1.259   0.219  0.00  0.00     0.002 A 
ATOM      4  C5  UNL d   1       0.362   1.505   0.704  0.00  0.00    -0.004 A 
ATOM      5  C6  UNL d   1       1.307   0.479   0.728  0.00  0.00     0.002 A 
ATOM      6  C7  UNL d   1       0.969  -0.792   0.261  0.00  0.00     0.002 A 
ENDROOT
BRANCH   1   7
ATOM      7  C1  UNL d   1      -0.666  -2.407  -0.782  0.00  0.00     0.055 C 
ATOM      8  C   UNL d   1      -0.004  -2.644  -2.132  0.00  0.00     0.019 C 
ENDBRANCH   1   7
TORSDOF 1
ENDMDL
