MODEL 1
REMARK minimizedAffinity -5.11298084
REMARK minimizedRMSD -1
REMARK  1 active torsions:
REMARK  status: ('A' for Active; 'I' for Inactive)
REMARK    1  A    between atoms: C1_2  and  C2_3 
ROOT
ATOM      1  C2  UNL d   1       0.219   0.541   0.333  0.00  0.00    -0.077 A 
ATOM      2  C3  UNL d   1      -1.099   0.988   0.502  0.00  0.00     0.002 A 
ATOM      3  C4  UNL d   1      -1.395   2.351   0.444  0.00  0.00     0.002 A 
ATOM      4  C5  UNL d   1      -0.379   3.277   0.213  0.00  0.00    -0.004 A 
ATOM      5  C6  UNL d   1       0.935   2.842   0.046  0.00  0.00     0.002 A 
ATOM      6  C7  UNL d   1       1.233   1.480   0.105  0.00  0.00     0.002 A 
ENDROOT
BRANCH   1   7
ATOM      7  C1  UNL d   1       0.533  -0.933   0.347  0.00  0.00     0.055 C 
ATOM      8  C   UNL d   1      -0.185  -1.662  -0.780  0.00  0.00     0.019 C 
ENDBRANCH   1   7
TORSDOF 1
ENDMDL
