MODEL 1
REMARK minimizedAffinity -2.74042416
REMARK minimizedRMSD -1
REMARK  1 active torsions:
REMARK  status: ('A' for Active; 'I' for Inactive)
REMARK    1  A    between atoms: C1_2  and  C2_3 
ROOT
ATOM      1  C2  UNL d   1      -0.253  -2.081  -0.670  0.00  0.00    -0.077 A 
ATOM      2  C3  UNL d   1       0.539  -2.112  -1.826  0.00  0.00     0.002 A 
ATOM      3  C4  UNL d   1       0.258  -3.018  -2.850  0.00  0.00     0.002 A 
ATOM      4  C5  UNL d   1      -0.817  -3.897  -2.731  0.00  0.00    -0.004 A 
ATOM      5  C6  UNL d   1      -1.609  -3.875  -1.584  0.00  0.00     0.002 A 
ATOM      6  C7  UNL d   1      -1.329  -2.971  -0.558  0.00  0.00     0.002 A 
ENDROOT
BRANCH   1   7
ATOM      7  C1  UNL d   1       0.018  -1.072   0.415  0.00  0.00     0.055 C 
ATOM      8  C   UNL d   1      -0.654   0.259   0.113  0.00  0.00     0.019 C 
ENDBRANCH   1   7
TORSDOF 1
ENDMDL
