MODEL 1
REMARK minimizedAffinity -3.21069121
REMARK minimizedRMSD -1
REMARK  1 active torsions:
REMARK  status: ('A' for Active; 'I' for Inactive)
REMARK    1  A    between atoms: C1_2  and  C2_3 
ROOT
ATOM      1  C2  UNL d   1      -0.199  -1.689  -0.444  0.00  0.00    -0.077 A 
ATOM      2  C3  UNL d   1       0.583  -1.962  -1.574  0.00  0.00     0.002 A 
ATOM      3  C4  UNL d   1       0.347  -3.107  -2.337  0.00  0.00     0.002 A 
ATOM      4  C5  UNL d   1      -0.674  -3.986  -1.981  0.00  0.00    -0.004 A 
ATOM      5  C6  UNL d   1      -1.456  -3.724  -0.856  0.00  0.00     0.002 A 
ATOM      6  C7  UNL d   1      -1.221  -2.581  -0.092  0.00  0.00     0.002 A 
ENDROOT
BRANCH   1   7
ATOM      7  C1  UNL d   1       0.022  -0.429   0.352  0.00  0.00     0.055 C 
ATOM      8  C   UNL d   1      -1.256   0.390   0.458  0.00  0.00     0.019 C 
ENDBRANCH   1   7
TORSDOF 1
ENDMDL
