MODEL 1
REMARK minimizedAffinity -4.19060755
REMARK minimizedRMSD -1
REMARK  1 active torsions:
REMARK  status: ('A' for Active; 'I' for Inactive)
REMARK    1  A    between atoms: C1_2  and  C2_3 
ROOT
ATOM      1  C2  UNL d   1       0.095   0.299  -0.022  0.00  0.00    -0.077 A 
ATOM      2  C3  UNL d   1       0.915   1.368  -0.410  0.00  0.00     0.002 A 
ATOM      3  C4  UNL d   1       0.499   2.686  -0.210  0.00  0.00     0.002 A 
ATOM      4  C5  UNL d   1      -0.736   2.946   0.382  0.00  0.00    -0.004 A 
ATOM      5  C6  UNL d   1      -1.559   1.890   0.769  0.00  0.00     0.002 A 
ATOM      6  C7  UNL d   1      -1.145   0.572   0.569  0.00  0.00     0.002 A 
ENDROOT
BRANCH   1   7
ATOM      7  C1  UNL d   1       0.564  -1.122  -0.192  0.00  0.00     0.055 C 
ATOM      8  C   UNL d   1      -0.576  -2.033  -0.626  0.00  0.00     0.019 C 
ENDBRANCH   1   7
TORSDOF 1
ENDMDL
