MODEL 1
REMARK minimizedAffinity -2.70569396
REMARK minimizedRMSD -1
REMARK  1 active torsions:
REMARK  status: ('A' for Active; 'I' for Inactive)
REMARK    1  A    between atoms: C1_2  and  C2_3 
ROOT
ATOM      1  C2  UNL d   1      -0.418  -1.246   0.065  0.00  0.00    -0.077 A 
ATOM      2  C3  UNL d   1      -1.486  -0.390   0.369  0.00  0.00     0.002 A 
ATOM      3  C4  UNL d   1      -1.270   0.980   0.528  0.00  0.00     0.002 A 
ATOM      4  C5  UNL d   1       0.011   1.507   0.380  0.00  0.00    -0.004 A 
ATOM      5  C6  UNL d   1       1.081   0.664   0.079  0.00  0.00     0.002 A 
ATOM      6  C7  UNL d   1       0.867  -0.706  -0.078  0.00  0.00     0.002 A 
ENDROOT
BRANCH   1   7
ATOM      7  C1  UNL d   1      -0.657  -2.717  -0.154  0.00  0.00     0.055 C 
ATOM      8  C   UNL d   1      -0.555  -3.080  -1.629  0.00  0.00     0.019 C 
ENDBRANCH   1   7
TORSDOF 1
ENDMDL
