MODEL 1
REMARK minimizedAffinity -3.50361466
REMARK minimizedRMSD -1
REMARK  0 active torsions:
REMARK  status: ('A' for Active; 'I' for Inactive)
ROOT
ATOM      1  C1  DEN d   1       3.797   3.145  -5.084  0.00  0.00     0.130 A 
ATOM      2  C2  DEN d   1       4.934   3.007  -5.990  0.00  0.00    -0.031 A 
ATOM      3  C3  DEN d   1       5.999   3.920  -5.529  0.00  0.00     0.027 A 
ATOM      4  C4  DEN d   1       5.999   5.523  -3.508  0.00  0.00     0.027 A 
ATOM      5  C5  DEN d   1       5.254   5.997  -2.451  0.00  0.00    -0.003 A 
ATOM      6  C6  DEN d   1       3.969   5.582  -2.219  0.00  0.00     0.001 A 
ATOM      7  C7  DEN d   1       3.406   4.632  -3.030  0.00  0.00     0.017 A 
ATOM      8  C8  DEN d   1       4.149   4.155  -4.102  0.00  0.00    -0.094 A 
ATOM      9  C9  DEN d   1       5.450   4.578  -4.312  0.00  0.00    -0.072 A 
ENDROOT
TORSDOF 0
ENDMDL
