MODEL 1
REMARK minimizedAffinity -5.97694921
REMARK minimizedRMSD -1
REMARK  0 active torsions:
REMARK  status: ('A' for Active; 'I' for Inactive)
ROOT
ATOM      1  C1  DEN d   1       5.997   5.193  -2.708  0.00  0.00     0.130 A 
ATOM      2  C2  DEN d   1       4.912   5.704  -1.875  0.00  0.00    -0.031 A 
ATOM      3  C3  DEN d   1       3.634   5.269  -2.472  0.00  0.00     0.027 A 
ATOM      4  C4  DEN d   1       3.231   3.857  -4.592  0.00  0.00     0.027 A 
ATOM      5  C5  DEN d   1       3.844   3.203  -5.639  0.00  0.00    -0.003 A 
ATOM      6  C6  DEN d   1       5.204   3.196  -5.800  0.00  0.00     0.001 A 
ATOM      7  C7  DEN d   1       6.000   3.817  -4.874  0.00  0.00     0.017 A 
ATOM      8  C8  DEN d   1       5.389   4.485  -3.820  0.00  0.00    -0.094 A 
ATOM      9  C9  DEN d   1       4.013   4.470  -3.668  0.00  0.00    -0.072 A 
ENDROOT
TORSDOF 0
ENDMDL
