MODEL 1
REMARK minimizedAffinity 10.0115013
REMARK minimizedRMSD -1
REMARK  0 active torsions:
REMARK  status: ('A' for Active; 'I' for Inactive)
ROOT
ATOM      1  C1  DEN d   1       2.492  -3.523  -3.663  0.00  0.00     0.130 A 
ATOM      2  C2  DEN d   1       2.398  -4.168  -4.970  0.00  0.00    -0.031 A 
ATOM      3  C3  DEN d   1       0.984  -4.131  -5.396  0.00  0.00     0.027 A 
ATOM      4  C4  DEN d   1      -1.055  -3.138  -4.168  0.00  0.00     0.027 A 
ATOM      5  C5  DEN d   1      -1.473  -2.496  -3.024  0.00  0.00    -0.003 A 
ATOM      6  C6  DEN d   1      -0.612  -2.184  -2.005  0.00  0.00     0.001 A 
ATOM      7  C7  DEN d   1       0.721  -2.474  -2.131  0.00  0.00     0.017 A 
ATOM      8  C8  DEN d   1       1.149  -3.128  -3.279  0.00  0.00    -0.094 A 
ATOM      9  C9  DEN d   1       0.265  -3.423  -4.303  0.00  0.00    -0.072 A 
ENDROOT
TORSDOF 0
ENDMDL
