MODEL 1
REMARK minimizedAffinity 2.11903477
REMARK minimizedRMSD -1
REMARK  0 active torsions:
REMARK  status: ('A' for Active; 'I' for Inactive)
ROOT
ATOM      1  C1  DEN d   1       0.613  -3.485  -3.113  0.00  0.00     0.130 A 
ATOM      2  C2  DEN d   1      -0.807  -3.463  -2.775  0.00  0.00    -0.031 A 
ATOM      3  C3  DEN d   1      -1.053  -2.288  -1.914  0.00  0.00     0.027 A 
ATOM      4  C4  DEN d   1       0.619  -0.509  -1.082  0.00  0.00     0.027 A 
ATOM      5  C5  DEN d   1       1.938  -0.113  -1.098  0.00  0.00    -0.003 A 
ATOM      6  C6  DEN d   1       2.906  -0.827  -1.753  0.00  0.00     0.001 A 
ATOM      7  C7  DEN d   1       2.562  -1.950  -2.457  0.00  0.00     0.017 A 
ATOM      8  C8  DEN d   1       1.235  -2.359  -2.440  0.00  0.00    -0.094 A 
ATOM      9  C9  DEN d   1       0.269  -1.617  -1.782  0.00  0.00    -0.072 A 
ENDROOT
TORSDOF 0
ENDMDL
