MODEL 1
REMARK minimizedAffinity 0.14632304
REMARK minimizedRMSD -1
REMARK  0 active torsions:
REMARK  status: ('A' for Active; 'I' for Inactive)
ROOT
ATOM      1  C1  DEN d   1       5.908   4.117  -5.356  0.00  0.00     0.130 A 
ATOM      2  C2  DEN d   1       4.861   3.320  -5.990  0.00  0.00    -0.031 A 
ATOM      3  C3  DEN d   1       3.677   3.337  -5.109  0.00  0.00     0.027 A 
ATOM      4  C4  DEN d   1       3.361   4.517  -2.838  0.00  0.00     0.027 A 
ATOM      5  C5  DEN d   1       3.972   5.303  -1.886  0.00  0.00    -0.003 A 
ATOM      6  C6  DEN d   1       5.272   5.717  -2.007  0.00  0.00     0.001 A 
ATOM      7  C7  DEN d   1       5.989   5.385  -3.126  0.00  0.00     0.017 A 
ATOM      8  C8  DEN d   1       5.382   4.586  -4.086  0.00  0.00    -0.094 A 
ATOM      9  C9  DEN d   1       4.063   4.188  -3.951  0.00  0.00    -0.072 A 
ENDROOT
TORSDOF 0
ENDMDL
