MODEL 1
REMARK minimizedAffinity 11.7361698
REMARK minimizedRMSD -1
REMARK  0 active torsions:
REMARK  status: ('A' for Active; 'I' for Inactive)
ROOT
ATOM      1  C1  DEN d   1       5.908  -1.480  -1.504  0.00  0.00     0.130 A 
ATOM      2  C2  DEN d   1       5.998  -2.894  -1.152  0.00  0.00    -0.031 A 
ATOM      3  C3  DEN d   1       5.440  -3.679  -2.272  0.00  0.00     0.027 A 
ATOM      4  C4  DEN d   1       4.456  -2.846  -4.506  0.00  0.00     0.027 A 
ATOM      5  C5  DEN d   1       4.156  -1.728  -5.253  0.00  0.00    -0.003 A 
ATOM      6  C6  DEN d   1       4.386  -0.459  -4.792  0.00  0.00     0.001 A 
ATOM      7  C7  DEN d   1       4.973  -0.277  -3.569  0.00  0.00     0.017 A 
ATOM      8  C8  DEN d   1       5.272  -1.399  -2.806  0.00  0.00    -0.094 A 
ATOM      9  C9  DEN d   1       5.043  -2.674  -3.294  0.00  0.00    -0.072 A 
ENDROOT
TORSDOF 0
ENDMDL
