MODEL 1
REMARK minimizedAffinity -0.66077745
REMARK minimizedRMSD -1
REMARK  0 active torsions:
REMARK  status: ('A' for Active; 'I' for Inactive)
ROOT
ATOM      1  C1  DEN d   1       3.910  -3.760  -4.227  0.00  0.00     0.130 A 
ATOM      2  C2  DEN d   1       3.396  -2.431  -4.545  0.00  0.00    -0.031 A 
ATOM      3  C3  DEN d   1       3.858  -1.500  -3.495  0.00  0.00     0.027 A 
ATOM      4  C4  DEN d   1       5.316  -1.985  -1.424  0.00  0.00     0.027 A 
ATOM      5  C5  DEN d   1       5.983  -2.967  -0.725  0.00  0.00    -0.003 A 
ATOM      6  C6  DEN d   1       5.977  -4.278  -1.123  0.00  0.00     0.001 A 
ATOM      7  C7  DEN d   1       5.329  -4.635  -2.276  0.00  0.00     0.017 A 
ATOM      8  C8  DEN d   1       4.648  -3.651  -2.982  0.00  0.00    -0.094 A 
ATOM      9  C9  DEN d   1       4.676  -2.330  -2.570  0.00  0.00    -0.072 A 
ENDROOT
TORSDOF 0
ENDMDL
