MODEL 1
REMARK minimizedAffinity 6.05306864
REMARK minimizedRMSD -1
REMARK  0 active torsions:
REMARK  status: ('A' for Active; 'I' for Inactive)
ROOT
ATOM      1  C1  DEN d   1       1.980  -2.020  -2.955  0.00  0.00     0.130 A 
ATOM      2  C2  DEN d   1       1.472  -2.628  -4.181  0.00  0.00    -0.031 A 
ATOM      3  C3  DEN d   1       2.605  -3.271  -4.876  0.00  0.00     0.027 A 
ATOM      4  C4  DEN d   1       5.084  -3.386  -4.173  0.00  0.00     0.027 A 
ATOM      5  C5  DEN d   1       5.999  -3.007  -3.216  0.00  0.00    -0.003 A 
ATOM      6  C6  DEN d   1       5.647  -2.249  -2.130  0.00  0.00     0.001 A 
ATOM      7  C7  DEN d   1       4.338  -1.885  -1.952  0.00  0.00     0.017 A 
ATOM      8  C8  DEN d   1       3.412  -2.257  -2.917  0.00  0.00    -0.094 A 
ATOM      9  C9  DEN d   1       3.785  -3.034  -4.001  0.00  0.00    -0.072 A 
ENDROOT
TORSDOF 0
ENDMDL
