MODEL 1
REMARK minimizedAffinity 10.0054855
REMARK minimizedRMSD -1
REMARK  0 active torsions:
REMARK  status: ('A' for Active; 'I' for Inactive)
ROOT
ATOM      1  C1  DEN d   1       4.616  -2.819  -1.728  0.00  0.00     0.130 A 
ATOM      2  C2  DEN d   1       5.999  -2.655  -2.166  0.00  0.00    -0.031 A 
ATOM      3  C3  DEN d   1       6.000  -2.516  -3.636  0.00  0.00     0.027 A 
ATOM      4  C4  DEN d   1       4.002  -2.534  -5.268  0.00  0.00     0.027 A 
ATOM      5  C5  DEN d   1       2.634  -2.657  -5.366  0.00  0.00    -0.003 A 
ATOM      6  C6  DEN d   1       1.840  -2.874  -4.271  0.00  0.00     0.001 A 
ATOM      7  C7  DEN d   1       2.404  -2.931  -3.024  0.00  0.00     0.017 A 
ATOM      8  C8  DEN d   1       3.784  -2.815  -2.918  0.00  0.00    -0.094 A 
ATOM      9  C9  DEN d   1       4.568  -2.583  -4.035  0.00  0.00    -0.072 A 
ENDROOT
TORSDOF 0
ENDMDL
