MODEL 1
REMARK minimizedAffinity 9.82505512
REMARK minimizedRMSD -1
REMARK  0 active torsions:
REMARK  status: ('A' for Active; 'I' for Inactive)
ROOT
ATOM      1  C1  DEN d   1      -1.137  -3.000  -3.755  0.00  0.00     0.130 A 
ATOM      2  C2  DEN d   1      -0.779  -2.420  -2.464  0.00  0.00    -0.031 A 
ATOM      3  C3  DEN d   1       0.689  -2.492  -2.322  0.00  0.00     0.027 A 
ATOM      4  C4  DEN d   1       2.434  -3.436  -3.970  0.00  0.00     0.027 A 
ATOM      5  C5  DEN d   1       2.609  -4.045  -5.192  0.00  0.00    -0.003 A 
ATOM      6  C6  DEN d   1       1.554  -4.378  -6.000  0.00  0.00     0.001 A 
ATOM      7  C7  DEN d   1       0.278  -4.061  -5.615  0.00  0.00     0.017 A 
ATOM      8  C8  DEN d   1       0.093  -3.453  -4.380  0.00  0.00    -0.094 A 
ATOM      9  C9  DEN d   1       1.174  -3.114  -3.583  0.00  0.00    -0.072 A 
ENDROOT
TORSDOF 0
ENDMDL
