MODEL 1
REMARK minimizedAffinity 7.18391895
REMARK minimizedRMSD -1
REMARK  0 active torsions:
REMARK  status: ('A' for Active; 'I' for Inactive)
ROOT
ATOM      1  C1  DEN d   1       2.459   3.580  -3.650  0.00  0.00     0.130 A 
ATOM      2  C2  DEN d   1       1.623   4.773  -3.753  0.00  0.00    -0.031 A 
ATOM      3  C3  DEN d   1       2.431   5.934  -3.327  0.00  0.00     0.027 A 
ATOM      4  C4  DEN d   1       4.882   6.000  -2.527  0.00  0.00     0.027 A 
ATOM      5  C5  DEN d   1       5.997   5.236  -2.260  0.00  0.00    -0.003 A 
ATOM      6  C6  DEN d   1       6.000   3.873  -2.405  0.00  0.00     0.001 A 
ATOM      7  C7  DEN d   1       4.879   3.238  -2.871  0.00  0.00     0.017 A 
ATOM      8  C8  DEN d   1       3.749   4.000  -3.134  0.00  0.00    -0.094 A 
ATOM      9  C9  DEN d   1       3.770   5.378  -2.993  0.00  0.00    -0.072 A 
ENDROOT
TORSDOF 0
ENDMDL
