MODEL 1
REMARK minimizedAffinity 17.8721294
REMARK minimizedRMSD -1
REMARK  0 active torsions:
REMARK  status: ('A' for Active; 'I' for Inactive)
ROOT
ATOM      1  C1  DEN d   1      -1.118  -2.502   2.984  0.00  0.00     0.130 A 
ATOM      2  C2  DEN d   1      -1.528  -2.063   1.652  0.00  0.00    -0.031 A 
ATOM      3  C3  DEN d   1      -2.252  -0.784   1.796  0.00  0.00     0.027 A 
ATOM      4  C4  DEN d   1      -2.770   0.556   3.938  0.00  0.00     0.027 A 
ATOM      5  C5  DEN d   1      -2.634   0.578   5.308  0.00  0.00    -0.003 A 
ATOM      6  C6  DEN d   1      -2.019  -0.433   5.998  0.00  0.00     0.001 A 
ATOM      7  C7  DEN d   1      -1.476  -1.488   5.314  0.00  0.00     0.017 A 
ATOM      8  C8  DEN d   1      -1.615  -1.521   3.932  0.00  0.00    -0.094 A 
ATOM      9  C9  DEN d   1      -2.230  -0.483   3.253  0.00  0.00    -0.072 A 
ENDROOT
TORSDOF 0
ENDMDL
