MODEL 1
REMARK minimizedAffinity 15.6736832
REMARK minimizedRMSD -1
REMARK  0 active torsions:
REMARK  status: ('A' for Active; 'I' for Inactive)
ROOT
ATOM      1  C1  DEN d   1       5.586  -4.142   3.650  0.00  0.00     0.130 A 
ATOM      2  C2  DEN d   1       6.000  -4.621   4.966  0.00  0.00    -0.031 A 
ATOM      3  C3  DEN d   1       5.186  -3.924   5.982  0.00  0.00     0.027 A 
ATOM      4  C4  DEN d   1       3.332  -2.162   5.647  0.00  0.00     0.027 A 
ATOM      5  C5  DEN d   1       2.637  -1.428   4.712  0.00  0.00    -0.003 A 
ATOM      6  C6  DEN d   1       2.897  -1.522   3.370  0.00  0.00     0.001 A 
ATOM      7  C7  DEN d   1       3.846  -2.402   2.923  0.00  0.00     0.017 A 
ATOM      8  C8  DEN d   1       4.557  -3.139   3.860  0.00  0.00    -0.094 A 
ATOM      9  C9  DEN d   1       4.271  -3.040   5.211  0.00  0.00    -0.072 A 
ENDROOT
TORSDOF 0
ENDMDL
