MODEL 1
REMARK minimizedAffinity 6.04795504
REMARK minimizedRMSD -1
REMARK  0 active torsions:
REMARK  status: ('A' for Active; 'I' for Inactive)
ROOT
ATOM      1  C1  DEN d   1       2.299   4.412  -2.940  0.00  0.00     0.130 A 
ATOM      2  C2  DEN d   1       2.303   4.909  -4.313  0.00  0.00    -0.031 A 
ATOM      3  C3  DEN d   1       3.581   5.612  -4.541  0.00  0.00     0.027 A 
ATOM      4  C4  DEN d   1       5.547   5.974  -2.910  0.00  0.00     0.027 A 
ATOM      5  C5  DEN d   1       6.000   5.745  -1.630  0.00  0.00    -0.003 A 
ATOM      6  C6  DEN d   1       5.244   5.090  -0.694  0.00  0.00     0.001 A 
ATOM      7  C7  DEN d   1       4.011   4.602  -1.038  0.00  0.00     0.017 A 
ATOM      8  C8  DEN d   1       3.544   4.836  -2.325  0.00  0.00    -0.094 A 
ATOM      9  C9  DEN d   1       4.329   5.488  -3.260  0.00  0.00    -0.072 A 
ENDROOT
TORSDOF 0
ENDMDL
