MODEL 1
REMARK minimizedAffinity 8.91518021
REMARK minimizedRMSD -1
REMARK  0 active torsions:
REMARK  status: ('A' for Active; 'I' for Inactive)
ROOT
ATOM      1  C1  DEN d   1       2.973  -1.873  -3.978  0.00  0.00     0.130 A 
ATOM      2  C2  DEN d   1       3.884  -2.848  -3.383  0.00  0.00    -0.031 A 
ATOM      3  C3  DEN d   1       5.235  -2.252  -3.354  0.00  0.00     0.027 A 
ATOM      4  C4  DEN d   1       6.000   0.074  -4.164  0.00  0.00     0.027 A 
ATOM      5  C5  DEN d   1       5.588   1.249  -4.753  0.00  0.00    -0.003 A 
ATOM      6  C6  DEN d   1       4.294   1.451  -5.152  0.00  0.00     0.001 A 
ATOM      7  C7  DEN d   1       3.354   0.480  -4.927  0.00  0.00     0.017 A 
ATOM      8  C8  DEN d   1       3.763  -0.711  -4.341  0.00  0.00    -0.094 A 
ATOM      9  C9  DEN d   1       5.074  -0.891  -3.933  0.00  0.00    -0.072 A 
ENDROOT
TORSDOF 0
ENDMDL
