MODEL 1
REMARK minimizedAffinity 3.60835028
REMARK minimizedRMSD -1
REMARK  0 active torsions:
REMARK  status: ('A' for Active; 'I' for Inactive)
ROOT
ATOM      1  C1  DEN d   1       3.639   4.406  -2.696  0.00  0.00     0.130 A 
ATOM      2  C2  DEN d   1       4.878   5.009  -2.212  0.00  0.00    -0.031 A 
ATOM      3  C3  DEN d   1       6.000   4.418  -2.970  0.00  0.00     0.027 A 
ATOM      4  C4  DEN d   1       5.939   2.641  -4.838  0.00  0.00     0.027 A 
ATOM      5  C5  DEN d   1       5.118   1.824  -5.583  0.00  0.00    -0.003 A 
ATOM      6  C6  DEN d   1       3.762   1.784  -5.396  0.00  0.00     0.001 A 
ATOM      7  C7  DEN d   1       3.180   2.612  -4.472  0.00  0.00     0.017 A 
ATOM      8  C8  DEN d   1       4.002   3.434  -3.712  0.00  0.00    -0.094 A 
ATOM      9  C9  DEN d   1       5.369   3.468  -3.924  0.00  0.00    -0.072 A 
ENDROOT
TORSDOF 0
ENDMDL
