MODEL 1
REMARK minimizedAffinity 12.2615309
REMARK minimizedRMSD -1
REMARK  0 active torsions:
REMARK  status: ('A' for Active; 'I' for Inactive)
ROOT
ATOM      1  C1  DEN d   1       3.621   5.251  -2.075  0.00  0.00     0.130 A 
ATOM      2  C2  DEN d   1       4.843   5.839  -1.533  0.00  0.00    -0.031 A 
ATOM      3  C3  DEN d   1       5.993   5.097  -2.088  0.00  0.00     0.027 A 
ATOM      4  C4  DEN d   1       6.000   3.108  -3.730  0.00  0.00     0.027 A 
ATOM      5  C5  DEN d   1       5.205   2.251  -4.459  0.00  0.00    -0.003 A 
ATOM      6  C6  DEN d   1       3.837   2.312  -4.419  0.00  0.00     0.001 A 
ATOM      7  C7  DEN d   1       3.223   3.279  -3.667  0.00  0.00     0.017 A 
ATOM      8  C8  DEN d   1       4.017   4.141  -2.924  0.00  0.00    -0.094 A 
ATOM      9  C9  DEN d   1       5.399   4.072  -2.988  0.00  0.00    -0.072 A 
ENDROOT
TORSDOF 0
ENDMDL
