MODEL 1
REMARK minimizedAffinity 12.2616072
REMARK minimizedRMSD -1
REMARK  0 active torsions:
REMARK  status: ('A' for Active; 'I' for Inactive)
ROOT
ATOM      1  C1  DEN d   1       2.462   4.093   0.646  0.00  0.00     0.130 A 
ATOM      2  C2  DEN d   1       1.004   4.112   0.563  0.00  0.00    -0.031 A 
ATOM      3  C3  DEN d   1       0.629   4.568  -0.790  0.00  0.00     0.027 A 
ATOM      4  C4  DEN d   1       2.157   5.240  -2.757  0.00  0.00     0.027 A 
ATOM      5  C5  DEN d   1       3.465   5.396  -3.160  0.00  0.00    -0.003 A 
ATOM      6  C6  DEN d   1       4.520   5.164  -2.319  0.00  0.00     0.001 A 
ATOM      7  C7  DEN d   1       4.288   4.718  -1.044  0.00  0.00     0.017 A 
ATOM      8  C8  DEN d   1       2.972   4.565  -0.629  0.00  0.00    -0.094 A 
ATOM      9  C9  DEN d   1       1.918   4.794  -1.498  0.00  0.00    -0.072 A 
ENDROOT
TORSDOF 0
ENDMDL
