MODEL 1
REMARK minimizedAffinity -5.63207006
REMARK minimizedRMSD -1
REMARK  2 active torsions:
REMARK  status: ('A' for Active; 'I' for Inactive)
REMARK    1  A    between atoms: C2'_3  and  C1'_4 
REMARK    2  A    between atoms: C1'_4  and  C1_5 
ROOT
ATOM      1  C1  I4B d   1      -0.002  -0.024   0.284  0.00  0.00    -0.075 A 
ATOM      2  C2  I4B d   1       0.102  -0.983  -0.693  0.00  0.00     0.003 A 
ATOM      3  C3  I4B d   1       0.841  -0.722  -1.872  0.00  0.00     0.002 A 
ATOM      4  C4  I4B d   1       1.414   0.520  -2.054  0.00  0.00    -0.004 A 
ATOM      5  C5  I4B d   1       1.328   1.483  -1.052  0.00  0.00     0.002 A 
ATOM      6  C6  I4B d   1       0.626   1.205   0.130  0.00  0.00     0.003 A 
ENDROOT
BRANCH   1   7
ATOM      7  C1' I4B d   1      -0.818  -0.321   1.502  0.00  0.00     0.060 C 
BRANCH   7   8
ATOM      8  C2' I4B d   1      -2.072   0.526   1.442  0.00  0.00    -0.013 C 
ATOM      9  C4' I4B d   1      -3.228  -0.252   0.870  0.00  0.00     0.013 C 
ATOM     10  C3' I4B d   1      -2.376   1.004   2.831  0.00  0.00     0.013 C 
ENDBRANCH   7   8
ENDBRANCH   1   7
TORSDOF 2
ENDMDL
