MODEL 1
REMARK minimizedAffinity -3.2871654
REMARK minimizedRMSD -1
REMARK  2 active torsions:
REMARK  status: ('A' for Active; 'I' for Inactive)
REMARK    1  A    between atoms: C2'_3  and  C1'_4 
REMARK    2  A    between atoms: C1'_4  and  C1_5 
ROOT
ATOM      1  C1  I4B d   1       0.035   0.009   0.162  0.00  0.00    -0.075 A 
ATOM      2  C2  I4B d   1       0.898   1.076   0.133  0.00  0.00     0.003 A 
ATOM      3  C3  I4B d   1       1.728   1.290  -0.994  0.00  0.00     0.002 A 
ATOM      4  C4  I4B d   1       1.699   0.392  -2.041  0.00  0.00    -0.004 A 
ATOM      5  C5  I4B d   1       0.806  -0.676  -2.020  0.00  0.00     0.002 A 
ATOM      6  C6  I4B d   1      -0.040  -0.862  -0.917  0.00  0.00     0.003 A 
ENDROOT
BRANCH   1   7
ATOM      7  C1' I4B d   1      -0.804  -0.206   1.382  0.00  0.00     0.060 C 
BRANCH   7   8
ATOM      8  C2' I4B d   1      -2.159   0.425   1.134  0.00  0.00    -0.013 C 
ATOM      9  C4' I4B d   1      -3.213  -0.624   0.892  0.00  0.00     0.013 C 
ATOM     10  C3' I4B d   1      -2.500   1.271   2.324  0.00  0.00     0.013 C 
ENDBRANCH   7   8
ENDBRANCH   1   7
TORSDOF 2
ENDMDL
