MODEL 1
REMARK minimizedAffinity -3.79074788
REMARK minimizedRMSD -1
REMARK  2 active torsions:
REMARK  status: ('A' for Active; 'I' for Inactive)
REMARK    1  A    between atoms: C2'_3  and  C1'_4 
REMARK    2  A    between atoms: C1'_4  and  C1_5 
ROOT
ATOM      1  C1  I4B d   1      -1.571   0.507   1.829  0.00  0.00    -0.075 A 
ATOM      2  C2  I4B d   1      -2.603  -0.388   1.694  0.00  0.00     0.003 A 
ATOM      3  C3  I4B d   1      -3.941   0.032   1.892  0.00  0.00     0.002 A 
ATOM      4  C4  I4B d   1      -4.195   1.334   2.271  0.00  0.00    -0.004 A 
ATOM      5  C5  I4B d   1      -3.150   2.246   2.385  0.00  0.00     0.002 A 
ATOM      6  C6  I4B d   1      -1.830   1.833   2.151  0.00  0.00     0.003 A 
ENDROOT
BRANCH   1   7
ATOM      7  C1' I4B d   1      -0.168   0.022   1.645  0.00  0.00     0.060 C 
BRANCH   7   8
ATOM      8  C2' I4B d   1       0.067  -0.177   0.162  0.00  0.00    -0.013 C 
ATOM      9  C4' I4B d   1       1.124   0.764  -0.354  0.00  0.00     0.013 C 
ATOM     10  C3' I4B d   1       0.461  -1.607  -0.057  0.00  0.00     0.013 C 
ENDBRANCH   7   8
ENDBRANCH   1   7
TORSDOF 2
ENDMDL
