MODEL 1
REMARK minimizedAffinity -1.5269022
REMARK minimizedRMSD -1
REMARK  2 active torsions:
REMARK  status: ('A' for Active; 'I' for Inactive)
REMARK    1  A    between atoms: C2'_3  and  C1'_4 
REMARK    2  A    between atoms: C1'_4  and  C1_5 
ROOT
ATOM      1  C1  I4B d   1       0.377  -0.448  -1.081  0.00  0.00    -0.075 A 
ATOM      2  C2  I4B d   1       0.902   0.298  -2.107  0.00  0.00     0.003 A 
ATOM      3  C3  I4B d   1       1.983  -0.203  -2.872  0.00  0.00     0.002 A 
ATOM      4  C4  I4B d   1       2.536  -1.425  -2.547  0.00  0.00    -0.004 A 
ATOM      5  C5  I4B d   1       1.987  -2.190  -1.522  0.00  0.00     0.002 A 
ATOM      6  C6  I4B d   1       0.892  -1.704  -0.792  0.00  0.00     0.003 A 
ENDROOT
BRANCH   1   7
ATOM      7  C1' I4B d   1      -0.743   0.127  -0.273  0.00  0.00     0.060 C 
BRANCH   7   8
ATOM      8  C2' I4B d   1      -0.267   0.253   1.160  0.00  0.00    -0.013 C 
ATOM      9  C4' I4B d   1       1.043   0.991   1.237  0.00  0.00     0.013 C 
ATOM     10  C3' I4B d   1      -1.334   0.961   1.942  0.00  0.00     0.013 C 
ENDBRANCH   7   8
ENDBRANCH   1   7
TORSDOF 2
ENDMDL
