MODEL 1
REMARK minimizedAffinity -4.89789963
REMARK minimizedRMSD -1
REMARK  2 active torsions:
REMARK  status: ('A' for Active; 'I' for Inactive)
REMARK    1  A    between atoms: C2'_3  and  C1'_4 
REMARK    2  A    between atoms: C1'_4  and  C1_5 
ROOT
ATOM      1  C1  I4B d   1       0.966   0.490  -0.330  0.00  0.00    -0.075 A 
ATOM      2  C2  I4B d   1       0.433  -0.442  -1.186  0.00  0.00     0.003 A 
ATOM      3  C3  I4B d   1       1.214  -0.964  -2.246  0.00  0.00     0.002 A 
ATOM      4  C4  I4B d   1       2.496  -0.493  -2.442  0.00  0.00    -0.004 A 
ATOM      5  C5  I4B d   1       3.042   0.435  -1.560  0.00  0.00     0.002 A 
ATOM      6  C6  I4B d   1       2.277   0.920  -0.490  0.00  0.00     0.003 A 
ENDROOT
BRANCH   1   7
ATOM      7  C1' I4B d   1       0.103   1.045   0.758  0.00  0.00     0.060 C 
BRANCH   7   8
ATOM      8  C2' I4B d   1      -0.604  -0.115   1.430  0.00  0.00    -0.013 C 
ATOM      9  C4' I4B d   1       0.273  -0.760   2.470  0.00  0.00     0.013 C 
ATOM     10  C3' I4B d   1      -1.872   0.406   2.039  0.00  0.00     0.013 C 
ENDBRANCH   7   8
ENDBRANCH   1   7
TORSDOF 2
ENDMDL
