MODEL 1
REMARK minimizedAffinity -4.45239735
REMARK minimizedRMSD -1
REMARK  2 active torsions:
REMARK  status: ('A' for Active; 'I' for Inactive)
REMARK    1  A    between atoms: C2'_3  and  C1'_4 
REMARK    2  A    between atoms: C1'_4  and  C1_5 
ROOT
ATOM      1  C1  I4B d   1      -0.848  -0.016   1.406  0.00  0.00    -0.075 A 
ATOM      2  C2  I4B d   1      -0.566  -1.358   1.361  0.00  0.00     0.003 A 
ATOM      3  C3  I4B d   1       0.192  -1.892   0.291  0.00  0.00     0.002 A 
ATOM      4  C4  I4B d   1       0.603  -1.061  -0.732  0.00  0.00    -0.004 A 
ATOM      5  C5  I4B d   1       0.335   0.303  -0.673  0.00  0.00     0.002 A 
ATOM      6  C6  I4B d   1      -0.384   0.832   0.409  0.00  0.00     0.003 A 
ENDROOT
BRANCH   1   7
ATOM      7  C1' I4B d   1      -1.680   0.508   2.533  0.00  0.00     0.060 C 
BRANCH   7   8
ATOM      8  C2' I4B d   1      -2.919   1.149   1.941  0.00  0.00    -0.013 C 
ATOM      9  C4' I4B d   1      -4.136   0.291   2.162  0.00  0.00     0.013 C 
ATOM     10  C3' I4B d   1      -3.087   2.500   2.570  0.00  0.00     0.013 C 
ENDBRANCH   7   8
ENDBRANCH   1   7
TORSDOF 2
ENDMDL
