MODEL 1
REMARK minimizedAffinity -3.41244435
REMARK minimizedRMSD -1
REMARK  2 active torsions:
REMARK  status: ('A' for Active; 'I' for Inactive)
REMARK    1  A    between atoms: C2'_3  and  C1'_4 
REMARK    2  A    between atoms: C1'_4  and  C1_5 
ROOT
ATOM      1  C1  I4B d   1      -1.558   0.380  -0.220  0.00  0.00    -0.075 A 
ATOM      2  C2  I4B d   1      -1.310  -0.387   0.891  0.00  0.00     0.003 A 
ATOM      3  C3  I4B d   1      -0.162  -1.214   0.944  0.00  0.00     0.002 A 
ATOM      4  C4  I4B d   1       0.677  -1.283  -0.150  0.00  0.00    -0.004 A 
ATOM      5  C5  I4B d   1       0.436  -0.488  -1.267  0.00  0.00     0.002 A 
ATOM      6  C6  I4B d   1      -0.682   0.358  -1.298  0.00  0.00     0.003 A 
ENDROOT
BRANCH   1   7
ATOM      7  C1' I4B d   1      -2.797   1.217  -0.255  0.00  0.00     0.060 C 
BRANCH   7   8
ATOM      8  C2' I4B d   1      -3.585   0.939   1.009  0.00  0.00    -0.013 C 
ATOM      9  C4' I4B d   1      -3.651   2.159   1.889  0.00  0.00     0.013 C 
ATOM     10  C3' I4B d   1      -4.957   0.484   0.609  0.00  0.00     0.013 C 
ENDBRANCH   7   8
ENDBRANCH   1   7
TORSDOF 2
ENDMDL
