MODEL 1
REMARK minimizedAffinity -4.405725
REMARK minimizedRMSD -1
REMARK  2 active torsions:
REMARK  status: ('A' for Active; 'I' for Inactive)
REMARK    1  A    between atoms: C2'_3  and  C1'_4 
REMARK    2  A    between atoms: C1'_4  and  C1_5 
ROOT
ATOM      1  C1  I4B d   1      -0.851  -0.030   0.665  0.00  0.00    -0.075 A 
ATOM      2  C2  I4B d   1      -0.787   0.664  -0.517  0.00  0.00     0.003 A 
ATOM      3  C3  I4B d   1      -0.327   0.026  -1.694  0.00  0.00     0.002 A 
ATOM      4  C4  I4B d   1       0.104  -1.283  -1.633  0.00  0.00    -0.004 A 
ATOM      5  C5  I4B d   1       0.017  -1.992  -0.439  0.00  0.00     0.002 A 
ATOM      6  C6  I4B d   1      -0.475  -1.366   0.715  0.00  0.00     0.003 A 
ENDROOT
BRANCH   1   7
ATOM      7  C1' I4B d   1      -1.312   0.684   1.896  0.00  0.00     0.060 C 
BRANCH   7   8
ATOM      8  C2' I4B d   1      -2.621   1.376   1.573  0.00  0.00    -0.013 C 
ATOM      9  C4' I4B d   1      -3.782   0.424   1.687  0.00  0.00     0.013 C 
ATOM     10  C3' I4B d   1      -2.776   2.535   2.512  0.00  0.00     0.013 C 
ENDBRANCH   7   8
ENDBRANCH   1   7
TORSDOF 2
ENDMDL
