MODEL 1
REMARK minimizedAffinity -4.59911346
REMARK minimizedRMSD -1
REMARK  2 active torsions:
REMARK  status: ('A' for Active; 'I' for Inactive)
REMARK    1  A    between atoms: C2'_3  and  C1'_4 
REMARK    2  A    between atoms: C1'_4  and  C1_5 
ROOT
ATOM      1  C1  I4B d   1      -1.709   0.544   1.836  0.00  0.00    -0.075 A 
ATOM      2  C2  I4B d   1      -1.788   1.855   2.233  0.00  0.00     0.003 A 
ATOM      3  C3  I4B d   1      -3.050   2.479   2.384  0.00  0.00     0.002 A 
ATOM      4  C4  I4B d   1      -4.197   1.775   2.082  0.00  0.00    -0.004 A 
ATOM      5  C5  I4B d   1      -4.116   0.438   1.702  0.00  0.00     0.002 A 
ATOM      6  C6  I4B d   1      -2.865  -0.185   1.590  0.00  0.00     0.003 A 
ENDROOT
BRANCH   1   7
ATOM      7  C1' I4B d   1      -0.359  -0.075   1.655  0.00  0.00     0.060 C 
BRANCH   7   8
ATOM      8  C2' I4B d   1      -0.211  -0.454   0.195  0.00  0.00    -0.013 C 
ATOM      9  C4' I4B d   1       0.778   0.442  -0.503  0.00  0.00     0.013 C 
ATOM     10  C3' I4B d   1       0.218  -1.889   0.131  0.00  0.00     0.013 C 
ENDBRANCH   7   8
ENDBRANCH   1   7
TORSDOF 2
ENDMDL
