MODEL 1
REMARK minimizedAffinity -4.09162951
REMARK minimizedRMSD -1
REMARK  2 active torsions:
REMARK  status: ('A' for Active; 'I' for Inactive)
REMARK    1  A    between atoms: C2'_3  and  C1'_4 
REMARK    2  A    between atoms: C1'_4  and  C1_5 
ROOT
ATOM      1  C1  I4B d   1      -1.470   0.260   1.430  0.00  0.00    -0.075 A 
ATOM      2  C2  I4B d   1      -1.713   1.322   2.265  0.00  0.00     0.003 A 
ATOM      3  C3  I4B d   1      -3.043   1.717   2.548  0.00  0.00     0.002 A 
ATOM      4  C4  I4B d   1      -4.092   1.059   1.938  0.00  0.00    -0.004 A 
ATOM      5  C5  I4B d   1      -3.845  -0.032   1.110  0.00  0.00     0.002 A 
ATOM      6  C6  I4B d   1      -2.526  -0.442   0.864  0.00  0.00     0.003 A 
ENDROOT
BRANCH   1   7
ATOM      7  C1' I4B d   1      -0.053  -0.110   1.127  0.00  0.00     0.060 C 
BRANCH   7   8
ATOM      8  C2' I4B d   1       0.091  -0.214  -0.378  0.00  0.00    -0.013 C 
ATOM      9  C4' I4B d   1       1.034   0.833  -0.909  0.00  0.00     0.013 C 
ATOM     10  C3' I4B d   1       0.577  -1.595  -0.702  0.00  0.00     0.013 C 
ENDBRANCH   7   8
ENDBRANCH   1   7
TORSDOF 2
ENDMDL
