MODEL 1
REMARK minimizedAffinity -0.406539232
REMARK minimizedRMSD -1
REMARK  2 active torsions:
REMARK  status: ('A' for Active; 'I' for Inactive)
REMARK    1  A    between atoms: C2'_3  and  C1'_4 
REMARK    2  A    between atoms: C1'_4  and  C1_5 
ROOT
ATOM      1  C1  I4B d   1      -0.954   0.177   0.186  0.00  0.00    -0.075 A 
ATOM      2  C2  I4B d   1      -0.131   1.134  -0.355  0.00  0.00     0.003 A 
ATOM      3  C3  I4B d   1       1.197   0.808  -0.721  0.00  0.00     0.002 A 
ATOM      4  C4  I4B d   1       1.674  -0.465  -0.484  0.00  0.00    -0.004 A 
ATOM      5  C5  I4B d   1       0.832  -1.440   0.043  0.00  0.00     0.002 A 
ATOM      6  C6  I4B d   1      -0.494  -1.121   0.368  0.00  0.00     0.003 A 
ENDROOT
BRANCH   1   7
ATOM      7  C1' I4B d   1      -2.340   0.565   0.592  0.00  0.00     0.060 C 
BRANCH   7   8
ATOM      8  C2' I4B d   1      -2.246   1.814   1.444  0.00  0.00    -0.013 C 
ATOM      9  C4' I4B d   1      -3.574   2.518   1.529  0.00  0.00     0.013 C 
ATOM     10  C3' I4B d   1      -1.759   1.410   2.804  0.00  0.00     0.013 C 
ENDBRANCH   7   8
ENDBRANCH   1   7
TORSDOF 2
ENDMDL
