MODEL 1
REMARK minimizedAffinity -4.32353067
REMARK minimizedRMSD -1
REMARK  2 active torsions:
REMARK  status: ('A' for Active; 'I' for Inactive)
REMARK    1  A    between atoms: C2'_3  and  C1'_4 
REMARK    2  A    between atoms: C1'_4  and  C1_5 
ROOT
ATOM      1  C1  I4B d   1      -0.708   0.312  -0.134  0.00  0.00    -0.075 A 
ATOM      2  C2  I4B d   1      -1.320   1.458  -0.576  0.00  0.00     0.003 A 
ATOM      3  C3  I4B d   1      -2.152   2.203   0.296  0.00  0.00     0.002 A 
ATOM      4  C4  I4B d   1      -2.383   1.741   1.575  0.00  0.00    -0.004 A 
ATOM      5  C5  I4B d   1      -1.743   0.590   2.028  0.00  0.00     0.002 A 
ATOM      6  C6  I4B d   1      -0.891  -0.122   1.172  0.00  0.00     0.003 A 
ENDROOT
BRANCH   1   7
ATOM      7  C1' I4B d   1       0.137  -0.468  -1.091  0.00  0.00     0.060 C 
BRANCH   7   8
ATOM      8  C2' I4B d   1       0.986   0.515  -1.871  0.00  0.00    -0.013 C 
ATOM      9  C4' I4B d   1       2.234   0.882  -1.111  0.00  0.00     0.013 C 
ATOM     10  C3' I4B d   1       1.321  -0.110  -3.193  0.00  0.00     0.013 C 
ENDBRANCH   7   8
ENDBRANCH   1   7
TORSDOF 2
ENDMDL
