MODEL 1
REMARK minimizedAffinity -4.57059288
REMARK minimizedRMSD -1
REMARK  2 active torsions:
REMARK  status: ('A' for Active; 'I' for Inactive)
REMARK    1  A    between atoms: C2'_3  and  C1'_4 
REMARK    2  A    between atoms: C1'_4  and  C1_5 
ROOT
ATOM      1  C1  I4B d   1      -0.450   0.503   0.830  0.00  0.00    -0.075 A 
ATOM      2  C2  I4B d   1      -0.254  -0.766   0.347  0.00  0.00     0.003 A 
ATOM      3  C3  I4B d   1       0.660  -0.993  -0.711  0.00  0.00     0.002 A 
ATOM      4  C4  I4B d   1       1.314   0.078  -1.285  0.00  0.00    -0.004 A 
ATOM      5  C5  I4B d   1       1.131   1.362  -0.778  0.00  0.00     0.002 A 
ATOM      6  C6  I4B d   1       0.253   1.574   0.294  0.00  0.00     0.003 A 
ENDROOT
BRANCH   1   7
ATOM      7  C1' I4B d   1      -1.448   0.711   1.926  0.00  0.00     0.060 C 
BRANCH   7   8
ATOM      8  C2' I4B d   1      -2.723   1.241   1.302  0.00  0.00    -0.013 C 
ATOM      9  C4' I4B d   1      -3.856   0.263   1.461  0.00  0.00     0.013 C 
ATOM     10  C3' I4B d   1      -3.045   2.554   1.952  0.00  0.00     0.013 C 
ENDBRANCH   7   8
ENDBRANCH   1   7
TORSDOF 2
ENDMDL
