MODEL 1
REMARK minimizedAffinity 3.95606446
REMARK minimizedRMSD -1
REMARK  1 active torsions:
REMARK  status: ('A' for Active; 'I' for Inactive)
REMARK    1  A    between atoms: C1_2  and  C2_3 
ROOT
ATOM      1  C2  UNL d   1      -3.397   2.006   3.543  0.00  0.00    -0.077 A 
ATOM      2  C3  UNL d   1      -2.444   2.960   3.161  0.00  0.00     0.002 A 
ATOM      3  C4  UNL d   1      -1.326   2.582   2.414  0.00  0.00     0.002 A 
ATOM      4  C5  UNL d   1      -1.154   1.252   2.039  0.00  0.00    -0.004 A 
ATOM      5  C6  UNL d   1      -2.095   0.295   2.416  0.00  0.00     0.002 A 
ATOM      6  C7  UNL d   1      -3.212   0.670   3.164  0.00  0.00     0.002 A 
ENDROOT
BRANCH   1   7
ATOM      7  C1  UNL d   1      -4.628   2.419   4.306  0.00  0.00     0.055 C 
ATOM      8  C   UNL d   1      -4.342   2.536   5.797  0.00  0.00     0.019 C 
ENDBRANCH   1   7
TORSDOF 1
ENDMDL
