MODEL 1
REMARK minimizedAffinity -6.34933567
REMARK minimizedRMSD -1
REMARK  1 active torsions:
REMARK  status: ('A' for Active; 'I' for Inactive)
REMARK    1  A    between atoms: C1_2  and  C2_3 
ROOT
ATOM      1  C2  UNL d   1      -1.990   0.334   2.229  0.00  0.00    -0.077 A 
ATOM      2  C3  UNL d   1      -1.159   1.463   2.206  0.00  0.00     0.002 A 
ATOM      3  C4  UNL d   1       0.016   1.461   1.452  0.00  0.00     0.002 A 
ATOM      4  C5  UNL d   1       0.368   0.334   0.712  0.00  0.00    -0.004 A 
ATOM      5  C6  UNL d   1      -0.450  -0.795   0.730  0.00  0.00     0.002 A 
ATOM      6  C7  UNL d   1      -1.624  -0.795   1.484  0.00  0.00     0.002 A 
ENDROOT
BRANCH   1   7
ATOM      7  C1  UNL d   1      -3.282   0.352   3.002  0.00  0.00     0.055 C 
ATOM      8  C   UNL d   1      -3.620   1.756   3.482  0.00  0.00     0.019 C 
ENDBRANCH   1   7
TORSDOF 1
ENDMDL
