MODEL 1
REMARK minimizedAffinity -2.52324772
REMARK minimizedRMSD -1
REMARK  1 active torsions:
REMARK  status: ('A' for Active; 'I' for Inactive)
REMARK    1  A    between atoms: C1_2  and  C2_3 
ROOT
ATOM      1  C2  UNL d   1      -0.983   1.082   2.009  0.00  0.00    -0.077 A 
ATOM      2  C3  UNL d   1      -2.148   1.732   2.441  0.00  0.00     0.002 A 
ATOM      3  C4  UNL d   1      -3.212   0.998   2.969  0.00  0.00     0.002 A 
ATOM      4  C5  UNL d   1      -3.120  -0.388   3.073  0.00  0.00    -0.004 A 
ATOM      5  C6  UNL d   1      -1.967  -1.044   2.645  0.00  0.00     0.002 A 
ATOM      6  C7  UNL d   1      -0.903  -0.312   2.115  0.00  0.00     0.002 A 
ENDROOT
BRANCH   1   7
ATOM      7  C1  UNL d   1       0.185   1.876   1.485  0.00  0.00     0.055 C 
ATOM      8  C   UNL d   1       1.248   0.968   0.885  0.00  0.00     0.019 C 
ENDBRANCH   1   7
TORSDOF 1
ENDMDL
