MODEL 1
REMARK minimizedAffinity -4.77757931
REMARK minimizedRMSD -1
REMARK  1 active torsions:
REMARK  status: ('A' for Active; 'I' for Inactive)
REMARK    1  A    between atoms: C1_2  and  C2_3 
ROOT
ATOM      1  C2  UNL d   1      -1.412   1.555   1.932  0.00  0.00    -0.077 A 
ATOM      2  C3  UNL d   1      -1.487   0.174   2.158  0.00  0.00     0.002 A 
ATOM      3  C4  UNL d   1      -0.511  -0.680   1.640  0.00  0.00     0.002 A 
ATOM      4  C5  UNL d   1       0.548  -0.161   0.898  0.00  0.00    -0.004 A 
ATOM      5  C6  UNL d   1       0.630   1.211   0.667  0.00  0.00     0.002 A 
ATOM      6  C7  UNL d   1      -0.345   2.066   1.182  0.00  0.00     0.002 A 
ENDROOT
BRANCH   1   7
ATOM      7  C1  UNL d   1      -2.437   2.483   2.531  0.00  0.00     0.055 C 
ATOM      8  C   UNL d   1      -3.172   1.823   3.689  0.00  0.00     0.019 C 
ENDBRANCH   1   7
TORSDOF 1
ENDMDL
