MODEL 1
REMARK minimizedAffinity -2.63888073
REMARK minimizedRMSD -1
REMARK  1 active torsions:
REMARK  status: ('A' for Active; 'I' for Inactive)
REMARK    1  A    between atoms: C1_2  and  C2_3 
ROOT
ATOM      1  C2  UNL d   1      -1.349   1.774   2.249  0.00  0.00    -0.077 A 
ATOM      2  C3  UNL d   1      -2.168   2.510   3.118  0.00  0.00     0.002 A 
ATOM      3  C4  UNL d   1      -3.356   1.960   3.603  0.00  0.00     0.002 A 
ATOM      4  C5  UNL d   1      -3.733   0.671   3.230  0.00  0.00    -0.004 A 
ATOM      5  C6  UNL d   1      -2.927  -0.067   2.365  0.00  0.00     0.002 A 
ATOM      6  C7  UNL d   1      -1.740   0.481   1.878  0.00  0.00     0.002 A 
ENDROOT
BRANCH   1   7
ATOM      7  C1  UNL d   1      -0.043   2.347   1.764  0.00  0.00     0.055 C 
ATOM      8  C   UNL d   1       0.851   1.265   1.176  0.00  0.00     0.019 C 
ENDBRANCH   1   7
TORSDOF 1
ENDMDL
