MODEL 1
REMARK minimizedAffinity 3.41784811
REMARK minimizedRMSD -1
REMARK  1 active torsions:
REMARK  status: ('A' for Active; 'I' for Inactive)
REMARK    1  A    between atoms: C1_2  and  C2_3 
ROOT
ATOM      1  C2  UNL d   1      -1.040   2.392   1.853  0.00  0.00    -0.077 A 
ATOM      2  C3  UNL d   1       0.156   2.932   1.359  0.00  0.00     0.002 A 
ATOM      3  C4  UNL d   1       1.202   2.094   0.970  0.00  0.00     0.002 A 
ATOM      4  C5  UNL d   1       1.062   0.711   1.067  0.00  0.00    -0.004 A 
ATOM      5  C6  UNL d   1      -0.122   0.164   1.559  0.00  0.00     0.002 A 
ATOM      6  C7  UNL d   1      -1.169   1.000   1.950  0.00  0.00     0.002 A 
ENDROOT
BRANCH   1   7
ATOM      7  C1  UNL d   1      -2.188   3.292   2.227  0.00  0.00     0.055 C 
ATOM      8  C   UNL d   1      -3.062   2.659   3.299  0.00  0.00     0.019 C 
ENDBRANCH   1   7
TORSDOF 1
ENDMDL
