MODEL 1
REMARK minimizedAffinity -5.76015329
REMARK minimizedRMSD -1
REMARK  1 active torsions:
REMARK  status: ('A' for Active; 'I' for Inactive)
REMARK    1  A    between atoms: C1_2  and  C2_3 
ROOT
ATOM      1  C2  UNL d   1      -0.356   0.834   1.091  0.00  0.00    -0.077 A 
ATOM      2  C3  UNL d   1      -1.020  -0.394   1.223  0.00  0.00     0.002 A 
ATOM      3  C4  UNL d   1      -2.237  -0.468   1.904  0.00  0.00     0.002 A 
ATOM      4  C5  UNL d   1      -2.801   0.681   2.454  0.00  0.00    -0.004 A 
ATOM      5  C6  UNL d   1      -2.147   1.906   2.329  0.00  0.00     0.002 A 
ATOM      6  C7  UNL d   1      -0.930   1.982   1.650  0.00  0.00     0.002 A 
ENDROOT
BRANCH   1   7
ATOM      7  C1  UNL d   1       0.932   0.925   0.315  0.00  0.00     0.055 C 
ATOM      8  C   UNL d   1       1.669  -0.406   0.308  0.00  0.00     0.019 C 
ENDBRANCH   1   7
TORSDOF 1
ENDMDL
