MODEL 1
REMARK minimizedAffinity -4.14009047
REMARK minimizedRMSD -1
REMARK  1 active torsions:
REMARK  status: ('A' for Active; 'I' for Inactive)
REMARK    1  A    between atoms: C1_2  and  C2_3 
ROOT
ATOM      1  C2  UNL d   1      -1.387   0.680   1.783  0.00  0.00    -0.077 A 
ATOM      2  C3  UNL d   1      -0.673  -0.153   0.911  0.00  0.00     0.002 A 
ATOM      3  C4  UNL d   1       0.622   0.186   0.511  0.00  0.00     0.002 A 
ATOM      4  C5  UNL d   1       1.214   1.355   0.983  0.00  0.00    -0.004 A 
ATOM      5  C6  UNL d   1       0.511   2.191   1.849  0.00  0.00     0.002 A 
ATOM      6  C7  UNL d   1      -0.783   1.855   2.248  0.00  0.00     0.002 A 
ENDROOT
BRANCH   1   7
ATOM      7  C1  UNL d   1      -2.764   0.291   2.254  0.00  0.00     0.055 C 
ATOM      8  C   UNL d   1      -2.696  -0.675   3.428  0.00  0.00     0.019 C 
ENDBRANCH   1   7
TORSDOF 1
ENDMDL
