MODEL 1
REMARK minimizedAffinity -2.78559995
REMARK minimizedRMSD -1
REMARK  1 active torsions:
REMARK  status: ('A' for Active; 'I' for Inactive)
REMARK    1  A    between atoms: C1_2  and  C2_3 
ROOT
ATOM      1  C2  UNL d   1      -1.388   1.489   2.481  0.00  0.00    -0.077 A 
ATOM      2  C3  UNL d   1      -0.637   2.032   1.429  0.00  0.00     0.002 A 
ATOM      3  C4  UNL d   1      -0.089   1.202   0.449  0.00  0.00     0.002 A 
ATOM      4  C5  UNL d   1      -0.290  -0.175   0.509  0.00  0.00    -0.004 A 
ATOM      5  C6  UNL d   1      -1.034  -0.726   1.552  0.00  0.00     0.002 A 
ATOM      6  C7  UNL d   1      -1.581   0.102   2.533  0.00  0.00     0.002 A 
ENDROOT
BRANCH   1   7
ATOM      7  C1  UNL d   1      -2.020   2.387   3.511  0.00  0.00     0.055 C 
ATOM      8  C   UNL d   1      -3.368   1.846   3.965  0.00  0.00     0.019 C 
ENDBRANCH   1   7
TORSDOF 1
ENDMDL
