MODEL 1
REMARK minimizedAffinity -0.837426782
REMARK minimizedRMSD -1
REMARK  1 active torsions:
REMARK  status: ('A' for Active; 'I' for Inactive)
REMARK    1  A    between atoms: C1_2  and  C2_3 
ROOT
ATOM      1  C2  UNL d   1      -2.250   1.515   2.751  0.00  0.00    -0.077 A 
ATOM      2  C3  UNL d   1      -2.206   2.820   2.241  0.00  0.00     0.002 A 
ATOM      3  C4  UNL d   1      -1.271   3.165   1.263  0.00  0.00     0.002 A 
ATOM      4  C5  UNL d   1      -0.377   2.210   0.784  0.00  0.00    -0.004 A 
ATOM      5  C6  UNL d   1      -0.411   0.909   1.286  0.00  0.00     0.002 A 
ATOM      6  C7  UNL d   1      -1.345   0.563   2.264  0.00  0.00     0.002 A 
ENDROOT
BRANCH   1   7
ATOM      7  C1  UNL d   1      -3.290   1.128   3.769  0.00  0.00     0.055 C 
ATOM      8  C   UNL d   1      -4.094   2.337   4.226  0.00  0.00     0.019 C 
ENDBRANCH   1   7
TORSDOF 1
ENDMDL
