MODEL 1
REMARK minimizedAffinity 3.26407075
REMARK minimizedRMSD -1
REMARK  0 active torsions:
REMARK  status: ('A' for Active; 'I' for Inactive)
ROOT
ATOM      1  C1  DEN d   1       1.306   1.097   0.342  0.00  0.00     0.130 A 
ATOM      2  C2  DEN d   1      -0.008   0.552   0.674  0.00  0.00    -0.031 A 
ATOM      3  C3  DEN d   1      -0.053  -0.848   0.208  0.00  0.00     0.027 A 
ATOM      4  C4  DEN d   1       1.776  -2.220  -0.986  0.00  0.00     0.027 A 
ATOM      5  C5  DEN d   1       3.056  -2.183  -1.493  0.00  0.00    -0.003 A 
ATOM      6  C6  DEN d   1       3.824  -1.050  -1.455  0.00  0.00     0.001 A 
ATOM      7  C7  DEN d   1       3.335   0.082  -0.857  0.00  0.00     0.017 A 
ATOM      8  C8  DEN d   1       2.042   0.054  -0.350  0.00  0.00    -0.094 A 
ATOM      9  C9  DEN d   1       1.286  -1.105  -0.388  0.00  0.00    -0.072 A 
ENDROOT
TORSDOF 0
ENDMDL
