MODEL 1
REMARK minimizedAffinity -0.859118998
REMARK minimizedRMSD -1
REMARK  0 active torsions:
REMARK  status: ('A' for Active; 'I' for Inactive)
ROOT
ATOM      1  C1  DEN d   1       2.593   0.945  -0.427  0.00  0.00     0.130 A 
ATOM      2  C2  DEN d   1       3.911   1.439  -0.818  0.00  0.00    -0.031 A 
ATOM      3  C3  DEN d   1       4.318   2.473   0.154  0.00  0.00     0.027 A 
ATOM      4  C4  DEN d   1       3.044   3.352   2.218  0.00  0.00     0.027 A 
ATOM      5  C5  DEN d   1       1.882   3.244   2.949  0.00  0.00    -0.003 A 
ATOM      6  C6  DEN d   1       0.870   2.394   2.591  0.00  0.00     0.001 A 
ATOM      7  C7  DEN d   1       1.018   1.585   1.496  0.00  0.00     0.017 A 
ATOM      8  C8  DEN d   1       2.184   1.693   0.749  0.00  0.00    -0.094 A 
ATOM      9  C9  DEN d   1       3.201   2.549   1.135  0.00  0.00    -0.072 A 
ENDROOT
TORSDOF 0
ENDMDL
