MODEL 1
REMARK minimizedAffinity 16.4323788
REMARK minimizedRMSD -1
REMARK  0 active torsions:
REMARK  status: ('A' for Active; 'I' for Inactive)
ROOT
ATOM      1  C1  DEN d   1       0.745  -3.764  -0.567  0.00  0.00     0.130 A 
ATOM      2  C2  DEN d   1       1.075  -2.699  -1.511  0.00  0.00    -0.031 A 
ATOM      3  C3  DEN d   1       0.069  -2.719  -2.591  0.00  0.00     0.027 A 
ATOM      4  C4  DEN d   1      -1.960  -4.284  -2.892  0.00  0.00     0.027 A 
ATOM      5  C5  DEN d   1      -2.642  -5.352  -2.353  0.00  0.00    -0.003 A 
ATOM      6  C6  DEN d   1      -2.228  -5.982  -1.210  0.00  0.00     0.001 A 
ATOM      7  C7  DEN d   1      -1.125  -5.521  -0.542  0.00  0.00     0.017 A 
ATOM      8  C8  DEN d   1      -0.427  -4.449  -1.083  0.00  0.00    -0.094 A 
ATOM      9  C9  DEN d   1      -0.869  -3.817  -2.233  0.00  0.00    -0.072 A 
ENDROOT
TORSDOF 0
ENDMDL
