MODEL 1
REMARK minimizedAffinity 1.1472044
REMARK minimizedRMSD -1
REMARK  0 active torsions:
REMARK  status: ('A' for Active; 'I' for Inactive)
ROOT
ATOM      1  C1  DEN d   1       0.986  -2.670  -0.663  0.00  0.00     0.130 A 
ATOM      2  C2  DEN d   1       0.547  -1.691   0.328  0.00  0.00    -0.031 A 
ATOM      3  C3  DEN d   1       1.478  -0.546   0.280  0.00  0.00     0.027 A 
ATOM      4  C4  DEN d   1       3.541  -0.193  -1.226  0.00  0.00     0.027 A 
ATOM      5  C5  DEN d   1       4.317  -0.754  -2.216  0.00  0.00    -0.003 A 
ATOM      6  C6  DEN d   1       4.060  -1.997  -2.730  0.00  0.00     0.001 A 
ATOM      7  C7  DEN d   1       2.972  -2.702  -2.287  0.00  0.00     0.017 A 
ATOM      8  C8  DEN d   1       2.189  -2.146  -1.284  0.00  0.00    -0.094 A 
ATOM      9  C9  DEN d   1       2.459  -0.883  -0.786  0.00  0.00    -0.072 A 
ENDROOT
TORSDOF 0
ENDMDL
