MODEL 1
REMARK minimizedAffinity 10.3813496
REMARK minimizedRMSD -1
REMARK  0 active torsions:
REMARK  status: ('A' for Active; 'I' for Inactive)
ROOT
ATOM      1  C1  DEN d   1      -0.988   0.950  -1.142  0.00  0.00     0.130 A 
ATOM      2  C2  DEN d   1      -0.056   1.586  -0.215  0.00  0.00    -0.031 A 
ATOM      3  C3  DEN d   1       0.841   0.541   0.319  0.00  0.00     0.027 A 
ATOM      4  C4  DEN d   1       0.881  -1.985  -0.202  0.00  0.00     0.027 A 
ATOM      5  C5  DEN d   1       0.275  -2.992  -0.919  0.00  0.00    -0.003 A 
ATOM      6  C6  DEN d   1      -0.807  -2.765  -1.727  0.00  0.00     0.001 A 
ATOM      7  C7  DEN d   1      -1.289  -1.490  -1.874  0.00  0.00     0.017 A 
ATOM      8  C8  DEN d   1      -0.687  -0.470  -1.149  0.00  0.00    -0.094 A 
ATOM      9  C9  DEN d   1       0.413  -0.719  -0.346  0.00  0.00    -0.072 A 
ENDROOT
TORSDOF 0
ENDMDL
