MODEL 1
REMARK minimizedAffinity -0.491452157
REMARK minimizedRMSD -1
REMARK  0 active torsions:
REMARK  status: ('A' for Active; 'I' for Inactive)
ROOT
ATOM      1  C1  DEN d   1      -0.091   0.540  -0.034  0.00  0.00     0.130 A 
ATOM      2  C2  DEN d   1      -0.943  -0.646  -0.010  0.00  0.00    -0.031 A 
ATOM      3  C3  DEN d   1      -0.099  -1.820  -0.312  0.00  0.00     0.027 A 
ATOM      4  C4  DEN d   1       2.430  -1.915  -0.809  0.00  0.00     0.027 A 
ATOM      5  C5  DEN d   1       3.575  -1.163  -0.953  0.00  0.00    -0.003 A 
ATOM      6  C6  DEN d   1       3.572   0.201  -0.836  0.00  0.00     0.001 A 
ATOM      7  C7  DEN d   1       2.408   0.853  -0.521  0.00  0.00     0.017 A 
ATOM      8  C8  DEN d   1       1.248   0.102  -0.382  0.00  0.00    -0.094 A 
ATOM      9  C9  DEN d   1       1.275  -1.278  -0.492  0.00  0.00    -0.072 A 
ENDROOT
TORSDOF 0
ENDMDL
