MODEL 1
REMARK minimizedAffinity -0.0612063333
REMARK minimizedRMSD -1
REMARK  0 active torsions:
REMARK  status: ('A' for Active; 'I' for Inactive)
ROOT
ATOM      1  C1  DEN d   1      -0.285   2.040   0.058  0.00  0.00     0.130 A 
ATOM      2  C2  DEN d   1      -1.125   2.490   1.164  0.00  0.00    -0.031 A 
ATOM      3  C3  DEN d   1      -0.253   2.736   2.330  0.00  0.00     0.027 A 
ATOM      4  C4  DEN d   1       2.305   2.472   2.527  0.00  0.00     0.027 A 
ATOM      5  C5  DEN d   1       3.451   2.105   1.855  0.00  0.00    -0.003 A 
ATOM      6  C6  DEN d   1       3.428   1.662   0.559  0.00  0.00     0.001 A 
ATOM      7  C7  DEN d   1       2.240   1.617  -0.121  0.00  0.00     0.017 A 
ATOM      8  C8  DEN d   1       1.080   1.978   0.551  0.00  0.00    -0.094 A 
ATOM      9  C9  DEN d   1       1.125   2.435   1.857  0.00  0.00    -0.072 A 
ENDROOT
TORSDOF 0
ENDMDL
