MODEL 1
REMARK minimizedAffinity 4.14100313
REMARK minimizedRMSD -1
REMARK  1 active torsions:
REMARK  status: ('A' for Active; 'I' for Inactive)
REMARK    1  A    between atoms: C1_2  and  C2_3 
ROOT
ATOM      1  C2  UNL d   1       2.137  -0.837  -0.018  0.00  0.00    -0.081 A 
ATOM      2  C3  UNL d   1       1.333   0.252   0.341  0.00  0.00     0.006 A 
ATOM      3  C4  UNL d   1       1.874   1.537   0.418  0.00  0.00     0.002 A 
ATOM      4  C5  UNL d   1       3.225   1.757   0.128  0.00  0.00    -0.080 A 
ATOM      5  C6  UNL d   1       3.812   3.137   0.177  0.00  0.00     0.076 C 
ATOM      6  C7  UNL d   1       4.033   0.667  -0.214  0.00  0.00     0.002 A 
ATOM      7  C8  UNL d   1       3.492  -0.619  -0.290  0.00  0.00     0.006 A 
ENDROOT
BRANCH   1   8
ATOM      8  C1  UNL d   1       1.542  -2.214  -0.164  0.00  0.00     0.054 C 
ATOM      9  C   UNL d   1       2.338  -3.059  -1.149  0.00  0.00     0.018 C 
ENDBRANCH   1   8
TORSDOF 1
ENDMDL
