MODEL 1
REMARK minimizedAffinity 2.42528486
REMARK minimizedRMSD -1
REMARK  1 active torsions:
REMARK  status: ('A' for Active; 'I' for Inactive)
REMARK    1  A    between atoms: C1_2  and  C2_3 
ROOT
ATOM      1  C2  UNL d   1       0.896  -4.572  -0.317  0.00  0.00    -0.081 A 
ATOM      2  C3  UNL d   1       0.053  -3.470  -0.506  0.00  0.00     0.006 A 
ATOM      3  C4  UNL d   1       0.568  -2.172  -0.476  0.00  0.00     0.002 A 
ATOM      4  C5  UNL d   1       1.934  -1.955  -0.264  0.00  0.00    -0.080 A 
ATOM      5  C6  UNL d   1       2.504  -0.567  -0.260  0.00  0.00     0.076 C 
ATOM      6  C7  UNL d   1       2.773  -3.055  -0.057  0.00  0.00     0.002 A 
ATOM      7  C8  UNL d   1       2.258  -4.353  -0.087  0.00  0.00     0.006 A 
ENDROOT
BRANCH   1   8
ATOM      8  C1  UNL d   1       0.355  -5.976  -0.413  0.00  0.00     0.054 C 
ATOM      9  C   UNL d   1      -1.165  -5.990  -0.331  0.00  0.00     0.018 C 
ENDBRANCH   1   8
TORSDOF 1
ENDMDL
