MODEL 1
REMARK minimizedAffinity 5.42343187
REMARK minimizedRMSD -1
REMARK  1 active torsions:
REMARK  status: ('A' for Active; 'I' for Inactive)
REMARK    1  A    between atoms: C1_2  and  C2_3 
ROOT
ATOM      1  C2  UNL d   1       2.213  -1.690  -0.088  0.00  0.00    -0.081 A 
ATOM      2  C3  UNL d   1       1.571  -1.652  -1.332  0.00  0.00     0.006 A 
ATOM      3  C4  UNL d   1       0.778  -2.722  -1.752  0.00  0.00     0.002 A 
ATOM      4  C5  UNL d   1       0.606  -3.843  -0.933  0.00  0.00    -0.080 A 
ATOM      5  C6  UNL d   1      -0.268  -4.985  -1.359  0.00  0.00     0.076 C 
ATOM      6  C7  UNL d   1       1.261  -3.889   0.302  0.00  0.00     0.002 A 
ATOM      7  C8  UNL d   1       2.055  -2.819   0.723  0.00  0.00     0.006 A 
ENDROOT
BRANCH   1   8
ATOM      8  C1  UNL d   1       3.017  -0.510   0.396  0.00  0.00     0.054 C 
ATOM      9  C   UNL d   1       2.201   0.773   0.346  0.00  0.00     0.018 C 
ENDBRANCH   1   8
TORSDOF 1
ENDMDL
