MODEL 1
REMARK minimizedAffinity -0.261877805
REMARK minimizedRMSD -1
REMARK  1 active torsions:
REMARK  status: ('A' for Active; 'I' for Inactive)
REMARK    1  A    between atoms: C1_2  and  C2_3 
ROOT
ATOM      1  C2  UNL d   1       2.111  -0.855  -0.254  0.00  0.00    -0.081 A 
ATOM      2  C3  UNL d   1       0.740  -1.115  -0.368  0.00  0.00     0.006 A 
ATOM      3  C4  UNL d   1       0.275  -2.427  -0.480  0.00  0.00     0.002 A 
ATOM      4  C5  UNL d   1       1.171  -3.501  -0.471  0.00  0.00    -0.080 A 
ATOM      5  C6  UNL d   1       0.682  -4.916  -0.560  0.00  0.00     0.076 C 
ATOM      6  C7  UNL d   1       2.542  -3.241  -0.374  0.00  0.00     0.002 A 
ATOM      7  C8  UNL d   1       3.008  -1.929  -0.263  0.00  0.00     0.006 A 
ENDROOT
BRANCH   1   8
ATOM      8  C1  UNL d   1       2.612   0.555  -0.068  0.00  0.00     0.054 C 
ATOM      9  C   UNL d   1       1.462   1.522   0.174  0.00  0.00     0.018 C 
ENDBRANCH   1   8
TORSDOF 1
ENDMDL
