MODEL 1
REMARK minimizedAffinity 0.509831727
REMARK minimizedRMSD -1
REMARK  1 active torsions:
REMARK  status: ('A' for Active; 'I' for Inactive)
REMARK    1  A    between atoms: C1_2  and  C2_3 
ROOT
ATOM      1  C2  UNL d   1      -4.401   5.986   3.981  0.00  0.00    -0.081 A 
ATOM      2  C3  UNL d   1      -5.585   5.999   3.234  0.00  0.00     0.006 A 
ATOM      3  C4  UNL d   1      -5.542   5.946   1.839  0.00  0.00     0.002 A 
ATOM      4  C5  UNL d   1      -4.317   5.873   1.168  0.00  0.00    -0.080 A 
ATOM      5  C6  UNL d   1      -4.258   5.786  -0.328  0.00  0.00     0.076 C 
ATOM      6  C7  UNL d   1      -3.133   5.879   1.914  0.00  0.00     0.002 A 
ATOM      7  C8  UNL d   1      -3.175   5.932   3.309  0.00  0.00     0.006 A 
ENDROOT
BRANCH   1   8
ATOM      8  C1  UNL d   1      -4.445   5.977   5.488  0.00  0.00     0.054 C 
ATOM      9  C   UNL d   1      -5.859   5.736   5.998  0.00  0.00     0.018 C 
ENDBRANCH   1   8
TORSDOF 1
ENDMDL
