MODEL 1
REMARK minimizedAffinity 4.12749195
REMARK minimizedRMSD -1
REMARK  1 active torsions:
REMARK  status: ('A' for Active; 'I' for Inactive)
REMARK    1  A    between atoms: C1_2  and  C2_3 
ROOT
ATOM      1  C2  UNL d   1      -4.758   0.764  -0.379  0.00  0.00    -0.081 A 
ATOM      2  C3  UNL d   1      -4.448   1.896  -1.144  0.00  0.00     0.006 A 
ATOM      3  C4  UNL d   1      -3.330   1.900  -1.980  0.00  0.00     0.002 A 
ATOM      4  C5  UNL d   1      -2.508   0.772  -2.073  0.00  0.00    -0.080 A 
ATOM      5  C6  UNL d   1      -1.321   0.753  -2.990  0.00  0.00     0.076 C 
ATOM      6  C7  UNL d   1      -2.808  -0.352  -1.296  0.00  0.00     0.002 A 
ATOM      7  C8  UNL d   1      -3.925  -0.357  -0.459  0.00  0.00     0.006 A 
ENDROOT
BRANCH   1   8
ATOM      8  C1  UNL d   1      -6.000   0.733   0.475  0.00  0.00     0.054 C 
ATOM      9  C   UNL d   1      -6.000  -0.469   1.408  0.00  0.00     0.018 C 
ENDBRANCH   1   8
TORSDOF 1
ENDMDL
