MODEL 1
REMARK minimizedAffinity 0.0588920079
REMARK minimizedRMSD -1
REMARK  1 active torsions:
REMARK  status: ('A' for Active; 'I' for Inactive)
REMARK    1  A    between atoms: C1_2  and  C2_3 
ROOT
ATOM      1  C2  UNL d   1      -4.901  -0.840   0.035  0.00  0.00    -0.081 A 
ATOM      2  C3  UNL d   1      -5.780  -0.811   1.124  0.00  0.00     0.006 A 
ATOM      3  C4  UNL d   1      -5.998   0.377   1.827  0.00  0.00     0.002 A 
ATOM      4  C5  UNL d   1      -5.348   1.556   1.447  0.00  0.00    -0.080 A 
ATOM      5  C6  UNL d   1      -5.596   2.844   2.173  0.00  0.00     0.076 C 
ATOM      6  C7  UNL d   1      -4.456   1.523   0.369  0.00  0.00     0.002 A 
ATOM      7  C8  UNL d   1      -4.237   0.335  -0.333  0.00  0.00     0.006 A 
ENDROOT
BRANCH   1   8
ATOM      8  C1  UNL d   1      -4.713  -2.104  -0.765  0.00  0.00     0.054 C 
ATOM      9  C   UNL d   1      -6.000  -2.914  -0.830  0.00  0.00     0.018 C 
ENDBRANCH   1   8
TORSDOF 1
ENDMDL
