MODEL 1
REMARK minimizedAffinity -2.79942679
REMARK minimizedRMSD -1
REMARK  1 active torsions:
REMARK  status: ('A' for Active; 'I' for Inactive)
REMARK    1  A    between atoms: C1_2  and  C2_3 
ROOT
ATOM      1  C2  UNL d   1       1.006  -2.324  -1.140  0.00  0.00    -0.081 A 
ATOM      2  C3  UNL d   1       2.331  -1.924  -1.355  0.00  0.00     0.006 A 
ATOM      3  C4  UNL d   1       2.658  -0.569  -1.434  0.00  0.00     0.002 A 
ATOM      4  C5  UNL d   1       1.668   0.410  -1.292  0.00  0.00    -0.080 A 
ATOM      5  C6  UNL d   1       2.011   1.869  -1.345  0.00  0.00     0.076 C 
ATOM      6  C7  UNL d   1       0.342   0.011  -1.095  0.00  0.00     0.002 A 
ATOM      7  C8  UNL d   1       0.014  -1.344  -1.016  0.00  0.00     0.006 A 
ENDROOT
BRANCH   1   8
ATOM      8  C1  UNL d   1       0.660  -3.783  -0.989  0.00  0.00     0.054 C 
ATOM      9  C   UNL d   1       1.754  -4.673  -1.562  0.00  0.00     0.018 C 
ENDBRANCH   1   8
TORSDOF 1
ENDMDL
