MODEL 1
REMARK minimizedAffinity -3.94909334
REMARK minimizedRMSD -1
REMARK  0 active torsions:
REMARK  status: ('A' for Active; 'I' for Inactive)
ROOT
ATOM      1  C   UNL d   1       0.111   1.110  -0.189  0.00  0.00     0.077 C 
ATOM      2  C1  UNL d   1      -0.194  -0.355  -0.287  0.00  0.00    -0.074 A 
ATOM      3  C2  UNL d   1      -0.551  -1.093   0.846  0.00  0.00    -0.005 A 
ATOM      4  C3  UNL d   1      -0.841  -2.453   0.738  0.00  0.00     0.006 A 
ATOM      5  C4  UNL d   1      -0.777  -3.088  -0.503  0.00  0.00    -0.005 A 
ATOM      6  C5  UNL d   1      -0.424  -2.367  -1.648  0.00  0.00    -0.074 A 
ATOM      7  C6  UNL d   1      -0.360  -3.032  -2.990  0.00  0.00     0.077 C 
ATOM      8  C7  UNL d   1      -0.141  -0.999  -1.532  0.00  0.00    -0.001 A 
ENDROOT
TORSDOF 0
ENDMDL
