MODEL 1
REMARK minimizedAffinity -1.60261047
REMARK minimizedRMSD -1
REMARK  0 active torsions:
REMARK  status: ('A' for Active; 'I' for Inactive)
ROOT
ATOM      1  C   UNL d   1      -1.524  -1.650   1.783  0.00  0.00     0.077 C 
ATOM      2  C1  UNL d   1      -0.813  -0.897   0.698  0.00  0.00    -0.074 A 
ATOM      3  C2  UNL d   1      -0.845  -1.345  -0.627  0.00  0.00    -0.005 A 
ATOM      4  C3  UNL d   1      -0.187  -0.629  -1.627  0.00  0.00     0.006 A 
ATOM      5  C4  UNL d   1       0.508   0.540  -1.313  0.00  0.00    -0.005 A 
ATOM      6  C5  UNL d   1       0.550   1.003   0.005  0.00  0.00    -0.074 A 
ATOM      7  C6  UNL d   1       1.284   2.263   0.358  0.00  0.00     0.077 C 
ATOM      8  C7  UNL d   1      -0.120   0.282   1.004  0.00  0.00    -0.001 A 
ENDROOT
TORSDOF 0
ENDMDL
