MODEL 1
REMARK minimizedAffinity -4.36972618
REMARK minimizedRMSD -1
REMARK  0 active torsions:
REMARK  status: ('A' for Active; 'I' for Inactive)
ROOT
ATOM      1  C   UNL d   1      -0.435  -2.557  -2.329  0.00  0.00     0.077 C 
ATOM      2  C1  UNL d   1      -0.501  -1.824  -1.023  0.00  0.00    -0.074 A 
ATOM      3  C2  UNL d   1      -0.942  -2.465   0.140  0.00  0.00    -0.005 A 
ATOM      4  C3  UNL d   1      -0.989  -1.772   1.350  0.00  0.00     0.006 A 
ATOM      5  C4  UNL d   1      -0.595  -0.435   1.409  0.00  0.00    -0.005 A 
ATOM      6  C5  UNL d   1      -0.150   0.222   0.258  0.00  0.00    -0.074 A 
ATOM      7  C6  UNL d   1       0.286   1.656   0.307  0.00  0.00     0.077 C 
ATOM      8  C7  UNL d   1      -0.100  -0.483  -0.953  0.00  0.00    -0.001 A 
ENDROOT
TORSDOF 0
ENDMDL
