MODEL 1
REMARK minimizedAffinity -2.91728377
REMARK minimizedRMSD -1
REMARK  0 active torsions:
REMARK  status: ('A' for Active; 'I' for Inactive)
ROOT
ATOM      1  C   UNL d   1      -0.487  -2.487   0.889  0.00  0.00     0.077 C 
ATOM      2  C1  UNL d   1      -0.157  -1.329  -0.005  0.00  0.00    -0.074 A 
ATOM      3  C2  UNL d   1       0.136  -1.525  -1.358  0.00  0.00    -0.005 A 
ATOM      4  C3  UNL d   1       0.432  -0.437  -2.178  0.00  0.00     0.006 A 
ATOM      5  C4  UNL d   1       0.439   0.857  -1.655  0.00  0.00    -0.005 A 
ATOM      6  C5  UNL d   1       0.148   1.073  -0.304  0.00  0.00    -0.074 A 
ATOM      7  C6  UNL d   1       0.141   2.457   0.272  0.00  0.00     0.077 C 
ATOM      8  C7  UNL d   1      -0.156  -0.026   0.512  0.00  0.00    -0.001 A 
ENDROOT
TORSDOF 0
ENDMDL
