MODEL 1
REMARK minimizedAffinity -0.452414453
REMARK minimizedRMSD -1
REMARK  0 active torsions:
REMARK  status: ('A' for Active; 'I' for Inactive)
ROOT
ATOM      1  C   UNL d   1       0.075  -0.690  -2.382  0.00  0.00     0.077 C 
ATOM      2  C1  UNL d   1       0.016  -0.026  -1.039  0.00  0.00    -0.074 A 
ATOM      3  C2  UNL d   1      -0.667  -0.621   0.027  0.00  0.00    -0.005 A 
ATOM      4  C3  UNL d   1      -0.705   0.004   1.274  0.00  0.00     0.006 A 
ATOM      5  C4  UNL d   1      -0.062   1.227   1.467  0.00  0.00    -0.005 A 
ATOM      6  C5  UNL d   1       0.626   1.837   0.413  0.00  0.00    -0.074 A 
ATOM      7  C6  UNL d   1       1.330   3.147   0.606  0.00  0.00     0.077 C 
ATOM      8  C7  UNL d   1       0.666   1.199  -0.835  0.00  0.00    -0.001 A 
ENDROOT
TORSDOF 0
ENDMDL
