MODEL 1
REMARK minimizedAffinity -2.97232556
REMARK minimizedRMSD -1
REMARK  0 active torsions:
REMARK  status: ('A' for Active; 'I' for Inactive)
ROOT
ATOM      1  C   UNL d   1      -0.558   0.001   0.767  0.00  0.00     0.077 C 
ATOM      2  C1  UNL d   1       0.440   1.121   0.754  0.00  0.00    -0.074 A 
ATOM      3  C2  UNL d   1       0.049   2.428   0.447  0.00  0.00    -0.005 A 
ATOM      4  C3  UNL d   1       0.987   3.461   0.449  0.00  0.00     0.006 A 
ATOM      5  C4  UNL d   1       2.322   3.197   0.757  0.00  0.00    -0.005 A 
ATOM      6  C5  UNL d   1       2.731   1.897   1.067  0.00  0.00    -0.074 A 
ATOM      7  C6  UNL d   1       4.160   1.598   1.409  0.00  0.00     0.077 C 
ATOM      8  C7  UNL d   1       1.782   0.865   1.070  0.00  0.00    -0.001 A 
ENDROOT
TORSDOF 0
ENDMDL
