MODEL 1
REMARK minimizedAffinity -3.73457241
REMARK minimizedRMSD -1
REMARK  0 active torsions:
REMARK  status: ('A' for Active; 'I' for Inactive)
ROOT
ATOM      1  C   UNL d   1      -0.870  -2.945  -1.825  0.00  0.00     0.077 C 
ATOM      2  C1  UNL d   1      -0.830  -2.008  -0.654  0.00  0.00    -0.074 A 
ATOM      3  C2  UNL d   1      -1.165  -2.448   0.631  0.00  0.00    -0.005 A 
ATOM      4  C3  UNL d   1      -1.114  -1.567   1.711  0.00  0.00     0.006 A 
ATOM      5  C4  UNL d   1      -0.729  -0.240   1.518  0.00  0.00    -0.005 A 
ATOM      6  C5  UNL d   1      -0.391   0.218   0.241  0.00  0.00    -0.074 A 
ATOM      7  C6  UNL d   1       0.035   1.639   0.018  0.00  0.00     0.077 C 
ATOM      8  C7  UNL d   1      -0.437  -0.675  -0.839  0.00  0.00    -0.001 A 
ENDROOT
TORSDOF 0
ENDMDL
