MODEL 1
REMARK minimizedAffinity -3.70264888
REMARK minimizedRMSD -1
REMARK  0 active torsions:
REMARK  status: ('A' for Active; 'I' for Inactive)
ROOT
ATOM      1  C   UNL d   1      -0.064  -2.925  -2.692  0.00  0.00     0.077 C 
ATOM      2  C1  UNL d   1      -0.324  -2.191  -1.410  0.00  0.00    -0.074 A 
ATOM      3  C2  UNL d   1      -0.718  -2.876  -0.256  0.00  0.00    -0.005 A 
ATOM      4  C3  UNL d   1      -0.947  -2.181   0.931  0.00  0.00     0.006 A 
ATOM      5  C4  UNL d   1      -0.785  -0.796   0.976  0.00  0.00    -0.005 A 
ATOM      6  C5  UNL d   1      -0.392  -0.093  -0.167  0.00  0.00    -0.074 A 
ATOM      7  C6  UNL d   1      -0.204   1.394  -0.133  0.00  0.00     0.077 C 
ATOM      8  C7  UNL d   1      -0.157  -0.800  -1.355  0.00  0.00    -0.001 A 
ENDROOT
TORSDOF 0
ENDMDL
