MODEL 1
REMARK minimizedAffinity -2.31674194
REMARK minimizedRMSD -1
REMARK  0 active torsions:
REMARK  status: ('A' for Active; 'I' for Inactive)
ROOT
ATOM      1  C   UNL d   1       1.199   1.663  -0.114  0.00  0.00     0.077 C 
ATOM      2  C1  UNL d   1       0.216   0.630   0.349  0.00  0.00    -0.074 A 
ATOM      3  C2  UNL d   1      -0.893   0.988   1.121  0.00  0.00    -0.005 A 
ATOM      4  C3  UNL d   1      -1.805   0.018   1.537  0.00  0.00     0.006 A 
ATOM      5  C4  UNL d   1      -1.616  -1.319   1.185  0.00  0.00    -0.005 A 
ATOM      6  C5  UNL d   1      -0.513  -1.697   0.413  0.00  0.00    -0.074 A 
ATOM      7  C6  UNL d   1      -0.300  -3.128   0.018  0.00  0.00     0.077 C 
ATOM      8  C7  UNL d   1       0.395  -0.714  -0.007  0.00  0.00    -0.001 A 
ENDROOT
TORSDOF 0
ENDMDL
