MODEL 1
REMARK minimizedAffinity -3.43144059
REMARK minimizedRMSD -1
REMARK  0 active torsions:
REMARK  status: ('A' for Active; 'I' for Inactive)
ROOT
ATOM      1  C   UNL d   1      -0.345   1.092  -1.483  0.00  0.00     0.077 C 
ATOM      2  C1  UNL d   1      -0.657   0.070  -0.430  0.00  0.00    -0.074 A 
ATOM      3  C2  UNL d   1      -1.517   0.371   0.631  0.00  0.00    -0.005 A 
ATOM      4  C3  UNL d   1      -1.805  -0.592   1.598  0.00  0.00     0.006 A 
ATOM      5  C4  UNL d   1      -1.238  -1.864   1.513  0.00  0.00    -0.005 A 
ATOM      6  C5  UNL d   1      -0.377  -2.184   0.458  0.00  0.00    -0.074 A 
ATOM      7  C6  UNL d   1       0.234  -3.549   0.347  0.00  0.00     0.077 C 
ATOM      8  C7  UNL d   1      -0.097  -1.212  -0.513  0.00  0.00    -0.001 A 
ENDROOT
TORSDOF 0
ENDMDL
