MODEL 1
REMARK minimizedAffinity -2.06101227
REMARK minimizedRMSD -1
REMARK  0 active torsions:
REMARK  status: ('A' for Active; 'I' for Inactive)
ROOT
ATOM      1  C   UNL d   1       1.581   2.548   0.234  0.00  0.00     0.077 C 
ATOM      2  C1  UNL d   1       0.711   1.377  -0.114  0.00  0.00    -0.074 A 
ATOM      3  C2  UNL d   1       0.522   0.993  -1.445  0.00  0.00    -0.005 A 
ATOM      4  C3  UNL d   1      -0.282  -0.105  -1.753  0.00  0.00     0.006 A 
ATOM      5  C4  UNL d   1      -0.904  -0.828  -0.734  0.00  0.00    -0.005 A 
ATOM      6  C5  UNL d   1      -0.725  -0.459   0.603  0.00  0.00    -0.074 A 
ATOM      7  C6  UNL d   1      -1.378  -1.232   1.711  0.00  0.00     0.077 C 
ATOM      8  C7  UNL d   1       0.090   0.641   0.905  0.00  0.00    -0.001 A 
ENDROOT
TORSDOF 0
ENDMDL
