MODEL 1
REMARK minimizedAffinity -3.50373316
REMARK minimizedRMSD -1
REMARK  0 active torsions:
REMARK  status: ('A' for Active; 'I' for Inactive)
ROOT
ATOM      1  C   UNL d   1      -0.349  -1.805   1.551  0.00  0.00     0.077 C 
ATOM      2  C1  UNL d   1      -0.038  -0.459   0.967  0.00  0.00    -0.074 A 
ATOM      3  C2  UNL d   1      -0.831   0.085  -0.047  0.00  0.00    -0.005 A 
ATOM      4  C3  UNL d   1      -0.535   1.342  -0.574  0.00  0.00     0.006 A 
ATOM      5  C4  UNL d   1       0.556   2.067  -0.092  0.00  0.00    -0.005 A 
ATOM      6  C5  UNL d   1       1.361   1.539   0.923  0.00  0.00    -0.074 A 
ATOM      7  C6  UNL d   1       2.531   2.308   1.459  0.00  0.00     0.077 C 
ATOM      8  C7  UNL d   1       1.052   0.278   1.452  0.00  0.00    -0.001 A 
ENDROOT
TORSDOF 0
ENDMDL
