MODEL 1
REMARK minimizedAffinity -2.24050021
REMARK minimizedRMSD -1
REMARK  0 active torsions:
REMARK  status: ('A' for Active; 'I' for Inactive)
ROOT
ATOM      1  C   UNL d   1      -0.792  -2.017   1.282  0.00  0.00     0.077 C 
ATOM      2  C1  UNL d   1      -0.339  -1.033   0.245  0.00  0.00    -0.074 A 
ATOM      3  C2  UNL d   1      -0.041  -1.447  -1.058  0.00  0.00    -0.005 A 
ATOM      4  C3  UNL d   1       0.371  -0.518  -2.014  0.00  0.00     0.006 A 
ATOM      5  C4  UNL d   1       0.488   0.831  -1.678  0.00  0.00    -0.005 A 
ATOM      6  C5  UNL d   1       0.193   1.264  -0.381  0.00  0.00    -0.074 A 
ATOM      7  C6  UNL d   1       0.304   2.712  -0.006  0.00  0.00     0.077 C 
ATOM      8  C7  UNL d   1      -0.226   0.326   0.572  0.00  0.00    -0.001 A 
ENDROOT
TORSDOF 0
ENDMDL
