MODEL 1
REMARK minimizedAffinity -3.87003326
REMARK minimizedRMSD -1
REMARK  0 active torsions:
REMARK  status: ('A' for Active; 'I' for Inactive)
ROOT
ATOM      1  C   UNL d   1      -0.381  -2.742  -2.330  0.00  0.00     0.077 C 
ATOM      2  C1  UNL d   1      -0.380  -2.047  -1.001  0.00  0.00    -0.074 A 
ATOM      3  C2  UNL d   1      -0.576  -2.762   0.185  0.00  0.00    -0.005 A 
ATOM      4  C3  UNL d   1      -0.564  -2.103   1.414  0.00  0.00     0.006 A 
ATOM      5  C4  UNL d   1      -0.355  -0.724   1.469  0.00  0.00    -0.005 A 
ATOM      6  C5  UNL d   1      -0.157   0.008   0.294  0.00  0.00    -0.074 A 
ATOM      7  C6  UNL d   1       0.078   1.488   0.337  0.00  0.00     0.077 C 
ATOM      8  C7  UNL d   1      -0.164  -0.663  -0.936  0.00  0.00    -0.001 A 
ENDROOT
TORSDOF 0
ENDMDL
