MODEL 1
REMARK minimizedAffinity -2.97743988
REMARK minimizedRMSD -1
REMARK  0 active torsions:
REMARK  status: ('A' for Active; 'I' for Inactive)
ROOT
ATOM      1  C   UNL d   1      -0.535  -1.015   2.062  0.00  0.00     0.077 C 
ATOM      2  C1  UNL d   1      -0.106   0.235   1.353  0.00  0.00    -0.074 A 
ATOM      3  C2  UNL d   1      -0.175   0.331  -0.041  0.00  0.00    -0.005 A 
ATOM      4  C3  UNL d   1       0.218   1.503  -0.686  0.00  0.00     0.006 A 
ATOM      5  C4  UNL d   1       0.684   2.591   0.055  0.00  0.00    -0.005 A 
ATOM      6  C5  UNL d   1       0.758   2.514   1.450  0.00  0.00    -0.074 A 
ATOM      7  C6  UNL d   1       1.247   3.676   2.262  0.00  0.00     0.077 C 
ATOM      8  C7  UNL d   1       0.355   1.334   2.091  0.00  0.00    -0.001 A 
ENDROOT
TORSDOF 0
ENDMDL
