MODEL 1
REMARK minimizedAffinity 6.80868626
REMARK minimizedRMSD -1
REMARK  0 active torsions:
REMARK  status: ('A' for Active; 'I' for Inactive)
ROOT
ATOM      1  C   UNL d   1       0.732   3.784  -1.913  0.00  0.00     0.020 A 
ATOM      2  C1  UNL d   1       0.080   4.455  -0.880  0.00  0.00     0.020 A 
ATOM      3  C2  UNL d   1      -0.540   3.731   0.140  0.00  0.00     0.034 A 
ATOM      4  C3  UNL d   1      -0.509   2.332   0.130  0.00  0.00     0.017 A 
ATOM      5  C4  UNL d   1       0.146   1.659  -0.908  0.00  0.00     0.017 A 
ATOM      6  C5  UNL d   1       0.765   2.389  -1.927  0.00  0.00     0.034 A 
ATOM      7 Cl   UNL d   1       0.227  -0.065  -0.989  0.00  0.00    -0.070 Cl
ATOM      8 Cl1  UNL d   1      -1.297   1.501   1.424  0.00  0.00    -0.070 Cl
ENDROOT
TORSDOF 0
ENDMDL
