MODEL 1
REMARK minimizedAffinity -2.18928027
REMARK minimizedRMSD -1
REMARK  0 active torsions:
REMARK  status: ('A' for Active; 'I' for Inactive)
ROOT
ATOM      1  C   UNL d   1      -2.392   4.338   0.215  0.00  0.00     0.020 A 
ATOM      2  C1  UNL d   1      -1.575   4.287  -0.914  0.00  0.00     0.020 A 
ATOM      3  C2  UNL d   1      -0.645   3.255  -1.058  0.00  0.00     0.034 A 
ATOM      4  C3  UNL d   1      -0.531   2.269  -0.071  0.00  0.00     0.017 A 
ATOM      5  C4  UNL d   1      -1.351   2.320   1.061  0.00  0.00     0.017 A 
ATOM      6  C5  UNL d   1      -2.280   3.356   1.200  0.00  0.00     0.034 A 
ATOM      7 Cl   UNL d   1      -1.268   1.139   2.320  0.00  0.00    -0.070 Cl
ATOM      8 Cl1  UNL d   1       0.639   1.021  -0.315  0.00  0.00    -0.070 Cl
ENDROOT
TORSDOF 0
ENDMDL
