MODEL 1
REMARK minimizedAffinity 0.424894035
REMARK minimizedRMSD -1
REMARK  0 active torsions:
REMARK  status: ('A' for Active; 'I' for Inactive)
ROOT
ATOM      1  C   UNL d   1      -1.064   4.325  -0.966  0.00  0.00     0.020 A 
ATOM      2  C1  UNL d   1       0.172   3.743  -0.688  0.00  0.00     0.020 A 
ATOM      3  C2  UNL d   1       0.253   2.664   0.195  0.00  0.00     0.034 A 
ATOM      4  C3  UNL d   1      -0.904   2.164   0.803  0.00  0.00     0.017 A 
ATOM      5  C4  UNL d   1      -2.144   2.749   0.524  0.00  0.00     0.017 A 
ATOM      6  C5  UNL d   1      -2.220   3.829  -0.361  0.00  0.00     0.034 A 
ATOM      7 Cl   UNL d   1      -3.616   2.187   1.236  0.00  0.00    -0.070 Cl
ATOM      8 Cl1  UNL d   1      -0.729   0.828   1.885  0.00  0.00    -0.070 Cl
ENDROOT
TORSDOF 0
ENDMDL
