MODEL 1
REMARK minimizedAffinity 6.43584967
REMARK minimizedRMSD -1
REMARK  0 active torsions:
REMARK  status: ('A' for Active; 'I' for Inactive)
ROOT
ATOM      1  C   UNL d   1       3.109  -5.006  -0.668  0.00  0.00     0.020 A 
ATOM      2  C1  UNL d   1       4.483  -5.011  -0.431  0.00  0.00     0.020 A 
ATOM      3  C2  UNL d   1       5.358  -4.485  -1.384  0.00  0.00     0.034 A 
ATOM      4  C3  UNL d   1       4.860  -3.951  -2.578  0.00  0.00     0.017 A 
ATOM      5  C4  UNL d   1       3.481  -3.946  -2.815  0.00  0.00     0.017 A 
ATOM      6  C5  UNL d   1       2.609  -4.475  -1.858  0.00  0.00     0.034 A 
ATOM      7 Cl   UNL d   1       2.791  -3.305  -4.265  0.00  0.00    -0.070 Cl
ATOM      8 Cl1  UNL d   1       5.999  -3.317  -3.712  0.00  0.00    -0.070 Cl
ENDROOT
TORSDOF 0
ENDMDL
