MODEL 1
REMARK minimizedAffinity 1.36611581
REMARK minimizedRMSD -1
REMARK  0 active torsions:
REMARK  status: ('A' for Active; 'I' for Inactive)
ROOT
ATOM      1  C   UNL d   1      -1.737   3.492   1.056  0.00  0.00     0.020 A 
ATOM      2  C1  UNL d   1      -0.799   3.602   0.031  0.00  0.00     0.020 A 
ATOM      3  C2  UNL d   1       0.044   2.527  -0.262  0.00  0.00     0.034 A 
ATOM      4  C3  UNL d   1      -0.051   1.339   0.471  0.00  0.00     0.017 A 
ATOM      5  C4  UNL d   1      -0.993   1.230   1.500  0.00  0.00     0.017 A 
ATOM      6  C5  UNL d   1      -1.834   2.309   1.789  0.00  0.00     0.034 A 
ATOM      7 Cl   UNL d   1      -1.169  -0.205   2.448  0.00  0.00    -0.070 Cl
ATOM      8 Cl1  UNL d   1       1.023   0.050   0.054  0.00  0.00    -0.070 Cl
ENDROOT
TORSDOF 0
ENDMDL
