MODEL 1
REMARK minimizedAffinity 2.65309978
REMARK minimizedRMSD -1
REMARK  0 active torsions:
REMARK  status: ('A' for Active; 'I' for Inactive)
ROOT
ATOM      1  C   UNL d   1       0.720   5.005  -1.494  0.00  0.00     0.020 A 
ATOM      2  C1  UNL d   1       0.520   5.428  -0.181  0.00  0.00     0.020 A 
ATOM      3  C2  UNL d   1       0.020   4.537   0.771  0.00  0.00     0.034 A 
ATOM      4  C3  UNL d   1      -0.282   3.219   0.411  0.00  0.00     0.017 A 
ATOM      5  C4  UNL d   1      -0.081   2.795  -0.908  0.00  0.00     0.017 A 
ATOM      6  C5  UNL d   1       0.420   3.692  -1.857  0.00  0.00     0.034 A 
ATOM      7 Cl   UNL d   1      -0.430   1.184  -1.427  0.00  0.00    -0.070 Cl
ATOM      8 Cl1  UNL d   1      -0.896   2.171   1.640  0.00  0.00    -0.070 Cl
ENDROOT
TORSDOF 0
ENDMDL
