MODEL 1
REMARK minimizedAffinity -0.305734515
REMARK minimizedRMSD -1
REMARK  0 active torsions:
REMARK  status: ('A' for Active; 'I' for Inactive)
ROOT
ATOM      1  C   UNL d   1      -1.066   3.674   1.180  0.00  0.00     0.020 A 
ATOM      2  C1  UNL d   1      -1.442   2.334   1.262  0.00  0.00     0.020 A 
ATOM      3  C2  UNL d   1      -1.185   1.471   0.195  0.00  0.00     0.034 A 
ATOM      4  C3  UNL d   1      -0.551   1.946  -0.959  0.00  0.00     0.017 A 
ATOM      5  C4  UNL d   1      -0.174   3.292  -1.040  0.00  0.00     0.017 A 
ATOM      6  C5  UNL d   1      -0.434   4.152   0.032  0.00  0.00     0.034 A 
ATOM      7 Cl   UNL d   1       0.612   3.952  -2.430  0.00  0.00    -0.070 Cl
ATOM      8 Cl1  UNL d   1      -0.264   0.823  -2.240  0.00  0.00    -0.070 Cl
ENDROOT
TORSDOF 0
ENDMDL
