MODEL 1
REMARK minimizedAffinity 4.80580568
REMARK minimizedRMSD -1
REMARK  0 active torsions:
REMARK  status: ('A' for Active; 'I' for Inactive)
ROOT
ATOM      1  C   UNL d   1      -1.268   3.367   0.757  0.00  0.00     0.020 A 
ATOM      2  C1  UNL d   1      -1.077   3.237  -0.617  0.00  0.00     0.020 A 
ATOM      3  C2  UNL d   1      -0.402   2.125  -1.126  0.00  0.00     0.034 A 
ATOM      4  C3  UNL d   1       0.084   1.139  -0.259  0.00  0.00     0.017 A 
ATOM      5  C4  UNL d   1      -0.109   1.271   1.121  0.00  0.00     0.017 A 
ATOM      6  C5  UNL d   1      -0.786   2.386   1.625  0.00  0.00     0.034 A 
ATOM      7 Cl   UNL d   1       0.461   0.096   2.253  0.00  0.00    -0.070 Cl
ATOM      8 Cl1  UNL d   1       0.909  -0.209  -0.957  0.00  0.00    -0.070 Cl
ENDROOT
TORSDOF 0
ENDMDL
