MODEL 1
REMARK minimizedAffinity 1.18899214
REMARK minimizedRMSD -1
REMARK  0 active torsions:
REMARK  status: ('A' for Active; 'I' for Inactive)
ROOT
ATOM      1  C   UNL d   1      -1.028   3.527   1.761  0.00  0.00     0.020 A 
ATOM      2  C1  UNL d   1      -1.119   2.136   1.797  0.00  0.00     0.020 A 
ATOM      3  C2  UNL d   1      -0.582   1.374   0.757  0.00  0.00     0.034 A 
ATOM      4  C3  UNL d   1       0.047   2.002  -0.323  0.00  0.00     0.017 A 
ATOM      5  C4  UNL d   1       0.138   3.398  -0.359  0.00  0.00     0.017 A 
ATOM      6  C5  UNL d   1      -0.401   4.157   0.685  0.00  0.00     0.034 A 
ATOM      7 Cl   UNL d   1       0.900   4.245  -1.659  0.00  0.00    -0.070 Cl
ATOM      8 Cl1  UNL d   1       0.689   0.997  -1.574  0.00  0.00    -0.070 Cl
ENDROOT
TORSDOF 0
ENDMDL
