MODEL 1
REMARK minimizedAffinity -2.58642602
REMARK minimizedRMSD -1
REMARK  0 active torsions:
REMARK  status: ('A' for Active; 'I' for Inactive)
ROOT
ATOM      1  C   UNL d   1       0.342   1.831  -1.273  0.00  0.00     0.020 A 
ATOM      2  C1  UNL d   1       0.051   2.996  -1.981  0.00  0.00     0.020 A 
ATOM      3  C2  UNL d   1      -0.840   3.931  -1.452  0.00  0.00     0.034 A 
ATOM      4  C3  UNL d   1      -1.444   3.704  -0.210  0.00  0.00     0.017 A 
ATOM      5  C4  UNL d   1      -1.152   2.534   0.501  0.00  0.00     0.017 A 
ATOM      6  C5  UNL d   1      -0.259   1.600  -0.034  0.00  0.00     0.034 A 
ATOM      7 Cl   UNL d   1      -1.858   2.183   2.039  0.00  0.00    -0.070 Cl
ATOM      8 Cl1  UNL d   1      -2.536   4.903   0.385  0.00  0.00    -0.070 Cl
ENDROOT
TORSDOF 0
ENDMDL
