MODEL 1
REMARK minimizedAffinity 0.843316317
REMARK minimizedRMSD -1
REMARK  0 active torsions:
REMARK  status: ('A' for Active; 'I' for Inactive)
ROOT
ATOM      1  C   UNL d   1      -1.068   2.268   1.964  0.00  0.00     0.020 A 
ATOM      2  C1  UNL d   1      -0.892   3.645   1.833  0.00  0.00     0.020 A 
ATOM      3  C2  UNL d   1      -0.266   4.165   0.698  0.00  0.00     0.034 A 
ATOM      4  C3  UNL d   1       0.186   3.307  -0.311  0.00  0.00     0.017 A 
ATOM      5  C4  UNL d   1       0.009   1.925  -0.179  0.00  0.00     0.017 A 
ATOM      6  C5  UNL d   1      -0.618   1.410   0.959  0.00  0.00     0.034 A 
ATOM      7 Cl   UNL d   1       0.540   0.803  -1.383  0.00  0.00    -0.070 Cl
ATOM      8 Cl1  UNL d   1       0.950   4.019  -1.687  0.00  0.00    -0.070 Cl
ENDROOT
TORSDOF 0
ENDMDL
