MODEL 1
REMARK minimizedAffinity 1.03217614
REMARK minimizedRMSD -1
REMARK  0 active torsions:
REMARK  status: ('A' for Active; 'I' for Inactive)
ROOT
ATOM      1  C   UNL d   1      -0.405   3.965  -0.368  0.00  0.00     0.020 A 
ATOM      2  C1  UNL d   1      -1.142   2.887   0.120  0.00  0.00     0.020 A 
ATOM      3  C2  UNL d   1      -0.927   1.605  -0.392  0.00  0.00     0.034 A 
ATOM      4  C3  UNL d   1       0.026   1.399  -1.396  0.00  0.00     0.017 A 
ATOM      5  C4  UNL d   1       0.765   2.482  -1.886  0.00  0.00     0.017 A 
ATOM      6  C5  UNL d   1       0.546   3.763  -1.369  0.00  0.00     0.034 A 
ATOM      7 Cl   UNL d   1       1.958   2.306  -3.124  0.00  0.00    -0.070 Cl
ATOM      8 Cl1  UNL d   1       0.239  -0.212  -1.983  0.00  0.00    -0.070 Cl
ENDROOT
TORSDOF 0
ENDMDL
