MODEL 1
REMARK minimizedAffinity 3.36569929
REMARK minimizedRMSD -1
REMARK  0 active torsions:
REMARK  status: ('A' for Active; 'I' for Inactive)
ROOT
ATOM      1  C   UNL d   1      -0.379   2.931  -0.419  0.00  0.00     0.020 A 
ATOM      2  C1  UNL d   1       0.404   2.456  -1.470  0.00  0.00     0.020 A 
ATOM      3  C2  UNL d   1       1.140   1.279  -1.316  0.00  0.00     0.034 A 
ATOM      4  C3  UNL d   1       1.095   0.574  -0.108  0.00  0.00     0.017 A 
ATOM      5  C4  UNL d   1       0.309   1.051   0.947  0.00  0.00     0.017 A 
ATOM      6  C5  UNL d   1      -0.427   2.230   0.787  0.00  0.00     0.034 A 
ATOM      7 Cl   UNL d   1       0.202   0.236   2.467  0.00  0.00    -0.070 Cl
ATOM      8 Cl1  UNL d   1       2.030  -0.874   0.013  0.00  0.00    -0.070 Cl
ENDROOT
TORSDOF 0
ENDMDL
