MODEL 1
REMARK minimizedAffinity 1.96362042
REMARK minimizedRMSD -1
REMARK  0 active torsions:
REMARK  status: ('A' for Active; 'I' for Inactive)
ROOT
ATOM      1  C   UNL d   1      -1.347   3.256   0.751  0.00  0.00     0.020 A 
ATOM      2  C1  UNL d   1      -0.898   3.397  -0.562  0.00  0.00     0.020 A 
ATOM      3  C2  UNL d   1      -0.010   2.464  -1.100  0.00  0.00     0.034 A 
ATOM      4  C3  UNL d   1       0.433   1.385  -0.326  0.00  0.00     0.017 A 
ATOM      5  C4  UNL d   1      -0.018   1.244   0.991  0.00  0.00     0.017 A 
ATOM      6  C5  UNL d   1      -0.908   2.181   1.525  0.00  0.00     0.034 A 
ATOM      7 Cl   UNL d   1       0.483  -0.061   2.008  0.00  0.00    -0.070 Cl
ATOM      8 Cl1  UNL d   1       1.531   0.269  -1.057  0.00  0.00    -0.070 Cl
ENDROOT
TORSDOF 0
ENDMDL
