MODEL 1
REMARK minimizedAffinity 8.70297813
REMARK minimizedRMSD -1
REMARK  0 active torsions:
REMARK  status: ('A' for Active; 'I' for Inactive)
ROOT
ATOM      1  C   UNL d   1      -0.815   0.507   2.200  0.00  0.00     0.020 A 
ATOM      2  C1  UNL d   1      -1.545   1.695   2.195  0.00  0.00     0.020 A 
ATOM      3  C2  UNL d   1      -1.426   2.583   1.124  0.00  0.00     0.034 A 
ATOM      4  C3  UNL d   1      -0.575   2.285   0.054  0.00  0.00     0.017 A 
ATOM      5  C4  UNL d   1       0.157   1.092   0.059  0.00  0.00     0.017 A 
ATOM      6  C5  UNL d   1       0.034   0.206   1.134  0.00  0.00     0.034 A 
ATOM      7 Cl   UNL d   1       1.227   0.655  -1.226  0.00  0.00    -0.070 Cl
ATOM      8 Cl1  UNL d   1      -0.477   3.429  -1.238  0.00  0.00    -0.070 Cl
ENDROOT
TORSDOF 0
ENDMDL
