MODEL 1
REMARK minimizedAffinity 5.06387901
REMARK minimizedRMSD -1
REMARK  0 active torsions:
REMARK  status: ('A' for Active; 'I' for Inactive)
ROOT
ATOM      1  C   UNL d   1       0.964   0.773  -1.299  0.00  0.00     0.020 A 
ATOM      2  C1  UNL d   1       1.006   1.981  -1.993  0.00  0.00     0.020 A 
ATOM      3  C2  UNL d   1       0.316   3.092  -1.503  0.00  0.00     0.034 A 
ATOM      4  C3  UNL d   1      -0.419   2.997  -0.316  0.00  0.00     0.017 A 
ATOM      5  C4  UNL d   1      -0.461   1.784   0.380  0.00  0.00     0.017 A 
ATOM      6  C5  UNL d   1       0.231   0.674  -0.115  0.00  0.00     0.034 A 
ATOM      7 Cl   UNL d   1      -1.347   1.589   1.851  0.00  0.00    -0.070 Cl
ATOM      8 Cl1  UNL d   1      -1.248   4.411   0.231  0.00  0.00    -0.070 Cl
ENDROOT
TORSDOF 0
ENDMDL
