MODEL 1
REMARK minimizedAffinity 9.48600292
REMARK minimizedRMSD -1
REMARK  0 active torsions:
REMARK  status: ('A' for Active; 'I' for Inactive)
ROOT
ATOM      1  C   UNL d   1       0.487   2.525   3.300  0.00  0.00     0.020 A 
ATOM      2  C1  UNL d   1       1.081   1.462   3.980  0.00  0.00     0.020 A 
ATOM      3  C2  UNL d   1       0.489   0.198   3.952  0.00  0.00     0.034 A 
ATOM      4  C3  UNL d   1      -0.699  -0.008   3.241  0.00  0.00     0.017 A 
ATOM      5  C4  UNL d   1      -1.294   1.059   2.558  0.00  0.00     0.017 A 
ATOM      6  C5  UNL d   1      -0.697   2.324   2.590  0.00  0.00     0.034 A 
ATOM      7 Cl   UNL d   1      -2.760   0.883   1.660  0.00  0.00    -0.070 Cl
ATOM      8 Cl1  UNL d   1      -1.375  -1.598   3.248  0.00  0.00    -0.070 Cl
ENDROOT
TORSDOF 0
ENDMDL
