MODEL 1
REMARK minimizedAffinity -0.0204516891
REMARK minimizedRMSD -1
REMARK  0 active torsions:
REMARK  status: ('A' for Active; 'I' for Inactive)
ROOT
ATOM      1  C   UNL d   1       0.101   2.976  -3.283  0.00  0.00     0.020 A 
ATOM      2  C1  UNL d   1      -0.657   3.440  -2.209  0.00  0.00     0.020 A 
ATOM      3  C2  UNL d   1      -0.976   2.581  -1.156  0.00  0.00     0.034 A 
ATOM      4  C3  UNL d   1      -0.537   1.252  -1.174  0.00  0.00     0.017 A 
ATOM      5  C4  UNL d   1       0.223   0.786  -2.253  0.00  0.00     0.017 A 
ATOM      6  C5  UNL d   1       0.540   1.651  -3.305  0.00  0.00     0.034 A 
ATOM      7 Cl   UNL d   1       0.801  -0.840  -2.347  0.00  0.00    -0.070 Cl
ATOM      8 Cl1  UNL d   1      -0.968   0.244   0.162  0.00  0.00    -0.070 Cl
ENDROOT
TORSDOF 0
ENDMDL
