MODEL 1
REMARK minimizedAffinity -2.67538834
REMARK minimizedRMSD -1
REMARK  0 active torsions:
REMARK  status: ('A' for Active; 'I' for Inactive)
ROOT
ATOM      1  C   UNL d   1       1.219  -1.320   2.654  0.00  0.00     0.020 A 
ATOM      2  C1  UNL d   1       2.087  -1.125   1.580  0.00  0.00     0.020 A 
ATOM      3  C2  UNL d   1       1.597  -0.642   0.365  0.00  0.00     0.034 A 
ATOM      4  C3  UNL d   1       0.235  -0.351   0.221  0.00  0.00     0.017 A 
ATOM      5  C4  UNL d   1      -0.635  -0.547   1.299  0.00  0.00     0.017 A 
ATOM      6  C5  UNL d   1      -0.139  -1.031   2.513  0.00  0.00     0.034 A 
ATOM      7 Cl   UNL d   1      -2.328  -0.211   1.197  0.00  0.00    -0.070 Cl
ATOM      8 Cl1  UNL d   1      -0.302   0.244  -1.310  0.00  0.00    -0.070 Cl
ENDROOT
TORSDOF 0
ENDMDL
