MODEL 1
REMARK minimizedAffinity -4.14968872
REMARK minimizedRMSD -1
REMARK  0 active torsions:
REMARK  status: ('A' for Active; 'I' for Inactive)
ROOT
ATOM      1  C   UNL d   1       1.310  -0.969   2.825  0.00  0.00     0.020 A 
ATOM      2  C1  UNL d   1       2.121  -0.217   1.976  0.00  0.00     0.020 A 
ATOM      3  C2  UNL d   1       1.590   0.325   0.803  0.00  0.00     0.034 A 
ATOM      4  C3  UNL d   1       0.245   0.116   0.477  0.00  0.00     0.017 A 
ATOM      5  C4  UNL d   1      -0.568  -0.639   1.331  0.00  0.00     0.017 A 
ATOM      6  C5  UNL d   1      -0.031  -1.179   2.504  0.00  0.00     0.034 A 
ATOM      7 Cl   UNL d   1      -2.237  -0.939   0.997  0.00  0.00    -0.070 Cl
ATOM      8 Cl1  UNL d   1      -0.345   0.816  -0.988  0.00  0.00    -0.070 Cl
ENDROOT
TORSDOF 0
ENDMDL
