MODEL 1
REMARK minimizedAffinity -4.25817251
REMARK minimizedRMSD -1
REMARK  0 active torsions:
REMARK  status: ('A' for Active; 'I' for Inactive)
ROOT
ATOM      1  C   UNL d   1       1.514  -0.750   2.682  0.00  0.00     0.020 A 
ATOM      2  C1  UNL d   1       2.271  -0.584   1.523  0.00  0.00     0.020 A 
ATOM      3  C2  UNL d   1       1.639  -0.296   0.312  0.00  0.00     0.034 A 
ATOM      4  C3  UNL d   1       0.246  -0.175   0.256  0.00  0.00     0.017 A 
ATOM      5  C4  UNL d   1      -0.513  -0.342   1.420  0.00  0.00     0.017 A 
ATOM      6  C5  UNL d   1       0.125  -0.630   2.630  0.00  0.00     0.034 A 
ATOM      7 Cl   UNL d   1      -2.236  -0.208   1.430  0.00  0.00    -0.070 Cl
ATOM      8 Cl1  UNL d   1      -0.469   0.182  -1.276  0.00  0.00    -0.070 Cl
ENDROOT
TORSDOF 0
ENDMDL
