MODEL 1
REMARK minimizedAffinity -2.06230736
REMARK minimizedRMSD -1
REMARK  0 active torsions:
REMARK  status: ('A' for Active; 'I' for Inactive)
ROOT
ATOM      1  C   UNL d   1      -0.752  -0.111  -0.915  0.00  0.00     0.020 A 
ATOM      2  C1  UNL d   1      -1.300  -0.137   0.367  0.00  0.00     0.020 A 
ATOM      3  C2  UNL d   1      -0.489  -0.422   1.468  0.00  0.00     0.034 A 
ATOM      4  C3  UNL d   1       0.875  -0.681   1.289  0.00  0.00     0.017 A 
ATOM      5  C4  UNL d   1       1.424  -0.654   0.002  0.00  0.00     0.017 A 
ATOM      6  C5  UNL d   1       0.607  -0.368  -1.097  0.00  0.00     0.034 A 
ATOM      7 Cl   UNL d   1       3.098  -0.962  -0.298  0.00  0.00    -0.070 Cl
ATOM      8 Cl1  UNL d   1       1.818  -1.025   2.695  0.00  0.00    -0.070 Cl
ENDROOT
TORSDOF 0
ENDMDL
