MODEL 1
REMARK minimizedAffinity -1.22807884
REMARK minimizedRMSD -1
REMARK  0 active torsions:
REMARK  status: ('A' for Active; 'I' for Inactive)
ROOT
ATOM      1  C   UNL d   1      -1.279   1.213  -0.668  0.00  0.00     0.020 A 
ATOM      2  C1  UNL d   1      -0.570   0.898  -1.827  0.00  0.00     0.020 A 
ATOM      3  C2  UNL d   1       0.652   0.228  -1.737  0.00  0.00     0.034 A 
ATOM      4  C3  UNL d   1       1.168  -0.130  -0.486  0.00  0.00     0.017 A 
ATOM      5  C4  UNL d   1       0.456   0.187   0.676  0.00  0.00     0.017 A 
ATOM      6  C5  UNL d   1      -0.767   0.858   0.581  0.00  0.00     0.034 A 
ATOM      7 Cl   UNL d   1       1.029  -0.222   2.255  0.00  0.00    -0.070 Cl
ATOM      8 Cl1  UNL d   1       2.685  -0.957  -0.449  0.00  0.00    -0.070 Cl
ENDROOT
TORSDOF 0
ENDMDL
