MODEL 1
REMARK minimizedAffinity -4.45760965
REMARK minimizedRMSD -1
REMARK  0 active torsions:
REMARK  status: ('A' for Active; 'I' for Inactive)
ROOT
ATOM      1  C   UNL d   1       0.360  -0.197   2.646  0.00  0.00     0.020 A 
ATOM      2  C1  UNL d   1       1.439  -1.060   2.460  0.00  0.00     0.020 A 
ATOM      3  C2  UNL d   1       1.913  -1.317   1.172  0.00  0.00     0.034 A 
ATOM      4  C3  UNL d   1       1.308  -0.711   0.065  0.00  0.00     0.017 A 
ATOM      5  C4  UNL d   1       0.225   0.156   0.253  0.00  0.00     0.017 A 
ATOM      6  C5  UNL d   1      -0.246   0.410   1.545  0.00  0.00     0.034 A 
ATOM      7 Cl   UNL d   1      -0.573   0.941  -1.064  0.00  0.00    -0.070 Cl
ATOM      8 Cl1  UNL d   1       1.946  -1.074  -1.499  0.00  0.00    -0.070 Cl
ENDROOT
TORSDOF 0
ENDMDL
