MODEL 1
REMARK minimizedAffinity -3.81371355
REMARK minimizedRMSD -1
REMARK  0 active torsions:
REMARK  status: ('A' for Active; 'I' for Inactive)
ROOT
ATOM      1  C   UNL d   1       0.848   0.449   1.506  0.00  0.00     0.020 A 
ATOM      2  C1  UNL d   1       2.049  -0.196   1.210  0.00  0.00     0.020 A 
ATOM      3  C2  UNL d   1       2.248  -0.758  -0.052  0.00  0.00     0.034 A 
ATOM      4  C3  UNL d   1       1.244  -0.677  -1.025  0.00  0.00     0.017 A 
ATOM      5  C4  UNL d   1       0.039  -0.030  -0.727  0.00  0.00     0.017 A 
ATOM      6  C5  UNL d   1      -0.154   0.531   0.539  0.00  0.00     0.034 A 
ATOM      7 Cl   UNL d   1      -1.246   0.110  -1.875  0.00  0.00    -0.070 Cl
ATOM      8 Cl1  UNL d   1       1.558  -1.394  -2.565  0.00  0.00    -0.070 Cl
ENDROOT
TORSDOF 0
ENDMDL
