MODEL 1
REMARK minimizedAffinity 6.28943586
REMARK minimizedRMSD -1
REMARK  1 active torsions:
REMARK  status: ('A' for Active; 'I' for Inactive)
REMARK    1  A    between atoms: C1_2  and  C2_3 
ROOT
ATOM      1  C2  UNL d   1       4.364  -1.817   4.110  0.00  0.00    -0.073 A 
ATOM      2  C3  UNL d   1       3.303  -2.593   4.590  0.00  0.00    -0.002 A 
ATOM      3  C4  UNL d   1       1.989  -2.293   4.226  0.00  0.00     0.004 A 
ATOM      4  C5  UNL d   1       1.724  -1.221   3.375  0.00  0.00    -0.004 A 
ATOM      5  C6  UNL d   1       2.771  -0.441   2.875  0.00  0.00    -0.075 A 
ATOM      6  C7  UNL d   1       2.502   0.718   1.960  0.00  0.00     0.076 C 
ATOM      7  C8  UNL d   1       4.087  -0.746   3.247  0.00  0.00     0.001 A 
ENDROOT
BRANCH   1   8
ATOM      8  C1  UNL d   1       5.784  -2.140   4.494  0.00  0.00     0.053 C 
ATOM      9  C   UNL d   1       5.998  -2.066   5.998  0.00  0.00     0.018 C 
ENDBRANCH   1   8
TORSDOF 1
ENDMDL
