MODEL 1
REMARK minimizedAffinity 13.3239813
REMARK minimizedRMSD -1
REMARK  1 active torsions:
REMARK  status: ('A' for Active; 'I' for Inactive)
REMARK    1  A    between atoms: C1_2  and  C2_3 
ROOT
ATOM      1  C2  UNL d   1       1.288  -0.950   1.273  0.00  0.00    -0.073 A 
ATOM      2  C3  UNL d   1       1.339  -1.591   0.030  0.00  0.00    -0.002 A 
ATOM      3  C4  UNL d   1       0.255  -1.520  -0.845  0.00  0.00     0.004 A 
ATOM      4  C5  UNL d   1      -0.888  -0.803  -0.490  0.00  0.00    -0.004 A 
ATOM      5  C6  UNL d   1      -0.954  -0.146   0.743  0.00  0.00    -0.075 A 
ATOM      6  C7  UNL d   1      -2.176   0.628   1.140  0.00  0.00     0.076 C 
ATOM      7  C8  UNL d   1       0.139  -0.224   1.617  0.00  0.00     0.001 A 
ENDROOT
BRANCH   1   8
ATOM      8  C1  UNL d   1       2.459  -1.018   2.219  0.00  0.00     0.053 C 
ATOM      9  C   UNL d   1       2.016  -1.178   3.664  0.00  0.00     0.018 C 
ENDBRANCH   1   8
TORSDOF 1
ENDMDL
