MODEL 1
REMARK minimizedAffinity 5.01382637
REMARK minimizedRMSD -1
REMARK  1 active torsions:
REMARK  status: ('A' for Active; 'I' for Inactive)
REMARK    1  A    between atoms: C1_2  and  C2_3 
ROOT
ATOM      1  C2  UNL d   1       3.092  -1.524   3.446  0.00  0.00    -0.073 A 
ATOM      2  C3  UNL d   1       1.998  -1.889   4.240  0.00  0.00    -0.002 A 
ATOM      3  C4  UNL d   1       2.199  -2.434   5.509  0.00  0.00     0.004 A 
ATOM      4  C5  UNL d   1       3.492  -2.613   5.999  0.00  0.00    -0.004 A 
ATOM      5  C6  UNL d   1       4.598  -2.244   5.226  0.00  0.00    -0.075 A 
ATOM      6  C7  UNL d   1       5.995  -2.433   5.737  0.00  0.00     0.076 C 
ATOM      7  C8  UNL d   1       4.388  -1.700   3.951  0.00  0.00     0.001 A 
ENDROOT
BRANCH   1   8
ATOM      8  C1  UNL d   1       2.880  -0.929   2.078  0.00  0.00     0.053 C 
ATOM      9  C   UNL d   1       1.444  -0.473   1.871  0.00  0.00     0.018 C 
ENDBRANCH   1   8
TORSDOF 1
ENDMDL
