MODEL 1
REMARK minimizedAffinity 13.5145254
REMARK minimizedRMSD -1
REMARK  1 active torsions:
REMARK  status: ('A' for Active; 'I' for Inactive)
REMARK    1  A    between atoms: C1_2  and  C2_3 
ROOT
ATOM      1  C2  UNL d   1       2.923  -5.999  -1.086  0.00  0.00    -0.073 A 
ATOM      2  C3  UNL d   1       4.318  -5.998  -0.981  0.00  0.00    -0.002 A 
ATOM      3  C4  UNL d   1       5.111  -5.993  -2.129  0.00  0.00     0.004 A 
ATOM      4  C5  UNL d   1       4.518  -5.981  -3.392  0.00  0.00    -0.004 A 
ATOM      5  C6  UNL d   1       3.126  -5.970  -3.517  0.00  0.00    -0.075 A 
ATOM      6  C7  UNL d   1       2.472  -5.959  -4.868  0.00  0.00     0.076 C 
ATOM      7  C8  UNL d   1       2.336  -5.978  -2.359  0.00  0.00     0.001 A 
ENDROOT
BRANCH   1   8
ATOM      8  C1  UNL d   1       2.062  -5.999   0.151  0.00  0.00     0.053 C 
ATOM      9  C   UNL d   1       2.688  -5.194   1.280  0.00  0.00     0.018 C 
ENDBRANCH   1   8
TORSDOF 1
ENDMDL
