MODEL 1
REMARK minimizedAffinity 2.4561708
REMARK minimizedRMSD -1
REMARK  2 active torsions:
REMARK  status: ('A' for Active; 'I' for Inactive)
REMARK    1  A    between atoms: C1_2  and  C2_3 
REMARK    2  A    between atoms: C2_3  and  C3_4 
ROOT
ATOM      1  C3  UNL d   1       0.066   2.406   1.277  0.00  0.00    -0.075 A 
ATOM      2  C4  UNL d   1       0.180   1.678   2.470  0.00  0.00     0.002 A 
ATOM      3  C5  UNL d   1       0.045   0.290   2.468  0.00  0.00     0.002 A 
ATOM      4  C6  UNL d   1      -0.215  -0.386   1.278  0.00  0.00    -0.004 A 
ATOM      5  C7  UNL d   1      -0.346   0.329   0.089  0.00  0.00     0.002 A 
ATOM      6  C8  UNL d   1      -0.208   1.718   0.087  0.00  0.00     0.002 A 
ENDROOT
BRANCH   1   7
ATOM      7  C2  UNL d   1       0.240   3.906   1.267  0.00  0.00     0.056 C 
BRANCH   7   8
ATOM      8  C1  UNL d   1       0.398   4.507  -0.133  0.00  0.00     0.007 C 
ATOM      9  C   UNL d   1       0.093   5.999  -0.184  0.00  0.00     0.009 C 
ENDBRANCH   7   8
ENDBRANCH   1   7
TORSDOF 2
ENDMDL
