MODEL 1
REMARK minimizedAffinity 6.35594416
REMARK minimizedRMSD -1
REMARK  2 active torsions:
REMARK  status: ('A' for Active; 'I' for Inactive)
REMARK    1  A    between atoms: C1_2  and  C2_3 
REMARK    2  A    between atoms: C2_3  and  C3_4 
ROOT
ATOM      1  C3  UNL d   1       0.055   1.937   1.194  0.00  0.00    -0.075 A 
ATOM      2  C4  UNL d   1       1.157   1.211   1.670  0.00  0.00     0.002 A 
ATOM      3  C5  UNL d   1       1.058   0.461   2.842  0.00  0.00     0.002 A 
ATOM      4  C6  UNL d   1      -0.137   0.435   3.558  0.00  0.00    -0.004 A 
ATOM      5  C7  UNL d   1      -1.233   1.165   3.103  0.00  0.00     0.002 A 
ATOM      6  C8  UNL d   1      -1.138   1.913   1.928  0.00  0.00     0.002 A 
ENDROOT
BRANCH   1   7
ATOM      7  C2  UNL d   1       0.146   2.727  -0.090  0.00  0.00     0.056 C 
BRANCH   7   8
ATOM      8  C1  UNL d   1      -0.620   2.103  -1.261  0.00  0.00     0.007 C 
ATOM      9  C   UNL d   1       0.293   1.497  -2.319  0.00  0.00     0.009 C 
ENDBRANCH   7   8
ENDBRANCH   1   7
TORSDOF 2
ENDMDL
