MODEL 1
REMARK minimizedAffinity 7.68221331
REMARK minimizedRMSD -1
REMARK  2 active torsions:
REMARK  status: ('A' for Active; 'I' for Inactive)
REMARK    1  A    between atoms: C1_2  and  C2_3 
REMARK    2  A    between atoms: C2_3  and  C3_4 
ROOT
ATOM      1  C3  UNL d   1       0.684   2.403   1.155  0.00  0.00    -0.075 A 
ATOM      2  C4  UNL d   1       0.457   3.763   0.901  0.00  0.00     0.002 A 
ATOM      3  C5  UNL d   1       0.112   4.196  -0.380  0.00  0.00     0.002 A 
ATOM      4  C6  UNL d   1      -0.002   3.279  -1.422  0.00  0.00    -0.004 A 
ATOM      5  C7  UNL d   1       0.237   1.927  -1.184  0.00  0.00     0.002 A 
ATOM      6  C8  UNL d   1       0.579   1.490   0.097  0.00  0.00     0.002 A 
ENDROOT
BRANCH   1   7
ATOM      7  C2  UNL d   1       1.029   1.924   2.545  0.00  0.00     0.056 C 
BRANCH   7   8
ATOM      8  C1  UNL d   1       0.102   0.824   3.074  0.00  0.00     0.007 C 
ATOM      9  C   UNL d   1       0.801  -0.151   4.012  0.00  0.00     0.009 C 
ENDBRANCH   7   8
ENDBRANCH   1   7
TORSDOF 2
ENDMDL
