MODEL 1
REMARK minimizedAffinity 2.34942007
REMARK minimizedRMSD -1
REMARK  2 active torsions:
REMARK  status: ('A' for Active; 'I' for Inactive)
REMARK    1  A    between atoms: C1_2  and  C2_3 
REMARK    2  A    between atoms: C2_3  and  C3_4 
ROOT
ATOM      1  C3  UNL d   1       0.334   1.771   2.248  0.00  0.00    -0.075 A 
ATOM      2  C4  UNL d   1      -1.022   1.866   2.593  0.00  0.00     0.002 A 
ATOM      3  C5  UNL d   1      -1.756   3.009   2.274  0.00  0.00     0.002 A 
ATOM      4  C6  UNL d   1      -1.142   4.074   1.617  0.00  0.00    -0.004 A 
ATOM      5  C7  UNL d   1       0.208   3.997   1.284  0.00  0.00     0.002 A 
ATOM      6  C8  UNL d   1       0.944   2.852   1.598  0.00  0.00     0.002 A 
ENDROOT
BRANCH   1   7
ATOM      7  C2  UNL d   1       1.126   0.525   2.564  0.00  0.00     0.056 C 
BRANCH   7   8
ATOM      8  C1  UNL d   1       0.343  -0.528   3.355  0.00  0.00     0.007 C 
ATOM      9  C   UNL d   1       1.193  -1.263   4.382  0.00  0.00     0.009 C 
ENDBRANCH   7   8
ENDBRANCH   1   7
TORSDOF 2
ENDMDL
