MODEL 1
REMARK minimizedAffinity 4.15804291
REMARK minimizedRMSD -1
REMARK  2 active torsions:
REMARK  status: ('A' for Active; 'I' for Inactive)
REMARK    1  A    between atoms: C1_2  and  C2_3 
REMARK    2  A    between atoms: C2_3  and  C3_4 
ROOT
ATOM      1  C3  UNL d   1       0.313   0.358   2.042  0.00  0.00    -0.075 A 
ATOM      2  C4  UNL d   1       1.342  -0.330   1.384  0.00  0.00     0.002 A 
ATOM      3  C5  UNL d   1       2.001  -1.388   2.011  0.00  0.00     0.002 A 
ATOM      4  C6  UNL d   1       1.647  -1.764   3.304  0.00  0.00    -0.004 A 
ATOM      5  C7  UNL d   1       0.637  -1.076   3.974  0.00  0.00     0.002 A 
ATOM      6  C8  UNL d   1      -0.026  -0.020   3.348  0.00  0.00     0.002 A 
ENDROOT
BRANCH   1   7
ATOM      7  C2  UNL d   1      -0.424   1.485   1.358  0.00  0.00     0.056 C 
BRANCH   7   8
ATOM      8  C1  UNL d   1      -0.551   2.754   2.208  0.00  0.00     0.007 C 
ATOM      9  C   UNL d   1      -1.953   3.349   2.192  0.00  0.00     0.009 C 
ENDBRANCH   7   8
ENDBRANCH   1   7
TORSDOF 2
ENDMDL
