MODEL 1
REMARK minimizedAffinity 4.03738308
REMARK minimizedRMSD -1
REMARK  2 active torsions:
REMARK  status: ('A' for Active; 'I' for Inactive)
REMARK    1  A    between atoms: C1_2  and  C2_3 
REMARK    2  A    between atoms: C2_3  and  C3_4 
ROOT
ATOM      1  C3  UNL d   1       0.214   0.100   0.128  0.00  0.00    -0.075 A 
ATOM      2  C4  UNL d   1       1.207  -0.869   0.337  0.00  0.00     0.002 A 
ATOM      3  C5  UNL d   1       1.669  -1.143   1.624  0.00  0.00     0.002 A 
ATOM      4  C6  UNL d   1       1.155  -0.446   2.715  0.00  0.00    -0.004 A 
ATOM      5  C7  UNL d   1       0.180   0.530   2.518  0.00  0.00     0.002 A 
ATOM      6  C8  UNL d   1      -0.288   0.803   1.231  0.00  0.00     0.002 A 
ENDROOT
BRANCH   1   7
ATOM      7  C2  UNL d   1      -0.312   0.380  -1.260  0.00  0.00     0.056 C 
BRANCH   7   8
ATOM      8  C1  UNL d   1      -1.453  -0.546  -1.693  0.00  0.00     0.007 C 
ATOM      9  C   UNL d   1      -2.638   0.201  -2.291  0.00  0.00     0.009 C 
ENDBRANCH   7   8
ENDBRANCH   1   7
TORSDOF 2
ENDMDL
