MODEL 1
REMARK minimizedAffinity 2.74255705
REMARK minimizedRMSD -1
REMARK  2 active torsions:
REMARK  status: ('A' for Active; 'I' for Inactive)
REMARK    1  A    between atoms: C1_2  and  C2_3 
REMARK    2  A    between atoms: C2_3  and  C3_4 
ROOT
ATOM      1  C3  UNL d   1       0.528   1.952   0.869  0.00  0.00    -0.075 A 
ATOM      2  C4  UNL d   1       0.556   2.580  -0.385  0.00  0.00     0.002 A 
ATOM      3  C5  UNL d   1       1.027   3.887  -0.513  0.00  0.00     0.002 A 
ATOM      4  C6  UNL d   1       1.465   4.585   0.610  0.00  0.00    -0.004 A 
ATOM      5  C7  UNL d   1       1.426   3.977   1.863  0.00  0.00     0.002 A 
ATOM      6  C8  UNL d   1       0.960   2.668   1.993  0.00  0.00     0.002 A 
ENDROOT
BRANCH   1   7
ATOM      7  C2  UNL d   1       0.047   0.528   1.009  0.00  0.00     0.056 C 
BRANCH   7   8
ATOM      8  C1  UNL d   1       0.880  -0.320   1.977  0.00  0.00     0.007 C 
ATOM      9  C   UNL d   1       2.328  -0.485   1.536  0.00  0.00     0.009 C 
ENDBRANCH   7   8
ENDBRANCH   1   7
TORSDOF 2
ENDMDL
