MODEL 1
REMARK minimizedAffinity -3.92306423
REMARK minimizedRMSD -1
REMARK  2 active torsions:
REMARK  status: ('A' for Active; 'I' for Inactive)
REMARK    1  A    between atoms: C1_2  and  C2_3 
REMARK    2  A    between atoms: C2_3  and  C3_4 
ROOT
ATOM      1  C3  UNL d   1       0.627   2.939   1.381  0.00  0.00    -0.075 A 
ATOM      2  C4  UNL d   1       1.061   2.427   2.612  0.00  0.00     0.002 A 
ATOM      3  C5  UNL d   1       1.313   1.063   2.764  0.00  0.00     0.002 A 
ATOM      4  C6  UNL d   1       1.125   0.194   1.691  0.00  0.00    -0.004 A 
ATOM      5  C7  UNL d   1       0.679   0.689   0.468  0.00  0.00     0.002 A 
ATOM      6  C8  UNL d   1       0.430   2.054   0.312  0.00  0.00     0.002 A 
ENDROOT
BRANCH   1   7
ATOM      7  C2  UNL d   1       0.381   4.418   1.202  0.00  0.00     0.056 C 
BRANCH   7   8
ATOM      8  C1  UNL d   1       1.381   5.108   0.268  0.00  0.00     0.007 C 
ATOM      9  C   UNL d   1       0.756   5.579  -1.038  0.00  0.00     0.009 C 
ENDBRANCH   7   8
ENDBRANCH   1   7
TORSDOF 2
ENDMDL
