MODEL 1
REMARK minimizedAffinity 0.952997148
REMARK minimizedRMSD -1
REMARK  0 active torsions:
REMARK  status: ('A' for Active; 'I' for Inactive)
ROOT
ATOM      1  O1  BZF d   1       0.458  -2.293   1.528  0.00  0.00    -0.204 OA
ATOM      2  C2  BZF d   1       0.068  -2.013   2.823  0.00  0.00     0.174 A 
ATOM      3  C3  BZF d   1      -0.393  -0.749   2.920  0.00  0.00    -0.012 A 
ATOM      4  C3A BZF d   1      -0.370  -0.236   1.585  0.00  0.00    -0.107 A 
ATOM      5  C4  BZF d   1      -0.724   0.962   1.034  0.00  0.00     0.055 A 
ATOM      6  C5  BZF d   1      -0.509   1.168  -0.292  0.00  0.00    -0.016 A 
ATOM      7  C6  BZF d   1       0.063   0.202  -1.094  0.00  0.00     0.022 A 
ATOM      8  C7  BZF d   1       0.426  -1.004  -0.593  0.00  0.00     0.029 A 
ATOM      9  C7A BZF d   1       0.179  -1.227   0.740  0.00  0.00     0.058 A 
ENDROOT
TORSDOF 0
ENDMDL
