MODEL 1
REMARK minimizedAffinity -3.33148694
REMARK minimizedRMSD -1
REMARK  0 active torsions:
REMARK  status: ('A' for Active; 'I' for Inactive)
ROOT
ATOM      1  O1  BZF d   1      -0.178  -0.810   2.567  0.00  0.00    -0.204 OA
ATOM      2  C2  BZF d   1       1.155  -0.986   2.884  0.00  0.00     0.174 A 
ATOM      3  C3  BZF d   1       1.939  -0.732   1.817  0.00  0.00    -0.012 A 
ATOM      4  C3A BZF d   1       1.046  -0.284   0.792  0.00  0.00    -0.107 A 
ATOM      5  C4  BZF d   1       1.227   0.133  -0.495  0.00  0.00     0.055 A 
ATOM      6  C5  BZF d   1       0.139   0.432  -1.252  0.00  0.00    -0.016 A 
ATOM      7  C6  BZF d   1      -1.143   0.321  -0.756  0.00  0.00     0.022 A 
ATOM      8  C7  BZF d   1      -1.373  -0.084   0.516  0.00  0.00     0.029 A 
ATOM      9  C7A BZF d   1      -0.274  -0.356   1.294  0.00  0.00     0.058 A 
ENDROOT
TORSDOF 0
ENDMDL
