MODEL 1
REMARK minimizedAffinity -3.66415095
REMARK minimizedRMSD -1
REMARK  0 active torsions:
REMARK  status: ('A' for Active; 'I' for Inactive)
ROOT
ATOM      1  O1  BZF d   1       1.876  -1.125   1.473  0.00  0.00    -0.204 OA
ATOM      2  C2  BZF d   1       1.313  -1.306   2.721  0.00  0.00     0.174 A 
ATOM      3  C3  BZF d   1       0.050  -0.832   2.750  0.00  0.00    -0.012 A 
ATOM      4  C3A BZF d   1      -0.222  -0.406   1.412  0.00  0.00    -0.107 A 
ATOM      5  C4  BZF d   1      -1.317   0.141   0.805  0.00  0.00     0.055 A 
ATOM      6  C5  BZF d   1      -1.233   0.511  -0.500  0.00  0.00    -0.016 A 
ATOM      7  C6  BZF d   1      -0.070   0.353  -1.226  0.00  0.00     0.022 A 
ATOM      8  C7  BZF d   1       1.040  -0.190  -0.669  0.00  0.00     0.029 A 
ATOM      9  C7A BZF d   1       0.948  -0.595   0.641  0.00  0.00     0.058 A 
ENDROOT
TORSDOF 0
ENDMDL
