MODEL 1
REMARK minimizedAffinity -4.7743659
REMARK minimizedRMSD -1
REMARK  0 active torsions:
REMARK  status: ('A' for Active; 'I' for Inactive)
ROOT
ATOM      1  O1  BZF d   1       1.339  -1.216  -0.881  0.00  0.00    -0.204 OA
ATOM      2  C2  BZF d   1       0.416  -0.398  -1.503  0.00  0.00     0.174 A 
ATOM      3  C3  BZF d   1      -0.416   0.159  -0.600  0.00  0.00    -0.012 A 
ATOM      4  C3A BZF d   1       0.072  -0.270   0.675  0.00  0.00    -0.107 A 
ATOM      5  C4  BZF d   1      -0.325  -0.034   1.960  0.00  0.00     0.055 A 
ATOM      6  C5  BZF d   1       0.322  -0.662   2.977  0.00  0.00    -0.016 A 
ATOM      7  C6  BZF d   1       1.364  -1.536   2.745  0.00  0.00     0.022 A 
ATOM      8  C7  BZF d   1       1.797  -1.797   1.488  0.00  0.00     0.029 A 
ATOM      9  C7A BZF d   1       1.167  -1.138   0.460  0.00  0.00     0.058 A 
ENDROOT
TORSDOF 0
ENDMDL
