MODEL 1
REMARK minimizedAffinity -3.78517175
REMARK minimizedRMSD -1
REMARK  0 active torsions:
REMARK  status: ('A' for Active; 'I' for Inactive)
ROOT
ATOM      1  O1  BZF d   1      -1.643   1.831  -2.067  0.00  0.00    -0.204 OA
ATOM      2  C2  BZF d   1      -0.979   2.972  -2.475  0.00  0.00     0.174 A 
ATOM      3  C3  BZF d   1       0.206   3.088  -1.841  0.00  0.00    -0.012 A 
ATOM      4  C3A BZF d   1       0.329   1.901  -1.052  0.00  0.00    -0.107 A 
ATOM      5  C4  BZF d   1       1.296   1.428  -0.212  0.00  0.00     0.055 A 
ATOM      6  C5  BZF d   1       1.076   0.268   0.462  0.00  0.00    -0.016 A 
ATOM      7  C6  BZF d   1      -0.099  -0.441   0.323  0.00  0.00     0.022 A 
ATOM      8  C7  BZF d   1      -1.085  -0.014  -0.503  0.00  0.00     0.029 A 
ATOM      9  C7A BZF d   1      -0.853   1.140  -1.210  0.00  0.00     0.058 A 
ENDROOT
TORSDOF 0
ENDMDL
