MODEL 1
REMARK minimizedAffinity -3.04018927
REMARK minimizedRMSD -1
REMARK  0 active torsions:
REMARK  status: ('A' for Active; 'I' for Inactive)
ROOT
ATOM      1  O1  BZF d   1       1.333   0.534  -0.462  0.00  0.00    -0.204 OA
ATOM      2  C2  BZF d   1       0.264   0.867  -1.271  0.00  0.00     0.174 A 
ATOM      3  C3  BZF d   1      -0.902   0.518  -0.691  0.00  0.00    -0.012 A 
ATOM      4  C3A BZF d   1      -0.544   0.014   0.600  0.00  0.00    -0.107 A 
ATOM      5  C4  BZF d   1      -1.267  -0.473   1.651  0.00  0.00     0.055 A 
ATOM      6  C5  BZF d   1      -0.610  -0.952   2.739  0.00  0.00    -0.016 A 
ATOM      7  C6  BZF d   1       0.768  -0.963   2.808  0.00  0.00     0.022 A 
ATOM      8  C7  BZF d   1       1.528  -0.485   1.793  0.00  0.00     0.029 A 
ATOM      9  C7A BZF d   1       0.866   0.030   0.705  0.00  0.00     0.058 A 
ENDROOT
TORSDOF 0
ENDMDL
