MODEL 1
REMARK minimizedAffinity 6.53300619
REMARK minimizedRMSD -1
REMARK  0 active torsions:
REMARK  status: ('A' for Active; 'I' for Inactive)
ROOT
ATOM      1  C1  BNZ d   1       3.415  -1.257   1.253  0.00  0.00     0.000 A 
ATOM      2  C2  BNZ d   1       2.235  -1.951   1.303  0.00  0.00     0.000 A 
ATOM      3  C3  BNZ d   1       1.145  -1.432   1.945  0.00  0.00     0.000 A 
ATOM      4  C4  BNZ d   1       1.248  -0.241   2.568  0.00  0.00     0.000 A 
ATOM      5  C5  BNZ d   1       2.433   0.467   2.534  0.00  0.00     0.000 A 
ATOM      6  C6  BNZ d   1       3.516  -0.041   1.854  0.00  0.00     0.000 A 
ENDROOT
TORSDOF 0
ENDMDL
