MODEL 1
REMARK minimizedAffinity 11.994978
REMARK minimizedRMSD -1
REMARK  0 active torsions:
REMARK  status: ('A' for Active; 'I' for Inactive)
ROOT
ATOM      1  C1  BNZ d   1      -1.920   4.175  -5.545  0.00  0.00     0.000 A 
ATOM      2  C2  BNZ d   1      -2.038   3.151  -4.643  0.00  0.00     0.000 A 
ATOM      3  C3  BNZ d   1      -2.070   3.401  -3.300  0.00  0.00     0.000 A 
ATOM      4  C4  BNZ d   1      -1.944   4.670  -2.859  0.00  0.00     0.000 A 
ATOM      5  C5  BNZ d   1      -1.815   5.712  -3.755  0.00  0.00     0.000 A 
ATOM      6  C6  BNZ d   1      -1.822   5.460  -5.108  0.00  0.00     0.000 A 
ENDROOT
TORSDOF 0
ENDMDL
