MODEL 1
REMARK minimizedAffinity 9.83374786
REMARK minimizedRMSD -1
REMARK  0 active torsions:
REMARK  status: ('A' for Active; 'I' for Inactive)
ROOT
ATOM      1  C1  BNZ d   1       4.242  -5.998   3.676  0.00  0.00     0.000 A 
ATOM      2  C2  BNZ d   1       2.902  -5.836   3.443  0.00  0.00     0.000 A 
ATOM      3  C3  BNZ d   1       2.028  -5.661   4.479  0.00  0.00     0.000 A 
ATOM      4  C4  BNZ d   1       2.488  -5.690   5.747  0.00  0.00     0.000 A 
ATOM      5  C5  BNZ d   1       3.834  -5.862   5.998  0.00  0.00     0.000 A 
ATOM      6  C6  BNZ d   1       4.717  -5.998   4.951  0.00  0.00     0.000 A 
ENDROOT
TORSDOF 0
ENDMDL
