MODEL 1
REMARK minimizedAffinity 10.4583139
REMARK minimizedRMSD -1
REMARK  0 active torsions:
REMARK  status: ('A' for Active; 'I' for Inactive)
ROOT
ATOM      1  C1  BNZ d   1      -3.056   1.941  -2.861  0.00  0.00     0.000 A 
ATOM      2  C2  BNZ d   1      -2.323   1.412  -1.833  0.00  0.00     0.000 A 
ATOM      3  C3  BNZ d   1      -1.098   1.926  -1.509  0.00  0.00     0.000 A 
ATOM      4  C4  BNZ d   1      -0.591   2.941  -2.239  0.00  0.00     0.000 A 
ATOM      5  C5  BNZ d   1      -1.314   3.479  -3.285  0.00  0.00     0.000 A 
ATOM      6  C6  BNZ d   1      -2.563   2.984  -3.583  0.00  0.00     0.000 A 
ENDROOT
TORSDOF 0
ENDMDL
