MODEL 1
REMARK minimizedAffinity 9.82560825
REMARK minimizedRMSD -1
REMARK  0 active torsions:
REMARK  status: ('A' for Active; 'I' for Inactive)
ROOT
ATOM      1  C1  BNZ d   1       1.732  -4.207   4.055  0.00  0.00     0.000 A 
ATOM      2  C2  BNZ d   1       1.997  -4.197   5.398  0.00  0.00     0.000 A 
ATOM      3  C3  BNZ d   1       2.903  -5.066   5.940  0.00  0.00     0.000 A 
ATOM      4  C4  BNZ d   1       3.513  -5.968   5.145  0.00  0.00     0.000 A 
ATOM      5  C5  BNZ d   1       3.250  -5.997   3.790  0.00  0.00     0.000 A 
ATOM      6  C6  BNZ d   1       2.367  -5.096   3.242  0.00  0.00     0.000 A 
ENDROOT
TORSDOF 0
ENDMDL
