MODEL 1
REMARK minimizedAffinity 3.15000987
REMARK minimizedRMSD -1
REMARK  0 active torsions:
REMARK  status: ('A' for Active; 'I' for Inactive)
ROOT
ATOM      1  C1  BNZ d   1      -3.061  -3.790   1.993  0.00  0.00     0.000 A 
ATOM      2  C2  BNZ d   1      -3.516  -4.502   0.915  0.00  0.00     0.000 A 
ATOM      3  C3  BNZ d   1      -4.810  -4.382   0.492  0.00  0.00     0.000 A 
ATOM      4  C4  BNZ d   1      -5.658  -3.582   1.171  0.00  0.00     0.000 A 
ATOM      5  C5  BNZ d   1      -5.217  -2.865   2.265  0.00  0.00     0.000 A 
ATOM      6  C6  BNZ d   1      -3.904  -2.958   2.664  0.00  0.00     0.000 A 
ENDROOT
TORSDOF 0
ENDMDL
