MODEL 1
REMARK minimizedAffinity 5.68357944
REMARK minimizedRMSD -1
REMARK  0 active torsions:
REMARK  status: ('A' for Active; 'I' for Inactive)
ROOT
ATOM      1  C1  BNZ d   1       0.520  -1.604   2.488  0.00  0.00     0.000 A 
ATOM      2  C2  BNZ d   1      -0.085  -2.711   1.957  0.00  0.00     0.000 A 
ATOM      3  C3  BNZ d   1      -1.324  -3.103   2.381  0.00  0.00     0.000 A 
ATOM      4  C4  BNZ d   1      -1.938  -2.412   3.363  0.00  0.00     0.000 A 
ATOM      5  C5  BNZ d   1      -1.337  -1.298   3.915  0.00  0.00     0.000 A 
ATOM      6  C6  BNZ d   1      -0.107  -0.884   3.459  0.00  0.00     0.000 A 
ENDROOT
TORSDOF 0
ENDMDL
