MODEL 1
REMARK minimizedAffinity 0.579065979
REMARK minimizedRMSD -1
REMARK  0 active torsions:
REMARK  status: ('A' for Active; 'I' for Inactive)
ROOT
ATOM      1  C1  BNZ d   1       0.024  -1.564   2.370  0.00  0.00     0.000 A 
ATOM      2  C2  BNZ d   1       0.306  -0.692   3.387  0.00  0.00     0.000 A 
ATOM      3  C3  BNZ d   1      -0.504  -0.612   4.486  0.00  0.00     0.000 A 
ATOM      4  C4  BNZ d   1      -1.614  -1.375   4.547  0.00  0.00     0.000 A 
ATOM      5  C5  BNZ d   1      -1.917  -2.253   3.526  0.00  0.00     0.000 A 
ATOM      6  C6  BNZ d   1      -1.079  -2.358   2.439  0.00  0.00     0.000 A 
ENDROOT
TORSDOF 0
ENDMDL
