MODEL 1
REMARK minimizedAffinity 9.87047005
REMARK minimizedRMSD -1
REMARK  0 active torsions:
REMARK  status: ('A' for Active; 'I' for Inactive)
ROOT
ATOM      1  C1  BNZ d   1       1.452  -0.682   2.442  0.00  0.00     0.000 A 
ATOM      2  C2  BNZ d   1       1.669  -0.155   3.687  0.00  0.00     0.000 A 
ATOM      3  C3  BNZ d   1       0.640  -0.008   4.574  0.00  0.00     0.000 A 
ATOM      4  C4  BNZ d   1      -0.610  -0.350   4.202  0.00  0.00     0.000 A 
ATOM      5  C5  BNZ d   1      -0.847  -0.874   2.947  0.00  0.00     0.000 A 
ATOM      6  C6  BNZ d   1       0.198  -1.057   2.070  0.00  0.00     0.000 A 
ENDROOT
TORSDOF 0
ENDMDL
