MODEL 1
REMARK minimizedAffinity 14.6200981
REMARK minimizedRMSD -1
REMARK  0 active torsions:
REMARK  status: ('A' for Active; 'I' for Inactive)
ROOT
ATOM      1  C1  BNZ d   1       0.813  -0.371   3.641  0.00  0.00     0.000 A 
ATOM      2  C2  BNZ d   1       1.421  -0.002   4.810  0.00  0.00     0.000 A 
ATOM      3  C3  BNZ d   1       0.736  -0.021   5.993  0.00  0.00     0.000 A 
ATOM      4  C4  BNZ d   1      -0.566  -0.371   5.998  0.00  0.00     0.000 A 
ATOM      5  C5  BNZ d   1      -1.197  -0.737   4.826  0.00  0.00     0.000 A 
ATOM      6  C6  BNZ d   1      -0.493  -0.754   3.643  0.00  0.00     0.000 A 
ENDROOT
TORSDOF 0
ENDMDL
