MODEL 1
REMARK minimizedAffinity 6.5149684
REMARK minimizedRMSD -1
REMARK  0 active torsions:
REMARK  status: ('A' for Active; 'I' for Inactive)
ROOT
ATOM      1  C1  BNZ d   1      -1.018   2.954  -3.137  0.00  0.00     0.000 A 
ATOM      2  C2  BNZ d   1      -1.446   1.982  -2.273  0.00  0.00     0.000 A 
ATOM      3  C3  BNZ d   1      -2.634   2.109  -1.609  0.00  0.00     0.000 A 
ATOM      4  C4  BNZ d   1      -3.373   3.225  -1.779  0.00  0.00     0.000 A 
ATOM      5  C5  BNZ d   1      -2.950   4.218  -2.641  0.00  0.00     0.000 A 
ATOM      6  C6  BNZ d   1      -1.773   4.068  -3.337  0.00  0.00     0.000 A 
ENDROOT
TORSDOF 0
ENDMDL
