MODEL 1
REMARK minimizedAffinity 6.31404924
REMARK minimizedRMSD -1
REMARK  0 active torsions:
REMARK  status: ('A' for Active; 'I' for Inactive)
ROOT
ATOM      1  C1  BNZ d   1      -2.815   3.008  -3.060  0.00  0.00     0.000 A 
ATOM      2  C2  BNZ d   1      -1.566   3.547  -3.217  0.00  0.00     0.000 A 
ATOM      3  C3  BNZ d   1      -0.518   3.117  -2.452  0.00  0.00     0.000 A 
ATOM      4  C4  BNZ d   1      -0.728   2.180  -1.506  0.00  0.00     0.000 A 
ATOM      5  C5  BNZ d   1      -1.984   1.633  -1.330  0.00  0.00     0.000 A 
ATOM      6  C6  BNZ d   1      -3.028   2.041  -2.128  0.00  0.00     0.000 A 
ENDROOT
TORSDOF 0
ENDMDL
