MODEL 1
REMARK minimizedAffinity 3.1281116
REMARK minimizedRMSD -1
REMARK  0 active torsions:
REMARK  status: ('A' for Active; 'I' for Inactive)
ROOT
ATOM      1  C1  BNZ d   1      -3.646   3.059  -1.252  0.00  0.00     0.000 A 
ATOM      2  C2  BNZ d   1      -2.817   1.988  -1.455  0.00  0.00     0.000 A 
ATOM      3  C3  BNZ d   1      -1.700   2.104  -2.233  0.00  0.00     0.000 A 
ATOM      4  C4  BNZ d   1      -1.435   3.279  -2.840  0.00  0.00     0.000 A 
ATOM      5  C5  BNZ d   1      -2.265   4.366  -2.654  0.00  0.00     0.000 A 
ATOM      6  C6  BNZ d   1      -3.368   4.256  -1.838  0.00  0.00     0.000 A 
ENDROOT
TORSDOF 0
ENDMDL
