MODEL 1
REMARK minimizedAffinity 10.3215046
REMARK minimizedRMSD -1
REMARK  0 active torsions:
REMARK  status: ('A' for Active; 'I' for Inactive)
ROOT
ATOM      1  C1  BNZ d   1      -1.866   3.221  -3.824  0.00  0.00     0.000 A 
ATOM      2  C2  BNZ d   1      -1.821   4.498  -3.331  0.00  0.00     0.000 A 
ATOM      3  C3  BNZ d   1      -2.689   4.903  -2.357  0.00  0.00     0.000 A 
ATOM      4  C4  BNZ d   1      -3.627   4.045  -1.906  0.00  0.00     0.000 A 
ATOM      5  C5  BNZ d   1      -3.692   2.757  -2.399  0.00  0.00     0.000 A 
ATOM      6  C6  BNZ d   1      -2.791   2.341  -3.352  0.00  0.00     0.000 A 
ENDROOT
TORSDOF 0
ENDMDL
