MODEL 1
REMARK minimizedAffinity -1.63753164
REMARK minimizedRMSD -1
REMARK  0 active torsions:
REMARK  status: ('A' for Active; 'I' for Inactive)
ROOT
ATOM      1  C1  BNZ d   1       1.174   0.897  -0.240  0.00  0.00     0.000 A 
ATOM      2  C2  BNZ d   1      -0.029   1.234   0.320  0.00  0.00     0.000 A 
ATOM      3  C3  BNZ d   1      -0.728   0.331   1.072  0.00  0.00     0.000 A 
ATOM      4  C4  BNZ d   1      -0.245  -0.918   1.228  0.00  0.00     0.000 A 
ATOM      5  C5  BNZ d   1       0.962  -1.276   0.661  0.00  0.00     0.000 A 
ATOM      6  C6  BNZ d   1       1.683  -0.353  -0.062  0.00  0.00     0.000 A 
ENDROOT
TORSDOF 0
ENDMDL
