MODEL 1
REMARK minimizedAffinity 9.80152798
REMARK minimizedRMSD -1
REMARK  0 active torsions:
REMARK  status: ('A' for Active; 'I' for Inactive)
ROOT
ATOM      1  C   UNL d   1      -0.260   2.315   1.627  0.00  0.00    -0.002 A 
ATOM      2  C1  UNL d   1      -0.370   0.937   1.508  0.00  0.00     0.010 A 
ATOM      3  C2  UNL d   1      -1.430   0.255   2.108  0.00  0.00     0.041 A 
ATOM      4  C3  UNL d   1      -2.388   0.989   2.835  0.00  0.00    -0.075 A 
ATOM      5  S   UNL d   1      -3.772   0.366   3.653  0.00  0.00     0.015 SA
ATOM      6  C4  UNL d   1      -4.250   1.915   4.180  0.00  0.00     0.022 A 
ATOM      7  C5  UNL d   1      -3.386   2.895   3.751  0.00  0.00     0.026 A 
ATOM      8  C6  UNL d   1      -2.299   2.377   2.969  0.00  0.00    -0.082 A 
ATOM      9  C7  UNL d   1      -1.212   3.040   2.350  0.00  0.00     0.045 A 
ENDROOT
TORSDOF 0
ENDMDL
