MODEL 1
REMARK minimizedAffinity -5.97616625
REMARK minimizedRMSD -1
REMARK  0 active torsions:
REMARK  status: ('A' for Active; 'I' for Inactive)
ROOT
ATOM      1  C   UNL d   1      -2.908   1.714   3.284  0.00  0.00    -0.002 A 
ATOM      2  C1  UNL d   1      -3.520   0.475   3.154  0.00  0.00     0.010 A 
ATOM      3  C2  UNL d   1      -2.920  -0.538   2.404  0.00  0.00     0.041 A 
ATOM      4  C3  UNL d   1      -1.681  -0.285   1.783  0.00  0.00    -0.075 A 
ATOM      5  S   UNL d   1      -0.760  -1.375   0.817  0.00  0.00     0.015 SA
ATOM      6  C4  UNL d   1       0.468  -0.224   0.555  0.00  0.00     0.022 A 
ATOM      7  C5  UNL d   1       0.199   0.970   1.182  0.00  0.00     0.026 A 
ATOM      8  C6  UNL d   1      -1.045   0.954   1.901  0.00  0.00    -0.082 A 
ATOM      9  C7  UNL d   1      -1.679   1.962   2.667  0.00  0.00     0.045 A 
ENDROOT
TORSDOF 0
ENDMDL
