MODEL 1
REMARK minimizedAffinity 1.8013494
REMARK minimizedRMSD -1
REMARK  0 active torsions:
REMARK  status: ('A' for Active; 'I' for Inactive)
ROOT
ATOM      1  C   UNL d   1       0.659  -0.710   1.435  0.00  0.00    -0.002 A 
ATOM      2  C1  UNL d   1       1.179   0.383   0.756  0.00  0.00     0.010 A 
ATOM      3  C2  UNL d   1       0.489   1.596   0.729  0.00  0.00     0.041 A 
ATOM      4  C3  UNL d   1      -0.743   1.695   1.404  0.00  0.00    -0.075 A 
ATOM      5  S   UNL d   1      -1.764   3.081   1.508  0.00  0.00     0.015 SA
ATOM      6  C4  UNL d   1      -2.914   2.255   2.457  0.00  0.00     0.022 A 
ATOM      7  C5  UNL d   1      -2.545   0.953   2.698  0.00  0.00     0.026 A 
ATOM      8  C6  UNL d   1      -1.287   0.609   2.096  0.00  0.00    -0.082 A 
ATOM      9  C7  UNL d   1      -0.564  -0.608   2.104  0.00  0.00     0.045 A 
ENDROOT
TORSDOF 0
ENDMDL
