MODEL 1
REMARK minimizedAffinity -2.00538135
REMARK minimizedRMSD -1
REMARK  0 active torsions:
REMARK  status: ('A' for Active; 'I' for Inactive)
ROOT
ATOM      1  C   UNL d   1       0.335   2.226   0.764  0.00  0.00    -0.002 A 
ATOM      2  C1  UNL d   1      -0.296   3.387   1.187  0.00  0.00     0.010 A 
ATOM      3  C2  UNL d   1      -1.395   3.326   2.045  0.00  0.00     0.041 A 
ATOM      4  C3  UNL d   1      -1.853   2.065   2.477  0.00  0.00    -0.075 A 
ATOM      5  S   UNL d   1      -3.181   1.746   3.529  0.00  0.00     0.015 SA
ATOM      6  C4  UNL d   1      -2.942   0.061   3.443  0.00  0.00     0.022 A 
ATOM      7  C5  UNL d   1      -1.879  -0.268   2.635  0.00  0.00     0.026 A 
ATOM      8  C6  UNL d   1      -1.234   0.882   2.065  0.00  0.00    -0.082 A 
ATOM      9  C7  UNL d   1      -0.122   0.977   1.194  0.00  0.00     0.045 A 
ENDROOT
TORSDOF 0
ENDMDL
