MODEL 1
REMARK minimizedAffinity 6.45803976
REMARK minimizedRMSD -1
REMARK  0 active torsions:
REMARK  status: ('A' for Active; 'I' for Inactive)
ROOT
ATOM      1  C   UNL d   1       1.526   0.728   0.477  0.00  0.00    -0.002 A 
ATOM      2  C1  UNL d   1       0.422   1.570   0.474  0.00  0.00     0.010 A 
ATOM      3  C2  UNL d   1      -0.767   1.184   1.096  0.00  0.00     0.041 A 
ATOM      4  C3  UNL d   1      -0.828  -0.073   1.730  0.00  0.00    -0.075 A 
ATOM      5  S   UNL d   1      -2.178  -0.756   2.556  0.00  0.00     0.015 SA
ATOM      6  C4  UNL d   1      -1.321  -2.180   2.934  0.00  0.00     0.022 A 
ATOM      7  C5  UNL d   1      -0.035  -2.152   2.449  0.00  0.00     0.026 A 
ATOM      8  C6  UNL d   1       0.271  -0.937   1.747  0.00  0.00    -0.082 A 
ATOM      9  C7  UNL d   1       1.462  -0.518   1.107  0.00  0.00     0.045 A 
ENDROOT
TORSDOF 0
ENDMDL
