MODEL 1
REMARK minimizedAffinity -3.23285842
REMARK minimizedRMSD -1
REMARK  0 active torsions:
REMARK  status: ('A' for Active; 'I' for Inactive)
ROOT
ATOM      1  C   UNL d   1       1.097  -0.872   0.663  0.00  0.00    -0.002 A 
ATOM      2  C1  UNL d   1       1.362   0.439   0.295  0.00  0.00     0.010 A 
ATOM      3  C2  UNL d   1       0.449   1.456   0.583  0.00  0.00     0.041 A 
ATOM      4  C3  UNL d   1      -0.745   1.129   1.255  0.00  0.00    -0.075 A 
ATOM      5  S   UNL d   1      -2.009   2.208   1.713  0.00  0.00     0.015 SA
ATOM      6  C4  UNL d   1      -2.930   0.954   2.408  0.00  0.00     0.022 A 
ATOM      7  C5  UNL d   1      -2.304  -0.265   2.302  0.00  0.00     0.026 A 
ATOM      8  C6  UNL d   1      -1.034  -0.185   1.636  0.00  0.00    -0.082 A 
ATOM      9  C7  UNL d   1      -0.089  -1.193   1.329  0.00  0.00     0.045 A 
ENDROOT
TORSDOF 0
ENDMDL
