MODEL 1
REMARK minimizedAffinity 1.9782393
REMARK minimizedRMSD -1
REMARK  0 active torsions:
REMARK  status: ('A' for Active; 'I' for Inactive)
ROOT
ATOM      1  C   UNL d   1       0.789   0.973   0.684  0.00  0.00    -0.002 A 
ATOM      2  C1  UNL d   1       0.366  -0.327   0.920  0.00  0.00     0.010 A 
ATOM      3  C2  UNL d   1      -0.753  -0.576   1.717  0.00  0.00     0.041 A 
ATOM      4  C3  UNL d   1      -1.447   0.514   2.278  0.00  0.00    -0.075 A 
ATOM      5  S   UNL d   1      -2.844   0.450   3.286  0.00  0.00     0.015 SA
ATOM      6  C4  UNL d   1      -2.913   2.147   3.426  0.00  0.00     0.022 A 
ATOM      7  C5  UNL d   1      -1.902   2.763   2.728  0.00  0.00     0.026 A 
ATOM      8  C6  UNL d   1      -1.041   1.833   2.054  0.00  0.00    -0.082 A 
ATOM      9  C7  UNL d   1       0.098   2.052   1.242  0.00  0.00     0.045 A 
ENDROOT
TORSDOF 0
ENDMDL
