MODEL 1
REMARK minimizedAffinity 3.07116938
REMARK minimizedRMSD -1
REMARK  0 active torsions:
REMARK  status: ('A' for Active; 'I' for Inactive)
ROOT
ATOM      1  C   UNL d   1      -0.567  -1.248   1.369  0.00  0.00    -0.002 A 
ATOM      2  C1  UNL d   1      -1.764  -0.651   1.737  0.00  0.00     0.010 A 
ATOM      3  C2  UNL d   1      -1.859   0.738   1.852  0.00  0.00     0.041 A 
ATOM      4  C3  UNL d   1      -0.720   1.523   1.587  0.00  0.00    -0.075 A 
ATOM      5  S   UNL d   1      -0.601   3.241   1.663  0.00  0.00     0.015 SA
ATOM      6  C4  UNL d   1       1.042   3.222   1.207  0.00  0.00     0.022 A 
ATOM      7  C5  UNL d   1       1.504   1.944   0.999  0.00  0.00     0.026 A 
ATOM      8  C6  UNL d   1       0.497   0.944   1.213  0.00  0.00    -0.082 A 
ATOM      9  C7  UNL d   1       0.561  -0.466   1.106  0.00  0.00     0.045 A 
ENDROOT
TORSDOF 0
ENDMDL
