MODEL 1
REMARK minimizedAffinity -0.0366972126
REMARK minimizedRMSD -1
REMARK  0 active torsions:
REMARK  status: ('A' for Active; 'I' for Inactive)
ROOT
ATOM      1  C   UNL d   1      -2.308  -3.163  -1.226  0.00  0.00    -0.002 A 
ATOM      2  C1  UNL d   1      -2.802  -2.527  -2.357  0.00  0.00     0.010 A 
ATOM      3  C2  UNL d   1      -2.108  -2.589  -3.567  0.00  0.00     0.041 A 
ATOM      4  C3  UNL d   1      -0.898  -3.309  -3.623  0.00  0.00    -0.075 A 
ATOM      5  S   UNL d   1       0.122  -3.522  -4.996  0.00  0.00     0.015 SA
ATOM      6  C4  UNL d   1       1.237  -4.464  -4.115  0.00  0.00     0.022 A 
ATOM      7  C5  UNL d   1       0.856  -4.621  -2.804  0.00  0.00     0.026 A 
ATOM      8  C6  UNL d   1      -0.381  -3.959  -2.498  0.00  0.00    -0.082 A 
ATOM      9  C7  UNL d   1      -1.108  -3.877  -1.286  0.00  0.00     0.045 A 
ENDROOT
TORSDOF 0
ENDMDL
