MODEL 1
REMARK minimizedAffinity 5.57956457
REMARK minimizedRMSD -1
REMARK  1 active torsions:
REMARK  status: ('A' for Active; 'I' for Inactive)
REMARK    1  A    between atoms: C1_2  and  C2_3 
ROOT
ATOM      1  C2  UNL d   1       3.029  -3.533  -0.358  0.00  0.00    -0.081 A 
ATOM      2  C3  UNL d   1       3.100  -2.281   0.265  0.00  0.00     0.006 A 
ATOM      3  C4  UNL d   1       1.933  -1.578   0.576  0.00  0.00     0.002 A 
ATOM      4  C5  UNL d   1       0.678  -2.118   0.278  0.00  0.00    -0.080 A 
ATOM      5  C6  UNL d   1      -0.582  -1.388   0.634  0.00  0.00     0.076 C 
ATOM      6  C7  UNL d   1       0.608  -3.361  -0.361  0.00  0.00     0.002 A 
ATOM      7  C8  UNL d   1       1.774  -4.064  -0.673  0.00  0.00     0.006 A 
ENDROOT
BRANCH   1   8
ATOM      8  C1  UNL d   1       4.283  -4.322  -0.637  0.00  0.00     0.054 C 
ATOM      9  C   UNL d   1       4.288  -5.640   0.123  0.00  0.00     0.018 C 
ENDBRANCH   1   8
TORSDOF 1
ENDMDL
