MODEL 1
REMARK minimizedAffinity 3.55323505
REMARK minimizedRMSD -1
REMARK  1 active torsions:
REMARK  status: ('A' for Active; 'I' for Inactive)
REMARK    1  A    between atoms: C1_2  and  C2_3 
ROOT
ATOM      1  C2  UNL d   1       2.468  -0.810   1.955  0.00  0.00    -0.081 A 
ATOM      2  C3  UNL d   1       2.197  -1.030   0.599  0.00  0.00     0.006 A 
ATOM      3  C4  UNL d   1       0.885  -0.977   0.121  0.00  0.00     0.002 A 
ATOM      4  C5  UNL d   1      -0.175  -0.695   0.989  0.00  0.00    -0.080 A 
ATOM      5  C6  UNL d   1      -1.585  -0.605   0.484  0.00  0.00     0.076 C 
ATOM      6  C7  UNL d   1       0.094  -0.493   2.347  0.00  0.00     0.002 A 
ATOM      7  C8  UNL d   1       1.405  -0.546   2.825  0.00  0.00     0.006 A 
ENDROOT
BRANCH   1   8
ATOM      8  C1  UNL d   1       3.888  -0.803   2.461  0.00  0.00     0.054 C 
ATOM      9  C   UNL d   1       4.834  -1.460   1.465  0.00  0.00     0.018 C 
ENDBRANCH   1   8
TORSDOF 1
ENDMDL
