MODEL 1
REMARK minimizedAffinity 2.24628878
REMARK minimizedRMSD -1
REMARK  1 active torsions:
REMARK  status: ('A' for Active; 'I' for Inactive)
REMARK    1  A    between atoms: C1_2  and  C2_3 
ROOT
ATOM      1  C2  UNL d   1       0.991  -1.627   0.697  0.00  0.00    -0.081 A 
ATOM      2  C3  UNL d   1       2.309  -1.404   0.277  0.00  0.00     0.006 A 
ATOM      3  C4  UNL d   1       3.058  -0.359   0.822  0.00  0.00     0.002 A 
ATOM      4  C5  UNL d   1       2.507   0.475   1.800  0.00  0.00    -0.080 A 
ATOM      5  C6  UNL d   1       3.311   1.582   2.415  0.00  0.00     0.076 C 
ATOM      6  C7  UNL d   1       1.185   0.264   2.207  0.00  0.00     0.002 A 
ATOM      7  C8  UNL d   1       0.435  -0.781   1.662  0.00  0.00     0.006 A 
ENDROOT
BRANCH   1   8
ATOM      8  C1  UNL d   1       0.202  -2.793   0.158  0.00  0.00     0.054 C 
ATOM      9  C   UNL d   1       1.021  -4.076   0.188  0.00  0.00     0.018 C 
ENDBRANCH   1   8
TORSDOF 1
ENDMDL
