MODEL 1
REMARK minimizedAffinity 1.17833626
REMARK minimizedRMSD -1
REMARK  1 active torsions:
REMARK  status: ('A' for Active; 'I' for Inactive)
REMARK    1  A    between atoms: C1_2  and  C2_3 
ROOT
ATOM      1  C2  UNL d   1       4.468   4.821  -0.826  0.00  0.00    -0.081 A 
ATOM      2  C3  UNL d   1       5.570   5.536  -0.340  0.00  0.00     0.006 A 
ATOM      3  C4  UNL d   1       5.625   5.930   0.999  0.00  0.00     0.002 A 
ATOM      4  C5  UNL d   1       4.584   5.609   1.876  0.00  0.00    -0.080 A 
ATOM      5  C6  UNL d   1       4.644   5.999   3.323  0.00  0.00     0.076 C 
ATOM      6  C7  UNL d   1       3.475   4.910   1.388  0.00  0.00     0.002 A 
ATOM      7  C8  UNL d   1       3.419   4.516   0.049  0.00  0.00     0.006 A 
ENDROOT
BRANCH   1   8
ATOM      8  C1  UNL d   1       4.436   4.339  -2.253  0.00  0.00     0.054 C 
ATOM      9  C   UNL d   1       4.154   2.845  -2.327  0.00  0.00     0.018 C 
ENDBRANCH   1   8
TORSDOF 1
ENDMDL
