MODEL 1
REMARK minimizedAffinity 0.130358949
REMARK minimizedRMSD -1
REMARK  1 active torsions:
REMARK  status: ('A' for Active; 'I' for Inactive)
REMARK    1  A    between atoms: C1_2  and  C2_3 
ROOT
ATOM      1  C2  UNL d   1       2.895  -3.855  -0.214  0.00  0.00    -0.081 A 
ATOM      2  C3  UNL d   1       1.574  -4.221  -0.498  0.00  0.00     0.006 A 
ATOM      3  C4  UNL d   1       0.520  -3.351  -0.209  0.00  0.00     0.002 A 
ATOM      4  C5  UNL d   1       0.771  -2.098   0.362  0.00  0.00    -0.080 A 
ATOM      5  C6  UNL d   1      -0.348  -1.142   0.649  0.00  0.00     0.076 C 
ATOM      6  C7  UNL d   1       2.089  -1.739   0.661  0.00  0.00     0.002 A 
ATOM      7  C8  UNL d   1       3.143  -2.609   0.373  0.00  0.00     0.006 A 
ENDROOT
BRANCH   1   8
ATOM      8  C1  UNL d   1       4.039  -4.765  -0.585  0.00  0.00     0.054 C 
ATOM      9  C   UNL d   1       4.275  -5.821   0.486  0.00  0.00     0.018 C 
ENDBRANCH   1   8
TORSDOF 1
ENDMDL
