MODEL 1
REMARK minimizedAffinity -3.01045275
REMARK minimizedRMSD -1
REMARK  1 active torsions:
REMARK  status: ('A' for Active; 'I' for Inactive)
REMARK    1  A    between atoms: C1_2  and  C2_3 
ROOT
ATOM      1  C2  UNL d   1       0.042  -1.190   0.918  0.00  0.00    -0.081 A 
ATOM      2  C3  UNL d   1       1.138  -0.318   0.930  0.00  0.00     0.006 A 
ATOM      3  C4  UNL d   1       2.428  -0.799   0.699  0.00  0.00     0.002 A 
ATOM      4  C5  UNL d   1       2.644  -2.158   0.444  0.00  0.00    -0.080 A 
ATOM      5  C6  UNL d   1       4.021  -2.683   0.164  0.00  0.00     0.076 C 
ATOM      6  C7  UNL d   1       1.551  -3.032   0.449  0.00  0.00     0.002 A 
ATOM      7  C8  UNL d   1       0.261  -2.551   0.681  0.00  0.00     0.006 A 
ENDROOT
BRANCH   1   8
ATOM      8  C1  UNL d   1      -1.358  -0.663   1.103  0.00  0.00     0.054 C 
ATOM      9  C   UNL d   1      -1.349   0.805   1.503  0.00  0.00     0.018 C 
ENDBRANCH   1   8
TORSDOF 1
ENDMDL
