MODEL 1
REMARK minimizedAffinity 0.665155232
REMARK minimizedRMSD -1
REMARK  1 active torsions:
REMARK  status: ('A' for Active; 'I' for Inactive)
REMARK    1  A    between atoms: C1_2  and  C2_3 
ROOT
ATOM      1  C2  UNL d   1       0.648  -1.981   0.237  0.00  0.00    -0.081 A 
ATOM      2  C3  UNL d   1       0.444  -3.284  -0.233  0.00  0.00     0.006 A 
ATOM      3  C4  UNL d   1       1.508  -4.186  -0.307  0.00  0.00     0.002 A 
ATOM      4  C5  UNL d   1       2.792  -3.802   0.095  0.00  0.00    -0.080 A 
ATOM      5  C6  UNL d   1       3.938  -4.769   0.050  0.00  0.00     0.076 C 
ATOM      6  C7  UNL d   1       3.000  -2.495   0.548  0.00  0.00     0.002 A 
ATOM      7  C8  UNL d   1       1.936  -1.593   0.622  0.00  0.00     0.006 A 
ENDROOT
BRANCH   1   8
ATOM      8  C1  UNL d   1      -0.510  -1.027   0.379  0.00  0.00     0.054 C 
ATOM      9  C   UNL d   1      -0.223   0.041   1.424  0.00  0.00     0.018 C 
ENDBRANCH   1   8
TORSDOF 1
ENDMDL
