MODEL 1
REMARK minimizedAffinity -2.06062222
REMARK minimizedRMSD -1
REMARK  1 active torsions:
REMARK  status: ('A' for Active; 'I' for Inactive)
REMARK    1  A    between atoms: C1_2  and  C2_3 
ROOT
ATOM      1  C2  UNL d   1       0.491  -1.686   0.408  0.00  0.00    -0.081 A 
ATOM      2  C3  UNL d   1       0.330  -3.076   0.376  0.00  0.00     0.006 A 
ATOM      3  C4  UNL d   1       1.417  -3.908   0.096  0.00  0.00     0.002 A 
ATOM      4  C5  UNL d   1       2.683  -3.364  -0.148  0.00  0.00    -0.080 A 
ATOM      5  C6  UNL d   1       3.864  -4.248  -0.420  0.00  0.00     0.076 C 
ATOM      6  C7  UNL d   1       2.839  -1.974  -0.133  0.00  0.00     0.002 A 
ATOM      7  C8  UNL d   1       1.753  -1.142   0.146  0.00  0.00     0.006 A 
ENDROOT
BRANCH   1   8
ATOM      8  C1  UNL d   1      -0.665  -0.789   0.774  0.00  0.00     0.054 C 
ATOM      9  C   UNL d   1      -0.415  -0.075   2.094  0.00  0.00     0.018 C 
ENDBRANCH   1   8
TORSDOF 1
ENDMDL
