MODEL 1
REMARK minimizedAffinity 2.34516358
REMARK minimizedRMSD -1
REMARK  1 active torsions:
REMARK  status: ('A' for Active; 'I' for Inactive)
REMARK    1  A    between atoms: C1_2  and  C2_3 
ROOT
ATOM      1  C2  UNL d   1       0.933  -2.910   0.670  0.00  0.00    -0.081 A 
ATOM      2  C3  UNL d   1       1.791  -1.966   1.247  0.00  0.00     0.006 A 
ATOM      3  C4  UNL d   1       1.300  -0.730   1.673  0.00  0.00     0.002 A 
ATOM      4  C5  UNL d   1      -0.058  -0.420   1.537  0.00  0.00    -0.080 A 
ATOM      5  C6  UNL d   1      -0.604   0.891   2.017  0.00  0.00     0.076 C 
ATOM      6  C7  UNL d   1      -0.912  -1.356   0.944  0.00  0.00     0.002 A 
ATOM      7  C8  UNL d   1      -0.421  -2.592   0.517  0.00  0.00     0.006 A 
ENDROOT
BRANCH   1   8
ATOM      8  C1  UNL d   1       1.448  -4.269   0.269  0.00  0.00     0.054 C 
ATOM      9  C   UNL d   1       2.930  -4.414   0.583  0.00  0.00     0.018 C 
ENDBRANCH   1   8
TORSDOF 1
ENDMDL
