MODEL 1
REMARK minimizedAffinity 4.02861977
REMARK minimizedRMSD -1
REMARK  1 active torsions:
REMARK  status: ('A' for Active; 'I' for Inactive)
REMARK    1  A    between atoms: C1_2  and  C2_3 
ROOT
ATOM      1  C2  UNL d   1       3.666   4.037  -1.925  0.00  0.00    -0.081 A 
ATOM      2  C3  UNL d   1       2.805   4.022  -3.029  0.00  0.00     0.006 A 
ATOM      3  C4  UNL d   1       2.508   2.821  -3.679  0.00  0.00     0.002 A 
ATOM      4  C5  UNL d   1       3.059   1.616  -3.231  0.00  0.00    -0.080 A 
ATOM      5  C6  UNL d   1       2.724   0.317  -3.901  0.00  0.00     0.076 C 
ATOM      6  C7  UNL d   1       3.933   1.633  -2.138  0.00  0.00     0.002 A 
ATOM      7  C8  UNL d   1       4.231   2.833  -1.489  0.00  0.00     0.006 A 
ENDROOT
BRANCH   1   8
ATOM      8  C1  UNL d   1       3.938   5.320  -1.183  0.00  0.00     0.054 C 
ATOM      9  C   UNL d   1       4.046   5.080   0.316  0.00  0.00     0.018 C 
ENDBRANCH   1   8
TORSDOF 1
ENDMDL
