MODEL 1
REMARK minimizedAffinity 6.33615208
REMARK minimizedRMSD -1
REMARK  1 active torsions:
REMARK  status: ('A' for Active; 'I' for Inactive)
REMARK    1  A    between atoms: C1_2  and  C2_3 
ROOT
ATOM      1  C2  UNL d   1       1.182  -3.207   0.524  0.00  0.00    -0.081 A 
ATOM      2  C3  UNL d   1      -0.096  -3.155   1.092  0.00  0.00     0.006 A 
ATOM      3  C4  UNL d   1      -0.657  -1.929   1.461  0.00  0.00     0.002 A 
ATOM      4  C5  UNL d   1       0.047  -0.737   1.261  0.00  0.00    -0.080 A 
ATOM      5  C6  UNL d   1      -0.556   0.587   1.625  0.00  0.00     0.076 C 
ATOM      6  C7  UNL d   1       1.332  -0.792   0.709  0.00  0.00     0.002 A 
ATOM      7  C8  UNL d   1       1.893  -2.016   0.341  0.00  0.00     0.006 A 
ENDROOT
BRANCH   1   8
ATOM      8  C1  UNL d   1       1.763  -4.521   0.065  0.00  0.00     0.054 C 
ATOM      9  C   UNL d   1       3.284  -4.501   0.119  0.00  0.00     0.018 C 
ENDBRANCH   1   8
TORSDOF 1
ENDMDL
