MODEL 1
REMARK minimizedAffinity 5.26901436
REMARK minimizedRMSD -1
REMARK  1 active torsions:
REMARK  status: ('A' for Active; 'I' for Inactive)
REMARK    1  A    between atoms: C1_2  and  C2_3 
ROOT
ATOM      1  C2  UNL d   1       0.017  -1.106   0.708  0.00  0.00    -0.081 A 
ATOM      2  C3  UNL d   1       1.359  -0.758   0.511  0.00  0.00     0.006 A 
ATOM      3  C4  UNL d   1       2.274  -1.702   0.037  0.00  0.00     0.002 A 
ATOM      4  C5  UNL d   1       1.861  -3.006  -0.255  0.00  0.00    -0.080 A 
ATOM      5  C6  UNL d   1       2.826  -4.021  -0.792  0.00  0.00     0.076 C 
ATOM      6  C7  UNL d   1       0.524  -3.359  -0.041  0.00  0.00     0.002 A 
ATOM      7  C8  UNL d   1      -0.391  -2.416   0.433  0.00  0.00     0.006 A 
ENDROOT
BRANCH   1   8
ATOM      8  C1  UNL d   1      -0.984  -0.074   1.156  0.00  0.00     0.054 C 
ATOM      9  C   UNL d   1      -2.326  -0.267   0.465  0.00  0.00     0.018 C 
ENDBRANCH   1   8
TORSDOF 1
ENDMDL
