MODEL 1
REMARK minimizedAffinity 13.1789551
REMARK minimizedRMSD -1
REMARK  1 active torsions:
REMARK  status: ('A' for Active; 'I' for Inactive)
REMARK    1  A    between atoms: C1_2  and  C2_3 
ROOT
ATOM      1  C2  UNL d   1       0.783  -2.611  -1.127  0.00  0.00    -0.081 A 
ATOM      2  C3  UNL d   1       2.093  -2.925  -0.743  0.00  0.00     0.006 A 
ATOM      3  C4  UNL d   1       2.329  -3.850   0.276  0.00  0.00     0.002 A 
ATOM      4  C5  UNL d   1       1.261  -4.483   0.923  0.00  0.00    -0.080 A 
ATOM      5  C6  UNL d   1       1.502  -5.500   1.998  0.00  0.00     0.076 C 
ATOM      6  C7  UNL d   1      -0.047  -4.156   0.551  0.00  0.00     0.002 A 
ATOM      7  C8  UNL d   1      -0.284  -3.230  -0.468  0.00  0.00     0.006 A 
ENDROOT
BRANCH   1   8
ATOM      8  C1  UNL d   1       0.526  -1.662  -2.270  0.00  0.00     0.054 C 
ATOM      9  C   UNL d   1       1.374  -0.404  -2.146  0.00  0.00     0.018 C 
ENDBRANCH   1   8
TORSDOF 1
ENDMDL
