MODEL 1
REMARK minimizedAffinity -1.537413
REMARK minimizedRMSD -1
REMARK  1 active torsions:
REMARK  status: ('A' for Active; 'I' for Inactive)
REMARK    1  A    between atoms: C1_2  and  C2_3 
ROOT
ATOM      1  C2  UNL d   1       4.817   5.771   2.659  0.00  0.00    -0.081 A 
ATOM      2  C3  UNL d   1       6.000   5.636   1.922  0.00  0.00     0.006 A 
ATOM      3  C4  UNL d   1       5.974   5.688   0.526  0.00  0.00     0.002 A 
ATOM      4  C5  UNL d   1       4.768   5.883  -0.155  0.00  0.00    -0.080 A 
ATOM      5  C6  UNL d   1       4.730   5.970  -1.651  0.00  0.00     0.076 C 
ATOM      6  C7  UNL d   1       3.584   6.000   0.581  0.00  0.00     0.002 A 
ATOM      7  C8  UNL d   1       3.608   5.947   1.977  0.00  0.00     0.006 A 
ENDROOT
BRANCH   1   8
ATOM      8  C1  UNL d   1       4.850   5.780   4.166  0.00  0.00     0.054 C 
ATOM      9  C   UNL d   1       5.608   4.578   4.711  0.00  0.00     0.018 C 
ENDBRANCH   1   8
TORSDOF 1
ENDMDL
