MODEL 1
REMARK minimizedAffinity -1.71472979
REMARK minimizedRMSD -1
REMARK  1 active torsions:
REMARK  status: ('A' for Active; 'I' for Inactive)
REMARK    1  A    between atoms: C1_2  and  C2_3 
ROOT
ATOM      1  C2  UNL d   1       5.280   5.972   3.571  0.00  0.00    -0.081 A 
ATOM      2  C3  UNL d   1       3.880   5.993   3.523  0.00  0.00     0.006 A 
ATOM      3  C4  UNL d   1       3.214   6.000   2.295  0.00  0.00     0.002 A 
ATOM      4  C5  UNL d   1       3.935   5.978   1.096  0.00  0.00    -0.080 A 
ATOM      5  C6  UNL d   1       3.231   5.955  -0.228  0.00  0.00     0.076 C 
ATOM      6  C7  UNL d   1       5.333   5.975   1.144  0.00  0.00     0.002 A 
ATOM      7  C8  UNL d   1       6.000   5.968   2.372  0.00  0.00     0.006 A 
ENDROOT
BRANCH   1   8
ATOM      8  C1  UNL d   1       6.000   5.899   4.893  0.00  0.00     0.054 C 
ATOM      9  C   UNL d   1       5.640   4.628   5.650  0.00  0.00     0.018 C 
ENDBRANCH   1   8
TORSDOF 1
ENDMDL
