MODEL 1
REMARK minimizedAffinity 8.20318222
REMARK minimizedRMSD -1
REMARK  1 active torsions:
REMARK  status: ('A' for Active; 'I' for Inactive)
REMARK    1  A    between atoms: C1_2  and  C2_3 
ROOT
ATOM      1  C2  UNL d   1      -2.483   3.609   3.992  0.00  0.00    -0.081 A 
ATOM      2  C3  UNL d   1      -3.436   3.305   3.012  0.00  0.00     0.006 A 
ATOM      3  C4  UNL d   1      -3.426   2.063   2.374  0.00  0.00     0.002 A 
ATOM      4  C5  UNL d   1      -2.468   1.100   2.711  0.00  0.00    -0.080 A 
ATOM      5  C6  UNL d   1      -2.464  -0.249   2.055  0.00  0.00     0.076 C 
ATOM      6  C7  UNL d   1      -1.505   1.409   3.677  0.00  0.00     0.002 A 
ATOM      7  C8  UNL d   1      -1.514   2.652   4.315  0.00  0.00     0.006 A 
ENDROOT
BRANCH   1   8
ATOM      8  C1  UNL d   1      -2.531   4.923   4.728  0.00  0.00     0.054 C 
ATOM      9  C   UNL d   1      -1.626   4.907   5.951  0.00  0.00     0.018 C 
ENDBRANCH   1   8
TORSDOF 1
ENDMDL
