MODEL 1
REMARK minimizedAffinity 5.55742121
REMARK minimizedRMSD -1
REMARK  1 active torsions:
REMARK  status: ('A' for Active; 'I' for Inactive)
REMARK    1  A    between atoms: C1_2  and  C2_3 
ROOT
ATOM      1  C2  UNL d   1       4.596  -0.064  -3.004  0.00  0.00    -0.081 A 
ATOM      2  C3  UNL d   1       4.259  -0.963  -1.985  0.00  0.00     0.006 A 
ATOM      3  C4  UNL d   1       2.945  -1.045  -1.519  0.00  0.00     0.002 A 
ATOM      4  C5  UNL d   1       1.945  -0.236  -2.070  0.00  0.00    -0.080 A 
ATOM      5  C6  UNL d   1       0.524  -0.335  -1.600  0.00  0.00     0.076 C 
ATOM      6  C7  UNL d   1       2.285   0.675  -3.076  0.00  0.00     0.002 A 
ATOM      7  C8  UNL d   1       3.599   0.758  -3.542  0.00  0.00     0.006 A 
ENDROOT
BRANCH   1   8
ATOM      8  C1  UNL d   1       5.999  -0.019  -3.554  0.00  0.00     0.054 C 
ATOM      9  C   UNL d   1       5.999  -0.050  -5.075  0.00  0.00     0.018 C 
ENDBRANCH   1   8
TORSDOF 1
ENDMDL
