MODEL 1
REMARK minimizedAffinity -1.52469242
REMARK minimizedRMSD -1
REMARK  1 active torsions:
REMARK  status: ('A' for Active; 'I' for Inactive)
REMARK    1  A    between atoms: C1_2  and  C2_3 
ROOT
ATOM      1  C2  UNL d   1       5.575  -1.382   4.429  0.00  0.00    -0.081 A 
ATOM      2  C3  UNL d   1       5.951  -1.832   5.700  0.00  0.00     0.006 A 
ATOM      3  C4  UNL d   1       5.943  -3.197   6.000  0.00  0.00     0.002 A 
ATOM      4  C5  UNL d   1       5.568  -4.134   5.031  0.00  0.00    -0.080 A 
ATOM      5  C6  UNL d   1       5.585  -5.603   5.330  0.00  0.00     0.076 C 
ATOM      6  C7  UNL d   1       5.176  -3.683   3.766  0.00  0.00     0.002 A 
ATOM      7  C8  UNL d   1       5.183  -2.319   3.466  0.00  0.00     0.006 A 
ENDROOT
BRANCH   1   8
ATOM      8  C1  UNL d   1       5.644   0.083   4.083  0.00  0.00     0.054 C 
ATOM      9  C   UNL d   1       4.336   0.571   3.477  0.00  0.00     0.018 C 
ENDBRANCH   1   8
TORSDOF 1
ENDMDL
