MODEL 1
REMARK minimizedAffinity 7.23098326
REMARK minimizedRMSD -1
REMARK  1 active torsions:
REMARK  status: ('A' for Active; 'I' for Inactive)
REMARK    1  A    between atoms: C1_2  and  C2_3 
ROOT
ATOM      1  C2  UNL d   1       1.978  -2.206  -0.977  0.00  0.00    -0.081 A 
ATOM      2  C3  UNL d   1       2.735  -1.076  -1.313  0.00  0.00     0.006 A 
ATOM      3  C4  UNL d   1       2.137   0.012  -1.953  0.00  0.00     0.002 A 
ATOM      4  C5  UNL d   1       0.772  -0.008  -2.261  0.00  0.00    -0.080 A 
ATOM      5  C6  UNL d   1       0.111   1.166  -2.921  0.00  0.00     0.076 C 
ATOM      6  C7  UNL d   1       0.020  -1.144  -1.941  0.00  0.00     0.002 A 
ATOM      7  C8  UNL d   1       0.617  -2.232  -1.302  0.00  0.00     0.006 A 
ENDROOT
BRANCH   1   8
ATOM      8  C1  UNL d   1       2.606  -3.354  -0.229  0.00  0.00     0.054 C 
ATOM      9  C   UNL d   1       1.609  -4.010   0.716  0.00  0.00     0.018 C 
ENDBRANCH   1   8
TORSDOF 1
ENDMDL
