MODEL 1
REMARK minimizedAffinity 3.9928515
REMARK minimizedRMSD -1
REMARK  1 active torsions:
REMARK  status: ('A' for Active; 'I' for Inactive)
REMARK    1  A    between atoms: C1_2  and  C2_3 
ROOT
ATOM      1  C2  UNL d   1      -3.068  -0.981   1.653  0.00  0.00    -0.081 A 
ATOM      2  C3  UNL d   1      -3.308  -0.777   3.018  0.00  0.00     0.006 A 
ATOM      3  C4  UNL d   1      -2.776   0.337   3.671  0.00  0.00     0.002 A 
ATOM      4  C5  UNL d   1      -2.003   1.269   2.970  0.00  0.00    -0.080 A 
ATOM      5  C6  UNL d   1      -1.451   2.485   3.652  0.00  0.00     0.076 C 
ATOM      6  C7  UNL d   1      -1.749   1.056   1.611  0.00  0.00     0.002 A 
ATOM      7  C8  UNL d   1      -2.280  -0.058   0.957  0.00  0.00     0.006 A 
ENDROOT
BRANCH   1   8
ATOM      8  C1  UNL d   1      -3.695  -2.147   0.931  0.00  0.00     0.054 C 
ATOM      9  C   UNL d   1      -3.804  -1.879  -0.563  0.00  0.00     0.018 C 
ENDBRANCH   1   8
TORSDOF 1
ENDMDL
