MODEL 1
REMARK minimizedAffinity 10.7160912
REMARK minimizedRMSD -1
REMARK  1 active torsions:
REMARK  status: ('A' for Active; 'I' for Inactive)
REMARK    1  A    between atoms: C1_2  and  C2_3 
ROOT
ATOM      1  C2  UNL d   1      -0.361  -3.407  -0.440  0.00  0.00    -0.081 A 
ATOM      2  C3  UNL d   1       1.021  -3.390  -0.665  0.00  0.00     0.006 A 
ATOM      3  C4  UNL d   1       1.879  -4.137   0.146  0.00  0.00     0.002 A 
ATOM      4  C5  UNL d   1       1.369  -4.918   1.189  0.00  0.00    -0.080 A 
ATOM      5  C6  UNL d   1       2.276  -5.748   2.048  0.00  0.00     0.076 C 
ATOM      6  C7  UNL d   1      -0.010  -4.921   1.424  0.00  0.00     0.002 A 
ATOM      7  C8  UNL d   1      -0.868  -4.174   0.614  0.00  0.00     0.006 A 
ENDROOT
BRANCH   1   8
ATOM      8  C1  UNL d   1      -1.295  -2.654  -1.353  0.00  0.00     0.054 C 
ATOM      9  C   UNL d   1      -2.607  -2.326  -0.655  0.00  0.00     0.018 C 
ENDBRANCH   1   8
TORSDOF 1
ENDMDL
