MODEL 1
REMARK minimizedAffinity 3.16539288
REMARK minimizedRMSD -1
REMARK  1 active torsions:
REMARK  status: ('A' for Active; 'I' for Inactive)
REMARK    1  A    between atoms: C1_2  and  C2_3 
ROOT
ATOM      1  C2  UNL d   1       4.874   5.545   3.837  0.00  0.00    -0.081 A 
ATOM      2  C3  UNL d   1       3.803   5.996   3.056  0.00  0.00     0.006 A 
ATOM      3  C4  UNL d   1       3.829   5.853   1.667  0.00  0.00     0.002 A 
ATOM      4  C5  UNL d   1       4.922   5.250   1.036  0.00  0.00    -0.080 A 
ATOM      5  C6  UNL d   1       4.949   5.062  -0.452  0.00  0.00     0.076 C 
ATOM      6  C7  UNL d   1       6.000   4.815   1.814  0.00  0.00     0.002 A 
ATOM      7  C8  UNL d   1       5.975   4.958   3.203  0.00  0.00     0.006 A 
ENDROOT
BRANCH   1   8
ATOM      8  C1  UNL d   1       4.820   5.640   5.340  0.00  0.00     0.054 C 
ATOM      9  C   UNL d   1       5.482   4.435   5.994  0.00  0.00     0.018 C 
ENDBRANCH   1   8
TORSDOF 1
ENDMDL
