MODEL 1
REMARK minimizedAffinity -0.289662272
REMARK minimizedRMSD -1
REMARK  1 active torsions:
REMARK  status: ('A' for Active; 'I' for Inactive)
REMARK    1  A    between atoms: C1_2  and  C2_3 
ROOT
ATOM      1  C2  UNL d   1       2.104  -1.056  -1.715  0.00  0.00    -0.081 A 
ATOM      2  C3  UNL d   1       3.455  -0.760  -1.493  0.00  0.00     0.006 A 
ATOM      3  C4  UNL d   1       3.916   0.556  -1.581  0.00  0.00     0.002 A 
ATOM      4  C5  UNL d   1       3.033   1.598  -1.886  0.00  0.00    -0.080 A 
ATOM      5  C6  UNL d   1       3.509   3.019  -1.954  0.00  0.00     0.076 C 
ATOM      6  C7  UNL d   1       1.687   1.300  -2.126  0.00  0.00     0.002 A 
ATOM      7  C8  UNL d   1       1.226  -0.015  -2.038  0.00  0.00     0.006 A 
ENDROOT
BRANCH   1   8
ATOM      8  C1  UNL d   1       1.592  -2.464  -1.557  0.00  0.00     0.054 C 
ATOM      9  C   UNL d   1       2.273  -3.173  -0.395  0.00  0.00     0.018 C 
ENDBRANCH   1   8
TORSDOF 1
ENDMDL
