MODEL 1
REMARK minimizedAffinity 11.286622
REMARK minimizedRMSD -1
REMARK  1 active torsions:
REMARK  status: ('A' for Active; 'I' for Inactive)
REMARK    1  A    between atoms: C1_2  and  C2_3 
ROOT
ATOM      1  C2  UNL d   1       0.464  -0.668  -2.315  0.00  0.00    -0.081 A 
ATOM      2  C3  UNL d   1      -0.478  -0.408  -1.312  0.00  0.00     0.006 A 
ATOM      3  C4  UNL d   1      -1.044   0.862  -1.185  0.00  0.00     0.002 A 
ATOM      4  C5  UNL d   1      -0.684   1.891  -2.061  0.00  0.00    -0.080 A 
ATOM      5  C6  UNL d   1      -1.306   3.252  -1.954  0.00  0.00     0.076 C 
ATOM      6  C7  UNL d   1       0.271   1.637  -3.052  0.00  0.00     0.002 A 
ATOM      7  C8  UNL d   1       0.837   0.367  -3.180  0.00  0.00     0.006 A 
ENDROOT
BRANCH   1   8
ATOM      8  C1  UNL d   1       1.029  -2.054  -2.496  0.00  0.00     0.054 C 
ATOM      9  C   UNL d   1       2.405  -2.179  -1.860  0.00  0.00     0.018 C 
ENDBRANCH   1   8
TORSDOF 1
ENDMDL
