MODEL 1
REMARK minimizedAffinity 15.8743744
REMARK minimizedRMSD -1
REMARK  1 active torsions:
REMARK  status: ('A' for Active; 'I' for Inactive)
REMARK    1  A    between atoms: C1_2  and  C2_3 
ROOT
ATOM      1  C2  UNL d   1       1.433  -3.200   0.913  0.00  0.00    -0.073 A 
ATOM      2  C3  UNL d   1       2.433  -3.973   1.514  0.00  0.00    -0.002 A 
ATOM      3  C4  UNL d   1       2.346  -5.365   1.510  0.00  0.00     0.004 A 
ATOM      4  C5  UNL d   1       1.263  -5.999   0.901  0.00  0.00    -0.004 A 
ATOM      5  C6  UNL d   1       0.260  -5.244   0.284  0.00  0.00    -0.075 A 
ATOM      6  C7  UNL d   1      -0.913  -5.911  -0.373  0.00  0.00     0.076 C 
ATOM      7  C8  UNL d   1       0.353  -3.846   0.295  0.00  0.00     0.001 A 
ENDROOT
BRANCH   1   8
ATOM      8  C1  UNL d   1       1.527  -1.696   0.909  0.00  0.00     0.053 C 
ATOM      9  C   UNL d   1       1.127  -1.096   2.248  0.00  0.00     0.018 C 
ENDBRANCH   1   8
TORSDOF 1
ENDMDL
