MODEL 1
REMARK minimizedAffinity 7.84763575
REMARK minimizedRMSD -1
REMARK  1 active torsions:
REMARK  status: ('A' for Active; 'I' for Inactive)
REMARK    1  A    between atoms: C1_2  and  C2_3 
ROOT
ATOM      1  C2  UNL d   1      -3.075   3.536   1.384  0.00  0.00    -0.073 A 
ATOM      2  C3  UNL d   1      -3.517   3.790   2.688  0.00  0.00    -0.002 A 
ATOM      3  C4  UNL d   1      -4.745   4.414   2.907  0.00  0.00     0.004 A 
ATOM      4  C5  UNL d   1      -5.547   4.784   1.827  0.00  0.00    -0.004 A 
ATOM      5  C6  UNL d   1      -5.129   4.528   0.517  0.00  0.00    -0.075 A 
ATOM      6  C7  UNL d   1      -5.979   4.922  -0.655  0.00  0.00     0.076 C 
ATOM      7  C8  UNL d   1      -3.892   3.904   0.306  0.00  0.00     0.001 A 
ENDROOT
BRANCH   1   8
ATOM      8  C1  UNL d   1      -1.752   2.857   1.143  0.00  0.00     0.053 C 
ATOM      9  C   UNL d   1      -0.650   3.426   2.023  0.00  0.00     0.018 C 
ENDBRANCH   1   8
TORSDOF 1
ENDMDL
