MODEL 1
REMARK minimizedAffinity 2.68570352
REMARK minimizedRMSD -1
REMARK  1 active torsions:
REMARK  status: ('A' for Active; 'I' for Inactive)
REMARK    1  A    between atoms: C1_2  and  C2_3 
ROOT
ATOM      1  C2  UNL d   1       1.571  -3.479   2.152  0.00  0.00    -0.073 A 
ATOM      2  C3  UNL d   1       1.707  -4.654   1.405  0.00  0.00    -0.002 A 
ATOM      3  C4  UNL d   1       1.866  -5.883   2.048  0.00  0.00     0.004 A 
ATOM      4  C5  UNL d   1       1.882  -5.950   3.441  0.00  0.00    -0.004 A 
ATOM      5  C6  UNL d   1       1.736  -4.788   4.205  0.00  0.00    -0.075 A 
ATOM      6  C7  UNL d   1       1.754  -4.843   5.704  0.00  0.00     0.076 C 
ATOM      7  C8  UNL d   1       1.580  -3.557   3.552  0.00  0.00     0.001 A 
ENDROOT
BRANCH   1   8
ATOM      8  C1  UNL d   1       1.393  -2.150   1.464  0.00  0.00     0.053 C 
ATOM      9  C   UNL d   1       0.132  -1.435   1.922  0.00  0.00     0.018 C 
ENDBRANCH   1   8
TORSDOF 1
ENDMDL
