MODEL 1
REMARK minimizedAffinity 10.1837788
REMARK minimizedRMSD -1
REMARK  1 active torsions:
REMARK  status: ('A' for Active; 'I' for Inactive)
REMARK    1  A    between atoms: C1_2  and  C2_3 
ROOT
ATOM      1  C2  UNL d   1      -4.699   3.345  -0.393  0.00  0.00    -0.073 A 
ATOM      2  C3  UNL d   1      -3.757   3.334   0.642  0.00  0.00    -0.002 A 
ATOM      3  C4  UNL d   1      -2.564   2.624   0.502  0.00  0.00     0.004 A 
ATOM      4  C5  UNL d   1      -2.299   1.923  -0.674  0.00  0.00    -0.004 A 
ATOM      5  C6  UNL d   1      -3.223   1.930  -1.724  0.00  0.00    -0.075 A 
ATOM      6  C7  UNL d   1      -2.953   1.180  -2.995  0.00  0.00     0.076 C 
ATOM      7  C8  UNL d   1      -4.419   2.644  -1.575  0.00  0.00     0.001 A 
ENDROOT
BRANCH   1   8
ATOM      8  C1  UNL d   1      -5.986   4.116  -0.249  0.00  0.00     0.053 C 
ATOM      9  C   UNL d   1      -6.000   5.367  -1.113  0.00  0.00     0.018 C 
ENDBRANCH   1   8
TORSDOF 1
ENDMDL
