MODEL 1
REMARK minimizedAffinity 4.42656612
REMARK minimizedRMSD -1
REMARK  0 active torsions:
REMARK  status: ('A' for Active; 'I' for Inactive)
ROOT
ATOM      1  C4' PXY d   1       2.338  -0.689  -0.627  0.00  0.00     0.077 C 
ATOM      2  C1' PXY d   1       0.267   4.649   0.167  0.00  0.00     0.077 C 
ATOM      3  C1  PXY d   1       0.822   3.254  -0.041  0.00  0.00    -0.082 A 
ATOM      4  C2  PXY d   1       0.074   2.332  -0.625  0.00  0.00     0.003 A 
ATOM      5  C3  PXY d   1       0.549   1.057  -0.792  0.00  0.00     0.003 A 
ATOM      6  C4  PXY d   1       1.822   0.735  -0.405  0.00  0.00    -0.082 A 
ATOM      7  C5  PXY d   1       2.596   1.673   0.182  0.00  0.00     0.003 A 
ATOM      8  C6  PXY d   1       2.081   2.951   0.379  0.00  0.00     0.003 A 
ENDROOT
TORSDOF 0
ENDMDL
