MODEL 1
REMARK minimizedAffinity 3.00147843
REMARK minimizedRMSD -1
REMARK  0 active torsions:
REMARK  status: ('A' for Active; 'I' for Inactive)
ROOT
ATOM      1  C4' PXY d   1      -6.000  -0.252  -5.346  0.00  0.00     0.077 C 
ATOM      2  C1' PXY d   1      -2.507   3.500  -2.674  0.00  0.00     0.077 C 
ATOM      3  C1  PXY d   1      -3.425   2.509  -3.364  0.00  0.00    -0.082 A 
ATOM      4  C2  PXY d   1      -3.319   2.318  -4.669  0.00  0.00     0.003 A 
ATOM      5  C3  PXY d   1      -4.162   1.450  -5.313  0.00  0.00     0.003 A 
ATOM      6  C4  PXY d   1      -5.088   0.730  -4.606  0.00  0.00    -0.082 A 
ATOM      7  C5  PXY d   1      -5.195   0.912  -3.273  0.00  0.00     0.003 A 
ATOM      8  C6  PXY d   1      -4.357   1.828  -2.644  0.00  0.00     0.003 A 
ENDROOT
TORSDOF 0
ENDMDL
