MODEL 1
REMARK minimizedAffinity 1.58714163
REMARK minimizedRMSD -1
REMARK  0 active torsions:
REMARK  status: ('A' for Active; 'I' for Inactive)
ROOT
ATOM      1  C4' PXY d   1      -5.999  -0.651  -5.209  0.00  0.00     0.077 C 
ATOM      2  C1' PXY d   1      -2.613   3.507  -3.049  0.00  0.00     0.077 C 
ATOM      3  C1  PXY d   1      -3.510   2.419  -3.607  0.00  0.00    -0.082 A 
ATOM      4  C2  PXY d   1      -2.976   1.411  -4.277  0.00  0.00     0.003 A 
ATOM      5  C3  PXY d   1      -3.776   0.436  -4.815  0.00  0.00     0.003 A 
ATOM      6  C4  PXY d   1      -5.131   0.465  -4.621  0.00  0.00    -0.082 A 
ATOM      7  C5  PXY d   1      -5.682   1.485  -3.929  0.00  0.00     0.003 A 
ATOM      8  C6  PXY d   1      -4.857   2.486  -3.426  0.00  0.00     0.003 A 
ENDROOT
TORSDOF 0
ENDMDL
