MODEL 1
REMARK minimizedAffinity 0.371030062
REMARK minimizedRMSD -1
REMARK  0 active torsions:
REMARK  status: ('A' for Active; 'I' for Inactive)
ROOT
ATOM      1  C4' PXY d   1      -1.954  -0.395  -3.164  0.00  0.00     0.077 C 
ATOM      2  C1' PXY d   1      -5.897   3.753  -3.973  0.00  0.00     0.077 C 
ATOM      3  C1  PXY d   1      -4.873   2.656  -3.758  0.00  0.00    -0.082 A 
ATOM      4  C2  PXY d   1      -3.636   2.976  -3.413  0.00  0.00     0.003 A 
ATOM      5  C3  PXY d   1      -2.688   1.998  -3.246  0.00  0.00     0.003 A 
ATOM      6  C4  PXY d   1      -3.024   0.678  -3.382  0.00  0.00    -0.082 A 
ATOM      7  C5  PXY d   1      -4.286   0.344  -3.723  0.00  0.00     0.003 A 
ATOM      8  C6  PXY d   1      -5.223   1.353  -3.929  0.00  0.00     0.003 A 
ENDROOT
TORSDOF 0
ENDMDL
