MODEL 1
REMARK minimizedAffinity 1.16827548
REMARK minimizedRMSD -1
REMARK  0 active torsions:
REMARK  status: ('A' for Active; 'I' for Inactive)
ROOT
ATOM      1  C4' PXY d   1      -3.387   4.384  -3.624  0.00  0.00     0.077 C 
ATOM      2  C1' PXY d   1      -5.994  -0.701  -4.499  0.00  0.00     0.077 C 
ATOM      3  C1  PXY d   1      -5.299   0.626  -4.268  0.00  0.00    -0.082 A 
ATOM      4  C2  PXY d   1      -6.000   1.668  -3.850  0.00  0.00     0.003 A 
ATOM      5  C3  PXY d   1      -5.393   2.884  -3.667  0.00  0.00     0.003 A 
ATOM      6  C4  PXY d   1      -4.045   3.022  -3.862  0.00  0.00    -0.082 A 
ATOM      7  C5  PXY d   1      -3.321   1.961  -4.278  0.00  0.00     0.003 A 
ATOM      8  C6  PXY d   1      -3.963   0.746  -4.498  0.00  0.00     0.003 A 
ENDROOT
TORSDOF 0
ENDMDL
