MODEL 1
REMARK minimizedAffinity -0.235169828
REMARK minimizedRMSD -1
REMARK  0 active torsions:
REMARK  status: ('A' for Active; 'I' for Inactive)
ROOT
ATOM      1  C4' PXY d   1      -5.998  -0.311  -4.510  0.00  0.00     0.077 C 
ATOM      2  C1' PXY d   1      -1.981   3.453  -2.748  0.00  0.00     0.077 C 
ATOM      3  C1  PXY d   1      -3.042   2.470  -3.200  0.00  0.00    -0.082 A 
ATOM      4  C2  PXY d   1      -2.692   1.414  -3.917  0.00  0.00     0.003 A 
ATOM      5  C3  PXY d   1      -3.643   0.531  -4.361  0.00  0.00     0.003 A 
ATOM      6  C4  PXY d   1      -4.959   0.703  -4.024  0.00  0.00    -0.082 A 
ATOM      7  C5  PXY d   1      -5.322   1.772  -3.284  0.00  0.00     0.003 A 
ATOM      8  C6  PXY d   1      -4.347   2.678  -2.878  0.00  0.00     0.003 A 
ENDROOT
TORSDOF 0
ENDMDL
