MODEL 1
REMARK minimizedAffinity 1.3766588
REMARK minimizedRMSD -1
REMARK  0 active torsions:
REMARK  status: ('A' for Active; 'I' for Inactive)
ROOT
ATOM      1  C4' PXY d   1      -1.925   0.023  -2.301  0.00  0.00     0.077 C 
ATOM      2  C1' PXY d   1      -5.995   3.541  -4.416  0.00  0.00     0.077 C 
ATOM      3  C1  PXY d   1      -4.931   2.610  -3.870  0.00  0.00    -0.082 A 
ATOM      4  C2  PXY d   1      -4.547   2.723  -2.609  0.00  0.00     0.003 A 
ATOM      5  C3  PXY d   1      -3.562   1.910  -2.109  0.00  0.00     0.003 A 
ATOM      6  C4  PXY d   1      -3.003   0.936  -2.892  0.00  0.00    -0.082 A 
ATOM      7  C5  PXY d   1      -3.398   0.807  -4.176  0.00  0.00     0.003 A 
ATOM      8  C6  PXY d   1      -4.369   1.670  -4.677  0.00  0.00     0.003 A 
ENDROOT
TORSDOF 0
ENDMDL
