MODEL 1
REMARK minimizedAffinity 3.81464505
REMARK minimizedRMSD -1
REMARK  0 active torsions:
REMARK  status: ('A' for Active; 'I' for Inactive)
ROOT
ATOM      1  C4' PXY d   1      -6.000  -0.351  -5.201  0.00  0.00     0.077 C 
ATOM      2  C1' PXY d   1      -3.371   4.123  -2.653  0.00  0.00     0.077 C 
ATOM      3  C1  PXY d   1      -4.050   2.947  -3.328  0.00  0.00    -0.082 A 
ATOM      4  C2  PXY d   1      -5.365   2.946  -3.474  0.00  0.00     0.003 A 
ATOM      5  C3  PXY d   1      -5.997   1.876  -4.053  0.00  0.00     0.003 A 
ATOM      6  C4  PXY d   1      -5.272   0.820  -4.534  0.00  0.00    -0.082 A 
ATOM      7  C5  PXY d   1      -3.929   0.818  -4.398  0.00  0.00     0.003 A 
ATOM      8  C6  PXY d   1      -3.309   1.895  -3.771  0.00  0.00     0.003 A 
ENDROOT
TORSDOF 0
ENDMDL
