MODEL 1
REMARK minimizedAffinity -0.826651096
REMARK minimizedRMSD -1
REMARK  0 active torsions:
REMARK  status: ('A' for Active; 'I' for Inactive)
ROOT
ATOM      1  C4' PXY d   1      -6.000   1.124  -0.002  0.00  0.00     0.077 C 
ATOM      2  C1' PXY d   1      -3.730   0.589  -5.291  0.00  0.00     0.077 C 
ATOM      3  C1  PXY d   1      -4.326   0.743  -3.906  0.00  0.00    -0.082 A 
ATOM      4  C2  PXY d   1      -4.126  -0.201  -3.000  0.00  0.00     0.003 A 
ATOM      5  C3  PXY d   1      -4.684  -0.093  -1.752  0.00  0.00     0.003 A 
ATOM      6  C4  PXY d   1      -5.410   1.016  -1.411  0.00  0.00    -0.082 A 
ATOM      7  C5  PXY d   1      -5.609   1.988  -2.326  0.00  0.00     0.003 A 
ATOM      8  C6  PXY d   1      -5.069   1.841  -3.600  0.00  0.00     0.003 A 
ENDROOT
TORSDOF 0
ENDMDL
