MODEL 1
REMARK minimizedAffinity 6.57205534
REMARK minimizedRMSD -1
REMARK  0 active torsions:
REMARK  status: ('A' for Active; 'I' for Inactive)
ROOT
ATOM      1  C4' PXY d   1       1.879  -0.393  -0.988  0.00  0.00     0.077 C 
ATOM      2  C1' PXY d   1       5.996   3.441   0.341  0.00  0.00     0.077 C 
ATOM      3  C1  PXY d   1       4.913   2.436   0.005  0.00  0.00    -0.082 A 
ATOM      4  C2  PXY d   1       5.069   1.627  -1.031  0.00  0.00     0.003 A 
ATOM      5  C3  PXY d   1       4.084   0.734  -1.368  0.00  0.00     0.003 A 
ATOM      6  C4  PXY d   1       2.952   0.631  -0.606  0.00  0.00    -0.082 A 
ATOM      7  C5  PXY d   1       2.789   1.445   0.458  0.00  0.00     0.003 A 
ATOM      8  C6  PXY d   1       3.782   2.373   0.760  0.00  0.00     0.003 A 
ENDROOT
TORSDOF 0
ENDMDL
