MODEL 1
REMARK minimizedAffinity -2.86794257
REMARK minimizedRMSD -1
REMARK  0 active torsions:
REMARK  status: ('A' for Active; 'I' for Inactive)
ROOT
ATOM      1  O1  BZF d   1       2.893   1.607   3.053  0.00  0.00    -0.204 OA
ATOM      2  C2  BZF d   1       4.097   2.129   3.485  0.00  0.00     0.174 A 
ATOM      3  C3  BZF d   1       4.585   3.011   2.589  0.00  0.00    -0.012 A 
ATOM      4  C3A BZF d   1       3.583   3.110   1.573  0.00  0.00    -0.107 A 
ATOM      5  C4  BZF d   1       3.480   3.838   0.423  0.00  0.00     0.055 A 
ATOM      6  C5  BZF d   1       2.404   3.650  -0.385  0.00  0.00    -0.016 A 
ATOM      7  C6  BZF d   1       1.415   2.739  -0.076  0.00  0.00     0.022 A 
ATOM      8  C7  BZF d   1       1.470   1.996   1.056  0.00  0.00     0.029 A 
ATOM      9  C7A BZF d   1       2.540   2.208   1.891  0.00  0.00     0.058 A 
ENDROOT
TORSDOF 0
ENDMDL
