MODEL 1
REMARK minimizedAffinity 5.75523853
REMARK minimizedRMSD -1
REMARK  0 active torsions:
REMARK  status: ('A' for Active; 'I' for Inactive)
ROOT
ATOM      1  O1  BZF d   1       3.999   0.616  -5.985  0.00  0.00    -0.204 OA
ATOM      2  C2  BZF d   1       5.025  -0.170  -5.496  0.00  0.00     0.174 A 
ATOM      3  C3  BZF d   1       5.992   0.594  -4.947  0.00  0.00    -0.012 A 
ATOM      4  C3A BZF d   1       5.499   1.935  -5.019  0.00  0.00    -0.107 A 
ATOM      5  C4  BZF d   1       5.999   3.142  -4.621  0.00  0.00     0.055 A 
ATOM      6  C5  BZF d   1       5.300   4.272  -4.904  0.00  0.00    -0.016 A 
ATOM      7  C6  BZF d   1       4.103   4.233  -5.588  0.00  0.00     0.022 A 
ATOM      8  C7  BZF d   1       3.564   3.059  -5.999  0.00  0.00     0.029 A 
ATOM      9  C7A BZF d   1       4.252   1.913  -5.685  0.00  0.00     0.058 A 
ENDROOT
TORSDOF 0
ENDMDL
