MODEL 1
REMARK minimizedAffinity 0.794135511
REMARK minimizedRMSD -1
REMARK  0 active torsions:
REMARK  status: ('A' for Active; 'I' for Inactive)
ROOT
ATOM      1  O1  BZF d   1       3.928   4.173  -5.997  0.00  0.00    -0.204 OA
ATOM      2  C2  BZF d   1       5.038   4.907  -5.623  0.00  0.00     0.174 A 
ATOM      3  C3  BZF d   1       6.000   4.100  -5.131  0.00  0.00    -0.012 A 
ATOM      4  C3A BZF d   1       5.494   2.771  -5.286  0.00  0.00    -0.107 A 
ATOM      5  C4  BZF d   1       5.997   1.535  -4.996  0.00  0.00     0.055 A 
ATOM      6  C5  BZF d   1       5.218   0.440  -5.203  0.00  0.00    -0.016 A 
ATOM      7  C6  BZF d   1       3.933   0.545  -5.693  0.00  0.00     0.022 A 
ATOM      8  C7  BZF d   1       3.393   1.750  -6.000  0.00  0.00     0.029 A 
ATOM      9  C7A BZF d   1       4.188   2.855  -5.823  0.00  0.00     0.058 A 
ENDROOT
TORSDOF 0
ENDMDL
