MODEL 1
REMARK minimizedAffinity 2.6262641
REMARK minimizedRMSD -1
REMARK  0 active torsions:
REMARK  status: ('A' for Active; 'I' for Inactive)
ROOT
ATOM      1  O1  BZF d   1       5.181   0.163  -3.891  0.00  0.00    -0.204 OA
ATOM      2  C2  BZF d   1       5.697  -0.533  -4.967  0.00  0.00     0.174 A 
ATOM      3  C3  BZF d   1       6.000   0.306  -5.978  0.00  0.00    -0.012 A 
ATOM      4  C3A BZF d   1       5.737   1.617  -5.471  0.00  0.00    -0.107 A 
ATOM      5  C4  BZF d   1       5.860   2.870  -5.999  0.00  0.00     0.055 A 
ATOM      6  C5  BZF d   1       5.449   3.939  -5.267  0.00  0.00    -0.016 A 
ATOM      7  C6  BZF d   1       4.908   3.791  -4.007  0.00  0.00     0.022 A 
ATOM      8  C7  BZF d   1       4.771   2.568  -3.439  0.00  0.00     0.029 A 
ATOM      9  C7A BZF d   1       5.215   1.489  -4.163  0.00  0.00     0.058 A 
ENDROOT
TORSDOF 0
ENDMDL
