MODEL 1
REMARK minimizedAffinity 9.44747353
REMARK minimizedRMSD -1
REMARK  0 active torsions:
REMARK  status: ('A' for Active; 'I' for Inactive)
ROOT
ATOM      1  O1  BZF d   1       3.311   1.546   3.833  0.00  0.00    -0.204 OA
ATOM      2  C2  BZF d   1       4.321   2.088   4.605  0.00  0.00     0.174 A 
ATOM      3  C3  BZF d   1       4.987   3.041   3.921  0.00  0.00    -0.012 A 
ATOM      4  C3A BZF d   1       4.295   3.162   2.674  0.00  0.00    -0.107 A 
ATOM      5  C4  BZF d   1       4.471   3.955   1.576  0.00  0.00     0.055 A 
ATOM      6  C5  BZF d   1       3.667   3.774   0.495  0.00  0.00    -0.016 A 
ATOM      7  C6  BZF d   1       2.684   2.807   0.476  0.00  0.00     0.022 A 
ATOM      8  C7  BZF d   1       2.468   2.000   1.543  0.00  0.00     0.029 A 
ATOM      9  C7A BZF d   1       3.257   2.203   2.649  0.00  0.00     0.058 A 
ENDROOT
TORSDOF 0
ENDMDL
