MODEL 1
REMARK minimizedAffinity 1.47547305
REMARK minimizedRMSD -1
REMARK  0 active torsions:
REMARK  status: ('A' for Active; 'I' for Inactive)
ROOT
ATOM      1  O1  BZF d   1       3.755   1.683   3.387  0.00  0.00    -0.204 OA
ATOM      2  C2  BZF d   1       4.870   2.463   3.630  0.00  0.00     0.174 A 
ATOM      3  C3  BZF d   1       5.092   3.311   2.606  0.00  0.00    -0.012 A 
ATOM      4  C3A BZF d   1       3.998   3.110   1.706  0.00  0.00    -0.107 A 
ATOM      5  C4  BZF d   1       3.649   3.673   0.512  0.00  0.00     0.055 A 
ATOM      6  C5  BZF d   1       2.558   3.200  -0.147  0.00  0.00    -0.016 A 
ATOM      7  C6  BZF d   1       1.799   2.164   0.355  0.00  0.00     0.022 A 
ATOM      8  C7  BZF d   1       2.103   1.577   1.538  0.00  0.00     0.029 A 
ATOM      9  C7A BZF d   1       3.185   2.075   2.222  0.00  0.00     0.058 A 
ENDROOT
TORSDOF 0
ENDMDL
