MODEL 1
REMARK minimizedAffinity 8.17139339
REMARK minimizedRMSD -1
REMARK  0 active torsions:
REMARK  status: ('A' for Active; 'I' for Inactive)
ROOT
ATOM      1  O1  BZF d   1      -0.494  -1.932   1.244  0.00  0.00    -0.204 OA
ATOM      2  C2  BZF d   1      -1.158  -2.477   2.326  0.00  0.00     0.174 A 
ATOM      3  C3  BZF d   1      -1.922  -3.520   1.943  0.00  0.00    -0.012 A 
ATOM      4  C3A BZF d   1      -1.652  -3.692   0.549  0.00  0.00    -0.107 A 
ATOM      5  C4  BZF d   1      -2.097  -4.577  -0.392  0.00  0.00     0.055 A 
ATOM      6  C5  BZF d   1      -1.695  -4.428  -1.681  0.00  0.00    -0.016 A 
ATOM      7  C6  BZF d   1      -0.853  -3.405  -2.066  0.00  0.00     0.022 A 
ATOM      8  C7  BZF d   1      -0.381  -2.506  -1.168  0.00  0.00     0.029 A 
ATOM      9  C7A BZF d   1      -0.760  -2.673   0.142  0.00  0.00     0.058 A 
ENDROOT
TORSDOF 0
ENDMDL
