MODEL 1
REMARK minimizedAffinity 1.98497581
REMARK minimizedRMSD -1
REMARK  0 active torsions:
REMARK  status: ('A' for Active; 'I' for Inactive)
ROOT
ATOM      1  O1  BZF d   1       2.264   2.079   1.148  0.00  0.00    -0.204 OA
ATOM      2  C2  BZF d   1       2.451   2.865   0.027  0.00  0.00     0.174 A 
ATOM      3  C3  BZF d   1       3.401   3.796   0.249  0.00  0.00    -0.012 A 
ATOM      4  C3A BZF d   1       3.899   3.521   1.561  0.00  0.00    -0.107 A 
ATOM      5  C4  BZF d   1       4.866   4.093   2.338  0.00  0.00     0.055 A 
ATOM      6  C5  BZF d   1       5.057   3.631   3.601  0.00  0.00    -0.016 A 
ATOM      7  C6  BZF d   1       4.297   2.604   4.122  0.00  0.00     0.022 A 
ATOM      8  C7  BZF d   1       3.330   2.002   3.388  0.00  0.00     0.029 A 
ATOM      9  C7A BZF d   1       3.157   2.444   2.099  0.00  0.00     0.058 A 
ENDROOT
TORSDOF 0
ENDMDL
