MODEL 1
REMARK minimizedAffinity 1.09483147
REMARK minimizedRMSD -1
REMARK  0 active torsions:
REMARK  status: ('A' for Active; 'I' for Inactive)
ROOT
ATOM      1  O1  BZF d   1       2.220  -1.314   1.545  0.00  0.00    -0.204 OA
ATOM      2  C2  BZF d   1       0.952  -1.784   1.263  0.00  0.00     0.174 A 
ATOM      3  C3  BZF d   1       0.128  -0.768   0.936  0.00  0.00    -0.012 A 
ATOM      4  C3A BZF d   1       0.954   0.400   0.929  0.00  0.00    -0.107 A 
ATOM      5  C4  BZF d   1       0.715   1.718   0.663  0.00  0.00     0.055 A 
ATOM      6  C5  BZF d   1       1.722   2.616   0.817  0.00  0.00    -0.016 A 
ATOM      7  C6  BZF d   1       2.978   2.233   1.241  0.00  0.00     0.022 A 
ATOM      8  C7  BZF d   1       3.265   0.937   1.513  0.00  0.00     0.029 A 
ATOM      9  C7A BZF d   1       2.258   0.022   1.326  0.00  0.00     0.058 A 
ENDROOT
TORSDOF 0
ENDMDL
