MODEL 1
REMARK minimizedAffinity -1.50256741
REMARK minimizedRMSD -1
REMARK  0 active torsions:
REMARK  status: ('A' for Active; 'I' for Inactive)
ROOT
ATOM      1  O1  BZF d   1       3.659   2.279   3.959  0.00  0.00    -0.204 OA
ATOM      2  C2  BZF d   1       4.714   3.158   4.113  0.00  0.00     0.174 A 
ATOM      3  C3  BZF d   1       4.953   3.824   2.965  0.00  0.00    -0.012 A 
ATOM      4  C3A BZF d   1       3.928   3.398   2.062  0.00  0.00    -0.107 A 
ATOM      5  C4  BZF d   1       3.622   3.718   0.770  0.00  0.00     0.055 A 
ATOM      6  C5  BZF d   1       2.601   3.068   0.153  0.00  0.00    -0.016 A 
ATOM      7  C6  BZF d   1       1.868   2.092   0.795  0.00  0.00     0.022 A 
ATOM      8  C7  BZF d   1       2.130   1.744   2.079  0.00  0.00     0.029 A 
ATOM      9  C7A BZF d   1       3.141   2.422   2.716  0.00  0.00     0.058 A 
ENDROOT
TORSDOF 0
ENDMDL
