MODEL 1
REMARK minimizedAffinity 6.62832785
REMARK minimizedRMSD -1
REMARK  0 active torsions:
REMARK  status: ('A' for Active; 'I' for Inactive)
ROOT
ATOM      1  O1  BZF d   1      -0.905  -1.580   1.727  0.00  0.00    -0.204 OA
ATOM      2  C2  BZF d   1      -1.849  -2.264   2.468  0.00  0.00     0.174 A 
ATOM      3  C3  BZF d   1      -2.409  -3.250   1.737  0.00  0.00    -0.012 A 
ATOM      4  C3A BZF d   1      -1.709  -3.236   0.489  0.00  0.00    -0.107 A 
ATOM      5  C4  BZF d   1      -1.799  -3.990  -0.646  0.00  0.00     0.055 A 
ATOM      6  C5  BZF d   1      -1.021  -3.671  -1.714  0.00  0.00    -0.016 A 
ATOM      7  C6  BZF d   1      -0.147  -2.604  -1.683  0.00  0.00     0.022 A 
ATOM      8  C7  BZF d   1      -0.020  -1.830  -0.578  0.00  0.00     0.029 A 
ATOM      9  C7A BZF d   1      -0.781  -2.170   0.514  0.00  0.00     0.058 A 
ENDROOT
TORSDOF 0
ENDMDL
