MODEL 1
REMARK minimizedAffinity 0.490913242
REMARK minimizedRMSD -1
REMARK  0 active torsions:
REMARK  status: ('A' for Active; 'I' for Inactive)
ROOT
ATOM      1  O1  BZF d   1       1.483   1.349   2.217  0.00  0.00    -0.204 OA
ATOM      2  C2  BZF d   1       0.881   1.648   1.010  0.00  0.00     0.174 A 
ATOM      3  C3  BZF d   1       1.540   2.640   0.378  0.00  0.00    -0.012 A 
ATOM      4  C3A BZF d   1       2.676   2.920   1.202  0.00  0.00    -0.107 A 
ATOM      5  C4  BZF d   1       3.717   3.798   1.098  0.00  0.00     0.055 A 
ATOM      6  C5  BZF d   1       4.622   3.873   2.110  0.00  0.00    -0.016 A 
ATOM      7  C6  BZF d   1       4.513   3.090   3.240  0.00  0.00     0.022 A 
ATOM      8  C7  BZF d   1       3.500   2.201   3.386  0.00  0.00     0.029 A 
ATOM      9  C7A BZF d   1       2.603   2.100   2.351  0.00  0.00     0.058 A 
ENDROOT
TORSDOF 0
ENDMDL
