MODEL 1
REMARK minimizedAffinity -0.282381952
REMARK minimizedRMSD -1
REMARK  0 active torsions:
REMARK  status: ('A' for Active; 'I' for Inactive)
ROOT
ATOM      1  O1  BZF d   1       3.877   1.555   3.438  0.00  0.00    -0.204 OA
ATOM      2  C2  BZF d   1       4.828   2.275   4.135  0.00  0.00     0.174 A 
ATOM      3  C3  BZF d   1       5.070   3.457   3.533  0.00  0.00    -0.012 A 
ATOM      4  C3A BZF d   1       4.149   3.517   2.439  0.00  0.00    -0.107 A 
ATOM      5  C4  BZF d   1       3.894   4.453   1.478  0.00  0.00     0.055 A 
ATOM      6  C5  BZF d   1       2.981   4.174   0.511  0.00  0.00    -0.016 A 
ATOM      7  C6  BZF d   1       2.310   2.969   0.472  0.00  0.00     0.022 A 
ATOM      8  C7  BZF d   1       2.526   2.012   1.407  0.00  0.00     0.029 A 
ATOM      9  C7A BZF d   1       3.424   2.304   2.404  0.00  0.00     0.058 A 
ENDROOT
TORSDOF 0
ENDMDL
