MODEL 1
REMARK minimizedAffinity 4.53442287
REMARK minimizedRMSD -1
REMARK  0 active torsions:
REMARK  status: ('A' for Active; 'I' for Inactive)
ROOT
ATOM      1  O1  BZF d   1       4.003   2.222   3.902  0.00  0.00    -0.204 OA
ATOM      2  C2  BZF d   1       4.933   3.243   3.905  0.00  0.00     0.174 A 
ATOM      3  C3  BZF d   1       4.965   3.864   2.708  0.00  0.00    -0.012 A 
ATOM      4  C3A BZF d   1       3.930   3.248   1.936  0.00  0.00    -0.107 A 
ATOM      5  C4  BZF d   1       3.461   3.444   0.668  0.00  0.00     0.055 A 
ATOM      6  C5  BZF d   1       2.487   2.625   0.191  0.00  0.00    -0.016 A 
ATOM      7  C6  BZF d   1       1.964   1.600   0.950  0.00  0.00     0.022 A 
ATOM      8  C7  BZF d   1       2.393   1.370   2.215  0.00  0.00     0.029 A 
ATOM      9  C7A BZF d   1       3.354   2.216   2.712  0.00  0.00     0.058 A 
ENDROOT
TORSDOF 0
ENDMDL
