MODEL 1
REMARK minimizedAffinity -0.268016666
REMARK minimizedRMSD -1
REMARK  0 active torsions:
REMARK  status: ('A' for Active; 'I' for Inactive)
ROOT
ATOM      1  O1  BZF d   1      -1.230  -5.382   0.114  0.00  0.00    -0.204 OA
ATOM      2  C2  BZF d   1      -1.363  -4.317  -0.756  0.00  0.00     0.174 A 
ATOM      3  C3  BZF d   1      -1.605  -3.175  -0.081  0.00  0.00    -0.012 A 
ATOM      4  C3A BZF d   1      -1.533  -3.533   1.302  0.00  0.00    -0.107 A 
ATOM      5  C4  BZF d   1      -1.670  -2.827   2.463  0.00  0.00     0.055 A 
ATOM      6  C5  BZF d   1      -1.615  -3.489   3.649  0.00  0.00    -0.016 A 
ATOM      7  C6  BZF d   1      -1.431  -4.855   3.710  0.00  0.00     0.022 A 
ATOM      8  C7  BZF d   1      -1.285  -5.597   2.586  0.00  0.00     0.029 A 
ATOM      9  C7A BZF d   1      -1.307  -4.926   1.387  0.00  0.00     0.058 A 
ENDROOT
TORSDOF 0
ENDMDL
