MODEL 1
REMARK minimizedAffinity 2.03885293
REMARK minimizedRMSD -1
REMARK  0 active torsions:
REMARK  status: ('A' for Active; 'I' for Inactive)
ROOT
ATOM      1  O1  BZF d   1       4.227   2.112   3.379  0.00  0.00    -0.204 OA
ATOM      2  C2  BZF d   1       5.292   2.991   3.337  0.00  0.00     0.174 A 
ATOM      3  C3  BZF d   1       5.255   3.733   2.212  0.00  0.00    -0.012 A 
ATOM      4  C3A BZF d   1       4.045   3.354   1.550  0.00  0.00    -0.107 A 
ATOM      5  C4  BZF d   1       3.444   3.753   0.390  0.00  0.00     0.055 A 
ATOM      6  C5  BZF d   1       2.303   3.133  -0.010  0.00  0.00    -0.016 A 
ATOM      7  C6  BZF d   1       1.739   2.108   0.721  0.00  0.00     0.022 A 
ATOM      8  C7  BZF d   1       2.296   1.681   1.881  0.00  0.00     0.029 A 
ATOM      9  C7A BZF d   1       3.431   2.328   2.305  0.00  0.00     0.058 A 
ENDROOT
TORSDOF 0
ENDMDL
