MODEL 1
REMARK minimizedAffinity 4.54186821
REMARK minimizedRMSD -1
REMARK  0 active torsions:
REMARK  status: ('A' for Active; 'I' for Inactive)
ROOT
ATOM      1  O1  BZF d   1       3.425   1.712   2.959  0.00  0.00    -0.204 OA
ATOM      2  C2  BZF d   1       4.192   1.964   4.080  0.00  0.00     0.174 A 
ATOM      3  C3  BZF d   1       4.985   3.038   3.885  0.00  0.00    -0.012 A 
ATOM      4  C3A BZF d   1       4.628   3.540   2.594  0.00  0.00    -0.107 A 
ATOM      5  C4  BZF d   1       5.055   4.602   1.849  0.00  0.00     0.055 A 
ATOM      6  C5  BZF d   1       4.556   4.773   0.596  0.00  0.00    -0.016 A 
ATOM      7  C6  BZF d   1       3.634   3.900   0.056  0.00  0.00     0.022 A 
ATOM      8  C7  BZF d   1       3.177   2.836   0.759  0.00  0.00     0.029 A 
ATOM      9  C7A BZF d   1       3.654   2.679   2.038  0.00  0.00     0.058 A 
ENDROOT
TORSDOF 0
ENDMDL
