MODEL 1
REMARK minimizedAffinity 0.650592625
REMARK minimizedRMSD -1
REMARK  0 active torsions:
REMARK  status: ('A' for Active; 'I' for Inactive)
ROOT
ATOM      1  O1  BZF d   1       4.228   2.023   3.240  0.00  0.00    -0.204 OA
ATOM      2  C2  BZF d   1       5.283   2.890   3.026  0.00  0.00     0.174 A 
ATOM      3  C3  BZF d   1       5.053   3.664   1.946  0.00  0.00    -0.012 A 
ATOM      4  C3A BZF d   1       3.735   3.320   1.509  0.00  0.00    -0.107 A 
ATOM      5  C4  BZF d   1       2.939   3.760   0.491  0.00  0.00     0.055 A 
ATOM      6  C5  BZF d   1       1.733   3.167   0.292  0.00  0.00    -0.016 A 
ATOM      7  C6  BZF d   1       1.294   2.128   1.087  0.00  0.00     0.022 A 
ATOM      8  C7  BZF d   1       2.047   1.661   2.113  0.00  0.00     0.029 A 
ATOM      9  C7A BZF d   1       3.252   2.281   2.337  0.00  0.00     0.058 A 
ENDROOT
TORSDOF 0
ENDMDL
