MODEL 1
REMARK minimizedAffinity -1.58599675
REMARK minimizedRMSD -1
REMARK  0 active torsions:
REMARK  status: ('A' for Active; 'I' for Inactive)
ROOT
ATOM      1  O1  BZF d   1      -2.278   3.188   3.599  0.00  0.00    -0.204 OA
ATOM      2  C2  BZF d   1      -1.693   3.988   4.561  0.00  0.00     0.174 A 
ATOM      3  C3  BZF d   1      -0.359   4.057   4.380  0.00  0.00    -0.012 A 
ATOM      4  C3A BZF d   1      -0.104   3.324   3.178  0.00  0.00    -0.107 A 
ATOM      5  C4  BZF d   1       1.030   3.047   2.470  0.00  0.00     0.055 A 
ATOM      6  C5  BZF d   1       0.947   2.242   1.377  0.00  0.00    -0.016 A 
ATOM      7  C6  BZF d   1      -0.252   1.695   0.968  0.00  0.00     0.022 A 
ATOM      8  C7  BZF d   1      -1.404   1.946   1.636  0.00  0.00     0.029 A 
ATOM      9  C7A BZF d   1      -1.329   2.785   2.721  0.00  0.00     0.058 A 
ENDROOT
TORSDOF 0
ENDMDL
