MODEL 1
REMARK minimizedAffinity -4.94122076
REMARK minimizedRMSD -1
REMARK  1 active torsions:
REMARK  status: ('A' for Active; 'I' for Inactive)
REMARK    1  A    between atoms: N_2  and  C1_3 
ROOT
ATOM      1  C1  UNL d   1       0.402   0.257  -0.265  0.00  0.00     0.143 A 
ATOM      2  C2  UNL d   1      -0.284   0.543   0.920  0.00  0.00    -0.057 A 
ATOM      3  C3  UNL d   1       0.181   1.517   1.812  0.00  0.00     0.033 A 
ATOM      4  C4  UNL d   1       1.362   2.203   1.548  0.00  0.00    -0.042 A 
ATOM      5  C5  UNL d   1       2.074   1.918   0.388  0.00  0.00     0.033 A 
ATOM      6  C6  UNL d   1       1.601   0.949  -0.502  0.00  0.00    -0.057 A 
ENDROOT
BRANCH   1   7
ATOM      7  N   UNL d   1       0.044  -0.768  -1.144  0.00  0.00    -0.732 N 
ATOM      8  C   UNL d   1      -1.337  -0.956  -1.533  0.00  0.00     0.284 C 
ATOM      9  H3  UNL d   1       0.709  -0.877  -1.906  0.00  0.00     0.395 HD
ENDBRANCH   1   7
TORSDOF 1
ENDMDL
