MODEL 1
REMARK minimizedAffinity -3.16100717
REMARK minimizedRMSD -1
REMARK  1 active torsions:
REMARK  status: ('A' for Active; 'I' for Inactive)
REMARK    1  A    between atoms: N_2  and  C1_3 
ROOT
ATOM      1  C1  UNL d   1       0.426   1.204   1.164  0.00  0.00     0.143 A 
ATOM      2  C2  UNL d   1      -0.694   0.393   1.375  0.00  0.00    -0.057 A 
ATOM      3  C3  UNL d   1      -0.901  -0.770   0.623  0.00  0.00     0.033 A 
ATOM      4  C4  UNL d   1      -0.002  -1.128  -0.376  0.00  0.00    -0.042 A 
ATOM      5  C5  UNL d   1       1.105  -0.323  -0.620  0.00  0.00     0.033 A 
ATOM      6  C6  UNL d   1       1.310   0.833   0.138  0.00  0.00    -0.057 A 
ENDROOT
BRANCH   1   7
ATOM      7  N   UNL d   1       0.636   2.424   1.811  0.00  0.00    -0.732 N 
ATOM      8  C   UNL d   1       1.916   3.093   1.726  0.00  0.00     0.284 C 
ATOM      9  H3  UNL d   1      -0.165   3.047   1.734  0.00  0.00     0.395 HD
ENDBRANCH   1   7
TORSDOF 1
ENDMDL
