MODEL 1
REMARK minimizedAffinity -4.47852564
REMARK minimizedRMSD -1
REMARK  1 active torsions:
REMARK  status: ('A' for Active; 'I' for Inactive)
REMARK    1  A    between atoms: N_2  and  C1_3 
ROOT
ATOM      1  C1  UNL d   1       0.846  -0.211  -0.347  0.00  0.00     0.143 A 
ATOM      2  C2  UNL d   1       0.444   0.986   0.256  0.00  0.00    -0.057 A 
ATOM      3  C3  UNL d   1       1.349   2.034   0.463  0.00  0.00     0.033 A 
ATOM      4  C4  UNL d   1       2.683   1.892   0.095  0.00  0.00    -0.042 A 
ATOM      5  C5  UNL d   1       3.110   0.702  -0.484  0.00  0.00     0.033 A 
ATOM      6  C6  UNL d   1       2.200  -0.338  -0.694  0.00  0.00    -0.057 A 
ENDROOT
BRANCH   1   7
ATOM      7  N   UNL d   1       0.017  -1.326  -0.491  0.00  0.00    -0.732 N 
ATOM      8  C   UNL d   1      -1.059  -1.325  -1.459  0.00  0.00     0.284 C 
ATOM      9  H3  UNL d   1       0.532  -2.202  -0.442  0.00  0.00     0.395 HD
ENDBRANCH   1   7
TORSDOF 1
ENDMDL
