MODEL 1
REMARK minimizedAffinity -3.44847608
REMARK minimizedRMSD -1
REMARK  1 active torsions:
REMARK  status: ('A' for Active; 'I' for Inactive)
REMARK    1  A    between atoms: N_2  and  C1_3 
ROOT
ATOM      1  C1  UNL d   1      -0.131  -0.054   0.059  0.00  0.00     0.143 A 
ATOM      2  C2  UNL d   1      -1.042   0.300   1.060  0.00  0.00    -0.057 A 
ATOM      3  C3  UNL d   1      -0.779   1.355   1.942  0.00  0.00     0.033 A 
ATOM      4  C4  UNL d   1       0.418   2.058   1.858  0.00  0.00    -0.042 A 
ATOM      5  C5  UNL d   1       1.350   1.708   0.887  0.00  0.00     0.033 A 
ATOM      6  C6  UNL d   1       1.078   0.658   0.004  0.00  0.00    -0.057 A 
ENDROOT
BRANCH   1   7
ATOM      7  N   UNL d   1      -0.291  -1.155  -0.785  0.00  0.00    -0.732 N 
ATOM      8  C   UNL d   1      -1.436  -1.250  -1.664  0.00  0.00     0.284 C 
ATOM      9  H3  UNL d   1       0.585  -1.449  -1.211  0.00  0.00     0.395 HD
ENDBRANCH   1   7
TORSDOF 1
ENDMDL
