MODEL 1
REMARK minimizedAffinity -2.75621009
REMARK minimizedRMSD -1
REMARK  1 active torsions:
REMARK  status: ('A' for Active; 'I' for Inactive)
REMARK    1  A    between atoms: N_2  and  C1_3 
ROOT
ATOM      1  C1  UNL d   1      -0.118  -0.338  -0.103  0.00  0.00     0.143 A 
ATOM      2  C2  UNL d   1       0.806   0.646  -0.469  0.00  0.00    -0.057 A 
ATOM      3  C3  UNL d   1       0.853   1.880   0.192  0.00  0.00     0.033 A 
ATOM      4  C4  UNL d   1      -0.046   2.162   1.215  0.00  0.00    -0.042 A 
ATOM      5  C5  UNL d   1      -0.989   1.208   1.579  0.00  0.00     0.033 A 
ATOM      6  C6  UNL d   1      -1.026  -0.025   0.919  0.00  0.00    -0.057 A 
ENDROOT
BRANCH   1   7
ATOM      7  N   UNL d   1      -0.279  -1.546  -0.787  0.00  0.00    -0.732 N 
ATOM      8  C   UNL d   1      -1.245  -1.663  -1.858  0.00  0.00     0.284 C 
ATOM      9  H3  UNL d   1       0.608  -2.008  -0.974  0.00  0.00     0.395 HD
ENDBRANCH   1   7
TORSDOF 1
ENDMDL
