MODEL 1
REMARK minimizedAffinity -3.11463499
REMARK minimizedRMSD -1
REMARK  1 active torsions:
REMARK  status: ('A' for Active; 'I' for Inactive)
REMARK    1  A    between atoms: N_2  and  C1_3 
ROOT
ATOM      1  C1  UNL d   1      -3.566  -2.403  -2.696  0.00  0.00     0.143 A 
ATOM      2  C2  UNL d   1      -3.009  -2.730  -3.936  0.00  0.00    -0.057 A 
ATOM      3  C3  UNL d   1      -2.199  -1.822  -4.630  0.00  0.00     0.033 A 
ATOM      4  C4  UNL d   1      -1.956  -0.556  -4.106  0.00  0.00    -0.042 A 
ATOM      5  C5  UNL d   1      -2.520  -0.201  -2.886  0.00  0.00     0.033 A 
ATOM      6  C6  UNL d   1      -3.322  -1.114  -2.195  0.00  0.00    -0.057 A 
ENDROOT
BRANCH   1   7
ATOM      7  N   UNL d   1      -4.459  -3.225  -2.004  0.00  0.00    -0.732 N 
ATOM      8  C   UNL d   1      -4.016  -4.001  -0.865  0.00  0.00     0.284 C 
ATOM      9  H3  UNL d   1      -5.371  -2.791  -1.881  0.00  0.00     0.395 HD
ENDBRANCH   1   7
TORSDOF 1
ENDMDL
