MODEL 1
REMARK minimizedAffinity -5.19977427
REMARK minimizedRMSD -1
REMARK  1 active torsions:
REMARK  status: ('A' for Active; 'I' for Inactive)
REMARK    1  A    between atoms: N_2  and  C1_3 
ROOT
ATOM      1  C1  UNL d   1       0.636   0.283   0.065  0.00  0.00     0.143 A 
ATOM      2  C2  UNL d   1      -0.111   0.935   1.051  0.00  0.00    -0.057 A 
ATOM      3  C3  UNL d   1       0.375   2.081   1.691  0.00  0.00     0.033 A 
ATOM      4  C4  UNL d   1       1.635   2.580   1.376  0.00  0.00    -0.042 A 
ATOM      5  C5  UNL d   1       2.406   1.933   0.416  0.00  0.00     0.033 A 
ATOM      6  C6  UNL d   1       1.912   0.793  -0.224  0.00  0.00    -0.057 A 
ENDROOT
BRANCH   1   7
ATOM      7  N   UNL d   1       0.250  -0.917  -0.538  0.00  0.00    -0.732 N 
ATOM      8  C   UNL d   1      -1.145  -1.301  -0.588  0.00  0.00     0.284 C 
ATOM      9  H3  UNL d   1       0.763  -1.104  -1.396  0.00  0.00     0.395 HD
ENDBRANCH   1   7
TORSDOF 1
ENDMDL
