MODEL 1
REMARK minimizedAffinity -4.32337332
REMARK minimizedRMSD -1
REMARK  1 active torsions:
REMARK  status: ('A' for Active; 'I' for Inactive)
REMARK    1  A    between atoms: N_2  and  C1_3 
ROOT
ATOM      1  C1  UNL d   1      -2.881  -2.586  -1.337  0.00  0.00     0.143 A 
ATOM      2  C2  UNL d   1      -3.123  -2.232  -2.668  0.00  0.00    -0.057 A 
ATOM      3  C3  UNL d   1      -2.206  -1.462  -3.394  0.00  0.00     0.033 A 
ATOM      4  C4  UNL d   1      -1.039  -1.006  -2.788  0.00  0.00    -0.042 A 
ATOM      5  C5  UNL d   1      -0.790  -1.324  -1.458  0.00  0.00     0.033 A 
ATOM      6  C6  UNL d   1      -1.707  -2.099  -0.741  0.00  0.00    -0.057 A 
ENDROOT
BRANCH   1   7
ATOM      7  N   UNL d   1      -3.800  -3.265  -0.533  0.00  0.00    -0.732 N 
ATOM      8  C   UNL d   1      -5.149  -3.506  -0.997  0.00  0.00     0.284 C 
ATOM      9  H3  UNL d   1      -3.381  -4.055  -0.046  0.00  0.00     0.395 HD
ENDBRANCH   1   7
TORSDOF 1
ENDMDL
