MODEL 1
REMARK minimizedAffinity -2.8009088
REMARK minimizedRMSD -1
REMARK  1 active torsions:
REMARK  status: ('A' for Active; 'I' for Inactive)
REMARK    1  A    between atoms: N_2  and  C1_3 
ROOT
ATOM      1  C1  UNL d   1      -0.304  -0.084  -0.072  0.00  0.00     0.143 A 
ATOM      2  C2  UNL d   1      -0.960   0.340   1.088  0.00  0.00    -0.057 A 
ATOM      3  C3  UNL d   1      -0.554   1.491   1.774  0.00  0.00     0.033 A 
ATOM      4  C4  UNL d   1       0.539   2.225   1.325  0.00  0.00    -0.042 A 
ATOM      5  C5  UNL d   1       1.222   1.809   0.188  0.00  0.00     0.033 A 
ATOM      6  C6  UNL d   1       0.807   0.662  -0.496  0.00  0.00    -0.057 A 
ENDROOT
BRANCH   1   7
ATOM      7  N   UNL d   1      -0.598  -1.274  -0.742  0.00  0.00    -0.732 N 
ATOM      8  C   UNL d   1      -1.559  -1.292  -1.824  0.00  0.00     0.284 C 
ATOM      9  H3  UNL d   1       0.230  -1.839  -0.912  0.00  0.00     0.395 HD
ENDBRANCH   1   7
TORSDOF 1
ENDMDL
