MODEL 1
REMARK minimizedAffinity -4.33540154
REMARK minimizedRMSD -1
REMARK  1 active torsions:
REMARK  status: ('A' for Active; 'I' for Inactive)
REMARK    1  A    between atoms: N_2  and  C1_3 
ROOT
ATOM      1  C1  UNL d   1       0.597   0.947   0.340  0.00  0.00     0.143 A 
ATOM      2  C2  UNL d   1       0.557   2.148   1.056  0.00  0.00    -0.057 A 
ATOM      3  C3  UNL d   1       1.725   2.873   1.324  0.00  0.00     0.033 A 
ATOM      4  C4  UNL d   1       2.961   2.392   0.905  0.00  0.00    -0.042 A 
ATOM      5  C5  UNL d   1       3.027   1.187   0.214  0.00  0.00     0.033 A 
ATOM      6  C6  UNL d   1       1.857   0.472  -0.057  0.00  0.00    -0.057 A 
ENDROOT
BRANCH   1   7
ATOM      7  N   UNL d   1      -0.517   0.131   0.127  0.00  0.00    -0.732 N 
ATOM      8  C   UNL d   1      -0.379  -1.143  -0.545  0.00  0.00     0.284 C 
ATOM      9  H3  UNL d   1      -1.144   0.114   0.927  0.00  0.00     0.395 HD
ENDBRANCH   1   7
TORSDOF 1
ENDMDL
