MODEL 1
REMARK minimizedAffinity -2.15702128
REMARK minimizedRMSD -1
REMARK  1 active torsions:
REMARK  status: ('A' for Active; 'I' for Inactive)
REMARK    1  A    between atoms: N_2  and  C1_3 
ROOT
ATOM      1  C1  UNL d   1       1.678   0.501   0.474  0.00  0.00     0.143 A 
ATOM      2  C2  UNL d   1       0.686  -0.343  -0.036  0.00  0.00    -0.057 A 
ATOM      3  C3  UNL d   1      -0.648  -0.226   0.374  0.00  0.00     0.033 A 
ATOM      4  C4  UNL d   1      -1.009   0.722   1.326  0.00  0.00    -0.042 A 
ATOM      5  C5  UNL d   1      -0.035   1.554   1.865  0.00  0.00     0.033 A 
ATOM      6  C6  UNL d   1       1.294   1.437   1.447  0.00  0.00    -0.057 A 
ENDROOT
BRANCH   1   7
ATOM      7  N   UNL d   1       3.037   0.370   0.180  0.00  0.00    -0.732 N 
ATOM      8  C   UNL d   1       4.031   1.086   0.951  0.00  0.00     0.284 C 
ATOM      9  H3  UNL d   1       3.296  -0.589  -0.042  0.00  0.00     0.395 HD
ENDBRANCH   1   7
TORSDOF 1
ENDMDL
