MODEL 1
REMARK minimizedAffinity -4.698874
REMARK minimizedRMSD -1
REMARK  1 active torsions:
REMARK  status: ('A' for Active; 'I' for Inactive)
REMARK    1  A    between atoms: N_2  and  C1_3 
ROOT
ATOM      1  C1  UNL d   1       0.678   1.188   0.458  0.00  0.00     0.143 A 
ATOM      2  C2  UNL d   1       1.582   1.076  -0.603  0.00  0.00    -0.057 A 
ATOM      3  C3  UNL d   1       1.483   0.034  -1.534  0.00  0.00     0.033 A 
ATOM      4  C4  UNL d   1       0.491  -0.933  -1.402  0.00  0.00    -0.042 A 
ATOM      5  C5  UNL d   1      -0.403  -0.855  -0.340  0.00  0.00     0.033 A 
ATOM      6  C6  UNL d   1      -0.302   0.191   0.582  0.00  0.00    -0.057 A 
ENDROOT
BRANCH   1   7
ATOM      7  N   UNL d   1       0.784   2.144   1.472  0.00  0.00    -0.732 N 
ATOM      8  C   UNL d   1       1.358   3.444   1.202  0.00  0.00     0.284 C 
ATOM      9  H3  UNL d   1      -0.039   2.168   2.070  0.00  0.00     0.395 HD
ENDBRANCH   1   7
TORSDOF 1
ENDMDL
