MODEL 1
REMARK minimizedAffinity -3.30504465
REMARK minimizedRMSD -1
REMARK  0 active torsions:
REMARK  status: ('A' for Active; 'I' for Inactive)
ROOT
ATOM      1  C   UNL d   1       0.478   5.124  -5.262  0.00  0.00     0.077 C 
ATOM      2  C1  UNL d   1       1.928   4.759  -5.376  0.00  0.00    -0.074 A 
ATOM      3  C2  UNL d   1       2.857   5.661  -5.906  0.00  0.00    -0.005 A 
ATOM      4  C3  UNL d   1       4.204   5.310  -5.997  0.00  0.00     0.006 A 
ATOM      5  C4  UNL d   1       4.635   4.057  -5.560  0.00  0.00    -0.005 A 
ATOM      6  C5  UNL d   1       3.721   3.143  -5.026  0.00  0.00    -0.074 A 
ATOM      7  C6  UNL d   1       4.169   1.796  -4.543  0.00  0.00     0.077 C 
ATOM      8  C7  UNL d   1       2.370   3.505  -4.932  0.00  0.00    -0.001 A 
ENDROOT
TORSDOF 0
ENDMDL
