MODEL 1
REMARK minimizedAffinity -1.06584501
REMARK minimizedRMSD -1
REMARK  0 active torsions:
REMARK  status: ('A' for Active; 'I' for Inactive)
ROOT
ATOM      1  C   UNL d   1       5.982   5.607  -6.000  0.00  0.00     0.077 C 
ATOM      2  C1  UNL d   1       4.933   4.539  -5.895  0.00  0.00    -0.074 A 
ATOM      3  C2  UNL d   1       5.272   3.186  -6.000  0.00  0.00    -0.005 A 
ATOM      4  C3  UNL d   1       4.287   2.204  -5.891  0.00  0.00     0.006 A 
ATOM      5  C4  UNL d   1       2.956   2.565  -5.676  0.00  0.00    -0.005 A 
ATOM      6  C5  UNL d   1       2.599   3.912  -5.568  0.00  0.00    -0.074 A 
ATOM      7  C6  UNL d   1       1.175   4.316  -5.327  0.00  0.00     0.077 C 
ATOM      8  C7  UNL d   1       3.595   4.893  -5.671  0.00  0.00    -0.001 A 
ENDROOT
TORSDOF 0
ENDMDL
