MODEL 1
REMARK minimizedAffinity -2.37825704
REMARK minimizedRMSD -1
REMARK  0 active torsions:
REMARK  status: ('A' for Active; 'I' for Inactive)
ROOT
ATOM      1  C   UNL d   1       0.372   5.516  -5.935  0.00  0.00     0.077 C 
ATOM      2  C1  UNL d   1       1.804   5.070  -5.914  0.00  0.00    -0.074 A 
ATOM      3  C2  UNL d   1       2.847   5.999  -6.000  0.00  0.00    -0.005 A 
ATOM      4  C3  UNL d   1       4.174   5.570  -5.969  0.00  0.00     0.006 A 
ATOM      5  C4  UNL d   1       4.471   4.212  -5.853  0.00  0.00    -0.005 A 
ATOM      6  C5  UNL d   1       3.442   3.269  -5.765  0.00  0.00    -0.074 A 
ATOM      7  C6  UNL d   1       3.744   1.806  -5.629  0.00  0.00     0.077 C 
ATOM      8  C7  UNL d   1       2.111   3.708  -5.789  0.00  0.00    -0.001 A 
ENDROOT
TORSDOF 0
ENDMDL
