MODEL 1
REMARK minimizedAffinity -2.6368103
REMARK minimizedRMSD -1
REMARK  0 active torsions:
REMARK  status: ('A' for Active; 'I' for Inactive)
ROOT
ATOM      1  C   UNL d   1       3.749   1.512  -5.250  0.00  0.00     0.077 C 
ATOM      2  C1  UNL d   1       3.702   2.989  -5.506  0.00  0.00    -0.074 A 
ATOM      3  C2  UNL d   1       4.873   3.713  -5.753  0.00  0.00    -0.005 A 
ATOM      4  C3  UNL d   1       4.813   5.085  -5.999  0.00  0.00     0.006 A 
ATOM      5  C4  UNL d   1       3.584   5.745  -6.000  0.00  0.00    -0.005 A 
ATOM      6  C5  UNL d   1       2.403   5.038  -5.756  0.00  0.00    -0.074 A 
ATOM      7  C6  UNL d   1       1.073   5.731  -5.764  0.00  0.00     0.077 C 
ATOM      8  C7  UNL d   1       2.471   3.658  -5.517  0.00  0.00    -0.001 A 
ENDROOT
TORSDOF 0
ENDMDL
