MODEL 1
REMARK minimizedAffinity -2.80834842
REMARK minimizedRMSD -1
REMARK  0 active torsions:
REMARK  status: ('A' for Active; 'I' for Inactive)
ROOT
ATOM      1  C   UNL d   1       3.728   1.688  -5.630  0.00  0.00     0.077 C 
ATOM      2  C1  UNL d   1       3.724   3.182  -5.752  0.00  0.00    -0.074 A 
ATOM      3  C2  UNL d   1       4.920   3.897  -5.878  0.00  0.00    -0.005 A 
ATOM      4  C3  UNL d   1       4.899   5.286  -6.000  0.00  0.00     0.006 A 
ATOM      5  C4  UNL d   1       3.685   5.974  -5.998  0.00  0.00    -0.005 A 
ATOM      6  C5  UNL d   1       2.479   5.276  -5.875  0.00  0.00    -0.074 A 
ATOM      7  C6  UNL d   1       1.165   5.999  -5.881  0.00  0.00     0.077 C 
ATOM      8  C7  UNL d   1       2.508   3.880  -5.759  0.00  0.00    -0.001 A 
ENDROOT
TORSDOF 0
ENDMDL
