MODEL 1
REMARK minimizedAffinity -3.71150732
REMARK minimizedRMSD -1
REMARK  0 active torsions:
REMARK  status: ('A' for Active; 'I' for Inactive)
ROOT
ATOM      1  C   UNL d   1       1.003   4.422  -5.962  0.00  0.00     0.077 C 
ATOM      2  C1  UNL d   1       2.363   3.884  -5.630  0.00  0.00    -0.074 A 
ATOM      3  C2  UNL d   1       2.512   2.633  -5.023  0.00  0.00    -0.005 A 
ATOM      4  C3  UNL d   1       3.784   2.141  -4.729  0.00  0.00     0.006 A 
ATOM      5  C4  UNL d   1       4.917   2.895  -5.037  0.00  0.00    -0.005 A 
ATOM      6  C5  UNL d   1       4.787   4.148  -5.645  0.00  0.00    -0.074 A 
ATOM      7  C6  UNL d   1       5.995   4.966  -5.992  0.00  0.00     0.077 C 
ATOM      8  C7  UNL d   1       3.506   4.632  -5.944  0.00  0.00    -0.001 A 
ENDROOT
TORSDOF 0
ENDMDL
