MODEL 1
REMARK minimizedAffinity -0.933969975
REMARK minimizedRMSD -1
REMARK  0 active torsions:
REMARK  status: ('A' for Active; 'I' for Inactive)
ROOT
ATOM      1  C   UNL d   1       0.815   4.867  -5.578  0.00  0.00     0.077 C 
ATOM      2  C1  UNL d   1       2.250   4.433  -5.599  0.00  0.00    -0.074 A 
ATOM      3  C2  UNL d   1       3.262   5.315  -5.993  0.00  0.00    -0.005 A 
ATOM      4  C3  UNL d   1       4.594   4.901  -5.999  0.00  0.00     0.006 A 
ATOM      5  C4  UNL d   1       4.927   3.602  -5.612  0.00  0.00    -0.005 A 
ATOM      6  C5  UNL d   1       3.929   2.707  -5.214  0.00  0.00    -0.074 A 
ATOM      7  C6  UNL d   1       4.271   1.311  -4.785  0.00  0.00     0.077 C 
ATOM      8  C7  UNL d   1       2.594   3.133  -5.204  0.00  0.00    -0.001 A 
ENDROOT
TORSDOF 0
ENDMDL
