MODEL 1
REMARK minimizedAffinity -1.19189775
REMARK minimizedRMSD -1
REMARK  0 active torsions:
REMARK  status: ('A' for Active; 'I' for Inactive)
ROOT
ATOM      1  C   UNL d   1       1.255   5.995  -5.727  0.00  0.00     0.077 C 
ATOM      2  C1  UNL d   1       2.561   5.258  -5.706  0.00  0.00    -0.074 A 
ATOM      3  C2  UNL d   1       3.761   5.914  -5.996  0.00  0.00    -0.005 A 
ATOM      4  C3  UNL d   1       4.969   5.217  -5.963  0.00  0.00     0.006 A 
ATOM      5  C4  UNL d   1       4.989   3.859  -5.641  0.00  0.00    -0.005 A 
ATOM      6  C5  UNL d   1       3.798   3.187  -5.348  0.00  0.00    -0.074 A 
ATOM      7  C6  UNL d   1       3.802   1.730  -4.991  0.00  0.00     0.077 C 
ATOM      8  C7  UNL d   1       2.589   3.895  -5.376  0.00  0.00    -0.001 A 
ENDROOT
TORSDOF 0
ENDMDL
