MODEL 1
REMARK minimizedAffinity -1.86105514
REMARK minimizedRMSD -1
REMARK  0 active torsions:
REMARK  status: ('A' for Active; 'I' for Inactive)
ROOT
ATOM      1  C   UNL d   1       4.726   1.440  -5.991  0.00  0.00     0.077 C 
ATOM      2  C1  UNL d   1       4.165   2.831  -5.986  0.00  0.00    -0.074 A 
ATOM      3  C2  UNL d   1       5.009   3.946  -5.993  0.00  0.00    -0.005 A 
ATOM      4  C3  UNL d   1       4.472   5.234  -5.998  0.00  0.00     0.006 A 
ATOM      5  C4  UNL d   1       3.089   5.419  -5.996  0.00  0.00    -0.005 A 
ATOM      6  C5  UNL d   1       2.230   4.315  -5.991  0.00  0.00    -0.074 A 
ATOM      7  C6  UNL d   1       0.741   4.497  -5.999  0.00  0.00     0.077 C 
ATOM      8  C7  UNL d   1       2.777   3.025  -5.993  0.00  0.00    -0.001 A 
ENDROOT
TORSDOF 0
ENDMDL
