MODEL 1
REMARK minimizedAffinity -3.35530186
REMARK minimizedRMSD -1
REMARK  0 active torsions:
REMARK  status: ('A' for Active; 'I' for Inactive)
ROOT
ATOM      1  C   UNL d   1       3.757   1.775  -5.145  0.00  0.00     0.077 C 
ATOM      2  C1  UNL d   1       3.739   3.246  -5.436  0.00  0.00    -0.074 A 
ATOM      3  C2  UNL d   1       4.930   3.955  -5.626  0.00  0.00    -0.005 A 
ATOM      4  C3  UNL d   1       4.897   5.321  -5.906  0.00  0.00     0.006 A 
ATOM      5  C4  UNL d   1       3.676   5.991  -5.999  0.00  0.00    -0.005 A 
ATOM      6  C5  UNL d   1       2.476   5.298  -5.813  0.00  0.00    -0.074 A 
ATOM      7  C6  UNL d   1       1.155   6.000  -5.919  0.00  0.00     0.077 C 
ATOM      8  C7  UNL d   1       2.517   3.924  -5.539  0.00  0.00    -0.001 A 
ENDROOT
TORSDOF 0
ENDMDL
