MODEL 1
REMARK minimizedAffinity 3.11701775
REMARK minimizedRMSD -1
REMARK  0 active torsions:
REMARK  status: ('A' for Active; 'I' for Inactive)
ROOT
ATOM      1  C   UNL d   1       3.645   0.370   1.495  0.00  0.00     0.077 C 
ATOM      2  C1  UNL d   1       2.351   1.005   1.910  0.00  0.00    -0.074 A 
ATOM      3  C2  UNL d   1       1.508   0.380   2.835  0.00  0.00    -0.005 A 
ATOM      4  C3  UNL d   1       0.313   0.987   3.218  0.00  0.00     0.006 A 
ATOM      5  C4  UNL d   1      -0.052   2.223   2.682  0.00  0.00    -0.005 A 
ATOM      6  C5  UNL d   1       0.779   2.863   1.757  0.00  0.00    -0.074 A 
ATOM      7  C6  UNL d   1       0.407   4.196   1.179  0.00  0.00     0.077 C 
ATOM      8  C7  UNL d   1       1.982   2.250   1.382  0.00  0.00    -0.001 A 
ENDROOT
TORSDOF 0
ENDMDL
