MODEL 1
REMARK minimizedAffinity 3.37261605
REMARK minimizedRMSD -1
REMARK  0 active torsions:
REMARK  status: ('A' for Active; 'I' for Inactive)
ROOT
ATOM      1  C   UNL d   1       2.674   1.536   0.018  0.00  0.00     0.077 C 
ATOM      2  C1  UNL d   1       2.995   0.884   1.331  0.00  0.00    -0.074 A 
ATOM      3  C2  UNL d   1       2.016   0.739   2.319  0.00  0.00    -0.005 A 
ATOM      4  C3  UNL d   1       2.327   0.122   3.531  0.00  0.00     0.006 A 
ATOM      5  C4  UNL d   1       3.617  -0.355   3.766  0.00  0.00    -0.005 A 
ATOM      6  C5  UNL d   1       4.608  -0.219   2.789  0.00  0.00    -0.074 A 
ATOM      7  C6  UNL d   1       5.997  -0.735   3.021  0.00  0.00     0.077 C 
ATOM      8  C7  UNL d   1       4.286   0.396   1.571  0.00  0.00    -0.001 A 
ENDROOT
TORSDOF 0
ENDMDL
