MODEL 1
REMARK minimizedAffinity -3.43084812
REMARK minimizedRMSD -1
REMARK  0 active torsions:
REMARK  status: ('A' for Active; 'I' for Inactive)
ROOT
ATOM      1  C   UNL d   1       2.354   5.945  -5.971  0.00  0.00     0.077 C 
ATOM      2  C1  UNL d   1       3.631   5.182  -5.780  0.00  0.00    -0.074 A 
ATOM      3  C2  UNL d   1       4.808   5.834  -5.397  0.00  0.00    -0.005 A 
ATOM      4  C3  UNL d   1       5.985   5.109  -5.214  0.00  0.00     0.006 A 
ATOM      5  C4  UNL d   1       5.998   3.727  -5.411  0.00  0.00    -0.005 A 
ATOM      6  C5  UNL d   1       4.831   3.058  -5.793  0.00  0.00    -0.074 A 
ATOM      7  C6  UNL d   1       4.825   1.573  -5.999  0.00  0.00     0.077 C 
ATOM      8  C7  UNL d   1       3.650   3.793  -5.968  0.00  0.00    -0.001 A 
ENDROOT
TORSDOF 0
ENDMDL
