MODEL 1
REMARK minimizedAffinity 0.989422441
REMARK minimizedRMSD -1
REMARK  0 active torsions:
REMARK  status: ('A' for Active; 'I' for Inactive)
ROOT
ATOM      1  C   UNL d   1      -2.375  -1.080   0.748  0.00  0.00     0.077 C 
ATOM      2  C1  UNL d   1      -0.877  -1.085   0.832  0.00  0.00    -0.074 A 
ATOM      3  C2  UNL d   1      -0.139  -2.206   0.441  0.00  0.00    -0.005 A 
ATOM      4  C3  UNL d   1       1.254  -2.192   0.515  0.00  0.00     0.006 A 
ATOM      5  C4  UNL d   1       1.922  -1.059   0.980  0.00  0.00    -0.005 A 
ATOM      6  C5  UNL d   1       1.200   0.073   1.375  0.00  0.00    -0.074 A 
ATOM      7  C6  UNL d   1       1.902   1.303   1.867  0.00  0.00     0.077 C 
ATOM      8  C7  UNL d   1      -0.199   0.053   1.290  0.00  0.00    -0.001 A 
ENDROOT
TORSDOF 0
ENDMDL
