MODEL 1
REMARK minimizedAffinity -2.36361527
REMARK minimizedRMSD -1
REMARK  0 active torsions:
REMARK  status: ('A' for Active; 'I' for Inactive)
ROOT
ATOM      1  C   UNL d   1       2.981   1.704  -5.999  0.00  0.00     0.077 C 
ATOM      2  C1  UNL d   1       3.015   3.194  -5.827  0.00  0.00    -0.074 A 
ATOM      3  C2  UNL d   1       1.859   3.905  -5.492  0.00  0.00    -0.005 A 
ATOM      4  C3  UNL d   1       1.908   5.289  -5.325  0.00  0.00     0.006 A 
ATOM      5  C4  UNL d   1       3.112   5.975  -5.492  0.00  0.00    -0.005 A 
ATOM      6  C5  UNL d   1       4.279   5.280  -5.827  0.00  0.00    -0.074 A 
ATOM      7  C6  UNL d   1       5.583   5.999  -6.000  0.00  0.00     0.077 C 
ATOM      8  C7  UNL d   1       4.223   3.888  -5.985  0.00  0.00    -0.001 A 
ENDROOT
TORSDOF 0
ENDMDL
