MODEL 1
REMARK minimizedAffinity 6.46479797
REMARK minimizedRMSD -1
REMARK  0 active torsions:
REMARK  status: ('A' for Active; 'I' for Inactive)
ROOT
ATOM      1  C   UNL d   1      -1.888   4.905  -0.987  0.00  0.00     0.077 C 
ATOM      2  C1  UNL d   1      -1.605   4.224   0.319  0.00  0.00    -0.074 A 
ATOM      3  C2  UNL d   1      -0.326   3.741   0.616  0.00  0.00    -0.005 A 
ATOM      4  C3  UNL d   1      -0.075   3.118   1.838  0.00  0.00     0.006 A 
ATOM      5  C4  UNL d   1      -1.099   2.972   2.775  0.00  0.00    -0.005 A 
ATOM      6  C5  UNL d   1      -2.384   3.449   2.497  0.00  0.00    -0.074 A 
ATOM      7  C6  UNL d   1      -3.493   3.309   3.497  0.00  0.00     0.077 C 
ATOM      8  C7  UNL d   1      -2.626   4.080   1.269  0.00  0.00    -0.001 A 
ENDROOT
TORSDOF 0
ENDMDL
