MODEL 1
REMARK minimizedAffinity -2.65638041
REMARK minimizedRMSD -1
REMARK  2 active torsions:
REMARK  status: ('A' for Active; 'I' for Inactive)
REMARK    1  A    between atoms: C2'_3  and  C1'_4 
REMARK    2  A    between atoms: C1'_4  and  C1_5 
ROOT
ATOM      1  C1  I4B d   1      -1.840   0.171  -1.353  0.00  0.00    -0.075 A 
ATOM      2  C2  I4B d   1      -2.612   1.183  -1.867  0.00  0.00     0.003 A 
ATOM      3  C3  I4B d   1      -3.075   1.118  -3.203  0.00  0.00     0.002 A 
ATOM      4  C4  I4B d   1      -2.702   0.055  -4.001  0.00  0.00    -0.004 A 
ATOM      5  C5  I4B d   1      -1.938  -0.981  -3.471  0.00  0.00     0.002 A 
ATOM      6  C6  I4B d   1      -1.514  -0.929  -2.135  0.00  0.00     0.003 A 
ENDROOT
BRANCH   1   7
ATOM      7  C1' I4B d   1      -1.341   0.287   0.053  0.00  0.00     0.060 C 
BRANCH   7   8
ATOM      8  C2' I4B d   1       0.158   0.069   0.036  0.00  0.00    -0.013 C 
ATOM      9  C4' I4B d   1       0.899   1.347   0.329  0.00  0.00     0.013 C 
ATOM     10  C3' I4B d   1       0.483  -0.990   1.047  0.00  0.00     0.013 C 
ENDBRANCH   7   8
ENDBRANCH   1   7
TORSDOF 2
ENDMDL
