MODEL 1
REMARK minimizedAffinity -4.0800271
REMARK minimizedRMSD -1
REMARK  2 active torsions:
REMARK  status: ('A' for Active; 'I' for Inactive)
REMARK    1  A    between atoms: C2'_3  and  C1'_4 
REMARK    2  A    between atoms: C1'_4  and  C1_5 
ROOT
ATOM      1  C1  I4B d   1      -0.476   0.037   0.422  0.00  0.00    -0.075 A 
ATOM      2  C2  I4B d   1       0.078   1.233   0.037  0.00  0.00     0.003 A 
ATOM      3  C3  I4B d   1       1.432   1.520   0.337  0.00  0.00     0.002 A 
ATOM      4  C4  I4B d   1       2.175   0.611   1.063  0.00  0.00    -0.004 A 
ATOM      5  C5  I4B d   1       1.618  -0.610   1.432  0.00  0.00     0.002 A 
ATOM      6  C6  I4B d   1       0.288  -0.904   1.099  0.00  0.00     0.003 A 
ENDROOT
BRANCH   1   7
ATOM      7  C1' I4B d   1      -1.918  -0.220   0.117  0.00  0.00     0.060 C 
BRANCH   7   8
ATOM      8  C2' I4B d   1      -2.175   0.206  -1.314  0.00  0.00    -0.013 C 
ATOM      9  C4' I4B d   1      -2.153  -0.976  -2.247  0.00  0.00     0.013 C 
ATOM     10  C3' I4B d   1      -3.501   0.905  -1.357  0.00  0.00     0.013 C 
ENDBRANCH   7   8
ENDBRANCH   1   7
TORSDOF 2
ENDMDL
