MODEL 1
REMARK minimizedAffinity -2.48381257
REMARK minimizedRMSD -1
REMARK  2 active torsions:
REMARK  status: ('A' for Active; 'I' for Inactive)
REMARK    1  A    between atoms: C2'_3  and  C1'_4 
REMARK    2  A    between atoms: C1'_4  and  C1_5 
ROOT
ATOM      1  C1  I4B d   1      -0.786   0.032  -0.273  0.00  0.00    -0.075 A 
ATOM      2  C2  I4B d   1      -0.138  -0.872   0.532  0.00  0.00     0.003 A 
ATOM      3  C3  I4B d   1       1.135  -0.564   1.069  0.00  0.00     0.002 A 
ATOM      4  C4  I4B d   1       1.741   0.631   0.738  0.00  0.00    -0.004 A 
ATOM      5  C5  I4B d   1       1.073   1.556  -0.059  0.00  0.00     0.002 A 
ATOM      6  C6  I4B d   1      -0.204   1.260  -0.558  0.00  0.00     0.003 A 
ENDROOT
BRANCH   1   7
ATOM      7  C1' I4B d   1      -2.115  -0.340  -0.850  0.00  0.00     0.060 C 
BRANCH   7   8
ATOM      8  C2' I4B d   1      -2.563   0.789  -1.755  0.00  0.00    -0.013 C 
ATOM      9  C4' I4B d   1      -2.633   0.342  -3.191  0.00  0.00     0.013 C 
ATOM     10  C3' I4B d   1      -3.900   1.268  -1.271  0.00  0.00     0.013 C 
ENDBRANCH   7   8
ENDBRANCH   1   7
TORSDOF 2
ENDMDL
