MODEL 1
REMARK minimizedAffinity 2.16130424
REMARK minimizedRMSD -1
REMARK  2 active torsions:
REMARK  status: ('A' for Active; 'I' for Inactive)
REMARK    1  A    between atoms: C2'_3  and  C1'_4 
REMARK    2  A    between atoms: C1'_4  and  C1_5 
ROOT
ATOM      1  C1  I4B d   1      -1.018   0.507  -0.703  0.00  0.00    -0.075 A 
ATOM      2  C2  I4B d   1      -0.860   0.352   0.652  0.00  0.00     0.003 A 
ATOM      3  C3  I4B d   1       0.414   0.523   1.245  0.00  0.00     0.002 A 
ATOM      4  C4  I4B d   1       1.505   0.797   0.446  0.00  0.00    -0.004 A 
ATOM      5  C5  I4B d   1       1.339   0.976  -0.924  0.00  0.00     0.002 A 
ATOM      6  C6  I4B d   1       0.068   0.843  -1.501  0.00  0.00     0.003 A 
ENDROOT
BRANCH   1   7
ATOM      7  C1' I4B d   1      -2.371   0.288  -1.300  0.00  0.00     0.060 C 
BRANCH   7   8
ATOM      8  C2' I4B d   1      -2.190   0.017  -2.780  0.00  0.00    -0.013 C 
ATOM      9  C4' I4B d   1      -2.877  -1.259  -3.190  0.00  0.00     0.013 C 
ATOM     10  C3' I4B d   1      -2.734   1.192  -3.536  0.00  0.00     0.013 C 
ENDBRANCH   7   8
ENDBRANCH   1   7
TORSDOF 2
ENDMDL
