MODEL 1
REMARK minimizedAffinity -3.52300858
REMARK minimizedRMSD -1
REMARK  2 active torsions:
REMARK  status: ('A' for Active; 'I' for Inactive)
REMARK    1  A    between atoms: C2'_3  and  C1'_4 
REMARK    2  A    between atoms: C1'_4  and  C1_5 
ROOT
ATOM      1  C1  I4B d   1       0.988  -0.462   0.741  0.00  0.00    -0.075 A 
ATOM      2  C2  I4B d   1       2.124   0.005   1.354  0.00  0.00     0.003 A 
ATOM      3  C3  I4B d   1       2.691  -0.705   2.439  0.00  0.00     0.002 A 
ATOM      4  C4  I4B d   1       2.066  -1.842   2.908  0.00  0.00    -0.004 A 
ATOM      5  C5  I4B d   1       0.928  -2.327   2.271  0.00  0.00     0.002 A 
ATOM      6  C6  I4B d   1       0.392  -1.640   1.172  0.00  0.00     0.003 A 
ENDROOT
BRANCH   1   7
ATOM      7  C1' I4B d   1       0.397   0.330  -0.382  0.00  0.00     0.060 C 
BRANCH   7   8
ATOM      8  C2' I4B d   1      -1.032  -0.134  -0.579  0.00  0.00    -0.013 C 
ATOM      9  C4' I4B d   1      -1.988   0.673   0.259  0.00  0.00     0.013 C 
ATOM     10  C3' I4B d   1      -1.360  -0.017  -2.038  0.00  0.00     0.013 C 
ENDBRANCH   7   8
ENDBRANCH   1   7
TORSDOF 2
ENDMDL
