MODEL 1
REMARK minimizedAffinity -4.75595999
REMARK minimizedRMSD -1
REMARK  2 active torsions:
REMARK  status: ('A' for Active; 'I' for Inactive)
REMARK    1  A    between atoms: C2'_3  and  C1'_4 
REMARK    2  A    between atoms: C1'_4  and  C1_5 
ROOT
ATOM      1  C1  I4B d   1      -1.357   0.091  -0.769  0.00  0.00    -0.075 A 
ATOM      2  C2  I4B d   1      -2.302   0.959  -1.255  0.00  0.00     0.003 A 
ATOM      3  C3  I4B d   1      -3.023   0.643  -2.432  0.00  0.00     0.002 A 
ATOM      4  C4  I4B d   1      -2.733  -0.521  -3.114  0.00  0.00    -0.004 A 
ATOM      5  C5  I4B d   1      -1.791  -1.411  -2.607  0.00  0.00     0.002 A 
ATOM      6  C6  I4B d   1      -1.107  -1.110  -1.421  0.00  0.00     0.003 A 
ENDROOT
BRANCH   1   7
ATOM      7  C1' I4B d   1      -0.591   0.472   0.458  0.00  0.00     0.060 C 
BRANCH   7   8
ATOM      8  C2' I4B d   1       0.531   1.400   0.039  0.00  0.00    -0.013 C 
ATOM      9  C4' I4B d   1       0.221   2.828   0.403  0.00  0.00     0.013 C 
ATOM     10  C3' I4B d   1       1.791   0.933   0.703  0.00  0.00     0.013 C 
ENDBRANCH   7   8
ENDBRANCH   1   7
TORSDOF 2
ENDMDL
