MODEL 1
REMARK minimizedAffinity -2.94685936
REMARK minimizedRMSD -1
REMARK  2 active torsions:
REMARK  status: ('A' for Active; 'I' for Inactive)
REMARK    1  A    between atoms: C2'_3  and  C1'_4 
REMARK    2  A    between atoms: C1'_4  and  C1_5 
ROOT
ATOM      1  C1  I4B d   1       0.035  -0.680   0.816  0.00  0.00    -0.075 A 
ATOM      2  C2  I4B d   1       0.778   0.433   0.513  0.00  0.00     0.003 A 
ATOM      3  C3  I4B d   1       2.120   0.537   0.954  0.00  0.00     0.002 A 
ATOM      4  C4  I4B d   1       2.658  -0.467   1.734  0.00  0.00    -0.004 A 
ATOM      5  C5  I4B d   1       1.910  -1.606   2.021  0.00  0.00     0.002 A 
ATOM      6  C6  I4B d   1       0.595  -1.719   1.548  0.00  0.00     0.003 A 
ENDROOT
BRANCH   1   7
ATOM      7  C1' I4B d   1      -1.389  -0.742   0.361  0.00  0.00     0.060 C 
BRANCH   7   8
ATOM      8  C2' I4B d   1      -1.406  -0.572  -1.144  0.00  0.00    -0.013 C 
ATOM      9  C4' I4B d   1      -1.701  -1.877  -1.837  0.00  0.00     0.013 C 
ATOM     10  C3' I4B d   1      -2.435   0.465  -1.482  0.00  0.00     0.013 C 
ENDBRANCH   7   8
ENDBRANCH   1   7
TORSDOF 2
ENDMDL
