MODEL 1
REMARK minimizedAffinity -2.865834
REMARK minimizedRMSD -1
REMARK  2 active torsions:
REMARK  status: ('A' for Active; 'I' for Inactive)
REMARK    1  A    between atoms: C2'_3  and  C1'_4 
REMARK    2  A    between atoms: C1'_4  and  C1_5 
ROOT
ATOM      1  C1  I4B d   1      -0.213   0.213   0.026  0.00  0.00    -0.075 A 
ATOM      2  C2  I4B d   1       0.335   1.327  -0.559  0.00  0.00     0.003 A 
ATOM      3  C3  I4B d   1       1.671   1.699  -0.270  0.00  0.00     0.002 A 
ATOM      4  C4  I4B d   1       2.399   0.963   0.642  0.00  0.00    -0.004 A 
ATOM      5  C5  I4B d   1       1.849  -0.179   1.216  0.00  0.00     0.002 A 
ATOM      6  C6  I4B d   1       0.539  -0.564   0.897  0.00  0.00     0.003 A 
ENDROOT
BRANCH   1   7
ATOM      7  C1' I4B d   1      -1.637  -0.133  -0.277  0.00  0.00     0.060 C 
BRANCH   7   8
ATOM      8  C2' I4B d   1      -1.906   0.221  -1.725  0.00  0.00    -0.013 C 
ATOM      9  C4' I4B d   1      -2.034  -1.016  -2.574  0.00  0.00     0.013 C 
ATOM     10  C3' I4B d   1      -3.158   1.045  -1.775  0.00  0.00     0.013 C 
ENDBRANCH   7   8
ENDBRANCH   1   7
TORSDOF 2
ENDMDL
