MODEL 1
REMARK minimizedAffinity -2.37343121
REMARK minimizedRMSD -1
REMARK  0 active torsions:
REMARK  status: ('A' for Active; 'I' for Inactive)
ROOT
ATOM      1  C   UNL d   1       1.309  -0.845  -0.187  0.00  0.00     0.020 A 
ATOM      2  C1  UNL d   1       1.877  -0.420   1.013  0.00  0.00     0.020 A 
ATOM      3  C2  UNL d   1       1.095   0.247   1.958  0.00  0.00     0.034 A 
ATOM      4  C3  UNL d   1      -0.260   0.491   1.705  0.00  0.00     0.017 A 
ATOM      5  C4  UNL d   1      -0.829   0.064   0.500  0.00  0.00     0.017 A 
ATOM      6  C5  UNL d   1      -0.041  -0.604  -0.443  0.00  0.00     0.034 A 
ATOM      7 Cl   UNL d   1      -2.493   0.329   0.116  0.00  0.00    -0.070 Cl
ATOM      8 Cl1  UNL d   1      -1.167   1.321   2.918  0.00  0.00    -0.070 Cl
ENDROOT
TORSDOF 0
ENDMDL
