MODEL 1
REMARK minimizedAffinity -0.913636684
REMARK minimizedRMSD -1
REMARK  0 active torsions:
REMARK  status: ('A' for Active; 'I' for Inactive)
ROOT
ATOM      1  C   UNL d   1      -0.601  -0.584  -1.154  0.00  0.00     0.020 A 
ATOM      2  C1  UNL d   1      -1.729   0.035  -0.618  0.00  0.00     0.020 A 
ATOM      3  C2  UNL d   1      -1.681   0.582   0.666  0.00  0.00     0.034 A 
ATOM      4  C3  UNL d   1      -0.502   0.513   1.417  0.00  0.00     0.017 A 
ATOM      5  C4  UNL d   1       0.630  -0.108   0.878  0.00  0.00     0.017 A 
ATOM      6  C5  UNL d   1       0.576  -0.655  -0.408  0.00  0.00     0.034 A 
ATOM      7 Cl   UNL d   1       2.120  -0.233   1.744  0.00  0.00    -0.070 Cl
ATOM      8 Cl1  UNL d   1      -0.514   1.211   2.998  0.00  0.00    -0.070 Cl
ENDROOT
TORSDOF 0
ENDMDL
