MODEL 1
REMARK minimizedAffinity -5.84696007
REMARK minimizedRMSD -1
REMARK  0 active torsions:
REMARK  status: ('A' for Active; 'I' for Inactive)
ROOT
ATOM      1  C   UNL d   1      -0.409   1.251   3.468  0.00  0.00     0.020 A 
ATOM      2  C1  UNL d   1       0.927   0.876   3.330  0.00  0.00     0.020 A 
ATOM      3  C2  UNL d   1       1.361   0.259   2.154  0.00  0.00     0.034 A 
ATOM      4  C3  UNL d   1       0.458   0.015   1.113  0.00  0.00     0.017 A 
ATOM      5  C4  UNL d   1      -0.882   0.392   1.252  0.00  0.00     0.017 A 
ATOM      6  C5  UNL d   1      -1.311   1.010   2.431  0.00  0.00     0.034 A 
ATOM      7 Cl   UNL d   1      -2.054   0.125   0.011  0.00  0.00    -0.070 Cl
ATOM      8 Cl1  UNL d   1       1.064  -0.752  -0.312  0.00  0.00    -0.070 Cl
ENDROOT
TORSDOF 0
ENDMDL
