MODEL 1
REMARK minimizedAffinity -2.90446472
REMARK minimizedRMSD -1
REMARK  0 active torsions:
REMARK  status: ('A' for Active; 'I' for Inactive)
ROOT
ATOM      1  C   UNL d   1      -0.298  -0.645  -0.990  0.00  0.00     0.020 A 
ATOM      2  C1  UNL d   1      -1.582  -0.237  -0.627  0.00  0.00     0.020 A 
ATOM      3  C2  UNL d   1      -1.789   0.415   0.590  0.00  0.00     0.034 A 
ATOM      4  C3  UNL d   1      -0.712   0.661   1.449  0.00  0.00     0.017 A 
ATOM      5  C4  UNL d   1       0.575   0.251   1.085  0.00  0.00     0.017 A 
ATOM      6  C5  UNL d   1       0.778  -0.401  -0.135  0.00  0.00     0.034 A 
ATOM      7 Cl   UNL d   1       1.954   0.519   2.093  0.00  0.00    -0.070 Cl
ATOM      8 Cl1  UNL d   1      -1.042   1.472   2.939  0.00  0.00    -0.070 Cl
ENDROOT
TORSDOF 0
ENDMDL
