MODEL 1
REMARK minimizedAffinity -3.43888259
REMARK minimizedRMSD -1
REMARK  0 active torsions:
REMARK  status: ('A' for Active; 'I' for Inactive)
ROOT
ATOM      1  C   UNL d   1       2.218  -0.949   0.971  0.00  0.00     0.020 A 
ATOM      2  C1  UNL d   1       1.709  -1.403  -0.245  0.00  0.00     0.020 A 
ATOM      3  C2  UNL d   1       0.495  -0.905  -0.722  0.00  0.00     0.034 A 
ATOM      4  C3  UNL d   1      -0.214   0.049   0.017  0.00  0.00     0.017 A 
ATOM      5  C4  UNL d   1       0.298   0.503   1.237  0.00  0.00     0.017 A 
ATOM      6  C5  UNL d   1       1.514   0.002   1.711  0.00  0.00     0.034 A 
ATOM      7 Cl   UNL d   1      -0.520   1.679   2.205  0.00  0.00    -0.070 Cl
ATOM      8 Cl1  UNL d   1      -1.709   0.621  -0.634  0.00  0.00    -0.070 Cl
ENDROOT
TORSDOF 0
ENDMDL
