MODEL 1
REMARK minimizedAffinity -2.00918388
REMARK minimizedRMSD -1
REMARK  0 active torsions:
REMARK  status: ('A' for Active; 'I' for Inactive)
ROOT
ATOM      1  C   UNL d   1       0.464   2.159   1.959  0.00  0.00     0.020 A 
ATOM      2  C1  UNL d   1       1.079   1.780   0.767  0.00  0.00     0.020 A 
ATOM      3  C2  UNL d   1       0.503   0.789  -0.031  0.00  0.00     0.034 A 
ATOM      4  C3  UNL d   1      -0.691   0.173   0.363  0.00  0.00     0.017 A 
ATOM      5  C4  UNL d   1      -1.307   0.554   1.560  0.00  0.00     0.017 A 
ATOM      6  C5  UNL d   1      -0.726   1.548   2.355  0.00  0.00     0.034 A 
ATOM      7 Cl   UNL d   1      -2.781  -0.160   2.113  0.00  0.00    -0.070 Cl
ATOM      8 Cl1  UNL d   1      -1.346  -1.045  -0.672  0.00  0.00    -0.070 Cl
ENDROOT
TORSDOF 0
ENDMDL
