MODEL 1
REMARK minimizedAffinity -3.97545552
REMARK minimizedRMSD -1
REMARK  0 active torsions:
REMARK  status: ('A' for Active; 'I' for Inactive)
ROOT
ATOM      1  C   UNL d   1      -0.391  -0.372  -1.195  0.00  0.00     0.020 A 
ATOM      2  C1  UNL d   1       0.283   0.845  -1.102  0.00  0.00     0.020 A 
ATOM      3  C2  UNL d   1       0.222   1.588   0.080  0.00  0.00     0.034 A 
ATOM      4  C3  UNL d   1      -0.514   1.114   1.172  0.00  0.00     0.017 A 
ATOM      5  C4  UNL d   1      -1.190  -0.108   1.076  0.00  0.00     0.017 A 
ATOM      6  C5  UNL d   1      -1.125  -0.847  -0.109  0.00  0.00     0.034 A 
ATOM      7 Cl   UNL d   1      -2.118  -0.758   2.381  0.00  0.00    -0.070 Cl
ATOM      8 Cl1  UNL d   1      -0.545   2.084   2.601  0.00  0.00    -0.070 Cl
ENDROOT
TORSDOF 0
ENDMDL
