MODEL 1
REMARK minimizedAffinity -6.06498146
REMARK minimizedRMSD -1
REMARK  0 active torsions:
REMARK  status: ('A' for Active; 'I' for Inactive)
ROOT
ATOM      1  C   UNL d   1       0.157   0.895   3.499  0.00  0.00     0.020 A 
ATOM      2  C1  UNL d   1      -0.857   1.296   2.629  0.00  0.00     0.020 A 
ATOM      3  C2  UNL d   1      -0.850   0.863   1.302  0.00  0.00     0.034 A 
ATOM      4  C3  UNL d   1       0.173   0.028   0.839  0.00  0.00     0.017 A 
ATOM      5  C4  UNL d   1       1.191  -0.374   1.712  0.00  0.00     0.017 A 
ATOM      6  C5  UNL d   1       1.179   0.062   3.041  0.00  0.00     0.034 A 
ATOM      7 Cl   UNL d   1       2.486  -1.404   1.215  0.00  0.00    -0.070 Cl
ATOM      8 Cl1  UNL d   1       0.119  -0.469  -0.815  0.00  0.00    -0.070 Cl
ENDROOT
TORSDOF 0
ENDMDL
