MODEL 1
REMARK minimizedAffinity -2.48277926
REMARK minimizedRMSD -1
REMARK  0 active torsions:
REMARK  status: ('A' for Active; 'I' for Inactive)
ROOT
ATOM      1  C   UNL d   1       0.527   1.141   1.902  0.00  0.00     0.020 A 
ATOM      2  C1  UNL d   1      -0.699   0.820   2.485  0.00  0.00     0.020 A 
ATOM      3  C2  UNL d   1      -1.658   0.118   1.751  0.00  0.00     0.034 A 
ATOM      4  C3  UNL d   1      -1.394  -0.264   0.431  0.00  0.00     0.017 A 
ATOM      5  C4  UNL d   1      -0.163   0.059  -0.153  0.00  0.00     0.017 A 
ATOM      6  C5  UNL d   1       0.794   0.761   0.587  0.00  0.00     0.034 A 
ATOM      7 Cl   UNL d   1       0.236  -0.379  -1.776  0.00  0.00    -0.070 Cl
ATOM      8 Cl1  UNL d   1      -2.626  -1.129  -0.417  0.00  0.00    -0.070 Cl
ENDROOT
TORSDOF 0
ENDMDL
