MODEL 1
REMARK minimizedAffinity 8.67146206
REMARK minimizedRMSD -1
REMARK  0 active torsions:
REMARK  status: ('A' for Active; 'I' for Inactive)
ROOT
ATOM      1  C   UNL d   1       1.925   0.759  -3.605  0.00  0.00     0.020 A 
ATOM      2  C1  UNL d   1       3.237   0.572  -4.037  0.00  0.00     0.020 A 
ATOM      3  C2  UNL d   1       4.086  -0.291  -3.340  0.00  0.00     0.034 A 
ATOM      4  C3  UNL d   1       3.623  -0.970  -2.207  0.00  0.00     0.017 A 
ATOM      5  C4  UNL d   1       2.306  -0.781  -1.773  0.00  0.00     0.017 A 
ATOM      6  C5  UNL d   1       1.460   0.084  -2.475  0.00  0.00     0.034 A 
ATOM      7 Cl   UNL d   1       1.663  -1.583  -0.384  0.00  0.00    -0.070 Cl
ATOM      8 Cl1  UNL d   1       4.727  -2.021  -1.394  0.00  0.00    -0.070 Cl
ENDROOT
TORSDOF 0
ENDMDL
