MODEL 1
REMARK minimizedAffinity 6.17206955
REMARK minimizedRMSD -1
REMARK  0 active torsions:
REMARK  status: ('A' for Active; 'I' for Inactive)
ROOT
ATOM      1  C   UNL d   1      -0.618   1.580   3.738  0.00  0.00     0.020 A 
ATOM      2  C1  UNL d   1      -0.287   1.743   2.394  0.00  0.00     0.020 A 
ATOM      3  C2  UNL d   1      -0.892   0.941   1.424  0.00  0.00     0.034 A 
ATOM      4  C3  UNL d   1      -1.830  -0.028   1.797  0.00  0.00     0.017 A 
ATOM      5  C4  UNL d   1      -2.162  -0.190   3.147  0.00  0.00     0.017 A 
ATOM      6  C5  UNL d   1      -1.553   0.615   4.114  0.00  0.00     0.034 A 
ATOM      7 Cl   UNL d   1      -3.311  -1.364   3.684  0.00  0.00    -0.070 Cl
ATOM      8 Cl1  UNL d   1      -2.539  -0.984   0.544  0.00  0.00    -0.070 Cl
ENDROOT
TORSDOF 0
ENDMDL
