MODEL 1
REMARK minimizedAffinity 6.21647406
REMARK minimizedRMSD -1
REMARK  0 active torsions:
REMARK  status: ('A' for Active; 'I' for Inactive)
ROOT
ATOM      1  C   UNL d   1       4.928  -0.013  -3.477  0.00  0.00     0.020 A 
ATOM      2  C1  UNL d   1       4.349  -1.029  -4.236  0.00  0.00     0.020 A 
ATOM      3  C2  UNL d   1       2.983  -0.993  -4.523  0.00  0.00     0.034 A 
ATOM      4  C3  UNL d   1       2.192   0.061  -4.052  0.00  0.00     0.017 A 
ATOM      5  C4  UNL d   1       2.774   1.080  -3.290  0.00  0.00     0.017 A 
ATOM      6  C5  UNL d   1       4.143   1.039  -3.005  0.00  0.00     0.034 A 
ATOM      7 Cl   UNL d   1       1.863   2.413  -2.673  0.00  0.00    -0.070 Cl
ATOM      8 Cl1  UNL d   1       0.509   0.041  -4.445  0.00  0.00    -0.070 Cl
ENDROOT
TORSDOF 0
ENDMDL
