MODEL 1
REMARK minimizedAffinity 5.96158791
REMARK minimizedRMSD -1
REMARK  0 active torsions:
REMARK  status: ('A' for Active; 'I' for Inactive)
ROOT
ATOM      1  C   UNL d   1       5.350  -1.200  -3.530  0.00  0.00     0.020 A 
ATOM      2  C1  UNL d   1       4.618  -1.929  -4.466  0.00  0.00     0.020 A 
ATOM      3  C2  UNL d   1       3.277  -1.617  -4.699  0.00  0.00     0.034 A 
ATOM      4  C3  UNL d   1       2.664  -0.573  -3.996  0.00  0.00     0.017 A 
ATOM      5  C4  UNL d   1       3.400   0.157  -3.056  0.00  0.00     0.017 A 
ATOM      6  C5  UNL d   1       4.743  -0.159  -2.826  0.00  0.00     0.034 A 
ATOM      7 Cl   UNL d   1       2.713   1.459  -2.150  0.00  0.00    -0.070 Cl
ATOM      8 Cl1  UNL d   1       1.003  -0.242  -4.336  0.00  0.00    -0.070 Cl
ENDROOT
TORSDOF 0
ENDMDL
