MODEL 1
REMARK minimizedAffinity 2.15980053
REMARK minimizedRMSD -1
REMARK  0 active torsions:
REMARK  status: ('A' for Active; 'I' for Inactive)
ROOT
ATOM      1  C2' OXE d   1      -1.055  -1.516  -3.716  0.00  0.00     0.078 C 
ATOM      2  C1' OXE d   1       0.030   0.569  -2.181  0.00  0.00     0.078 C 
ATOM      3  C1  OXE d   1       0.989  -0.362  -2.881  0.00  0.00    -0.078 A 
ATOM      4  C2  OXE d   1       0.450  -1.407  -3.592  0.00  0.00    -0.078 A 
ATOM      5  C3  OXE d   1       1.287  -2.262  -4.302  0.00  0.00     0.003 A 
ATOM      6  C4  OXE d   1       2.678  -2.160  -4.175  0.00  0.00    -0.002 A 
ATOM      7  C5  OXE d   1       3.248  -1.127  -3.423  0.00  0.00    -0.002 A 
ATOM      8  C6  OXE d   1       2.419  -0.196  -2.806  0.00  0.00     0.003 A 
ENDROOT
TORSDOF 0
ENDMDL
