MODEL 1
REMARK minimizedAffinity -6.24333525
REMARK minimizedRMSD -1
REMARK  0 active torsions:
REMARK  status: ('A' for Active; 'I' for Inactive)
ROOT
ATOM      1  C2' OXE d   1       1.634   0.246   0.949  0.00  0.00     0.078 C 
ATOM      2  C1' OXE d   1      -0.512   0.087  -0.854  0.00  0.00     0.078 C 
ATOM      3  C1  OXE d   1      -0.811  -0.093   0.613  0.00  0.00    -0.078 A 
ATOM      4  C2  OXE d   1       0.251  -0.061   1.484  0.00  0.00    -0.078 A 
ATOM      5  C3  OXE d   1       0.024  -0.167   2.853  0.00  0.00     0.003 A 
ATOM      6  C4  OXE d   1      -1.256  -0.460   3.338  0.00  0.00    -0.002 A 
ATOM      7  C5  OXE d   1      -2.346  -0.537   2.465  0.00  0.00    -0.002 A 
ATOM      8  C6  OXE d   1      -2.148  -0.314   1.107  0.00  0.00     0.003 A 
ENDROOT
TORSDOF 0
ENDMDL
