MODEL 1
REMARK minimizedAffinity -5.53610706
REMARK minimizedRMSD -1
REMARK  0 active torsions:
REMARK  status: ('A' for Active; 'I' for Inactive)
ROOT
ATOM      1  C2' OXE d   1       2.372   1.130   1.129  0.00  0.00     0.078 C 
ATOM      2  C1' OXE d   1       0.644   0.366  -0.947  0.00  0.00     0.078 C 
ATOM      3  C1  OXE d   1       0.255  -0.002   0.463  0.00  0.00    -0.078 A 
ATOM      4  C2  OXE d   1       1.130   0.335   1.468  0.00  0.00    -0.078 A 
ATOM      5  C3  OXE d   1       0.794   0.068   2.792  0.00  0.00     0.003 A 
ATOM      6  C4  OXE d   1      -0.352  -0.676   3.097  0.00  0.00    -0.002 A 
ATOM      7  C5  OXE d   1      -1.236  -1.064   2.084  0.00  0.00    -0.002 A 
ATOM      8  C6  OXE d   1      -0.970  -0.698   0.770  0.00  0.00     0.003 A 
ENDROOT
TORSDOF 0
ENDMDL
