MODEL 1
REMARK minimizedAffinity -0.347624987
REMARK minimizedRMSD -1
REMARK  0 active torsions:
REMARK  status: ('A' for Active; 'I' for Inactive)
ROOT
ATOM      1  C2' OXE d   1       1.075   0.383  -2.521  0.00  0.00     0.078 C 
ATOM      2  C1' OXE d   1       1.972   0.689   0.121  0.00  0.00     0.078 C 
ATOM      3  C1  OXE d   1       0.504   0.416  -0.097  0.00  0.00    -0.078 A 
ATOM      4  C2  OXE d   1       0.066   0.315  -1.395  0.00  0.00    -0.078 A 
ATOM      5  C3  OXE d   1      -1.268   0.010  -1.650  0.00  0.00     0.003 A 
ATOM      6  C4  OXE d   1      -2.196  -0.042  -0.603  0.00  0.00    -0.002 A 
ATOM      7  C5  OXE d   1      -1.778   0.099   0.724  0.00  0.00    -0.002 A 
ATOM      8  C6  OXE d   1      -0.427   0.285   0.997  0.00  0.00     0.003 A 
ENDROOT
TORSDOF 0
ENDMDL
