MODEL 1
REMARK minimizedAffinity 6.27978182
REMARK minimizedRMSD -1
REMARK  0 active torsions:
REMARK  status: ('A' for Active; 'I' for Inactive)
ROOT
ATOM      1  C2' OXE d   1       1.872  -1.727  -2.267  0.00  0.00     0.078 C 
ATOM      2  C1' OXE d   1       3.114  -1.067  -4.696  0.00  0.00     0.078 C 
ATOM      3  C1  OXE d   1       1.748  -1.704  -4.755  0.00  0.00    -0.078 A 
ATOM      4  C2  OXE d   1       1.169  -2.067  -3.563  0.00  0.00    -0.078 A 
ATOM      5  C3  OXE d   1      -0.114  -2.609  -3.557  0.00  0.00     0.003 A 
ATOM      6  C4  OXE d   1      -0.754  -2.929  -4.760  0.00  0.00    -0.002 A 
ATOM      7  C5  OXE d   1      -0.163  -2.604  -5.986  0.00  0.00    -0.002 A 
ATOM      8  C6  OXE d   1       1.066  -1.954  -6.000  0.00  0.00     0.003 A 
ENDROOT
TORSDOF 0
ENDMDL
