MODEL 1
REMARK minimizedAffinity -3.70203447
REMARK minimizedRMSD -1
REMARK  0 active torsions:
REMARK  status: ('A' for Active; 'I' for Inactive)
ROOT
ATOM      1  C2' OXE d   1       2.088   0.381   1.494  0.00  0.00     0.078 C 
ATOM      2  C1' OXE d   1      -0.068  -0.655   2.963  0.00  0.00     0.078 C 
ATOM      3  C1  OXE d   1      -0.287  -0.368   1.498  0.00  0.00    -0.078 A 
ATOM      4  C2  OXE d   1       0.759   0.183   0.798  0.00  0.00    -0.078 A 
ATOM      5  C3  OXE d   1       0.628   0.416  -0.567  0.00  0.00     0.003 A 
ATOM      6  C4  OXE d   1      -0.608   0.240  -1.201  0.00  0.00    -0.002 A 
ATOM      7  C5  OXE d   1      -1.699  -0.283  -0.497  0.00  0.00    -0.002 A 
ATOM      8  C6  OXE d   1      -1.543  -0.631   0.840  0.00  0.00     0.003 A 
ENDROOT
TORSDOF 0
ENDMDL
