MODEL 1
REMARK minimizedAffinity -2.85259223
REMARK minimizedRMSD -1
REMARK  0 active torsions:
REMARK  status: ('A' for Active; 'I' for Inactive)
ROOT
ATOM      1  C2' OXE d   1       2.309   0.350   1.245  0.00  0.00     0.078 C 
ATOM      2  C1' OXE d   1       0.766   0.454  -1.098  0.00  0.00     0.078 C 
ATOM      3  C1  OXE d   1       0.050   0.592   0.222  0.00  0.00    -0.078 A 
ATOM      4  C2  OXE d   1       0.807   0.493   1.365  0.00  0.00    -0.078 A 
ATOM      5  C3  OXE d   1       0.204   0.668   2.608  0.00  0.00     0.003 A 
ATOM      6  C4  OXE d   1      -1.187   0.790   2.710  0.00  0.00    -0.002 A 
ATOM      7  C5  OXE d   1      -1.980   0.853   1.560  0.00  0.00    -0.002 A 
ATOM      8  C6  OXE d   1      -1.374   0.799   0.310  0.00  0.00     0.003 A 
ENDROOT
TORSDOF 0
ENDMDL
