MODEL 1
REMARK minimizedAffinity -1.90042913
REMARK minimizedRMSD -1
REMARK  0 active torsions:
REMARK  status: ('A' for Active; 'I' for Inactive)
ROOT
ATOM      1  C2' OXE d   1       2.040   1.481   0.776  0.00  0.00     0.078 C 
ATOM      2  C1' OXE d   1       0.168   0.419  -1.026  0.00  0.00     0.078 C 
ATOM      3  C1  OXE d   1      -0.098   0.245   0.449  0.00  0.00    -0.078 A 
ATOM      4  C2  OXE d   1       0.847   0.727   1.323  0.00  0.00    -0.078 A 
ATOM      5  C3  OXE d   1       0.625   0.641   2.694  0.00  0.00     0.003 A 
ATOM      6  C4  OXE d   1      -0.476  -0.066   3.191  0.00  0.00    -0.002 A 
ATOM      7  C5  OXE d   1      -1.430  -0.599   2.318  0.00  0.00    -0.002 A 
ATOM      8  C6  OXE d   1      -1.278  -0.416   0.948  0.00  0.00     0.003 A 
ENDROOT
TORSDOF 0
ENDMDL
