MODEL 1
REMARK minimizedAffinity -0.103507169
REMARK minimizedRMSD -1
REMARK  0 active torsions:
REMARK  status: ('A' for Active; 'I' for Inactive)
ROOT
ATOM      1  C2' OXE d   1       2.068   0.387   1.054  0.00  0.00     0.078 C 
ATOM      2  C1' OXE d   1      -0.093  -0.023   2.798  0.00  0.00     0.078 C 
ATOM      3  C1  OXE d   1      -0.384   0.039   1.320  0.00  0.00    -0.078 A 
ATOM      4  C2  OXE d   1       0.673   0.287   0.477  0.00  0.00    -0.078 A 
ATOM      5  C3  OXE d   1       0.468   0.300  -0.900  0.00  0.00     0.003 A 
ATOM      6  C4  OXE d   1      -0.827   0.216  -1.425  0.00  0.00    -0.002 A 
ATOM      7  C5  OXE d   1      -1.922   0.003  -0.581  0.00  0.00    -0.002 A 
ATOM      8  C6  OXE d   1      -1.713  -0.130   0.787  0.00  0.00     0.003 A 
ENDROOT
TORSDOF 0
ENDMDL
