MODEL 1
REMARK minimizedAffinity 0.924514532
REMARK minimizedRMSD -1
REMARK  0 active torsions:
REMARK  status: ('A' for Active; 'I' for Inactive)
ROOT
ATOM      1  C2' OXE d   1      -2.243   0.524  -0.365  0.00  0.00     0.078 C 
ATOM      2  C1' OXE d   1       0.096  -0.375  -1.630  0.00  0.00     0.078 C 
ATOM      3  C1  OXE d   1       0.198   0.058  -0.189  0.00  0.00    -0.078 A 
ATOM      4  C2  OXE d   1      -0.942   0.541   0.408  0.00  0.00    -0.078 A 
ATOM      5  C3  OXE d   1      -0.916   0.903   1.752  0.00  0.00     0.003 A 
ATOM      6  C4  OXE d   1       0.294   0.926   2.456  0.00  0.00    -0.002 A 
ATOM      7  C5  OXE d   1       1.474   0.475   1.855  0.00  0.00    -0.002 A 
ATOM      8  C6  OXE d   1       1.435  -0.001   0.549  0.00  0.00     0.003 A 
ENDROOT
TORSDOF 0
ENDMDL
