MODEL 1
REMARK minimizedAffinity 0.228023961
REMARK minimizedRMSD -1
REMARK  0 active torsions:
REMARK  status: ('A' for Active; 'I' for Inactive)
ROOT
ATOM      1  C2' OXE d   1       1.391   0.618  -0.476  0.00  0.00     0.078 C 
ATOM      2  C1' OXE d   1      -1.074   0.414  -1.805  0.00  0.00     0.078 C 
ATOM      3  C1  OXE d   1       0.101  -0.336  -2.382  0.00  0.00    -0.078 A 
ATOM      4  C2  OXE d   1       1.314  -0.193  -1.752  0.00  0.00    -0.078 A 
ATOM      5  C3  OXE d   1       2.417  -0.906  -2.211  0.00  0.00     0.003 A 
ATOM      6  C4  OXE d   1       2.340  -1.645  -3.397  0.00  0.00    -0.002 A 
ATOM      7  C5  OXE d   1       1.124  -1.772  -4.077  0.00  0.00    -0.002 A 
ATOM      8  C6  OXE d   1      -0.013  -1.159  -3.560  0.00  0.00     0.003 A 
ENDROOT
TORSDOF 0
ENDMDL
