MODEL 1
REMARK minimizedAffinity -5.79928589
REMARK minimizedRMSD -1
REMARK  0 active torsions:
REMARK  status: ('A' for Active; 'I' for Inactive)
ROOT
ATOM      1  C2' OXE d   1       0.403   0.780  -1.169  0.00  0.00     0.078 C 
ATOM      2  C1' OXE d   1       2.394   1.430   0.700  0.00  0.00     0.078 C 
ATOM      3  C1  OXE d   1       1.287   0.507   1.144  0.00  0.00    -0.078 A 
ATOM      4  C2  OXE d   1       0.292   0.231   0.237  0.00  0.00    -0.078 A 
ATOM      5  C3  OXE d   1      -0.724  -0.658   0.577  0.00  0.00     0.003 A 
ATOM      6  C4  OXE d   1      -0.825  -1.153   1.883  0.00  0.00    -0.002 A 
ATOM      7  C5  OXE d   1       0.156  -0.852   2.834  0.00  0.00    -0.002 A 
ATOM      8  C6  OXE d   1       1.239  -0.060   2.469  0.00  0.00     0.003 A 
ENDROOT
TORSDOF 0
ENDMDL
