MODEL 1
REMARK minimizedAffinity -4.04942703
REMARK minimizedRMSD -1
REMARK  0 active torsions:
REMARK  status: ('A' for Active; 'I' for Inactive)
ROOT
ATOM      1  C2' OXE d   1       2.248   1.115   1.106  0.00  0.00     0.078 C 
ATOM      2  C1' OXE d   1       0.586   0.120  -0.925  0.00  0.00     0.078 C 
ATOM      3  C1  OXE d   1       0.165  -0.111   0.505  0.00  0.00    -0.078 A 
ATOM      4  C2  OXE d   1       1.008   0.338   1.493  0.00  0.00    -0.078 A 
ATOM      5  C3  OXE d   1       0.642   0.200   2.828  0.00  0.00     0.003 A 
ATOM      6  C4  OXE d   1      -0.502  -0.529   3.177  0.00  0.00    -0.002 A 
ATOM      7  C5  OXE d   1      -1.354  -1.030   2.187  0.00  0.00    -0.002 A 
ATOM      8  C6  OXE d   1      -1.058  -0.793   0.849  0.00  0.00     0.003 A 
ENDROOT
TORSDOF 0
ENDMDL
