MODEL 1
REMARK minimizedAffinity -4.7318902
REMARK minimizedRMSD -1
REMARK  0 active torsions:
REMARK  status: ('A' for Active; 'I' for Inactive)
ROOT
ATOM      1  C2' OXE d   1       2.360   1.338   1.001  0.00  0.00     0.078 C 
ATOM      2  C1' OXE d   1       0.568   0.459  -0.973  0.00  0.00     0.078 C 
ATOM      3  C1  OXE d   1       0.219   0.181   0.468  0.00  0.00    -0.078 A 
ATOM      4  C2  OXE d   1       1.124   0.574   1.424  0.00  0.00    -0.078 A 
ATOM      5  C3  OXE d   1       0.825   0.391   2.772  0.00  0.00     0.003 A 
ATOM      6  C4  OXE d   1      -0.315  -0.325   3.154  0.00  0.00    -0.002 A 
ATOM      7  C5  OXE d   1      -1.230  -0.769   2.194  0.00  0.00    -0.002 A 
ATOM      8  C6  OXE d   1      -1.000  -0.487   0.852  0.00  0.00     0.003 A 
ENDROOT
TORSDOF 0
ENDMDL
