MODEL 1
REMARK minimizedAffinity -3.71380401
REMARK minimizedRMSD -1
REMARK  0 active torsions:
REMARK  status: ('A' for Active; 'I' for Inactive)
ROOT
ATOM      1  C2' OXE d   1       1.360   0.112   1.261  0.00  0.00     0.078 C 
ATOM      2  C1' OXE d   1      -0.460  -0.160  -0.858  0.00  0.00     0.078 C 
ATOM      3  C1  OXE d   1      -1.009  -0.167   0.547  0.00  0.00    -0.078 A 
ATOM      4  C2  OXE d   1      -0.107  -0.080   1.579  0.00  0.00    -0.078 A 
ATOM      5  C3  OXE d   1      -0.564  -0.028   2.893  0.00  0.00     0.003 A 
ATOM      6  C4  OXE d   1      -1.922  -0.217   3.178  0.00  0.00    -0.002 A 
ATOM      7  C5  OXE d   1      -2.854  -0.347   2.143  0.00  0.00    -0.002 A 
ATOM      8  C6  OXE d   1      -2.420  -0.282   0.823  0.00  0.00     0.003 A 
ENDROOT
TORSDOF 0
ENDMDL
