MODEL 1
REMARK minimizedAffinity -1.16719639
REMARK minimizedRMSD -1
REMARK  0 active torsions:
REMARK  status: ('A' for Active; 'I' for Inactive)
ROOT
ATOM      1  C2' OXE d   1       0.983  -1.306  -1.338  0.00  0.00     0.078 C 
ATOM      2  C1' OXE d   1      -0.321   1.177  -1.215  0.00  0.00     0.078 C 
ATOM      3  C1  OXE d   1       0.212   0.599   0.071  0.00  0.00    -0.078 A 
ATOM      4  C2  OXE d   1       0.808  -0.638   0.009  0.00  0.00    -0.078 A 
ATOM      5  C3  OXE d   1       1.366  -1.193   1.158  0.00  0.00     0.003 A 
ATOM      6  C4  OXE d   1       1.190  -0.574   2.401  0.00  0.00    -0.002 A 
ATOM      7  C5  OXE d   1       0.552   0.668   2.492  0.00  0.00    -0.002 A 
ATOM      8  C6  OXE d   1       0.096   1.286   1.334  0.00  0.00     0.003 A 
ENDROOT
TORSDOF 0
ENDMDL
