MODEL 1
REMARK minimizedAffinity -1.2991358
REMARK minimizedRMSD -1
REMARK  0 active torsions:
REMARK  status: ('A' for Active; 'I' for Inactive)
ROOT
ATOM      1  C2' OXE d   1       0.752   0.014  -1.107  0.00  0.00     0.078 C 
ATOM      2  C1' OXE d   1       2.582   0.760   0.886  0.00  0.00     0.078 C 
ATOM      3  C1  OXE d   1       1.138   0.586   1.286  0.00  0.00    -0.078 A 
ATOM      4  C2  OXE d   1       0.241   0.266   0.295  0.00  0.00    -0.078 A 
ATOM      5  C3  OXE d   1      -1.093   0.041   0.619  0.00  0.00     0.003 A 
ATOM      6  C4  OXE d   1      -1.559   0.286   1.916  0.00  0.00    -0.002 A 
ATOM      7  C5  OXE d   1      -0.670   0.651   2.933  0.00  0.00    -0.002 A 
ATOM      8  C6  OXE d   1       0.686   0.764   2.644  0.00  0.00     0.003 A 
ENDROOT
TORSDOF 0
ENDMDL
