MODEL 1
REMARK minimizedAffinity -3.72591329
REMARK minimizedRMSD -1
REMARK  0 active torsions:
REMARK  status: ('A' for Active; 'I' for Inactive)
ROOT
ATOM      1  C2' OXE d   1       1.604  -2.070  -3.568  0.00  0.00     0.078 C 
ATOM      2  C1' OXE d   1       2.190   0.669  -3.377  0.00  0.00     0.078 C 
ATOM      3  C1  OXE d   1       1.219   0.086  -2.380  0.00  0.00    -0.078 A 
ATOM      4  C2  OXE d   1       0.903  -1.245  -2.510  0.00  0.00    -0.078 A 
ATOM      5  C3  OXE d   1       0.055  -1.846  -1.584  0.00  0.00     0.003 A 
ATOM      6  C4  OXE d   1      -0.597  -1.073  -0.615  0.00  0.00    -0.002 A 
ATOM      7  C5  OXE d   1      -0.319   0.292  -0.490  0.00  0.00    -0.002 A 
ATOM      8  C6  OXE d   1       0.617   0.877  -1.336  0.00  0.00     0.003 A 
ENDROOT
TORSDOF 0
ENDMDL
