MODEL 1
REMARK minimizedAffinity -5.29571342
REMARK minimizedRMSD -1
REMARK  1 active torsions:
REMARK  status: ('A' for Active; 'I' for Inactive)
REMARK    1  A    between atoms: C1_2  and  C2_3 
ROOT
ATOM      1  C2  UNL d   1      -0.422  -0.750  -0.422  0.00  0.00    -0.076 A 
ATOM      2  C3  UNL d   1       0.096  -0.475  -1.700  0.00  0.00     0.004 A 
ATOM      3  C4  UNL d   1       0.209  -1.481  -2.659  0.00  0.00    -0.003 A 
ATOM      4  C5  UNL d   1      -0.194  -2.777  -2.355  0.00  0.00     0.000 A 
ATOM      5  C6  UNL d   1      -0.726  -3.063  -1.098  0.00  0.00     0.000 A 
ATOM      6  C7  UNL d   1      -0.862  -2.057  -0.126  0.00  0.00    -0.073 A 
ATOM      7  C8  UNL d   1      -1.437  -2.423   1.215  0.00  0.00     0.078 C 
ENDROOT
BRANCH   1   8
ATOM      8  C1  UNL d   1      -0.496   0.375   0.586  0.00  0.00     0.053 C 
ATOM      9  C   UNL d   1       0.224   1.629   0.114  0.00  0.00     0.018 C 
ENDBRANCH   1   8
TORSDOF 1
ENDMDL
