MODEL 1
REMARK minimizedAffinity -6.20898819
REMARK minimizedRMSD -1
REMARK  1 active torsions:
REMARK  status: ('A' for Active; 'I' for Inactive)
REMARK    1  A    between atoms: C1_2  and  C2_3 
ROOT
ATOM      1  C2  UNL d   1      -0.435  -0.550  -0.591  0.00  0.00    -0.076 A 
ATOM      2  C3  UNL d   1      -1.001  -0.677   0.689  0.00  0.00     0.004 A 
ATOM      3  C4  UNL d   1      -1.187  -1.930   1.271  0.00  0.00    -0.003 A 
ATOM      4  C5  UNL d   1      -0.810  -3.077   0.581  0.00  0.00     0.000 A 
ATOM      5  C6  UNL d   1      -0.230  -2.969  -0.683  0.00  0.00     0.000 A 
ATOM      6  C7  UNL d   1      -0.020  -1.713  -1.276  0.00  0.00    -0.073 A 
ATOM      7  C8  UNL d   1       0.603  -1.655  -2.644  0.00  0.00     0.078 C 
ENDROOT
BRANCH   1   8
ATOM      8  C1  UNL d   1      -0.282   0.833  -1.182  0.00  0.00     0.053 C 
ATOM      9  C   UNL d   1      -0.059   1.899  -0.120  0.00  0.00     0.018 C 
ENDBRANCH   1   8
TORSDOF 1
ENDMDL
