MODEL 1
REMARK minimizedAffinity -4.36742926
REMARK minimizedRMSD -1
REMARK  1 active torsions:
REMARK  status: ('A' for Active; 'I' for Inactive)
REMARK    1  A    between atoms: C1_2  and  C2_3 
ROOT
ATOM      1  C2  UNL d   1       0.093   1.519   0.472  0.00  0.00    -0.076 A 
ATOM      2  C3  UNL d   1       1.260   0.790   0.182  0.00  0.00     0.004 A 
ATOM      3  C4  UNL d   1       2.515   1.395   0.230  0.00  0.00    -0.003 A 
ATOM      4  C5  UNL d   1       2.623   2.739   0.570  0.00  0.00     0.000 A 
ATOM      5  C6  UNL d   1       1.478   3.473   0.878  0.00  0.00     0.000 A 
ATOM      6  C7  UNL d   1       0.207   2.874   0.850  0.00  0.00    -0.073 A 
ATOM      7  C8  UNL d   1      -0.994   3.714   1.185  0.00  0.00     0.078 C 
ENDROOT
BRANCH   1   8
ATOM      8  C1  UNL d   1      -1.242   0.816   0.376  0.00  0.00     0.053 C 
ATOM      9  C   UNL d   1      -1.201  -0.593   0.946  0.00  0.00     0.018 C 
ENDBRANCH   1   8
TORSDOF 1
ENDMDL
