MODEL 1
REMARK minimizedAffinity -1.95243979
REMARK minimizedRMSD -1
REMARK  1 active torsions:
REMARK  status: ('A' for Active; 'I' for Inactive)
REMARK    1  A    between atoms: C1_2  and  C2_3 
ROOT
ATOM      1  C2  UNL d   1      -0.161   0.041  -0.351  0.00  0.00    -0.076 A 
ATOM      2  C3  UNL d   1      -0.527  -0.182   0.988  0.00  0.00     0.004 A 
ATOM      3  C4  UNL d   1      -0.908  -1.449   1.426  0.00  0.00    -0.003 A 
ATOM      4  C5  UNL d   1      -0.929  -2.515   0.533  0.00  0.00     0.000 A 
ATOM      5  C6  UNL d   1      -0.551  -2.315  -0.795  0.00  0.00     0.000 A 
ATOM      6  C7  UNL d   1      -0.149  -1.048  -1.249  0.00  0.00    -0.073 A 
ATOM      7  C8  UNL d   1       0.242  -0.889  -2.693  0.00  0.00     0.078 C 
ENDROOT
BRANCH   1   8
ATOM      8  C1  UNL d   1       0.217   1.442  -0.775  0.00  0.00     0.053 C 
ATOM      9  C   UNL d   1       0.822   2.251   0.362  0.00  0.00     0.018 C 
ENDBRANCH   1   8
TORSDOF 1
ENDMDL
