MODEL 1
REMARK minimizedAffinity -3.91730523
REMARK minimizedRMSD -1
REMARK  1 active torsions:
REMARK  status: ('A' for Active; 'I' for Inactive)
REMARK    1  A    between atoms: C1_2  and  C2_3 
ROOT
ATOM      1  C2  UNL d   1       0.293   1.319   0.293  0.00  0.00    -0.076 A 
ATOM      2  C3  UNL d   1       0.993   1.641   1.469  0.00  0.00     0.004 A 
ATOM      3  C4  UNL d   1       1.807   2.771   1.533  0.00  0.00    -0.003 A 
ATOM      4  C5  UNL d   1       1.934   3.597   0.422  0.00  0.00     0.000 A 
ATOM      5  C6  UNL d   1       1.233   3.303  -0.747  0.00  0.00     0.000 A 
ATOM      6  C7  UNL d   1       0.396   2.177  -0.823  0.00  0.00    -0.073 A 
ATOM      7  C8  UNL d   1      -0.332   1.904  -2.111  0.00  0.00     0.078 C 
ENDROOT
BRANCH   1   8
ATOM      8  C1  UNL d   1      -0.553   0.066   0.273  0.00  0.00     0.053 C 
ATOM      9  C   UNL d   1       0.247  -1.171  -0.104  0.00  0.00     0.018 C 
ENDBRANCH   1   8
TORSDOF 1
ENDMDL
