MODEL 1
REMARK minimizedAffinity -5.3926115
REMARK minimizedRMSD -1
REMARK  1 active torsions:
REMARK  status: ('A' for Active; 'I' for Inactive)
REMARK    1  A    between atoms: C1_2  and  C2_3 
ROOT
ATOM      1  C2  UNL d   1       0.014  -0.311   0.101  0.00  0.00    -0.076 A 
ATOM      2  C3  UNL d   1       0.714  -0.965  -0.928  0.00  0.00     0.004 A 
ATOM      3  C4  UNL d   1       0.826  -2.354  -0.950  0.00  0.00    -0.003 A 
ATOM      4  C5  UNL d   1       0.237  -3.113   0.056  0.00  0.00     0.000 A 
ATOM      5  C6  UNL d   1      -0.477  -2.482   1.075  0.00  0.00     0.000 A 
ATOM      6  C7  UNL d   1      -0.612  -1.083   1.103  0.00  0.00    -0.073 A 
ATOM      7  C8  UNL d   1      -1.388  -0.456   2.228  0.00  0.00     0.078 C 
ENDROOT
BRANCH   1   8
ATOM      8  C1  UNL d   1      -0.051   1.199   0.087  0.00  0.00     0.053 C 
ATOM      9  C   UNL d   1       1.200   1.841   0.667  0.00  0.00     0.018 C 
ENDBRANCH   1   8
TORSDOF 1
ENDMDL
