MODEL 1
REMARK minimizedAffinity -4.41366577
REMARK minimizedRMSD -1
REMARK  1 active torsions:
REMARK  status: ('A' for Active; 'I' for Inactive)
REMARK    1  A    between atoms: C1_2  and  C2_3 
ROOT
ATOM      1  C2  UNL d   1      -0.051  -1.135   0.377  0.00  0.00    -0.076 A 
ATOM      2  C3  UNL d   1       0.407  -0.817  -0.913  0.00  0.00     0.004 A 
ATOM      3  C4  UNL d   1       0.060   0.389  -1.521  0.00  0.00    -0.003 A 
ATOM      4  C5  UNL d   1      -0.749   1.297  -0.846  0.00  0.00     0.000 A 
ATOM      5  C6  UNL d   1      -1.197   1.006   0.442  0.00  0.00     0.000 A 
ATOM      6  C7  UNL d   1      -0.844  -0.198   1.074  0.00  0.00    -0.073 A 
ATOM      7  C8  UNL d   1      -1.360  -0.463   2.462  0.00  0.00     0.078 C 
ENDROOT
BRANCH   1   8
ATOM      8  C1  UNL d   1       0.335  -2.470   0.974  0.00  0.00     0.053 C 
ATOM      9  C   UNL d   1       0.393  -3.578  -0.066  0.00  0.00     0.018 C 
ENDBRANCH   1   8
TORSDOF 1
ENDMDL
