MODEL 1
REMARK minimizedAffinity 0.294425726
REMARK minimizedRMSD -1
REMARK  1 active torsions:
REMARK  status: ('A' for Active; 'I' for Inactive)
REMARK    1  A    between atoms: C1_2  and  C2_3 
ROOT
ATOM      1  C2  UNL d   1       0.734   1.495  -0.325  0.00  0.00    -0.076 A 
ATOM      2  C3  UNL d   1       0.125   1.573  -1.589  0.00  0.00     0.004 A 
ATOM      3  C4  UNL d   1      -0.106   0.426  -2.346  0.00  0.00    -0.003 A 
ATOM      4  C5  UNL d   1       0.268  -0.818  -1.851  0.00  0.00     0.000 A 
ATOM      5  C6  UNL d   1       0.858  -0.916  -0.592  0.00  0.00     0.000 A 
ATOM      6  C7  UNL d   1       1.083   0.229   0.192  0.00  0.00    -0.073 A 
ATOM      7  C8  UNL d   1       1.728   0.065   1.541  0.00  0.00     0.078 C 
ENDROOT
BRANCH   1   8
ATOM      8  C1  UNL d   1       0.984   2.776   0.440  0.00  0.00     0.053 C 
ATOM      9  C   UNL d   1       2.399   3.299   0.253  0.00  0.00     0.018 C 
ENDBRANCH   1   8
TORSDOF 1
ENDMDL
