MODEL 1
REMARK minimizedAffinity -0.593859613
REMARK minimizedRMSD -1
REMARK  1 active torsions:
REMARK  status: ('A' for Active; 'I' for Inactive)
REMARK    1  A    between atoms: C1_2  and  C2_3 
ROOT
ATOM      1  C2  UNL d   1       0.561   2.452   0.442  0.00  0.00    -0.076 A 
ATOM      2  C3  UNL d   1      -0.435   2.603   1.422  0.00  0.00     0.004 A 
ATOM      3  C4  UNL d   1      -0.192   3.331   2.586  0.00  0.00    -0.003 A 
ATOM      4  C5  UNL d   1       1.051   3.921   2.787  0.00  0.00     0.000 A 
ATOM      5  C6  UNL d   1       2.045   3.796   1.817  0.00  0.00     0.000 A 
ATOM      6  C7  UNL d   1       1.811   3.079   0.631  0.00  0.00    -0.073 A 
ATOM      7  C8  UNL d   1       2.920   2.971  -0.379  0.00  0.00     0.078 C 
ENDROOT
BRANCH   1   8
ATOM      8  C1  UNL d   1       0.248   1.628  -0.787  0.00  0.00     0.053 C 
ATOM      9  C   UNL d   1      -0.376   0.284  -0.444  0.00  0.00     0.018 C 
ENDBRANCH   1   8
TORSDOF 1
ENDMDL
