MODEL 1
REMARK minimizedAffinity -3.20371246
REMARK minimizedRMSD -1
REMARK  1 active torsions:
REMARK  status: ('A' for Active; 'I' for Inactive)
REMARK    1  A    between atoms: C1_2  and  C2_3 
ROOT
ATOM      1  C2  UNL d   1       0.200  -0.335   0.326  0.00  0.00    -0.076 A 
ATOM      2  C3  UNL d   1       1.045  -1.235  -0.346  0.00  0.00     0.004 A 
ATOM      3  C4  UNL d   1       0.897  -2.612  -0.189  0.00  0.00    -0.003 A 
ATOM      4  C5  UNL d   1      -0.100  -3.112   0.643  0.00  0.00     0.000 A 
ATOM      5  C6  UNL d   1      -0.958  -2.234   1.304  0.00  0.00     0.000 A 
ATOM      6  C7  UNL d   1      -0.833  -0.843   1.143  0.00  0.00    -0.073 A 
ATOM      7  C8  UNL d   1      -1.782   0.058   1.884  0.00  0.00     0.078 C 
ENDROOT
BRANCH   1   8
ATOM      8  C1  UNL d   1       0.425   1.148   0.138  0.00  0.00     0.053 C 
ATOM      9  C   UNL d   1       1.789   1.598   0.639  0.00  0.00     0.018 C 
ENDBRANCH   1   8
TORSDOF 1
ENDMDL
