MODEL 1
REMARK minimizedAffinity -5.01556396
REMARK minimizedRMSD -1
REMARK  1 active torsions:
REMARK  status: ('A' for Active; 'I' for Inactive)
REMARK    1  A    between atoms: C1_2  and  C2_3 
ROOT
ATOM      1  C2  UNL d   1       0.167   3.237   1.317  0.00  0.00    -0.076 A 
ATOM      2  C3  UNL d   1       1.178   4.201   1.160  0.00  0.00     0.004 A 
ATOM      3  C4  UNL d   1       2.241   3.989   0.284  0.00  0.00    -0.003 A 
ATOM      4  C5  UNL d   1       2.311   2.810  -0.449  0.00  0.00     0.000 A 
ATOM      5  C6  UNL d   1       1.308   1.850  -0.319  0.00  0.00     0.000 A 
ATOM      6  C7  UNL d   1       0.220   2.055   0.547  0.00  0.00    -0.073 A 
ATOM      7  C8  UNL d   1      -0.830   0.984   0.653  0.00  0.00     0.078 C 
ENDROOT
BRANCH   1   8
ATOM      8  C1  UNL d   1      -0.947   3.510   2.302  0.00  0.00     0.053 C 
ATOM      9  C   UNL d   1      -0.815   4.869   2.970  0.00  0.00     0.018 C 
ENDBRANCH   1   8
TORSDOF 1
ENDMDL
