MODEL 1
REMARK minimizedAffinity 0.318871468
REMARK minimizedRMSD -1
REMARK  1 active torsions:
REMARK  status: ('A' for Active; 'I' for Inactive)
REMARK    1  A    between atoms: C1_2  and  C2_3 
ROOT
ATOM      1  C2  UNL d   1      -0.769  -1.819   0.678  0.00  0.00    -0.076 A 
ATOM      2  C3  UNL d   1       0.073  -1.705  -0.442  0.00  0.00     0.004 A 
ATOM      3  C4  UNL d   1       0.436  -0.456  -0.942  0.00  0.00    -0.003 A 
ATOM      4  C5  UNL d   1      -0.037   0.700  -0.330  0.00  0.00     0.000 A 
ATOM      5  C6  UNL d   1      -0.859   0.606   0.792  0.00  0.00     0.000 A 
ATOM      6  C7  UNL d   1      -1.221  -0.646   1.319  0.00  0.00    -0.073 A 
ATOM      7  C8  UNL d   1      -2.115  -0.689   2.528  0.00  0.00     0.078 C 
ENDROOT
BRANCH   1   8
ATOM      8  C1  UNL d   1      -1.151  -3.201   1.160  0.00  0.00     0.053 C 
ATOM      9  C   UNL d   1      -2.568  -3.584   0.765  0.00  0.00     0.018 C 
ENDBRANCH   1   8
TORSDOF 1
ENDMDL
