MODEL 1
REMARK minimizedAffinity -5.5097127
REMARK minimizedRMSD -1
REMARK  1 active torsions:
REMARK  status: ('A' for Active; 'I' for Inactive)
REMARK    1  A    between atoms: C1_2  and  C2_3 
ROOT
ATOM      1  C2  UNL d   1      -0.584  -1.807  -0.359  0.00  0.00    -0.076 A 
ATOM      2  C3  UNL d   1      -0.935  -0.731   0.475  0.00  0.00     0.004 A 
ATOM      3  C4  UNL d   1      -0.773   0.587   0.052  0.00  0.00    -0.003 A 
ATOM      4  C5  UNL d   1      -0.258   0.851  -1.213  0.00  0.00     0.000 A 
ATOM      5  C6  UNL d   1       0.079  -0.205  -2.060  0.00  0.00     0.000 A 
ATOM      6  C7  UNL d   1      -0.093  -1.539  -1.654  0.00  0.00    -0.073 A 
ATOM      7  C8  UNL d   1       0.293  -2.638  -2.606  0.00  0.00     0.078 C 
ENDROOT
BRANCH   1   8
ATOM      8  C1  UNL d   1      -0.757  -3.215   0.165  0.00  0.00     0.053 C 
ATOM      9  C   UNL d   1      -2.169  -3.483   0.661  0.00  0.00     0.018 C 
ENDBRANCH   1   8
TORSDOF 1
ENDMDL
