MODEL 1
REMARK minimizedAffinity -5.42084646
REMARK minimizedRMSD -1
REMARK  1 active torsions:
REMARK  status: ('A' for Active; 'I' for Inactive)
REMARK    1  A    between atoms: C1_2  and  C2_3 
ROOT
ATOM      1  C2  UNL d   1       0.047  -1.063  -1.014  0.00  0.00    -0.076 A 
ATOM      2  C3  UNL d   1      -0.346  -1.424   0.287  0.00  0.00     0.004 A 
ATOM      3  C4  UNL d   1      -0.426  -2.762   0.667  0.00  0.00    -0.003 A 
ATOM      4  C5  UNL d   1      -0.114  -3.762  -0.247  0.00  0.00     0.000 A 
ATOM      5  C6  UNL d   1       0.295  -3.423  -1.536  0.00  0.00     0.000 A 
ATOM      6  C7  UNL d   1       0.396  -2.078  -1.931  0.00  0.00    -0.073 A 
ATOM      7  C8  UNL d   1       0.836  -1.769  -3.336  0.00  0.00     0.078 C 
ENDROOT
BRANCH   1   8
ATOM      8  C1  UNL d   1       0.089   0.404  -1.378  0.00  0.00     0.053 C 
ATOM      9  C   UNL d   1       0.078   1.308  -0.155  0.00  0.00     0.018 C 
ENDBRANCH   1   8
TORSDOF 1
ENDMDL
