MODEL 1
REMARK minimizedAffinity -1.94233966
REMARK minimizedRMSD -1
REMARK  0 active torsions:
REMARK  status: ('A' for Active; 'I' for Inactive)
ROOT
ATOM      1  C   UNL d   1      -0.248  -1.420  -0.403  0.00  0.00     0.023 A 
ATOM      2  C1  UNL d   1      -0.214  -0.398  -1.351  0.00  0.00     0.003 A 
ATOM      3  C2  UNL d   1       0.118   0.903  -0.966  0.00  0.00     0.048 A 
ATOM      4  C3  UNL d   1       0.418   1.174   0.368  0.00  0.00     0.023 A 
ATOM      5  C4  UNL d   1       0.386   0.154   1.321  0.00  0.00     0.048 A 
ATOM      6  C5  UNL d   1       0.052  -1.145   0.932  0.00  0.00     0.003 A 
ATOM      7  I   UNL d   1       0.913   3.109   0.943  0.00  0.00    -0.146 I 
ENDROOT
TORSDOF 0
ENDMDL
