MODEL 1
REMARK minimizedAffinity -1.45959294
REMARK minimizedRMSD -1
REMARK  0 active torsions:
REMARK  status: ('A' for Active; 'I' for Inactive)
ROOT
ATOM      1  C   UNL d   1      -1.210  -2.467  -0.178  0.00  0.00     0.023 A 
ATOM      2  C1  UNL d   1      -1.255  -1.777   1.033  0.00  0.00     0.003 A 
ATOM      3  C2  UNL d   1      -0.743  -0.480   1.119  0.00  0.00     0.048 A 
ATOM      4  C3  UNL d   1      -0.189   0.120  -0.011  0.00  0.00     0.023 A 
ATOM      5  C4  UNL d   1      -0.142  -0.566  -1.225  0.00  0.00     0.048 A 
ATOM      6  C5  UNL d   1      -0.655  -1.862  -1.306  0.00  0.00     0.003 A 
ATOM      7  I   UNL d   1       0.573   2.050   0.114  0.00  0.00    -0.146 I 
ENDROOT
TORSDOF 0
ENDMDL
