MODEL 1
REMARK minimizedAffinity -1.40938973
REMARK minimizedRMSD -1
REMARK  0 active torsions:
REMARK  status: ('A' for Active; 'I' for Inactive)
ROOT
ATOM      1  C   UNL d   1      -1.275  -3.137   0.320  0.00  0.00     0.023 A 
ATOM      2  C1  UNL d   1      -1.293  -2.308   1.442  0.00  0.00     0.003 A 
ATOM      3  C2  UNL d   1      -0.870  -0.982   1.338  0.00  0.00     0.048 A 
ATOM      4  C3  UNL d   1      -0.431  -0.490   0.109  0.00  0.00     0.023 A 
ATOM      5  C4  UNL d   1      -0.412  -1.315  -1.016  0.00  0.00     0.048 A 
ATOM      6  C5  UNL d   1      -0.835  -2.641  -0.908  0.00  0.00     0.003 A 
ATOM      7  I   UNL d   1       0.199   1.484  -0.048  0.00  0.00    -0.146 I 
ENDROOT
TORSDOF 0
ENDMDL
