MODEL 1
REMARK minimizedAffinity -0.724020422
REMARK minimizedRMSD -1
REMARK  0 active torsions:
REMARK  status: ('A' for Active; 'I' for Inactive)
ROOT
ATOM      1  C   UNL d   1      -1.250  -2.186   1.714  0.00  0.00     0.023 A 
ATOM      2  C1  UNL d   1      -0.756  -0.898   1.923  0.00  0.00     0.003 A 
ATOM      3  C2  UNL d   1      -0.295  -0.143   0.843  0.00  0.00     0.048 A 
ATOM      4  C3  UNL d   1      -0.332  -0.680  -0.443  0.00  0.00     0.023 A 
ATOM      5  C4  UNL d   1      -0.827  -1.968  -0.657  0.00  0.00     0.048 A 
ATOM      6  C5  UNL d   1      -1.285  -2.720   0.426  0.00  0.00     0.003 A 
ATOM      7  I   UNL d   1       0.352   0.443  -2.052  0.00  0.00    -0.146 I 
ENDROOT
TORSDOF 0
ENDMDL
