MODEL 1
REMARK minimizedAffinity -2.79751229
REMARK minimizedRMSD -1
REMARK  0 active torsions:
REMARK  status: ('A' for Active; 'I' for Inactive)
ROOT
ATOM      1  C   UNL d   1      -0.798  -3.794  -0.683  0.00  0.00     0.023 A 
ATOM      2  C1  UNL d   1       0.396  -3.302  -1.210  0.00  0.00     0.003 A 
ATOM      3  C2  UNL d   1       0.740  -1.961  -1.030  0.00  0.00     0.048 A 
ATOM      4  C3  UNL d   1      -0.114  -1.117  -0.321  0.00  0.00     0.023 A 
ATOM      5  C4  UNL d   1      -1.310  -1.605   0.210  0.00  0.00     0.048 A 
ATOM      6  C5  UNL d   1      -1.650  -2.947   0.026  0.00  0.00     0.003 A 
ATOM      7  I   UNL d   1       0.396   0.879  -0.051  0.00  0.00    -0.146 I 
ENDROOT
TORSDOF 0
ENDMDL
