MODEL 1
REMARK minimizedAffinity -4.2292695
REMARK minimizedRMSD -1
REMARK  0 active torsions:
REMARK  status: ('A' for Active; 'I' for Inactive)
ROOT
ATOM      1  C   UNL d   1      -0.270  -3.091   0.538  0.00  0.00     0.023 A 
ATOM      2  C1  UNL d   1       0.221  -2.646  -0.690  0.00  0.00     0.003 A 
ATOM      3  C2  UNL d   1       0.374  -1.279  -0.929  0.00  0.00     0.048 A 
ATOM      4  C3  UNL d   1       0.036  -0.362   0.065  0.00  0.00     0.023 A 
ATOM      5  C4  UNL d   1      -0.454  -0.802   1.296  0.00  0.00     0.048 A 
ATOM      6  C5  UNL d   1      -0.607  -2.170   1.529  0.00  0.00     0.003 A 
ATOM      7  I   UNL d   1       0.264   1.674  -0.288  0.00  0.00    -0.146 I 
ENDROOT
TORSDOF 0
ENDMDL
