MODEL 1
REMARK minimizedAffinity -4.29184437
REMARK minimizedRMSD -1
REMARK  0 active torsions:
REMARK  status: ('A' for Active; 'I' for Inactive)
ROOT
ATOM      1  C   UNL d   1      -0.921  -0.974   0.760  0.00  0.00     0.023 A 
ATOM      2  C1  UNL d   1       0.397  -0.998   1.215  0.00  0.00     0.003 A 
ATOM      3  C2  UNL d   1       1.202   0.137   1.088  0.00  0.00     0.048 A 
ATOM      4  C3  UNL d   1       0.681   1.291   0.505  0.00  0.00     0.023 A 
ATOM      5  C4  UNL d   1      -0.637   1.320   0.048  0.00  0.00     0.048 A 
ATOM      6  C5  UNL d   1      -1.438   0.183   0.177  0.00  0.00     0.003 A 
ATOM      7  I   UNL d   1       1.877   2.981   0.314  0.00  0.00    -0.146 I 
ENDROOT
TORSDOF 0
ENDMDL
