MODEL 1
REMARK minimizedAffinity -3.71208215
REMARK minimizedRMSD -1
REMARK  0 active torsions:
REMARK  status: ('A' for Active; 'I' for Inactive)
ROOT
ATOM      1  C   UNL d   1      -0.633  -0.768   0.203  0.00  0.00     0.023 A 
ATOM      2  C1  UNL d   1       0.252  -0.678   1.277  0.00  0.00     0.003 A 
ATOM      3  C2  UNL d   1       1.083   0.437   1.407  0.00  0.00     0.048 A 
ATOM      4  C3  UNL d   1       1.022   1.458   0.460  0.00  0.00     0.023 A 
ATOM      5  C4  UNL d   1       0.138   1.373  -0.616  0.00  0.00     0.048 A 
ATOM      6  C5  UNL d   1      -0.690   0.256  -0.743  0.00  0.00     0.003 A 
ATOM      7  I   UNL d   1       2.258   3.119   0.651  0.00  0.00    -0.146 I 
ENDROOT
TORSDOF 0
ENDMDL
