MODEL 1
REMARK minimizedAffinity -1.71801782
REMARK minimizedRMSD -1
REMARK  0 active torsions:
REMARK  status: ('A' for Active; 'I' for Inactive)
ROOT
ATOM      1  C   UNL d   1      -0.522  -1.237   0.354  0.00  0.00     0.023 A 
ATOM      2  C1  UNL d   1      -0.620  -0.653   1.618  0.00  0.00     0.003 A 
ATOM      3  C2  UNL d   1      -0.406   0.718   1.773  0.00  0.00     0.048 A 
ATOM      4  C3  UNL d   1      -0.095   1.500   0.661  0.00  0.00     0.023 A 
ATOM      5  C4  UNL d   1       0.003   0.921  -0.605  0.00  0.00     0.048 A 
ATOM      6  C5  UNL d   1      -0.211  -0.451  -0.755  0.00  0.00     0.003 A 
ATOM      7  I   UNL d   1       0.224   3.541   0.891  0.00  0.00    -0.146 I 
ENDROOT
TORSDOF 0
ENDMDL
