MODEL 1
REMARK minimizedAffinity -1.46941817
REMARK minimizedRMSD -1
REMARK  0 active torsions:
REMARK  status: ('A' for Active; 'I' for Inactive)
ROOT
ATOM      1  C   UNL d   1      -0.060   1.303  -0.839  0.00  0.00     0.023 A 
ATOM      2  C1  UNL d   1      -0.460   0.918   0.441  0.00  0.00     0.003 A 
ATOM      3  C2  UNL d   1      -0.795  -0.413   0.699  0.00  0.00     0.048 A 
ATOM      4  C3  UNL d   1      -0.726  -1.354  -0.328  0.00  0.00     0.023 A 
ATOM      5  C4  UNL d   1      -0.326  -0.974  -1.610  0.00  0.00     0.048 A 
ATOM      6  C5  UNL d   1       0.007   0.358  -1.863  0.00  0.00     0.003 A 
ATOM      7  I   UNL d   1      -1.224  -3.336   0.054  0.00  0.00    -0.146 I 
ENDROOT
TORSDOF 0
ENDMDL
