MODEL 1
REMARK minimizedAffinity -1.44512415
REMARK minimizedRMSD -1
REMARK  0 active torsions:
REMARK  status: ('A' for Active; 'I' for Inactive)
ROOT
ATOM      1  C   UNL d   1      -0.663  -3.026  -0.033  0.00  0.00     0.023 A 
ATOM      2  C1  UNL d   1      -0.003  -2.494  -1.141  0.00  0.00     0.003 A 
ATOM      3  C2  UNL d   1       0.313  -1.135  -1.180  0.00  0.00     0.048 A 
ATOM      4  C3  UNL d   1      -0.032  -0.313  -0.108  0.00  0.00     0.023 A 
ATOM      5  C4  UNL d   1      -0.692  -0.841   1.003  0.00  0.00     0.048 A 
ATOM      6  C5  UNL d   1      -1.007  -2.200   1.038  0.00  0.00     0.003 A 
ATOM      7  I   UNL d   1       0.438   1.711  -0.165  0.00  0.00    -0.146 I 
ENDROOT
TORSDOF 0
ENDMDL
