MODEL 1
REMARK minimizedAffinity -2.60883498
REMARK minimizedRMSD -1
REMARK  0 active torsions:
REMARK  status: ('A' for Active; 'I' for Inactive)
ROOT
ATOM      1  C   UNL d   1      -0.819  -0.744   0.778  0.00  0.00     0.023 A 
ATOM      2  C1  UNL d   1      -1.117   0.304  -0.093  0.00  0.00     0.003 A 
ATOM      3  C2  UNL d   1      -0.227   1.370  -0.234  0.00  0.00     0.048 A 
ATOM      4  C3  UNL d   1       0.960   1.382   0.497  0.00  0.00     0.023 A 
ATOM      5  C4  UNL d   1       1.263   0.335   1.369  0.00  0.00     0.048 A 
ATOM      6  C5  UNL d   1       0.370  -0.729   1.508  0.00  0.00     0.003 A 
ATOM      7  I   UNL d   1       2.287   2.968   0.287  0.00  0.00    -0.146 I 
ENDROOT
TORSDOF 0
ENDMDL
