MODEL 1
REMARK minimizedAffinity -2.33726716
REMARK minimizedRMSD -1
REMARK  0 active torsions:
REMARK  status: ('A' for Active; 'I' for Inactive)
ROOT
ATOM      1  C   UNL d   1      -0.834  -2.346  -0.950  0.00  0.00     0.023 A 
ATOM      2  C1  UNL d   1      -0.224  -1.530  -1.903  0.00  0.00     0.003 A 
ATOM      3  C2  UNL d   1       0.202  -0.247  -1.556  0.00  0.00     0.048 A 
ATOM      4  C3  UNL d   1       0.016   0.214  -0.253  0.00  0.00     0.023 A 
ATOM      5  C4  UNL d   1      -0.593  -0.598   0.705  0.00  0.00     0.048 A 
ATOM      6  C5  UNL d   1      -1.018  -1.881   0.352  0.00  0.00     0.003 A 
ATOM      7  I   UNL d   1       0.651   2.124   0.267  0.00  0.00    -0.146 I 
ENDROOT
TORSDOF 0
ENDMDL
