MODEL 1
REMARK minimizedAffinity -3.61359
REMARK minimizedRMSD -1
REMARK  0 active torsions:
REMARK  status: ('A' for Active; 'I' for Inactive)
ROOT
ATOM      1  C   UNL d   1      -0.514  -3.117  -0.107  0.00  0.00     0.023 A 
ATOM      2  C1  UNL d   1      -0.879  -2.336   0.990  0.00  0.00     0.003 A 
ATOM      3  C2  UNL d   1      -0.757  -0.946   0.932  0.00  0.00     0.048 A 
ATOM      4  C3  UNL d   1      -0.269  -0.344  -0.227  0.00  0.00     0.023 A 
ATOM      5  C4  UNL d   1       0.097  -1.121  -1.328  0.00  0.00     0.048 A 
ATOM      6  C5  UNL d   1      -0.027  -2.510  -1.264  0.00  0.00     0.003 A 
ATOM      7  I   UNL d   1      -0.086   1.725  -0.317  0.00  0.00    -0.146 I 
ENDROOT
TORSDOF 0
ENDMDL
