MODEL 1
REMARK minimizedAffinity -1.68526471
REMARK minimizedRMSD -1
REMARK  0 active torsions:
REMARK  status: ('A' for Active; 'I' for Inactive)
ROOT
ATOM      1  C   UNL d   1      -0.721  -1.281   0.415  0.00  0.00     0.023 A 
ATOM      2  C1  UNL d   1      -0.257  -0.803   1.641  0.00  0.00     0.003 A 
ATOM      3  C2  UNL d   1       0.300   0.474   1.729  0.00  0.00     0.048 A 
ATOM      4  C3  UNL d   1       0.389   1.269   0.587  0.00  0.00     0.023 A 
ATOM      5  C4  UNL d   1      -0.075   0.796  -0.642  0.00  0.00     0.048 A 
ATOM      6  C5  UNL d   1      -0.630  -0.482  -0.725  0.00  0.00     0.003 A 
ATOM      7  I   UNL d   1       1.218   3.171   0.715  0.00  0.00    -0.146 I 
ENDROOT
TORSDOF 0
ENDMDL
