MODEL 1
REMARK minimizedAffinity 5.49981546
REMARK minimizedRMSD -1
REMARK  1 active torsions:
REMARK  status: ('A' for Active; 'I' for Inactive)
REMARK    1  A    between atoms: C1_2  and  C2_3 
ROOT
ATOM      1  C2  UNL d   1       2.221  -0.724   0.725  0.00  0.00    -0.081 A 
ATOM      2  C3  UNL d   1       2.371   0.657   0.549  0.00  0.00     0.006 A 
ATOM      3  C4  UNL d   1       2.348   1.215  -0.732  0.00  0.00     0.002 A 
ATOM      4  C5  UNL d   1       2.168   0.402  -1.856  0.00  0.00    -0.080 A 
ATOM      5  C6  UNL d   1       2.112   0.991  -3.234  0.00  0.00     0.076 C 
ATOM      6  C7  UNL d   1       2.036  -0.980  -1.682  0.00  0.00     0.002 A 
ATOM      7  C8  UNL d   1       2.059  -1.537  -0.402  0.00  0.00     0.006 A 
ENDROOT
BRANCH   1   8
ATOM      8  C1  UNL d   1       2.180  -1.320   2.109  0.00  0.00     0.054 C 
ATOM      9  C   UNL d   1       0.944  -0.864   2.871  0.00  0.00     0.018 C 
ENDBRANCH   1   8
TORSDOF 1
ENDMDL
