MODEL 1
REMARK minimizedAffinity -1.94567192
REMARK minimizedRMSD -1
REMARK  1 active torsions:
REMARK  status: ('A' for Active; 'I' for Inactive)
REMARK    1  A    between atoms: C1_2  and  C2_3 
ROOT
ATOM      1  C2  UNL d   1      -2.644   0.878  -4.431  0.00  0.00    -0.081 A 
ATOM      2  C3  UNL d   1      -3.111  -0.437  -4.549  0.00  0.00     0.006 A 
ATOM      3  C4  UNL d   1      -2.955  -1.341  -3.496  0.00  0.00     0.002 A 
ATOM      4  C5  UNL d   1      -2.338  -0.944  -2.305  0.00  0.00    -0.080 A 
ATOM      5  C6  UNL d   1      -2.191  -1.897  -1.156  0.00  0.00     0.076 C 
ATOM      6  C7  UNL d   1      -1.856   0.364  -2.193  0.00  0.00     0.002 A 
ATOM      7  C8  UNL d   1      -2.011   1.269  -3.246  0.00  0.00     0.006 A 
ENDROOT
BRANCH   1   8
ATOM      8  C1  UNL d   1      -2.869   1.874  -5.540  0.00  0.00     0.054 C 
ATOM      9  C   UNL d   1      -3.833   2.971  -5.112  0.00  0.00     0.018 C 
ENDBRANCH   1   8
TORSDOF 1
ENDMDL
