MODEL 1
REMARK minimizedAffinity 7.61197567
REMARK minimizedRMSD -1
REMARK  1 active torsions:
REMARK  status: ('A' for Active; 'I' for Inactive)
REMARK    1  A    between atoms: C1_2  and  C2_3 
ROOT
ATOM      1  C2  UNL d   1       0.593   1.628  -1.731  0.00  0.00    -0.081 A 
ATOM      2  C3  UNL d   1       0.165   0.297  -1.817  0.00  0.00     0.006 A 
ATOM      3  C4  UNL d   1       0.926  -0.729  -1.253  0.00  0.00     0.002 A 
ATOM      4  C5  UNL d   1       2.122  -0.442  -0.587  0.00  0.00    -0.080 A 
ATOM      5  C6  UNL d   1       2.934  -1.532   0.049  0.00  0.00     0.076 C 
ATOM      6  C7  UNL d   1       2.559   0.885  -0.516  0.00  0.00     0.002 A 
ATOM      7  C8  UNL d   1       1.799   1.912  -1.080  0.00  0.00     0.006 A 
ENDROOT
BRANCH   1   8
ATOM      8  C1  UNL d   1      -0.258   2.744  -2.282  0.00  0.00     0.054 C 
ATOM      9  C   UNL d   1      -1.720   2.332  -2.371  0.00  0.00     0.018 C 
ENDBRANCH   1   8
TORSDOF 1
ENDMDL
