MODEL 1
REMARK minimizedAffinity 3.61949968
REMARK minimizedRMSD -1
REMARK  1 active torsions:
REMARK  status: ('A' for Active; 'I' for Inactive)
REMARK    1  A    between atoms: C1_2  and  C2_3 
ROOT
ATOM      1  C2  UNL d   1       1.525  -1.396   0.365  0.00  0.00    -0.081 A 
ATOM      2  C3  UNL d   1       2.816  -1.549  -0.155  0.00  0.00     0.006 A 
ATOM      3  C4  UNL d   1       3.189  -0.895  -1.331  0.00  0.00     0.002 A 
ATOM      4  C5  UNL d   1       2.280  -0.070  -2.003  0.00  0.00    -0.080 A 
ATOM      5  C6  UNL d   1       2.677   0.663  -3.250  0.00  0.00     0.076 C 
ATOM      6  C7  UNL d   1       0.984   0.069  -1.493  0.00  0.00     0.002 A 
ATOM      7  C8  UNL d   1       0.611  -0.586  -0.318  0.00  0.00     0.006 A 
ENDROOT
BRANCH   1   8
ATOM      8  C1  UNL d   1       1.140  -2.049   1.668  0.00  0.00     0.054 C 
ATOM      9  C   UNL d   1       0.491  -1.052   2.616  0.00  0.00     0.018 C 
ENDBRANCH   1   8
TORSDOF 1
ENDMDL
