MODEL 1
REMARK minimizedAffinity 5.49193859
REMARK minimizedRMSD -1
REMARK  1 active torsions:
REMARK  status: ('A' for Active; 'I' for Inactive)
REMARK    1  A    between atoms: C1_2  and  C2_3 
ROOT
ATOM      1  C2  UNL d   1      -1.067  -1.786   1.324  0.00  0.00    -0.081 A 
ATOM      2  C3  UNL d   1      -0.238  -0.659   1.260  0.00  0.00     0.006 A 
ATOM      3  C4  UNL d   1       0.802  -0.492   2.177  0.00  0.00     0.002 A 
ATOM      4  C5  UNL d   1       1.035  -1.451   3.168  0.00  0.00    -0.080 A 
ATOM      5  C6  UNL d   1       2.167  -1.299   4.141  0.00  0.00     0.076 C 
ATOM      6  C7  UNL d   1       0.196  -2.568   3.244  0.00  0.00     0.002 A 
ATOM      7  C8  UNL d   1      -0.844  -2.736   2.327  0.00  0.00     0.006 A 
ENDROOT
BRANCH   1   8
ATOM      8  C1  UNL d   1      -2.148  -2.002   0.296  0.00  0.00     0.054 C 
ATOM      9  C   UNL d   1      -1.791  -1.344  -1.029  0.00  0.00     0.018 C 
ENDBRANCH   1   8
TORSDOF 1
ENDMDL
