MODEL 1
REMARK minimizedAffinity 9.59305954
REMARK minimizedRMSD -1
REMARK  1 active torsions:
REMARK  status: ('A' for Active; 'I' for Inactive)
REMARK    1  A    between atoms: C1_2  and  C2_3 
ROOT
ATOM      1  C2  UNL d   1       1.043  -1.569   2.179  0.00  0.00    -0.081 A 
ATOM      2  C3  UNL d   1       1.889  -2.684   2.226  0.00  0.00     0.006 A 
ATOM      3  C4  UNL d   1       2.755  -2.960   1.166  0.00  0.00     0.002 A 
ATOM      4  C5  UNL d   1       2.796  -2.124   0.046  0.00  0.00    -0.080 A 
ATOM      5  C6  UNL d   1       3.744  -2.393  -1.085  0.00  0.00     0.076 C 
ATOM      6  C7  UNL d   1       1.939  -1.019  -0.009  0.00  0.00     0.002 A 
ATOM      7  C8  UNL d   1       1.072  -0.742   1.050  0.00  0.00     0.006 A 
ENDROOT
BRANCH   1   8
ATOM      8  C1  UNL d   1       0.154  -1.231   3.349  0.00  0.00     0.054 C 
ATOM      9  C   UNL d   1      -0.069   0.271   3.459  0.00  0.00     0.018 C 
ENDBRANCH   1   8
TORSDOF 1
ENDMDL
