MODEL 1
REMARK minimizedAffinity 3.93949413
REMARK minimizedRMSD -1
REMARK  1 active torsions:
REMARK  status: ('A' for Active; 'I' for Inactive)
REMARK    1  A    between atoms: C1_2  and  C2_3 
ROOT
ATOM      1  C2  UNL d   1      -0.716   4.217  -0.747  0.00  0.00    -0.077 A 
ATOM      2  C3  UNL d   1      -1.930   4.793  -1.147  0.00  0.00     0.002 A 
ATOM      3  C4  UNL d   1      -2.024   5.469  -2.365  0.00  0.00     0.002 A 
ATOM      4  C5  UNL d   1      -0.910   5.573  -3.194  0.00  0.00    -0.004 A 
ATOM      5  C6  UNL d   1       0.303   5.006  -2.804  0.00  0.00     0.002 A 
ATOM      6  C7  UNL d   1       0.399   4.330  -1.587  0.00  0.00     0.002 A 
ENDROOT
BRANCH   1   7
ATOM      7  C1  UNL d   1      -0.625   3.445   0.543  0.00  0.00     0.055 C 
ATOM      8  C   UNL d   1      -0.328   1.974   0.288  0.00  0.00     0.019 C 
ENDBRANCH   1   7
TORSDOF 1
ENDMDL
