MODEL 1
REMARK minimizedAffinity 5.50304747
REMARK minimizedRMSD -1
REMARK  1 active torsions:
REMARK  status: ('A' for Active; 'I' for Inactive)
REMARK    1  A    between atoms: C1_2  and  C2_3 
ROOT
ATOM      1  C2  UNL d   1      -0.153   3.418  -0.074  0.00  0.00    -0.077 A 
ATOM      2  C3  UNL d   1      -1.255   4.230   0.231  0.00  0.00     0.002 A 
ATOM      3  C4  UNL d   1      -1.745   5.137  -0.711  0.00  0.00     0.002 A 
ATOM      4  C5  UNL d   1      -1.144   5.238  -1.963  0.00  0.00    -0.004 A 
ATOM      5  C6  UNL d   1      -0.046   4.436  -2.275  0.00  0.00     0.002 A 
ATOM      6  C7  UNL d   1       0.446   3.530  -1.335  0.00  0.00     0.002 A 
ENDROOT
BRANCH   1   7
ATOM      7  C1  UNL d   1       0.347   2.405   0.922  0.00  0.00     0.055 C 
ATOM      8  C   UNL d   1      -0.535   2.365   2.161  0.00  0.00     0.019 C 
ENDBRANCH   1   7
TORSDOF 1
ENDMDL
