MODEL 1
REMARK minimizedAffinity 7.7016058
REMARK minimizedRMSD -1
REMARK  1 active torsions:
REMARK  status: ('A' for Active; 'I' for Inactive)
REMARK    1  A    between atoms: C1_2  and  C2_3 
ROOT
ATOM      1  C2  UNL d   1       3.723  -2.713  -0.268  0.00  0.00    -0.077 A 
ATOM      2  C3  UNL d   1       4.836  -2.169  -0.925  0.00  0.00     0.002 A 
ATOM      3  C4  UNL d   1       5.870  -2.997  -1.365  0.00  0.00     0.002 A 
ATOM      4  C5  UNL d   1       5.801  -4.373  -1.157  0.00  0.00    -0.004 A 
ATOM      5  C6  UNL d   1       4.699  -4.923  -0.503  0.00  0.00     0.002 A 
ATOM      6  C7  UNL d   1       3.664  -4.097  -0.061  0.00  0.00     0.002 A 
ENDROOT
BRANCH   1   7
ATOM      7  C1  UNL d   1       2.583  -1.828   0.164  0.00  0.00     0.055 C 
ATOM      8  C   UNL d   1       1.347  -2.059  -0.693  0.00  0.00     0.019 C 
ENDBRANCH   1   7
TORSDOF 1
ENDMDL
