MODEL 1
REMARK minimizedAffinity 0.0669492409
REMARK minimizedRMSD -1
REMARK  1 active torsions:
REMARK  status: ('A' for Active; 'I' for Inactive)
REMARK    1  A    between atoms: C1_2  and  C2_3 
ROOT
ATOM      1  C2  UNL d   1       0.970   3.408   1.621  0.00  0.00    -0.077 A 
ATOM      2  C3  UNL d   1       2.139   3.397   2.395  0.00  0.00     0.002 A 
ATOM      3  C4  UNL d   1       2.243   2.559   3.506  0.00  0.00     0.002 A 
ATOM      4  C5  UNL d   1       1.183   1.723   3.852  0.00  0.00    -0.004 A 
ATOM      5  C6  UNL d   1       0.016   1.728   3.090  0.00  0.00     0.002 A 
ATOM      6  C7  UNL d   1      -0.090   2.565   1.979  0.00  0.00     0.002 A 
ENDROOT
BRANCH   1   7
ATOM      7  C1  UNL d   1       0.875   4.275   0.393  0.00  0.00     0.055 C 
ATOM      8  C   UNL d   1      -0.003   3.633  -0.671  0.00  0.00     0.019 C 
ENDBRANCH   1   7
TORSDOF 1
ENDMDL
