MODEL 1
REMARK minimizedAffinity 3.80799389
REMARK minimizedRMSD -1
REMARK  1 active torsions:
REMARK  status: ('A' for Active; 'I' for Inactive)
REMARK    1  A    between atoms: C1_2  and  C2_3 
ROOT
ATOM      1  C2  UNL d   1      -5.944   1.608  -4.565  0.00  0.00    -0.077 A 
ATOM      2  C3  UNL d   1      -5.987   0.879  -3.368  0.00  0.00     0.002 A 
ATOM      3  C4  UNL d   1      -5.996   1.541  -2.138  0.00  0.00     0.002 A 
ATOM      4  C5  UNL d   1      -5.967   2.933  -2.094  0.00  0.00    -0.004 A 
ATOM      5  C6  UNL d   1      -5.923   3.667  -3.279  0.00  0.00     0.002 A 
ATOM      6  C7  UNL d   1      -5.912   3.007  -4.509  0.00  0.00     0.002 A 
ENDROOT
BRANCH   1   7
ATOM      7  C1  UNL d   1      -5.983   0.898  -5.893  0.00  0.00     0.055 C 
ATOM      8  C   UNL d   1      -4.943  -0.211  -5.959  0.00  0.00     0.019 C 
ENDBRANCH   1   7
TORSDOF 1
ENDMDL
