MODEL 1
REMARK minimizedAffinity 5.61717606
REMARK minimizedRMSD -1
REMARK  1 active torsions:
REMARK  status: ('A' for Active; 'I' for Inactive)
REMARK    1  A    between atoms: C1_2  and  C2_3 
ROOT
ATOM      1  C2  UNL d   1      -5.831   1.520  -4.498  0.00  0.00    -0.077 A 
ATOM      2  C3  UNL d   1      -5.919   0.908  -3.240  0.00  0.00     0.002 A 
ATOM      3  C4  UNL d   1      -6.000   1.683  -2.082  0.00  0.00     0.002 A 
ATOM      4  C5  UNL d   1      -5.997   3.074  -2.170  0.00  0.00    -0.004 A 
ATOM      5  C6  UNL d   1      -5.908   3.692  -3.417  0.00  0.00     0.002 A 
ATOM      6  C7  UNL d   1      -5.826   2.919  -4.576  0.00  0.00     0.002 A 
ENDROOT
BRANCH   1   7
ATOM      7  C1  UNL d   1      -5.794   0.686  -5.752  0.00  0.00     0.055 C 
ATOM      8  C   UNL d   1      -4.403   0.119  -5.998  0.00  0.00     0.019 C 
ENDBRANCH   1   7
TORSDOF 1
ENDMDL
