MODEL 1
REMARK minimizedAffinity -2.76607323
REMARK minimizedRMSD -1
REMARK  1 active torsions:
REMARK  status: ('A' for Active; 'I' for Inactive)
REMARK    1  A    between atoms: C1_2  and  C2_3 
ROOT
ATOM      1  C2  UNL d   1      -0.607   2.067  -0.996  0.00  0.00    -0.077 A 
ATOM      2  C3  UNL d   1      -0.497   2.982  -2.053  0.00  0.00     0.002 A 
ATOM      3  C4  UNL d   1       0.088   4.233  -1.846  0.00  0.00     0.002 A 
ATOM      4  C5  UNL d   1       0.571   4.578  -0.586  0.00  0.00    -0.004 A 
ATOM      5  C6  UNL d   1       0.465   3.676   0.472  0.00  0.00     0.002 A 
ATOM      6  C7  UNL d   1      -0.121   2.426   0.267  0.00  0.00     0.002 A 
ENDROOT
BRANCH   1   7
ATOM      7  C1  UNL d   1      -1.193   0.699  -1.229  0.00  0.00     0.055 C 
ATOM      8  C   UNL d   1      -0.214  -0.397  -0.832  0.00  0.00     0.019 C 
ENDBRANCH   1   7
TORSDOF 1
ENDMDL
