MODEL 1
REMARK minimizedAffinity -5.03148699
REMARK minimizedRMSD -1
REMARK  1 active torsions:
REMARK  status: ('A' for Active; 'I' for Inactive)
REMARK    1  A    between atoms: C1_2  and  C2_3 
ROOT
ATOM      1  C2  UNL d   1      -0.228   0.274   0.397  0.00  0.00    -0.077 A 
ATOM      2  C3  UNL d   1       0.878   0.602   1.195  0.00  0.00     0.002 A 
ATOM      3  C4  UNL d   1       0.698   1.013   2.517  0.00  0.00     0.002 A 
ATOM      4  C5  UNL d   1      -0.585   1.096   3.054  0.00  0.00    -0.004 A 
ATOM      5  C6  UNL d   1      -1.691   0.774   2.268  0.00  0.00     0.002 A 
ATOM      6  C7  UNL d   1      -1.513   0.364   0.946  0.00  0.00     0.002 A 
ENDROOT
BRANCH   1   7
ATOM      7  C1  UNL d   1      -0.033  -0.217  -1.013  0.00  0.00     0.055 C 
ATOM      8  C   UNL d   1       1.056  -1.278  -1.085  0.00  0.00     0.019 C 
ENDBRANCH   1   7
TORSDOF 1
ENDMDL
