MODEL 1
REMARK minimizedAffinity -5.12568951
REMARK minimizedRMSD -1
REMARK  1 active torsions:
REMARK  status: ('A' for Active; 'I' for Inactive)
REMARK    1  A    between atoms: C1_2  and  C2_3 
ROOT
ATOM      1  C2  UNL d   1      -0.510   0.138   0.704  0.00  0.00    -0.077 A 
ATOM      2  C3  UNL d   1      -1.324   0.639   1.729  0.00  0.00     0.002 A 
ATOM      3  C4  UNL d   1      -0.757   1.289   2.827  0.00  0.00     0.002 A 
ATOM      4  C5  UNL d   1       0.624   1.447   2.909  0.00  0.00    -0.004 A 
ATOM      5  C6  UNL d   1       1.443   0.950   1.895  0.00  0.00     0.002 A 
ATOM      6  C7  UNL d   1       0.878   0.299   0.797  0.00  0.00     0.002 A 
ENDROOT
BRANCH   1   7
ATOM      7  C1  UNL d   1      -1.122  -0.520  -0.505  0.00  0.00     0.055 C 
ATOM      8  C   UNL d   1      -2.641  -0.539  -0.415  0.00  0.00     0.019 C 
ENDBRANCH   1   7
TORSDOF 1
ENDMDL
