MODEL 1
REMARK minimizedAffinity -3.98052168
REMARK minimizedRMSD -1
REMARK  1 active torsions:
REMARK  status: ('A' for Active; 'I' for Inactive)
REMARK    1  A    between atoms: C1_2  and  C2_3 
ROOT
ATOM      1  C2  UNL d   1      -0.020  -0.279   0.018  0.00  0.00    -0.077 A 
ATOM      2  C3  UNL d   1       0.529   0.175   1.225  0.00  0.00     0.002 A 
ATOM      3  C4  UNL d   1      -0.287   0.753   2.199  0.00  0.00     0.002 A 
ATOM      4  C5  UNL d   1      -1.657   0.877   1.978  0.00  0.00    -0.004 A 
ATOM      5  C6  UNL d   1      -2.212   0.430   0.780  0.00  0.00     0.002 A 
ATOM      6  C7  UNL d   1      -1.398  -0.146  -0.195  0.00  0.00     0.002 A 
ENDROOT
BRANCH   1   7
ATOM      7  C1  UNL d   1       0.851  -0.947  -1.014  0.00  0.00     0.055 C 
ATOM      8  C   UNL d   1       0.371  -0.643  -2.425  0.00  0.00     0.019 C 
ENDBRANCH   1   7
TORSDOF 1
ENDMDL
