MODEL 1
REMARK minimizedAffinity -3.50873518
REMARK minimizedRMSD -1
REMARK  1 active torsions:
REMARK  status: ('A' for Active; 'I' for Inactive)
REMARK    1  A    between atoms: C1_2  and  C2_3 
ROOT
ATOM      1  C2  UNL d   1       0.014  -0.268  -1.083  0.00  0.00    -0.077 A 
ATOM      2  C3  UNL d   1      -1.321  -0.055  -0.710  0.00  0.00     0.002 A 
ATOM      3  C4  UNL d   1      -1.633   0.378   0.580  0.00  0.00     0.002 A 
ATOM      4  C5  UNL d   1      -0.616   0.607   1.505  0.00  0.00    -0.004 A 
ATOM      5  C6  UNL d   1       0.714   0.397   1.144  0.00  0.00     0.002 A 
ATOM      6  C7  UNL d   1       1.027  -0.038  -0.144  0.00  0.00     0.002 A 
ENDROOT
BRANCH   1   7
ATOM      7  C1  UNL d   1       0.355  -0.688  -2.489  0.00  0.00     0.055 C 
ATOM      8  C   UNL d   1       0.973   0.460  -3.275  0.00  0.00     0.019 C 
ENDBRANCH   1   7
TORSDOF 1
ENDMDL
