MODEL 1
REMARK minimizedAffinity -2.8940556
REMARK minimizedRMSD -1
REMARK  1 active torsions:
REMARK  status: ('A' for Active; 'I' for Inactive)
REMARK    1  A    between atoms: C1_2  and  C2_3 
ROOT
ATOM      1  C2  UNL d   1       0.513  -0.333  -1.713  0.00  0.00    -0.077 A 
ATOM      2  C3  UNL d   1      -0.839  -0.704  -1.692  0.00  0.00     0.002 A 
ATOM      3  C4  UNL d   1      -1.550  -0.715  -0.490  0.00  0.00     0.002 A 
ATOM      4  C5  UNL d   1      -0.919  -0.353   0.698  0.00  0.00    -0.004 A 
ATOM      5  C6  UNL d   1       0.426   0.016   0.688  0.00  0.00     0.002 A 
ATOM      6  C7  UNL d   1       1.138   0.026  -0.512  0.00  0.00     0.002 A 
ENDROOT
BRANCH   1   7
ATOM      7  C1  UNL d   1       1.268  -0.272  -3.015  0.00  0.00     0.055 C 
ATOM      8  C   UNL d   1       1.706   1.149  -3.336  0.00  0.00     0.019 C 
ENDBRANCH   1   7
TORSDOF 1
ENDMDL
