MODEL 1
REMARK minimizedAffinity -4.06200361
REMARK minimizedRMSD -1
REMARK  1 active torsions:
REMARK  status: ('A' for Active; 'I' for Inactive)
REMARK    1  A    between atoms: C1_2  and  C2_3 
ROOT
ATOM      1  C2  UNL d   1      -1.176   0.033   1.221  0.00  0.00    -0.077 A 
ATOM      2  C3  UNL d   1      -2.017  -0.374   0.176  0.00  0.00     0.002 A 
ATOM      3  C4  UNL d   1      -1.481  -0.915  -0.993  0.00  0.00     0.002 A 
ATOM      4  C5  UNL d   1      -0.101  -1.058  -1.128  0.00  0.00    -0.004 A 
ATOM      5  C6  UNL d   1       0.745  -0.654  -0.096  0.00  0.00     0.002 A 
ATOM      6  C7  UNL d   1       0.210  -0.111   1.074  0.00  0.00     0.002 A 
ENDROOT
BRANCH   1   7
ATOM      7  C1  UNL d   1      -1.755   0.572   2.503  0.00  0.00     0.055 C 
ATOM      8  C   UNL d   1      -1.036   1.838   2.946  0.00  0.00     0.019 C 
ENDBRANCH   1   7
TORSDOF 1
ENDMDL
