MODEL 1
REMARK minimizedAffinity -0.457418412
REMARK minimizedRMSD -1
REMARK  1 active torsions:
REMARK  status: ('A' for Active; 'I' for Inactive)
REMARK    1  A    between atoms: C1_2  and  C2_3 
ROOT
ATOM      1  C2  UNL d   1       1.135  -0.403  -2.127  0.00  0.00    -0.077 A 
ATOM      2  C3  UNL d   1       2.344   0.233  -2.443  0.00  0.00     0.002 A 
ATOM      3  C4  UNL d   1       2.537   0.797  -3.706  0.00  0.00     0.002 A 
ATOM      4  C5  UNL d   1       1.524   0.734  -4.660  0.00  0.00    -0.004 A 
ATOM      5  C6  UNL d   1       0.318   0.103  -4.356  0.00  0.00     0.002 A 
ATOM      6  C7  UNL d   1       0.125  -0.463  -3.095  0.00  0.00     0.002 A 
ENDROOT
BRANCH   1   7
ATOM      7  C1  UNL d   1       0.907  -0.968  -0.749  0.00  0.00     0.055 C 
ATOM      8  C   UNL d   1      -0.135  -0.163   0.014  0.00  0.00     0.019 C 
ENDBRANCH   1   7
TORSDOF 1
ENDMDL
