MODEL 1
REMARK minimizedAffinity -3.48955917
REMARK minimizedRMSD -1
REMARK  1 active torsions:
REMARK  status: ('A' for Active; 'I' for Inactive)
REMARK    1  A    between atoms: C1_2  and  C2_3 
ROOT
ATOM      1  C2  UNL d   1       0.726  -2.471   1.296  0.00  0.00    -0.073 A 
ATOM      2  C3  UNL d   1       1.764  -3.369   1.566  0.00  0.00    -0.002 A 
ATOM      3  C4  UNL d   1       1.559  -4.444   2.432  0.00  0.00     0.004 A 
ATOM      4  C5  UNL d   1       0.313  -4.636   3.030  0.00  0.00    -0.004 A 
ATOM      5  C6  UNL d   1      -0.740  -3.756   2.763  0.00  0.00    -0.075 A 
ATOM      6  C7  UNL d   1      -2.085  -3.947   3.400  0.00  0.00     0.076 C 
ATOM      7  C8  UNL d   1      -0.525  -2.677   1.894  0.00  0.00     0.001 A 
ENDROOT
BRANCH   1   8
ATOM      8  C1  UNL d   1       0.941  -1.313   0.356  0.00  0.00     0.053 C 
ATOM      9  C   UNL d   1      -0.368  -0.791  -0.214  0.00  0.00     0.018 C 
ENDBRANCH   1   8
TORSDOF 1
ENDMDL
