MODEL 1
REMARK minimizedAffinity 2.49583387
REMARK minimizedRMSD -1
REMARK  1 active torsions:
REMARK  status: ('A' for Active; 'I' for Inactive)
REMARK    1  A    between atoms: C1_2  and  C2_3 
ROOT
ATOM      1  C2  UNL d   1       3.232  -5.243   1.864  0.00  0.00    -0.073 A 
ATOM      2  C3  UNL d   1       3.060  -4.085   1.098  0.00  0.00    -0.002 A 
ATOM      3  C4  UNL d   1       1.843  -3.402   1.117  0.00  0.00     0.004 A 
ATOM      4  C5  UNL d   1       0.790  -3.866   1.906  0.00  0.00    -0.004 A 
ATOM      5  C6  UNL d   1       0.947  -5.014   2.688  0.00  0.00    -0.075 A 
ATOM      6  C7  UNL d   1      -0.176  -5.527   3.541  0.00  0.00     0.076 C 
ATOM      7  C8  UNL d   1       2.171  -5.696   2.661  0.00  0.00     0.001 A 
ENDROOT
BRANCH   1   8
ATOM      8  C1  UNL d   1       4.547  -5.980   1.852  0.00  0.00     0.053 C 
ATOM      9  C   UNL d   1       5.182  -5.990   0.470  0.00  0.00     0.018 C 
ENDBRANCH   1   8
TORSDOF 1
ENDMDL
