MODEL 1
REMARK minimizedAffinity -1.77173162
REMARK minimizedRMSD -1
REMARK  1 active torsions:
REMARK  status: ('A' for Active; 'I' for Inactive)
REMARK    1  A    between atoms: C1_2  and  C2_3 
ROOT
ATOM      1  C2  UNL d   1       0.288   0.447  -1.127  0.00  0.00    -0.073 A 
ATOM      2  C3  UNL d   1       1.596   0.485  -1.624  0.00  0.00    -0.002 A 
ATOM      3  C4  UNL d   1       2.017   1.552  -2.419  0.00  0.00     0.004 A 
ATOM      4  C5  UNL d   1       1.140   2.594  -2.717  0.00  0.00    -0.004 A 
ATOM      5  C6  UNL d   1      -0.167   2.581  -2.219  0.00  0.00    -0.075 A 
ATOM      6  C7  UNL d   1      -1.124   3.693  -2.533  0.00  0.00     0.076 C 
ATOM      7  C8  UNL d   1      -0.584   1.504  -1.425  0.00  0.00     0.001 A 
ENDROOT
BRANCH   1   8
ATOM      8  C1  UNL d   1      -0.170  -0.700  -0.263  0.00  0.00     0.053 C 
ATOM      9  C   UNL d   1      -1.680  -0.869  -0.295  0.00  0.00     0.018 C 
ENDBRANCH   1   8
TORSDOF 1
ENDMDL
