MODEL 1
REMARK minimizedAffinity -1.63589668
REMARK minimizedRMSD -1
REMARK  0 active torsions:
REMARK  status: ('A' for Active; 'I' for Inactive)
ROOT
ATOM      1  C   UNL d   1      -1.221   1.529   0.955  0.00  0.00     0.124 A 
ATOM      2  C1  UNL d   1      -1.064   0.433   1.792  0.00  0.00     0.062 A 
ATOM      3  C2  UNL d   1      -0.357  -0.684   1.357  0.00  0.00     0.162 A 
ATOM      4  C3  UNL d   1       0.201  -0.711   0.079  0.00  0.00    -0.034 A 
ATOM      5  C4  UNL d   1       0.038   0.395  -0.758  0.00  0.00     0.162 A 
ATOM      6  C5  UNL d   1      -0.670   1.509  -0.319  0.00  0.00     0.062 A 
ATOM      7  F   UNL d   1      -0.821   2.567  -1.129  0.00  0.00    -0.097 F 
ATOM      8  F1  UNL d   1       0.560   0.402  -1.993  0.00  0.00    -0.096 F 
ATOM      9  I   UNL d   1       1.259  -2.379  -0.575  0.00  0.00    -0.060 I 
ATOM     10  F2  UNL d   1      -0.221  -1.729   2.187  0.00  0.00    -0.096 F 
ATOM     11  F3  UNL d   1      -1.596   0.449   3.022  0.00  0.00    -0.097 F 
ATOM     12  F4  UNL d   1      -1.903   2.602   1.375  0.00  0.00    -0.092 F 
ENDROOT
TORSDOF 0
ENDMDL
