MODEL 1
REMARK minimizedAffinity 3.06665683
REMARK minimizedRMSD -1
REMARK  0 active torsions:
REMARK  status: ('A' for Active; 'I' for Inactive)
ROOT
ATOM      1  C   UNL d   1      -0.590   1.462   1.104  0.00  0.00     0.124 A 
ATOM      2  C1  UNL d   1      -0.639   0.330   1.905  0.00  0.00     0.062 A 
ATOM      3  C2  UNL d   1      -0.065  -0.861   1.470  0.00  0.00     0.162 A 
ATOM      4  C3  UNL d   1       0.565  -0.926   0.227  0.00  0.00    -0.034 A 
ATOM      5  C4  UNL d   1       0.609   0.217  -0.574  0.00  0.00     0.162 A 
ATOM      6  C5  UNL d   1       0.034   1.405  -0.135  0.00  0.00     0.062 A 
ATOM      7  F   UNL d   1       0.082   2.498  -0.911  0.00  0.00    -0.097 F 
ATOM      8  F1  UNL d   1       1.206   0.189  -1.775  0.00  0.00    -0.096 F 
ATOM      9  I   UNL d   1       1.424  -2.705  -0.428  0.00  0.00    -0.060 I 
ATOM     10  F2  UNL d   1      -0.127  -1.939   2.265  0.00  0.00    -0.096 F 
ATOM     11  F3  UNL d   1      -1.241   0.383   3.102  0.00  0.00    -0.097 F 
ATOM     12  F4  UNL d   1      -1.144   2.607   1.524  0.00  0.00    -0.092 F 
ENDROOT
TORSDOF 0
ENDMDL
