MODEL 1
REMARK minimizedAffinity -1.06369817
REMARK minimizedRMSD -1
REMARK  0 active torsions:
REMARK  status: ('A' for Active; 'I' for Inactive)
ROOT
ATOM      1  C   UNL d   1      -1.196   1.557   0.863  0.00  0.00     0.124 A 
ATOM      2  C1  UNL d   1      -1.107   0.470   1.721  0.00  0.00     0.062 A 
ATOM      3  C2  UNL d   1      -0.416  -0.673   1.333  0.00  0.00     0.162 A 
ATOM      4  C3  UNL d   1       0.193  -0.736   0.079  0.00  0.00    -0.034 A 
ATOM      5  C4  UNL d   1       0.097   0.360  -0.779  0.00  0.00     0.162 A 
ATOM      6  C5  UNL d   1      -0.595   1.501  -0.386  0.00  0.00     0.062 A 
ATOM      7  F   UNL d   1      -0.680   2.550  -1.217  0.00  0.00    -0.097 F 
ATOM      8  F1  UNL d   1       0.670   0.333  -1.992  0.00  0.00    -0.096 F 
ATOM      9  I   UNL d   1       1.227  -2.445  -0.506  0.00  0.00    -0.060 I 
ATOM     10  F2  UNL d   1      -0.345  -1.709   2.183  0.00  0.00    -0.096 F 
ATOM     11  F3  UNL d   1      -1.688   0.522   2.928  0.00  0.00    -0.097 F 
ATOM     12  F4  UNL d   1      -1.863   2.656   1.239  0.00  0.00    -0.092 F 
ENDROOT
TORSDOF 0
ENDMDL
