MODEL 1
REMARK minimizedAffinity 1.13624668
REMARK minimizedRMSD -1
REMARK  0 active torsions:
REMARK  status: ('A' for Active; 'I' for Inactive)
ROOT
ATOM      1  C   UNL d   1      -0.473   1.629   0.917  0.00  0.00     0.124 A 
ATOM      2  C1  UNL d   1      -0.875   0.392   1.401  0.00  0.00     0.062 A 
ATOM      3  C2  UNL d   1      -0.507  -0.773   0.734  0.00  0.00     0.162 A 
ATOM      4  C3  UNL d   1       0.269  -0.707  -0.423  0.00  0.00    -0.034 A 
ATOM      5  C4  UNL d   1       0.669   0.541  -0.904  0.00  0.00     0.162 A 
ATOM      6  C5  UNL d   1       0.298   1.703  -0.234  0.00  0.00     0.062 A 
ATOM      7  F   UNL d   1       0.688   2.897  -0.703  0.00  0.00    -0.097 F 
ATOM      8  F1  UNL d   1       1.415   0.641  -2.014  0.00  0.00    -0.096 F 
ATOM      9  I   UNL d   1       0.821  -2.447  -1.423  0.00  0.00    -0.060 I 
ATOM     10  F2  UNL d   1      -0.910  -1.955   1.224  0.00  0.00    -0.096 F 
ATOM     11  F3  UNL d   1      -1.621   0.318   2.512  0.00  0.00    -0.097 F 
ATOM     12  F4  UNL d   1      -0.829   2.749   1.560  0.00  0.00    -0.092 F 
ENDROOT
TORSDOF 0
ENDMDL
