MODEL 1
REMARK minimizedAffinity -3.50112414
REMARK minimizedRMSD -1
REMARK  0 active torsions:
REMARK  status: ('A' for Active; 'I' for Inactive)
ROOT
ATOM      1  C   UNL d   1      -1.224   1.633   1.360  0.00  0.00     0.124 A 
ATOM      2  C1  UNL d   1      -1.339   1.499  -0.017  0.00  0.00     0.062 A 
ATOM      3  C2  UNL d   1      -0.918   0.331  -0.644  0.00  0.00     0.162 A 
ATOM      4  C3  UNL d   1      -0.379  -0.715   0.104  0.00  0.00    -0.034 A 
ATOM      5  C4  UNL d   1      -0.265  -0.574   1.488  0.00  0.00     0.162 A 
ATOM      6  C5  UNL d   1      -0.687   0.596   2.111  0.00  0.00     0.062 A 
ATOM      7  F   UNL d   1      -0.575   0.723   3.441  0.00  0.00    -0.097 F 
ATOM      8  F1  UNL d   1       0.249  -1.560   2.238  0.00  0.00    -0.096 F 
ATOM      9  I   UNL d   1       0.252  -2.465  -0.831  0.00  0.00    -0.060 I 
ATOM     10  F2  UNL d   1      -1.041   0.230  -1.976  0.00  0.00    -0.096 F 
ATOM     11  F3  UNL d   1      -1.856   2.500  -0.744  0.00  0.00    -0.097 F 
ATOM     12  F4  UNL d   1      -1.628   2.759   1.962  0.00  0.00    -0.092 F 
ENDROOT
TORSDOF 0
ENDMDL
