MODEL 1
REMARK minimizedAffinity 0.0934291258
REMARK minimizedRMSD -1
REMARK  0 active torsions:
REMARK  status: ('A' for Active; 'I' for Inactive)
ROOT
ATOM      1  C   UNL d   1       1.739  -0.366  -0.535  0.00  0.00     0.124 A 
ATOM      2  C1  UNL d   1       1.124  -0.792   0.635  0.00  0.00     0.062 A 
ATOM      3  C2  UNL d   1       0.043  -0.085   1.155  0.00  0.00     0.162 A 
ATOM      4  C3  UNL d   1      -0.431   1.055   0.505  0.00  0.00    -0.034 A 
ATOM      5  C4  UNL d   1       0.194   1.478  -0.670  0.00  0.00     0.162 A 
ATOM      6  C5  UNL d   1       1.273   0.768  -1.185  0.00  0.00     0.062 A 
ATOM      7  F   UNL d   1       1.866   1.181  -2.315  0.00  0.00    -0.097 F 
ATOM      8  F1  UNL d   1      -0.236   2.569  -1.320  0.00  0.00    -0.096 F 
ATOM      9  I   UNL d   1      -2.046   2.114   1.279  0.00  0.00    -0.060 I 
ATOM     10  F2  UNL d   1      -0.532  -0.519   2.286  0.00  0.00    -0.096 F 
ATOM     11  F3  UNL d   1       1.572  -1.886   1.266  0.00  0.00    -0.097 F 
ATOM     12  F4  UNL d   1       2.779  -1.047  -1.032  0.00  0.00    -0.092 F 
ENDROOT
TORSDOF 0
ENDMDL
