MODEL 1
REMARK minimizedAffinity -3.87660146
REMARK minimizedRMSD -1
REMARK  0 active torsions:
REMARK  status: ('A' for Active; 'I' for Inactive)
ROOT
ATOM      1  C   UNL d   1      -0.207  -0.144   1.400  0.00  0.00     0.124 A 
ATOM      2  C1  UNL d   1       0.881  -0.987   1.218  0.00  0.00     0.062 A 
ATOM      3  C2  UNL d   1       1.002  -1.730   0.048  0.00  0.00     0.162 A 
ATOM      4  C3  UNL d   1       0.033  -1.633  -0.951  0.00  0.00    -0.034 A 
ATOM      5  C4  UNL d   1      -1.058  -0.784  -0.761  0.00  0.00     0.162 A 
ATOM      6  C5  UNL d   1      -1.175  -0.043   0.411  0.00  0.00     0.062 A 
ATOM      7  F   UNL d   1      -2.226   0.771   0.585  0.00  0.00    -0.097 F 
ATOM      8  F1  UNL d   1      -2.008  -0.666  -1.701  0.00  0.00    -0.096 F 
ATOM      9  I   UNL d   1       0.211  -2.743  -2.703  0.00  0.00    -0.060 I 
ATOM     10  F2  UNL d   1       2.063  -2.537  -0.101  0.00  0.00    -0.096 F 
ATOM     11  F3  UNL d   1       1.817  -1.087   2.173  0.00  0.00    -0.097 F 
ATOM     12  F4  UNL d   1      -0.322   0.570   2.528  0.00  0.00    -0.092 F 
ENDROOT
TORSDOF 0
ENDMDL
