MODEL 1
REMARK minimizedAffinity -2.23316312
REMARK minimizedRMSD -1
REMARK  0 active torsions:
REMARK  status: ('A' for Active; 'I' for Inactive)
ROOT
ATOM      1  C   UNL d   1      -1.045   2.018   0.459  0.00  0.00     0.124 A 
ATOM      2  C1  UNL d   1      -1.295   0.882   1.217  0.00  0.00     0.062 A 
ATOM      3  C2  UNL d   1      -0.638  -0.311   0.929  0.00  0.00     0.162 A 
ATOM      4  C3  UNL d   1       0.276  -0.374  -0.123  0.00  0.00    -0.034 A 
ATOM      5  C4  UNL d   1       0.521   0.772  -0.882  0.00  0.00     0.162 A 
ATOM      6  C5  UNL d   1      -0.137   1.962  -0.589  0.00  0.00     0.062 A 
ATOM      7  F   UNL d   1       0.106   3.057  -1.323  0.00  0.00    -0.097 F 
ATOM      8  F1  UNL d   1       1.394   0.746  -1.900  0.00  0.00    -0.096 F 
ATOM      9  I   UNL d   1       1.259  -2.156  -0.558  0.00  0.00    -0.060 I 
ATOM     10  F2  UNL d   1      -0.899  -1.392   1.678  0.00  0.00    -0.096 F 
ATOM     11  F3  UNL d   1      -2.172   0.934   2.230  0.00  0.00    -0.097 F 
ATOM     12  F4  UNL d   1      -1.678   3.164   0.739  0.00  0.00    -0.092 F 
ENDROOT
TORSDOF 0
ENDMDL
