MODEL 1
REMARK minimizedAffinity -4.82640648
REMARK minimizedRMSD -1
REMARK  0 active torsions:
REMARK  status: ('A' for Active; 'I' for Inactive)
ROOT
ATOM      1  C   UNL d   1      -1.192   2.254   0.747  0.00  0.00     0.124 A 
ATOM      2  C1  UNL d   1      -1.537   1.054   1.355  0.00  0.00     0.062 A 
ATOM      3  C2  UNL d   1      -0.887  -0.123   0.998  0.00  0.00     0.162 A 
ATOM      4  C3  UNL d   1       0.116  -0.107   0.029  0.00  0.00    -0.034 A 
ATOM      5  C4  UNL d   1       0.457   1.103  -0.578  0.00  0.00     0.162 A 
ATOM      6  C5  UNL d   1      -0.196   2.277  -0.218  0.00  0.00     0.062 A 
ATOM      7  F   UNL d   1       0.138   3.435  -0.806  0.00  0.00    -0.097 F 
ATOM      8  F1  UNL d   1       1.417   1.154  -1.514  0.00  0.00    -0.096 F 
ATOM      9  I   UNL d   1       1.091  -1.866  -0.508  0.00  0.00    -0.060 I 
ATOM     10  F2  UNL d   1      -1.241  -1.268   1.601  0.00  0.00    -0.096 F 
ATOM     11  F3  UNL d   1      -2.500   1.029   2.287  0.00  0.00    -0.097 F 
ATOM     12  F4  UNL d   1      -1.821   3.385   1.092  0.00  0.00    -0.092 F 
ENDROOT
TORSDOF 0
ENDMDL
