MODEL 1
REMARK minimizedAffinity -1.16593373
REMARK minimizedRMSD -1
REMARK  0 active torsions:
REMARK  status: ('A' for Active; 'I' for Inactive)
ROOT
ATOM      1  C   UNL d   1       1.302  -0.072  -0.930  0.00  0.00     0.124 A 
ATOM      2  C1  UNL d   1       0.808   1.197  -1.197  0.00  0.00     0.062 A 
ATOM      3  C2  UNL d   1      -0.213   1.729  -0.416  0.00  0.00     0.162 A 
ATOM      4  C3  UNL d   1      -0.748   0.992   0.641  0.00  0.00    -0.034 A 
ATOM      5  C4  UNL d   1      -0.246  -0.284   0.903  0.00  0.00     0.162 A 
ATOM      6  C5  UNL d   1       0.775  -0.811   0.119  0.00  0.00     0.062 A 
ATOM      7  F   UNL d   1       1.251  -2.038   0.379  0.00  0.00    -0.097 F 
ATOM      8  F1  UNL d   1      -0.737  -1.019   1.911  0.00  0.00    -0.096 F 
ATOM      9  I   UNL d   1      -2.275   1.785   1.811  0.00  0.00    -0.060 I 
ATOM     10  F2  UNL d   1      -0.671   2.958  -0.697  0.00  0.00    -0.096 F 
ATOM     11  F3  UNL d   1       1.316   1.913  -2.211  0.00  0.00    -0.097 F 
ATOM     12  F4  UNL d   1       2.285  -0.582  -1.684  0.00  0.00    -0.092 F 
ENDROOT
TORSDOF 0
ENDMDL
