MODEL 1
REMARK minimizedAffinity -0.843565583
REMARK minimizedRMSD -1
REMARK  0 active torsions:
REMARK  status: ('A' for Active; 'I' for Inactive)
ROOT
ATOM      1  C   UNL d   1      -1.127   1.736   0.915  0.00  0.00     0.124 A 
ATOM      2  C1  UNL d   1      -0.632   1.687  -0.381  0.00  0.00     0.062 A 
ATOM      3  C2  UNL d   1      -0.013   0.532  -0.850  0.00  0.00     0.162 A 
ATOM      4  C3  UNL d   1       0.114  -0.584  -0.024  0.00  0.00    -0.034 A 
ATOM      5  C4  UNL d   1      -0.386  -0.527   1.278  0.00  0.00     0.162 A 
ATOM      6  C5  UNL d   1      -1.004   0.629   1.743  0.00  0.00     0.062 A 
ATOM      7  F   UNL d   1      -1.482   0.675   2.995  0.00  0.00    -0.097 F 
ATOM      8  F1  UNL d   1      -0.282  -1.583   2.100  0.00  0.00    -0.096 F 
ATOM      9  I   UNL d   1       1.038  -2.313  -0.722  0.00  0.00    -0.060 I 
ATOM     10  F2  UNL d   1       0.457   0.513  -2.107  0.00  0.00    -0.096 F 
ATOM     11  F3  UNL d   1      -0.748   2.755  -1.182  0.00  0.00    -0.097 F 
ATOM     12  F4  UNL d   1      -1.721   2.849   1.364  0.00  0.00    -0.092 F 
ENDROOT
TORSDOF 0
ENDMDL
