MODEL 1
REMARK minimizedAffinity -1.16765034
REMARK minimizedRMSD -1
REMARK  0 active torsions:
REMARK  status: ('A' for Active; 'I' for Inactive)
ROOT
ATOM      1  C   UNL d   1      -1.542   1.830   1.443  0.00  0.00     0.124 A 
ATOM      2  C1  UNL d   1      -0.881   0.885   2.215  0.00  0.00     0.062 A 
ATOM      3  C2  UNL d   1      -0.258  -0.202   1.608  0.00  0.00     0.162 A 
ATOM      4  C3  UNL d   1      -0.292  -0.350   0.222  0.00  0.00    -0.034 A 
ATOM      5  C4  UNL d   1      -0.960   0.604  -0.548  0.00  0.00     0.162 A 
ATOM      6  C5  UNL d   1      -1.581   1.689   0.063  0.00  0.00     0.062 A 
ATOM      7  F   UNL d   1      -2.219   2.601  -0.685  0.00  0.00    -0.097 F 
ATOM      8  F1  UNL d   1      -1.012   0.493  -1.884  0.00  0.00    -0.096 F 
ATOM      9  I   UNL d   1       0.638  -1.974  -0.688  0.00  0.00    -0.060 I 
ATOM     10  F2  UNL d   1       0.374  -1.100   2.379  0.00  0.00    -0.096 F 
ATOM     11  F3  UNL d   1      -0.843   1.018   3.548  0.00  0.00    -0.097 F 
ATOM     12  F4  UNL d   1      -2.141   2.875   2.028  0.00  0.00    -0.092 F 
ENDROOT
TORSDOF 0
ENDMDL
