MODEL 1
REMARK minimizedAffinity -0.302436799
REMARK minimizedRMSD -1
REMARK  0 active torsions:
REMARK  status: ('A' for Active; 'I' for Inactive)
ROOT
ATOM      1  C   UNL d   1       0.842  -3.981  -1.485  0.00  0.00     0.124 A 
ATOM      2  C1  UNL d   1       0.115  -3.405  -2.518  0.00  0.00     0.062 A 
ATOM      3  C2  UNL d   1      -0.006  -2.021  -2.602  0.00  0.00     0.162 A 
ATOM      4  C3  UNL d   1       0.602  -1.202  -1.650  0.00  0.00    -0.034 A 
ATOM      5  C4  UNL d   1       1.331  -1.789  -0.613  0.00  0.00     0.162 A 
ATOM      6  C5  UNL d   1       1.449  -3.173  -0.534  0.00  0.00     0.062 A 
ATOM      7  F   UNL d   1       2.151  -3.727   0.465  0.00  0.00    -0.097 F 
ATOM      8  F1  UNL d   1       1.928  -1.031   0.319  0.00  0.00    -0.096 F 
ATOM      9  I   UNL d   1       0.424   0.868  -1.772  0.00  0.00    -0.060 I 
ATOM     10  F2  UNL d   1      -0.714  -1.492  -3.610  0.00  0.00    -0.096 F 
ATOM     11  F3  UNL d   1      -0.473  -4.184  -3.437  0.00  0.00    -0.097 F 
ATOM     12  F4  UNL d   1       0.956  -5.313  -1.406  0.00  0.00    -0.092 F 
ENDROOT
TORSDOF 0
ENDMDL
