MODEL 1
REMARK minimizedAffinity 4.7176013
REMARK minimizedRMSD -1
REMARK  0 active torsions:
REMARK  status: ('A' for Active; 'I' for Inactive)
ROOT
ATOM      1  C   UNL d   1       3.478   1.146  -0.053  0.00  0.00     0.078 C 
ATOM      2  C1  UNL d   1       2.942  -0.170   0.426  0.00  0.00    -0.077 A 
ATOM      3  C2  UNL d   1       3.719  -1.333   0.355  0.00  0.00    -0.001 A 
ATOM      4  C3  UNL d   1       3.204  -2.554   0.795  0.00  0.00     0.003 A 
ATOM      5  C4  UNL d   1       1.910  -2.623   1.308  0.00  0.00    -0.005 A 
ATOM      6  C5  UNL d   1       1.129  -1.472   1.381  0.00  0.00     0.003 A 
ATOM      7  C6  UNL d   1       1.642  -0.250   0.941  0.00  0.00    -0.001 A 
ENDROOT
TORSDOF 0
ENDMDL
