MODEL 1
REMARK minimizedAffinity -1.92896593
REMARK minimizedRMSD -1
REMARK  0 active torsions:
REMARK  status: ('A' for Active; 'I' for Inactive)
ROOT
ATOM      1  C   UNL d   1       5.406   6.000   1.865  0.00  0.00     0.078 C 
ATOM      2  C1  UNL d   1       5.014   5.900   3.309  0.00  0.00    -0.077 A 
ATOM      3  C2  UNL d   1       5.974   5.991   4.324  0.00  0.00    -0.001 A 
ATOM      4  C3  UNL d   1       5.596   5.886   5.664  0.00  0.00     0.003 A 
ATOM      5  C4  UNL d   1       4.258   5.688   6.000  0.00  0.00    -0.005 A 
ATOM      6  C5  UNL d   1       3.297   5.593   4.996  0.00  0.00     0.003 A 
ATOM      7  C6  UNL d   1       3.673   5.698   3.656  0.00  0.00    -0.001 A 
ENDROOT
TORSDOF 0
ENDMDL
