MODEL 1
REMARK minimizedAffinity -3.95735598
REMARK minimizedRMSD -1
REMARK  0 active torsions:
REMARK  status: ('A' for Active; 'I' for Inactive)
ROOT
ATOM      1  C   UNL d   1      -1.250   5.645   5.626  0.00  0.00     0.078 C 
ATOM      2  C1  UNL d   1      -0.028   5.387   4.794  0.00  0.00    -0.077 A 
ATOM      3  C2  UNL d   1      -0.078   4.531   3.687  0.00  0.00    -0.001 A 
ATOM      4  C3  UNL d   1       1.069   4.292   2.928  0.00  0.00     0.003 A 
ATOM      5  C4  UNL d   1       2.274   4.904   3.269  0.00  0.00    -0.005 A 
ATOM      6  C5  UNL d   1       2.333   5.756   4.370  0.00  0.00     0.003 A 
ATOM      7  C6  UNL d   1       1.187   5.996   5.130  0.00  0.00    -0.001 A 
ENDROOT
TORSDOF 0
ENDMDL
