MODEL 1
REMARK minimizedAffinity 7.84213448
REMARK minimizedRMSD -1
REMARK  0 active torsions:
REMARK  status: ('A' for Active; 'I' for Inactive)
ROOT
ATOM      1  C   UNL d   1      -3.305   4.802  -4.181  0.00  0.00     0.078 C 
ATOM      2  C1  UNL d   1      -2.400   3.628  -3.953  0.00  0.00    -0.077 A 
ATOM      3  C2  UNL d   1      -1.372   3.325  -4.854  0.00  0.00    -0.001 A 
ATOM      4  C3  UNL d   1      -0.543   2.223  -4.635  0.00  0.00     0.003 A 
ATOM      5  C4  UNL d   1      -0.735   1.415  -3.517  0.00  0.00    -0.005 A 
ATOM      6  C5  UNL d   1      -1.757   1.707  -2.616  0.00  0.00     0.003 A 
ATOM      7  C6  UNL d   1      -2.587   2.808  -2.833  0.00  0.00    -0.001 A 
ENDROOT
TORSDOF 0
ENDMDL
