MODEL 1
REMARK minimizedAffinity 1.57025051
REMARK minimizedRMSD -1
REMARK  0 active torsions:
REMARK  status: ('A' for Active; 'I' for Inactive)
ROOT
ATOM      1  C   UNL d   1       5.080   5.994   4.141  0.00  0.00     0.078 C 
ATOM      2  C1  UNL d   1       3.662   5.638   4.472  0.00  0.00    -0.077 A 
ATOM      3  C2  UNL d   1       3.096   6.000   5.701  0.00  0.00    -0.001 A 
ATOM      4  C3  UNL d   1       1.777   5.653   6.000  0.00  0.00     0.003 A 
ATOM      5  C4  UNL d   1       1.014   4.943   5.076  0.00  0.00    -0.005 A 
ATOM      6  C5  UNL d   1       1.569   4.576   3.851  0.00  0.00     0.003 A 
ATOM      7  C6  UNL d   1       2.887   4.922   3.551  0.00  0.00    -0.001 A 
ENDROOT
TORSDOF 0
ENDMDL
