MODEL 1
REMARK minimizedAffinity 4.53751993
REMARK minimizedRMSD -1
REMARK  0 active torsions:
REMARK  status: ('A' for Active; 'I' for Inactive)
ROOT
ATOM      1  C   UNL d   1       2.031   5.884   3.241  0.00  0.00     0.078 C 
ATOM      2  C1  UNL d   1       3.358   5.931   3.939  0.00  0.00    -0.077 A 
ATOM      3  C2  UNL d   1       4.555   5.930   3.213  0.00  0.00    -0.001 A 
ATOM      4  C3  UNL d   1       5.783   5.964   3.877  0.00  0.00     0.003 A 
ATOM      5  C4  UNL d   1       5.825   6.000   5.269  0.00  0.00    -0.005 A 
ATOM      6  C5  UNL d   1       4.638   6.000   6.000  0.00  0.00     0.003 A 
ATOM      7  C6  UNL d   1       3.410   5.965   5.338  0.00  0.00    -0.001 A 
ENDROOT
TORSDOF 0
ENDMDL
