MODEL 1
REMARK minimizedAffinity -2.51815414
REMARK minimizedRMSD -1
REMARK  0 active torsions:
REMARK  status: ('A' for Active; 'I' for Inactive)
ROOT
ATOM      1  C   UNL d   1       5.632   5.250   4.813  0.00  0.00     0.078 C 
ATOM      2  C1  UNL d   1       4.136   5.336   4.869  0.00  0.00    -0.077 A 
ATOM      3  C2  UNL d   1       3.488   5.936   5.956  0.00  0.00    -0.001 A 
ATOM      4  C3  UNL d   1       2.094   6.000   6.000  0.00  0.00     0.003 A 
ATOM      5  C4  UNL d   1       1.336   5.465   4.960  0.00  0.00    -0.005 A 
ATOM      6  C5  UNL d   1       1.972   4.865   3.875  0.00  0.00     0.003 A 
ATOM      7  C6  UNL d   1       3.366   4.800   3.830  0.00  0.00    -0.001 A 
ENDROOT
TORSDOF 0
ENDMDL
