MODEL 1
REMARK minimizedAffinity 0.932552099
REMARK minimizedRMSD -1
REMARK  0 active torsions:
REMARK  status: ('A' for Active; 'I' for Inactive)
ROOT
ATOM      1  C   UNL d   1       5.948   5.887   3.725  0.00  0.00     0.078 C 
ATOM      2  C1  UNL d   1       4.620   5.470   4.282  0.00  0.00    -0.077 A 
ATOM      3  C2  UNL d   1       4.145   5.999   5.488  0.00  0.00    -0.001 A 
ATOM      4  C3  UNL d   1       2.912   5.594   6.000  0.00  0.00     0.003 A 
ATOM      5  C4  UNL d   1       2.143   4.657   5.312  0.00  0.00    -0.005 A 
ATOM      6  C5  UNL d   1       2.608   4.123   4.112  0.00  0.00     0.003 A 
ATOM      7  C6  UNL d   1       3.841   4.527   3.599  0.00  0.00    -0.001 A 
ENDROOT
TORSDOF 0
ENDMDL
