MODEL 1
REMARK minimizedAffinity 6.41795158
REMARK minimizedRMSD -1
REMARK  0 active torsions:
REMARK  status: ('A' for Active; 'I' for Inactive)
ROOT
ATOM      1  C   UNL d   1       2.115   4.265   4.165  0.00  0.00     0.078 C 
ATOM      2  C1  UNL d   1       3.461   4.874   4.421  0.00  0.00    -0.077 A 
ATOM      3  C2  UNL d   1       4.203   5.445   3.380  0.00  0.00    -0.001 A 
ATOM      4  C3  UNL d   1       5.460   6.000   3.631  0.00  0.00     0.003 A 
ATOM      5  C4  UNL d   1       5.985   5.987   4.922  0.00  0.00    -0.005 A 
ATOM      6  C5  UNL d   1       5.255   5.419   5.963  0.00  0.00     0.003 A 
ATOM      7  C6  UNL d   1       3.999   4.864   5.714  0.00  0.00    -0.001 A 
ENDROOT
TORSDOF 0
ENDMDL
