MODEL 1
REMARK minimizedAffinity -0.291843593
REMARK minimizedRMSD -1
REMARK  0 active torsions:
REMARK  status: ('A' for Active; 'I' for Inactive)
ROOT
ATOM      1  C   UNL d   1       6.000   5.635   4.621  0.00  0.00     0.078 C 
ATOM      2  C1  UNL d   1       4.503   5.626   4.711  0.00  0.00    -0.077 A 
ATOM      3  C2  UNL d   1       3.717   5.266   3.610  0.00  0.00    -0.001 A 
ATOM      4  C3  UNL d   1       2.324   5.271   3.705  0.00  0.00     0.003 A 
ATOM      5  C4  UNL d   1       1.706   5.636   4.899  0.00  0.00    -0.005 A 
ATOM      6  C5  UNL d   1       2.480   5.997   6.000  0.00  0.00     0.003 A 
ATOM      7  C6  UNL d   1       3.873   5.993   5.906  0.00  0.00    -0.001 A 
ENDROOT
TORSDOF 0
ENDMDL
