MODEL 1
REMARK minimizedAffinity -1.27091396
REMARK minimizedRMSD -1
REMARK  0 active torsions:
REMARK  status: ('A' for Active; 'I' for Inactive)
ROOT
ATOM      1  C   UNL d   1       5.999   5.478   4.921  0.00  0.00     0.078 C 
ATOM      2  C1  UNL d   1       4.501   5.418   4.943  0.00  0.00    -0.077 A 
ATOM      3  C2  UNL d   1       3.772   6.000   5.987  0.00  0.00    -0.001 A 
ATOM      4  C3  UNL d   1       2.378   5.928   6.000  0.00  0.00     0.003 A 
ATOM      5  C4  UNL d   1       1.701   5.275   4.972  0.00  0.00    -0.005 A 
ATOM      6  C5  UNL d   1       2.419   4.691   3.930  0.00  0.00     0.003 A 
ATOM      7  C6  UNL d   1       3.813   4.762   3.915  0.00  0.00    -0.001 A 
ENDROOT
TORSDOF 0
ENDMDL
