MODEL 1
REMARK minimizedAffinity 0.425467581
REMARK minimizedRMSD -1
REMARK  0 active torsions:
REMARK  status: ('A' for Active; 'I' for Inactive)
ROOT
ATOM      1  C   UNL d   1       2.057   4.518   3.945  0.00  0.00     0.078 C 
ATOM      2  C1  UNL d   1       3.409   5.038   4.330  0.00  0.00    -0.077 A 
ATOM      3  C2  UNL d   1       4.469   5.038   3.416  0.00  0.00    -0.001 A 
ATOM      4  C3  UNL d   1       5.726   5.517   3.791  0.00  0.00     0.003 A 
ATOM      5  C4  UNL d   1       5.934   5.998   5.082  0.00  0.00    -0.005 A 
ATOM      6  C5  UNL d   1       4.885   6.000   6.000  0.00  0.00     0.003 A 
ATOM      7  C6  UNL d   1       3.628   5.522   5.626  0.00  0.00    -0.001 A 
ENDROOT
TORSDOF 0
ENDMDL
