MODEL 1
REMARK minimizedAffinity 3.93050027
REMARK minimizedRMSD -1
REMARK  0 active torsions:
REMARK  status: ('A' for Active; 'I' for Inactive)
ROOT
ATOM      1  C1  BNZ d   1       1.572   0.466  -0.420  0.00  0.00     0.000 A 
ATOM      2  C2  BNZ d   1       1.948  -0.184   0.725  0.00  0.00     0.000 A 
ATOM      3  C3  BNZ d   1       1.341  -1.350   1.099  0.00  0.00     0.000 A 
ATOM      4  C4  BNZ d   1       0.333  -1.843   0.351  0.00  0.00     0.000 A 
ATOM      5  C5  BNZ d   1      -0.065  -1.194  -0.801  0.00  0.00     0.000 A 
ATOM      6  C6  BNZ d   1       0.575  -0.041  -1.196  0.00  0.00     0.000 A 
ENDROOT
TORSDOF 0
ENDMDL
