MODEL 1
REMARK minimizedAffinity 8.01160908
REMARK minimizedRMSD -1
REMARK  0 active torsions:
REMARK  status: ('A' for Active; 'I' for Inactive)
ROOT
ATOM      1  C1  BNZ d   1       3.759   0.801  -0.749  0.00  0.00     0.000 A 
ATOM      2  C2  BNZ d   1       4.491   0.514  -1.870  0.00  0.00     0.000 A 
ATOM      3  C3  BNZ d   1       3.911   0.535  -3.108  0.00  0.00     0.000 A 
ATOM      4  C4  BNZ d   1       2.594   0.803  -3.219  0.00  0.00     0.000 A 
ATOM      5  C5  BNZ d   1       1.841   1.085  -2.097  0.00  0.00     0.000 A 
ATOM      6  C6  BNZ d   1       2.436   1.102  -0.857  0.00  0.00     0.000 A 
ENDROOT
TORSDOF 0
ENDMDL
