MODEL 1
REMARK minimizedAffinity 5.21036339
REMARK minimizedRMSD -1
REMARK  0 active torsions:
REMARK  status: ('A' for Active; 'I' for Inactive)
ROOT
ATOM      1  C1  BNZ d   1       3.679  -3.895   1.173  0.00  0.00     0.000 A 
ATOM      2  C2  BNZ d   1       3.720  -5.066   0.465  0.00  0.00     0.000 A 
ATOM      3  C3  BNZ d   1       4.887  -5.504  -0.097  0.00  0.00     0.000 A 
ATOM      4  C4  BNZ d   1       6.000  -4.751   0.016  0.00  0.00     0.000 A 
ATOM      5  C5  BNZ d   1       5.973  -3.564   0.719  0.00  0.00     0.000 A 
ATOM      6  C6  BNZ d   1       4.806  -3.146   1.316  0.00  0.00     0.000 A 
ENDROOT
TORSDOF 0
ENDMDL
