MODEL 1
REMARK minimizedAffinity 7.87489223
REMARK minimizedRMSD -1
REMARK  0 active torsions:
REMARK  status: ('A' for Active; 'I' for Inactive)
ROOT
ATOM      1  C1  BNZ d   1      -3.427  -2.018  -2.522  0.00  0.00     0.000 A 
ATOM      2  C2  BNZ d   1      -3.338  -0.798  -1.906  0.00  0.00     0.000 A 
ATOM      3  C3  BNZ d   1      -4.287   0.163  -2.117  0.00  0.00     0.000 A 
ATOM      4  C4  BNZ d   1      -5.300  -0.082  -2.972  0.00  0.00     0.000 A 
ATOM      5  C5  BNZ d   1      -5.399  -1.304  -3.607  0.00  0.00     0.000 A 
ATOM      6  C6  BNZ d   1      -4.463  -2.282  -3.363  0.00  0.00     0.000 A 
ENDROOT
TORSDOF 0
ENDMDL
