MODEL 1
REMARK minimizedAffinity 1.78676021
REMARK minimizedRMSD -1
REMARK  0 active torsions:
REMARK  status: ('A' for Active; 'I' for Inactive)
ROOT
ATOM      1  C1  BNZ d   1       2.741   5.316   6.000  0.00  0.00     0.000 A 
ATOM      2  C2  BNZ d   1       2.994   4.386   5.027  0.00  0.00     0.000 A 
ATOM      3  C3  BNZ d   1       2.081   4.139   4.041  0.00  0.00     0.000 A 
ATOM      4  C4  BNZ d   1       0.901   4.792   4.051  0.00  0.00     0.000 A 
ATOM      5  C5  BNZ d   1       0.627   5.725   5.031  0.00  0.00     0.000 A 
ATOM      6  C6  BNZ d   1       1.565   6.000   6.000  0.00  0.00     0.000 A 
ENDROOT
TORSDOF 0
ENDMDL
