MODEL 1
REMARK minimizedAffinity 7.33192301
REMARK minimizedRMSD -1
REMARK  0 active torsions:
REMARK  status: ('A' for Active; 'I' for Inactive)
ROOT
ATOM      1  C1  BNZ d   1       1.641  -1.093   1.375  0.00  0.00     0.000 A 
ATOM      2  C2  BNZ d   1       2.238   0.062   0.945  0.00  0.00     0.000 A 
ATOM      3  C3  BNZ d   1       1.810   0.690  -0.192  0.00  0.00     0.000 A 
ATOM      4  C4  BNZ d   1       0.813   0.142  -0.917  0.00  0.00     0.000 A 
ATOM      5  C5  BNZ d   1       0.208  -1.027  -0.501  0.00  0.00     0.000 A 
ATOM      6  C6  BNZ d   1       0.616  -1.636   0.664  0.00  0.00     0.000 A 
ENDROOT
TORSDOF 0
ENDMDL
