MODEL 1
REMARK minimizedAffinity 7.42012262
REMARK minimizedRMSD -1
REMARK  0 active torsions:
REMARK  status: ('A' for Active; 'I' for Inactive)
ROOT
ATOM      1  C1  BNZ d   1       2.548  -3.951   1.436  0.00  0.00     0.000 A 
ATOM      2  C2  BNZ d   1       1.567  -3.406   0.651  0.00  0.00     0.000 A 
ATOM      3  C3  BNZ d   1       0.996  -2.207   0.977  0.00  0.00     0.000 A 
ATOM      4  C4  BNZ d   1       1.377  -1.577   2.106  0.00  0.00     0.000 A 
ATOM      5  C5  BNZ d   1       2.358  -2.118   2.913  0.00  0.00     0.000 A 
ATOM      6  C6  BNZ d   1       2.958  -3.305   2.561  0.00  0.00     0.000 A 
ENDROOT
TORSDOF 0
ENDMDL
