MODEL 1
REMARK minimizedAffinity 12.2621384
REMARK minimizedRMSD -1
REMARK  0 active torsions:
REMARK  status: ('A' for Active; 'I' for Inactive)
ROOT
ATOM      1  O1  BZF d   1       5.269   2.919   1.515  0.00  0.00    -0.204 OA
ATOM      2  C2  BZF d   1       5.796   2.459   2.706  0.00  0.00     0.174 A 
ATOM      3  C3  BZF d   1       4.816   2.045   3.535  0.00  0.00    -0.012 A 
ATOM      4  C3A BZF d   1       3.606   2.175   2.782  0.00  0.00    -0.107 A 
ATOM      5  C4  BZF d   1       2.296   1.907   3.057  0.00  0.00     0.055 A 
ATOM      6  C5  BZF d   1       1.350   2.215   2.131  0.00  0.00    -0.016 A 
ATOM      7  C6  BZF d   1       1.679   2.796   0.923  0.00  0.00     0.022 A 
ATOM      8  C7  BZF d   1       2.965   3.076   0.604  0.00  0.00     0.029 A 
ATOM      9  C7A BZF d   1       3.926   2.736   1.524  0.00  0.00     0.058 A 
ENDROOT
TORSDOF 0
ENDMDL
