MODEL 1
REMARK minimizedAffinity 9.89209938
REMARK minimizedRMSD -1
REMARK  0 active torsions:
REMARK  status: ('A' for Active; 'I' for Inactive)
ROOT
ATOM      1  O1  BZF d   1       2.703   0.042  -1.963  0.00  0.00    -0.204 OA
ATOM      2  C2  BZF d   1       1.401  -0.010  -1.503  0.00  0.00     0.174 A 
ATOM      3  C3  BZF d   1       0.565   0.606  -2.363  0.00  0.00    -0.012 A 
ATOM      4  C3A BZF d   1       1.382   0.992  -3.472  0.00  0.00    -0.107 A 
ATOM      5  C4  BZF d   1       1.124   1.628  -4.653  0.00  0.00     0.055 A 
ATOM      6  C5  BZF d   1       2.158   1.919  -5.486  0.00  0.00    -0.016 A 
ATOM      7  C6  BZF d   1       3.460   1.592  -5.169  0.00  0.00     0.022 A 
ATOM      8  C7  BZF d   1       3.765   0.956  -4.012  0.00  0.00     0.029 A 
ATOM      9  C7A BZF d   1       2.719   0.632  -3.183  0.00  0.00     0.058 A 
ENDROOT
TORSDOF 0
ENDMDL
