MODEL 1
REMARK minimizedAffinity 9.94154167
REMARK minimizedRMSD -1
REMARK  0 active torsions:
REMARK  status: ('A' for Active; 'I' for Inactive)
ROOT
ATOM      1  O1  BZF d   1      -1.976  -1.546   2.857  0.00  0.00    -0.204 OA
ATOM      2  C2  BZF d   1      -1.923  -0.165   2.880  0.00  0.00     0.174 A 
ATOM      3  C3  BZF d   1      -3.069   0.349   3.373  0.00  0.00    -0.012 A 
ATOM      4  C3A BZF d   1      -3.852  -0.783   3.763  0.00  0.00    -0.107 A 
ATOM      5  C4  BZF d   1      -5.085  -0.919   4.335  0.00  0.00     0.055 A 
ATOM      6  C5  BZF d   1      -5.593  -2.166   4.520  0.00  0.00    -0.016 A 
ATOM      7  C6  BZF d   1      -4.899  -3.296   4.140  0.00  0.00     0.022 A 
ATOM      8  C7  BZF d   1      -3.670  -3.212   3.574  0.00  0.00     0.029 A 
ATOM      9  C7A BZF d   1      -3.140  -1.954   3.416  0.00  0.00     0.058 A 
ENDROOT
TORSDOF 0
ENDMDL
