MODEL 1
REMARK minimizedAffinity 6.73191309
REMARK minimizedRMSD -1
REMARK  0 active torsions:
REMARK  status: ('A' for Active; 'I' for Inactive)
ROOT
ATOM      1  O1  BZF d   1       4.740   2.518   2.191  0.00  0.00    -0.204 OA
ATOM      2  C2  BZF d   1       4.465   1.301   2.783  0.00  0.00     0.174 A 
ATOM      3  C3  BZF d   1       3.180   0.948   2.579  0.00  0.00    -0.012 A 
ATOM      4  C3A BZF d   1       2.639   1.968   1.733  0.00  0.00    -0.107 A 
ATOM      5  C4  BZF d   1       1.411   2.169   1.171  0.00  0.00     0.055 A 
ATOM      6  C5  BZF d   1       1.189   3.303   0.457  0.00  0.00    -0.016 A 
ATOM      7  C6  BZF d   1       2.169   4.259   0.289  0.00  0.00     0.022 A 
ATOM      8  C7  BZF d   1       3.405   4.103   0.824  0.00  0.00     0.029 A 
ATOM      9  C7A BZF d   1       3.642   2.942   1.518  0.00  0.00     0.058 A 
ENDROOT
TORSDOF 0
ENDMDL
