MODEL 1
REMARK minimizedAffinity 0.806804895
REMARK minimizedRMSD -1
REMARK  0 active torsions:
REMARK  status: ('A' for Active; 'I' for Inactive)
ROOT
ATOM      1  O1  BZF d   1       0.642   1.843  -0.803  0.00  0.00    -0.204 OA
ATOM      2  C2  BZF d   1       0.225   0.724  -1.497  0.00  0.00     0.174 A 
ATOM      3  C3  BZF d   1       0.755   0.705  -2.737  0.00  0.00    -0.012 A 
ATOM      4  C3A BZF d   1       1.625   1.839  -2.792  0.00  0.00    -0.107 A 
ATOM      5  C4  BZF d   1       2.447   2.346  -3.758  0.00  0.00     0.055 A 
ATOM      6  C5  BZF d   1       3.107   3.510  -3.520  0.00  0.00    -0.016 A 
ATOM      7  C6  BZF d   1       2.964   4.195  -2.331  0.00  0.00     0.022 A 
ATOM      8  C7  BZF d   1       2.165   3.729  -1.341  0.00  0.00     0.029 A 
ATOM      9  C7A BZF d   1       1.522   2.535  -1.566  0.00  0.00     0.058 A 
ENDROOT
TORSDOF 0
ENDMDL
