MODEL 1
REMARK minimizedAffinity 13.6030054
REMARK minimizedRMSD -1
REMARK  0 active torsions:
REMARK  status: ('A' for Active; 'I' for Inactive)
ROOT
ATOM      1  O1  BZF d   1       1.969   1.919  -2.053  0.00  0.00    -0.204 OA
ATOM      2  C2  BZF d   1       1.279   0.727  -1.946  0.00  0.00     0.174 A 
ATOM      3  C3  BZF d   1       1.143   0.143  -3.154  0.00  0.00    -0.012 A 
ATOM      4  C3A BZF d   1       1.870   0.979  -4.060  0.00  0.00    -0.107 A 
ATOM      5  C4  BZF d   1       2.118   0.917  -5.402  0.00  0.00     0.055 A 
ATOM      6  C5  BZF d   1       2.800   1.931  -5.995  0.00  0.00    -0.016 A 
ATOM      7  C6  BZF d   1       3.244   3.024  -5.279  0.00  0.00     0.022 A 
ATOM      8  C7  BZF d   1       3.026   3.128  -3.945  0.00  0.00     0.029 A 
ATOM      9  C7A BZF d   1       2.366   2.088  -3.337  0.00  0.00     0.058 A 
ENDROOT
TORSDOF 0
ENDMDL
