MODEL 1
REMARK minimizedAffinity 2.10873699
REMARK minimizedRMSD -1
REMARK  0 active torsions:
REMARK  status: ('A' for Active; 'I' for Inactive)
ROOT
ATOM      1  O1  BZF d   1       5.585  -1.078   4.776  0.00  0.00    -0.204 OA
ATOM      2  C2  BZF d   1       5.992  -0.569   5.995  0.00  0.00     0.174 A 
ATOM      3  C3  BZF d   1       5.942   0.778   5.992  0.00  0.00    -0.012 A 
ATOM      4  C3A BZF d   1       5.387   1.131   4.721  0.00  0.00    -0.107 A 
ATOM      5  C4  BZF d   1       5.075   2.323   4.131  0.00  0.00     0.055 A 
ATOM      6  C5  BZF d   1       4.615   2.326   2.853  0.00  0.00    -0.016 A 
ATOM      7  C6  BZF d   1       4.459   1.159   2.134  0.00  0.00     0.022 A 
ATOM      8  C7  BZF d   1       4.750  -0.047   2.678  0.00  0.00     0.029 A 
ATOM      9  C7A BZF d   1       5.184  -0.057   3.982  0.00  0.00     0.058 A 
ENDROOT
TORSDOF 0
ENDMDL
