MODEL 1
REMARK minimizedAffinity 6.04018116
REMARK minimizedRMSD -1
REMARK  0 active torsions:
REMARK  status: ('A' for Active; 'I' for Inactive)
ROOT
ATOM      1  O1  BZF d   1       1.017  -0.781  -5.545  0.00  0.00    -0.204 OA
ATOM      2  C2  BZF d   1       1.386   0.464  -5.075  0.00  0.00     0.174 A 
ATOM      3  C3  BZF d   1       1.785   0.392  -3.789  0.00  0.00    -0.012 A 
ATOM      4  C3A BZF d   1       1.746  -1.001  -3.461  0.00  0.00    -0.107 A 
ATOM      5  C4  BZF d   1       2.046  -1.708  -2.332  0.00  0.00     0.055 A 
ATOM      6  C5  BZF d   1       1.829  -3.050  -2.316  0.00  0.00    -0.016 A 
ATOM      7  C6  BZF d   1       1.310  -3.714  -3.408  0.00  0.00     0.022 A 
ATOM      8  C7  BZF d   1       1.001  -3.056  -4.552  0.00  0.00     0.029 A 
ATOM      9  C7A BZF d   1       1.250  -1.705  -4.582  0.00  0.00     0.058 A 
ENDROOT
TORSDOF 0
ENDMDL
