MODEL 1
REMARK minimizedAffinity 11.9629183
REMARK minimizedRMSD -1
REMARK  0 active torsions:
REMARK  status: ('A' for Active; 'I' for Inactive)
ROOT
ATOM      1  O1  BZF d   1      -5.507  -0.578   4.428  0.00  0.00    -0.204 OA
ATOM      2  C2  BZF d   1      -5.487  -1.922   4.109  0.00  0.00     0.174 A 
ATOM      3  C3  BZF d   1      -4.289  -2.274   3.599  0.00  0.00    -0.012 A 
ATOM      4  C3A BZF d   1      -3.482  -1.096   3.685  0.00  0.00    -0.107 A 
ATOM      5  C4  BZF d   1      -2.188  -0.819   3.350  0.00  0.00     0.055 A 
ATOM      6  C5  BZF d   1      -1.726   0.452   3.493  0.00  0.00    -0.016 A 
ATOM      7  C6  BZF d   1      -2.532   1.468   3.962  0.00  0.00     0.022 A 
ATOM      8  C7  BZF d   1      -3.822   1.240   4.312  0.00  0.00     0.029 A 
ATOM      9  C7A BZF d   1      -4.281  -0.049   4.200  0.00  0.00     0.058 A 
ENDROOT
TORSDOF 0
ENDMDL
