MODEL 1
REMARK minimizedAffinity 3.53294659
REMARK minimizedRMSD -1
REMARK  0 active torsions:
REMARK  status: ('A' for Active; 'I' for Inactive)
ROOT
ATOM      1  O1  BZF d   1       0.413   0.382  -0.975  0.00  0.00    -0.204 OA
ATOM      2  C2  BZF d   1      -0.763   0.839  -0.412  0.00  0.00     0.174 A 
ATOM      3  C3  BZF d   1      -1.502  -0.189   0.052  0.00  0.00    -0.012 A 
ATOM      4  C3A BZF d   1      -0.699  -1.355  -0.157  0.00  0.00    -0.107 A 
ATOM      5  C4  BZF d   1      -0.882  -2.681   0.112  0.00  0.00     0.055 A 
ATOM      6  C5  BZF d   1       0.065  -3.572  -0.284  0.00  0.00    -0.016 A 
ATOM      7  C6  BZF d   1       1.202  -3.172  -0.956  0.00  0.00     0.022 A 
ATOM      8  C7  BZF d   1       1.430  -1.867  -1.241  0.00  0.00     0.029 A 
ATOM      9  C7A BZF d   1       0.490  -0.961  -0.812  0.00  0.00     0.058 A 
ENDROOT
TORSDOF 0
ENDMDL
