MODEL 1
REMARK minimizedAffinity 9.19231892
REMARK minimizedRMSD -1
REMARK  0 active torsions:
REMARK  status: ('A' for Active; 'I' for Inactive)
ROOT
ATOM      1  O1  BZF d   1       2.176  -2.431  -1.857  0.00  0.00    -0.204 OA
ATOM      2  C2  BZF d   1       2.213  -1.174  -2.431  0.00  0.00     0.174 A 
ATOM      3  C3  BZF d   1       1.162  -0.433  -2.027  0.00  0.00    -0.012 A 
ATOM      4  C3A BZF d   1       0.471  -1.247  -1.073  0.00  0.00    -0.107 A 
ATOM      5  C4  BZF d   1      -0.644  -1.056  -0.309  0.00  0.00     0.055 A 
ATOM      6  C5  BZF d   1      -1.097  -2.077   0.465  0.00  0.00    -0.016 A 
ATOM      7  C6  BZF d   1      -0.462  -3.301   0.496  0.00  0.00     0.022 A 
ATOM      8  C7  BZF d   1       0.651  -3.536  -0.241  0.00  0.00     0.029 A 
ATOM      9  C7A BZF d   1       1.130  -2.496  -0.999  0.00  0.00     0.058 A 
ENDROOT
TORSDOF 0
ENDMDL
