MODEL 1
REMARK minimizedAffinity 1.34054589
REMARK minimizedRMSD -1
REMARK  0 active torsions:
REMARK  status: ('A' for Active; 'I' for Inactive)
ROOT
ATOM      1  O1  BZF d   1       5.318   3.355   3.860  0.00  0.00    -0.204 OA
ATOM      2  C2  BZF d   1       5.727   4.064   4.973  0.00  0.00     0.174 A 
ATOM      3  C3  BZF d   1       5.994   3.232   6.000  0.00  0.00    -0.012 A 
ATOM      4  C3A BZF d   1       5.825   1.914   5.469  0.00  0.00    -0.107 A 
ATOM      5  C4  BZF d   1       5.964   0.663   6.000  0.00  0.00     0.055 A 
ATOM      6  C5  BZF d   1       5.652  -0.417   5.236  0.00  0.00    -0.016 A 
ATOM      7  C6  BZF d   1       5.194  -0.283   3.941  0.00  0.00     0.022 A 
ATOM      8  C7  BZF d   1       5.046   0.937   3.370  0.00  0.00     0.029 A 
ATOM      9  C7A BZF d   1       5.391   2.029   4.128  0.00  0.00     0.058 A 
ENDROOT
TORSDOF 0
ENDMDL
