MODEL 1
REMARK minimizedAffinity 2.80445957
REMARK minimizedRMSD -1
REMARK  0 active torsions:
REMARK  status: ('A' for Active; 'I' for Inactive)
ROOT
ATOM      1  O1  BZF d   1       0.557   0.497  -1.915  0.00  0.00    -0.204 OA
ATOM      2  C2  BZF d   1       1.502   0.195  -2.877  0.00  0.00     0.174 A 
ATOM      3  C3  BZF d   1       2.055  -1.012  -2.641  0.00  0.00    -0.012 A 
ATOM      4  C3A BZF d   1       1.350  -1.535  -1.511  0.00  0.00    -0.107 A 
ATOM      5  C4  BZF d   1       1.433  -2.705  -0.812  0.00  0.00     0.055 A 
ATOM      6  C5  BZF d   1       0.652  -2.874   0.288  0.00  0.00    -0.016 A 
ATOM      7  C6  BZF d   1      -0.218  -1.894   0.718  0.00  0.00     0.022 A 
ATOM      8  C7  BZF d   1      -0.338  -0.718   0.055  0.00  0.00     0.029 A 
ATOM      9  C7A BZF d   1       0.426  -0.557  -1.075  0.00  0.00     0.058 A 
ENDROOT
TORSDOF 0
ENDMDL
