MODEL 1
REMARK minimizedAffinity 2.89512706
REMARK minimizedRMSD -1
REMARK  0 active torsions:
REMARK  status: ('A' for Active; 'I' for Inactive)
ROOT
ATOM      1  O1  BZF d   1       1.844  -2.812  -0.898  0.00  0.00    -0.204 OA
ATOM      2  C2  BZF d   1       1.369  -3.231   0.330  0.00  0.00     0.174 A 
ATOM      3  C3  BZF d   1       0.540  -2.310   0.862  0.00  0.00    -0.012 A 
ATOM      4  C3A BZF d   1       0.421  -1.290  -0.135  0.00  0.00    -0.107 A 
ATOM      5  C4  BZF d   1      -0.278  -0.119  -0.201  0.00  0.00     0.055 A 
ATOM      6  C5  BZF d   1      -0.119   0.684  -1.286  0.00  0.00    -0.016 A 
ATOM      7  C6  BZF d   1       0.733   0.351  -2.318  0.00  0.00     0.022 A 
ATOM      8  C7  BZF d   1       1.443  -0.803  -2.300  0.00  0.00     0.029 A 
ATOM      9  C7A BZF d   1       1.260  -1.633  -1.221  0.00  0.00     0.058 A 
ENDROOT
TORSDOF 0
ENDMDL
