MODEL 1
REMARK minimizedAffinity 3.4484179
REMARK minimizedRMSD -1
REMARK  0 active torsions:
REMARK  status: ('A' for Active; 'I' for Inactive)
ROOT
ATOM      1  O1  BZF d   1       0.726   1.462  -3.066  0.00  0.00    -0.204 OA
ATOM      2  C2  BZF d   1       1.411   1.369  -4.263  0.00  0.00     0.174 A 
ATOM      3  C3  BZF d   1       2.054   0.187  -4.355  0.00  0.00    -0.012 A 
ATOM      4  C3A BZF d   1       1.677  -0.539  -3.182  0.00  0.00    -0.107 A 
ATOM      5  C4  BZF d   1       1.979  -1.785  -2.711  0.00  0.00     0.055 A 
ATOM      6  C5  BZF d   1       1.506  -2.164  -1.495  0.00  0.00    -0.016 A 
ATOM      7  C6  BZF d   1       0.733  -1.323  -0.722  0.00  0.00     0.022 A 
ATOM      8  C7  BZF d   1       0.403  -0.080  -1.149  0.00  0.00     0.029 A 
ATOM      9  C7A BZF d   1       0.852   0.295  -2.391  0.00  0.00     0.058 A 
ENDROOT
TORSDOF 0
ENDMDL
