MODEL 1
REMARK minimizedAffinity 11.2857552
REMARK minimizedRMSD -1
REMARK  0 active torsions:
REMARK  status: ('A' for Active; 'I' for Inactive)
ROOT
ATOM      1  O1  BZF d   1      -5.037  -0.577   4.491  0.00  0.00    -0.204 OA
ATOM      2  C2  BZF d   1      -5.152  -1.901   4.113  0.00  0.00     0.174 A 
ATOM      3  C3  BZF d   1      -4.082  -2.285   3.387  0.00  0.00    -0.012 A 
ATOM      4  C3A BZF d   1      -3.203  -1.156   3.385  0.00  0.00    -0.107 A 
ATOM      5  C4  BZF d   1      -1.971  -0.927   2.843  0.00  0.00     0.055 A 
ATOM      6  C5  BZF d   1      -1.417   0.308   2.961  0.00  0.00    -0.016 A 
ATOM      7  C6  BZF d   1      -2.068   1.337   3.609  0.00  0.00     0.022 A 
ATOM      8  C7  BZF d   1      -3.290   1.157   4.167  0.00  0.00     0.029 A 
ATOM      9  C7A BZF d   1      -3.838  -0.100   4.078  0.00  0.00     0.058 A 
ENDROOT
TORSDOF 0
ENDMDL
