MODEL 1
REMARK minimizedAffinity 0.827702224
REMARK minimizedRMSD -1
REMARK  0 active torsions:
REMARK  status: ('A' for Active; 'I' for Inactive)
ROOT
ATOM      1  O1  BZF d   1       0.422   1.424  -2.229  0.00  0.00    -0.204 OA
ATOM      2  C2  BZF d   1       1.328   1.368  -3.270  0.00  0.00     0.174 A 
ATOM      3  C3  BZF d   1       1.940   0.167  -3.307  0.00  0.00    -0.012 A 
ATOM      4  C3A BZF d   1       1.315  -0.607  -2.279  0.00  0.00    -0.107 A 
ATOM      5  C4  BZF d   1       1.479  -1.888  -1.837  0.00  0.00     0.055 A 
ATOM      6  C5  BZF d   1       0.761  -2.314  -0.764  0.00  0.00    -0.016 A 
ATOM      7  C6  BZF d   1      -0.124  -1.484  -0.107  0.00  0.00     0.022 A 
ATOM      8  C7  BZF d   1      -0.324  -0.207  -0.512  0.00  0.00     0.029 A 
ATOM      9  C7A BZF d   1       0.375   0.216  -1.616  0.00  0.00     0.058 A 
ENDROOT
TORSDOF 0
ENDMDL
