MODEL 1
REMARK minimizedAffinity -2.21080112
REMARK minimizedRMSD -1
REMARK  0 active torsions:
REMARK  status: ('A' for Active; 'I' for Inactive)
ROOT
ATOM      1  O1  BZF d   1       4.430  -1.117   4.214  0.00  0.00    -0.204 OA
ATOM      2  C2  BZF d   1       5.053  -1.870   5.190  0.00  0.00     0.174 A 
ATOM      3  C3  BZF d   1       5.796  -1.087   5.998  0.00  0.00    -0.012 A 
ATOM      4  C3A BZF d   1       5.554   0.251   5.552  0.00  0.00    -0.107 A 
ATOM      5  C4  BZF d   1       5.995   1.474   5.969  0.00  0.00     0.055 A 
ATOM      6  C5  BZF d   1       5.627   2.582   5.273  0.00  0.00    -0.016 A 
ATOM      7  C6  BZF d   1       4.824   2.502   4.154  0.00  0.00     0.022 A 
ATOM      8  C7  BZF d   1       4.357   1.312   3.706  0.00  0.00     0.029 A 
ATOM      9  C7A BZF d   1       4.700   0.194   4.426  0.00  0.00     0.058 A 
ENDROOT
TORSDOF 0
ENDMDL
