MODEL 1
REMARK minimizedAffinity 3.13825631
REMARK minimizedRMSD -1
REMARK  1 active torsions:
REMARK  status: ('A' for Active; 'I' for Inactive)
REMARK    1  A    between atoms: C3_4  and  O_7 
ROOT
ATOM      1  C   UNL d   1      -1.282  -0.408   0.363  0.00  0.00    -0.033 A 
ATOM      2  C1  UNL d   1       0.048  -0.039   0.154  0.00  0.00     0.039 A 
ATOM      3  C2  UNL d   1       0.410   1.310   0.164  0.00  0.00    -0.080 A 
ATOM      4  C3  UNL d   1      -0.566   2.278   0.383  0.00  0.00     0.150 A 
ATOM      5  C4  UNL d   1      -1.892   1.917   0.596  0.00  0.00    -0.007 A 
ATOM      6  C5  UNL d   1      -2.252   0.570   0.585  0.00  0.00     0.039 A 
ENDROOT
BRANCH   4   7
ATOM      7  O   UNL d   1      -0.262   3.606   0.396  0.00  0.00    -0.526 OA
ATOM      8  H5  UNL d   1       0.686   3.707   0.207  0.00  0.00     0.418 HD
ENDBRANCH   4   7
TORSDOF 1
ENDMDL
