MODEL 1
REMARK minimizedAffinity 2.65304828
REMARK minimizedRMSD -1
REMARK  1 active torsions:
REMARK  status: ('A' for Active; 'I' for Inactive)
REMARK    1  A    between atoms: C3_4  and  O_7 
ROOT
ATOM      1  C   UNL d   1       1.099   3.409   1.528  0.00  0.00    -0.033 A 
ATOM      2  C1  UNL d   1       1.185   3.789   2.869  0.00  0.00     0.039 A 
ATOM      3  C2  UNL d   1       0.032   3.857   3.653  0.00  0.00    -0.080 A 
ATOM      4  C3  UNL d   1      -1.199   3.542   3.086  0.00  0.00     0.150 A 
ATOM      5  C4  UNL d   1      -1.293   3.159   1.752  0.00  0.00    -0.007 A 
ATOM      6  C5  UNL d   1      -0.140   3.093   0.970  0.00  0.00     0.039 A 
ENDROOT
BRANCH   4   7
ATOM      7  O   UNL d   1      -2.353   3.598   3.810  0.00  0.00    -0.526 OA
ATOM      8  H5  UNL d   1      -2.138   3.905   4.707  0.00  0.00     0.418 HD
ENDBRANCH   4   7
TORSDOF 1
ENDMDL
