MODEL 1
REMARK minimizedAffinity -1.31203067
REMARK minimizedRMSD -1
REMARK  1 active torsions:
REMARK  status: ('A' for Active; 'I' for Inactive)
REMARK    1  A    between atoms: C3_4  and  O_7 
ROOT
ATOM      1  C   UNL d   1      -1.089   5.246  -4.512  0.00  0.00    -0.033 A 
ATOM      2  C1  UNL d   1      -0.663   4.370  -3.512  0.00  0.00     0.039 A 
ATOM      3  C2  UNL d   1      -0.632   2.995  -3.752  0.00  0.00    -0.080 A 
ATOM      4  C3  UNL d   1      -1.028   2.510  -4.996  0.00  0.00     0.150 A 
ATOM      5  C4  UNL d   1      -1.450   3.377  -5.998  0.00  0.00    -0.007 A 
ATOM      6  C5  UNL d   1      -1.481   4.750  -5.756  0.00  0.00     0.039 A 
ENDROOT
BRANCH   4   7
ATOM      7  O   UNL d   1      -1.020   1.176  -5.275  0.00  0.00    -0.526 OA
ATOM      8  H5  UNL d   1      -0.733   0.696  -4.480  0.00  0.00     0.418 HD
ENDBRANCH   4   7
TORSDOF 1
ENDMDL
