MODEL 1
REMARK minimizedAffinity -4.52493191
REMARK minimizedRMSD -1
REMARK  1 active torsions:
REMARK  status: ('A' for Active; 'I' for Inactive)
REMARK    1  A    between atoms: C3_4  and  O_7 
ROOT
ATOM      1  C   UNL d   1       2.345   0.147  -1.291  0.00  0.00    -0.033 A 
ATOM      2  C1  UNL d   1       1.695   0.485  -0.103  0.00  0.00     0.039 A 
ATOM      3  C2  UNL d   1       0.786  -0.403   0.475  0.00  0.00    -0.080 A 
ATOM      4  C3  UNL d   1       0.536  -1.624  -0.145  0.00  0.00     0.150 A 
ATOM      5  C4  UNL d   1       1.182  -1.969  -1.327  0.00  0.00    -0.007 A 
ATOM      6  C5  UNL d   1       2.089  -1.081  -1.903  0.00  0.00     0.039 A 
ENDROOT
BRANCH   4   7
ATOM      7  O   UNL d   1      -0.347  -2.522   0.379  0.00  0.00    -0.526 OA
ATOM      8  H5  UNL d   1      -0.739  -2.136   1.180  0.00  0.00     0.418 HD
ENDBRANCH   4   7
TORSDOF 1
ENDMDL
