MODEL 1
REMARK minimizedAffinity 0.566462934
REMARK minimizedRMSD -1
REMARK  1 active torsions:
REMARK  status: ('A' for Active; 'I' for Inactive)
REMARK    1  A    between atoms: C3_4  and  O_7 
ROOT
ATOM      1  C   UNL d   1      -2.090   0.783   0.121  0.00  0.00    -0.033 A 
ATOM      2  C1  UNL d   1      -3.463   0.973  -0.046  0.00  0.00     0.039 A 
ATOM      3  C2  UNL d   1      -4.356   0.515   0.924  0.00  0.00    -0.080 A 
ATOM      4  C3  UNL d   1      -3.865  -0.130   2.056  0.00  0.00     0.150 A 
ATOM      5  C4  UNL d   1      -2.498  -0.319   2.231  0.00  0.00    -0.007 A 
ATOM      6  C5  UNL d   1      -1.607   0.138   1.261  0.00  0.00     0.039 A 
ENDROOT
BRANCH   4   7
ATOM      7  O   UNL d   1      -4.698  -0.598   3.027  0.00  0.00    -0.526 OA
ATOM      8  H5  UNL d   1      -5.615  -0.422   2.758  0.00  0.00     0.418 HD
ENDBRANCH   4   7
TORSDOF 1
ENDMDL
