MODEL 1
REMARK minimizedAffinity -3.15862036
REMARK minimizedRMSD -1
REMARK  1 active torsions:
REMARK  status: ('A' for Active; 'I' for Inactive)
REMARK    1  A    between atoms: C3_4  and  O_7 
ROOT
ATOM      1  C   UNL d   1       0.101  -1.032   1.057  0.00  0.00    -0.033 A 
ATOM      2  C1  UNL d   1       1.151  -0.148   0.799  0.00  0.00     0.039 A 
ATOM      3  C2  UNL d   1       0.909   1.225   0.727  0.00  0.00    -0.080 A 
ATOM      4  C3  UNL d   1      -0.386   1.701   0.915  0.00  0.00     0.150 A 
ATOM      5  C4  UNL d   1      -1.436   0.827   1.177  0.00  0.00    -0.007 A 
ATOM      6  C5  UNL d   1      -1.192  -0.544   1.247  0.00  0.00     0.039 A 
ENDROOT
BRANCH   4   7
ATOM      7  O   UNL d   1      -0.672   3.032   0.849  0.00  0.00    -0.526 OA
ATOM      8  H5  UNL d   1       0.145   3.512   0.634  0.00  0.00     0.418 HD
ENDBRANCH   4   7
TORSDOF 1
ENDMDL
