MODEL 1
REMARK minimizedAffinity 0.378327429
REMARK minimizedRMSD -1
REMARK  1 active torsions:
REMARK  status: ('A' for Active; 'I' for Inactive)
REMARK    1  A    between atoms: C3_4  and  O_7 
ROOT
ATOM      1  C   UNL d   1       2.261   2.301  -4.065  0.00  0.00    -0.033 A 
ATOM      2  C1  UNL d   1       3.466   2.490  -3.386  0.00  0.00     0.039 A 
ATOM      3  C2  UNL d   1       4.528   3.144  -4.014  0.00  0.00    -0.080 A 
ATOM      4  C3  UNL d   1       4.372   3.603  -5.319  0.00  0.00     0.150 A 
ATOM      5  C4  UNL d   1       3.173   3.421  -6.000  0.00  0.00    -0.007 A 
ATOM      6  C5  UNL d   1       2.114   2.768  -5.372  0.00  0.00     0.039 A 
ENDROOT
BRANCH   4   7
ATOM      7  O   UNL d   1       5.382   4.243  -5.975  0.00  0.00    -0.526 OA
ATOM      8  H5  UNL d   1       6.158   4.271  -5.391  0.00  0.00     0.418 HD
ENDBRANCH   4   7
TORSDOF 1
ENDMDL
