MODEL 1
REMARK minimizedAffinity -1.38439918
REMARK minimizedRMSD -1
REMARK  1 active torsions:
REMARK  status: ('A' for Active; 'I' for Inactive)
REMARK    1  A    between atoms: C3_4  and  O_7 
ROOT
ATOM      1  C   UNL d   1       0.729  -5.804  -3.119  0.00  0.00    -0.033 A 
ATOM      2  C1  UNL d   1       2.096  -5.999  -2.909  0.00  0.00     0.039 A 
ATOM      3  C2  UNL d   1       2.970  -4.911  -2.929  0.00  0.00    -0.080 A 
ATOM      4  C3  UNL d   1       2.465  -3.633  -3.159  0.00  0.00     0.150 A 
ATOM      5  C4  UNL d   1       1.104  -3.431  -3.364  0.00  0.00    -0.007 A 
ATOM      6  C5  UNL d   1       0.233  -4.519  -3.345  0.00  0.00     0.039 A 
ENDROOT
BRANCH   4   7
ATOM      7  O   UNL d   1       3.280  -2.541  -3.192  0.00  0.00    -0.526 OA
ATOM      8  H5  UNL d   1       4.196  -2.836  -3.063  0.00  0.00     0.418 HD
ENDBRANCH   4   7
TORSDOF 1
ENDMDL
