MODEL 1
REMARK minimizedAffinity 0.854554892
REMARK minimizedRMSD -1
REMARK  1 active torsions:
REMARK  status: ('A' for Active; 'I' for Inactive)
REMARK    1  A    between atoms: C3_4  and  O_7 
ROOT
ATOM      1  C   UNL d   1       0.557   0.004   0.377  0.00  0.00    -0.033 A 
ATOM      2  C1  UNL d   1      -0.719   0.463   0.043  0.00  0.00     0.039 A 
ATOM      3  C2  UNL d   1      -0.916   1.185  -1.135  0.00  0.00    -0.080 A 
ATOM      4  C3  UNL d   1       0.168   1.441  -1.970  0.00  0.00     0.150 A 
ATOM      5  C4  UNL d   1       1.441   0.983  -1.645  0.00  0.00    -0.007 A 
ATOM      6  C5  UNL d   1       1.637   0.263  -0.468  0.00  0.00     0.039 A 
ENDROOT
BRANCH   4   7
ATOM      7  O   UNL d   1       0.025   2.146  -3.128  0.00  0.00    -0.526 OA
ATOM      8  H5  UNL d   1      -0.903   2.423  -3.207  0.00  0.00     0.418 HD
ENDBRANCH   4   7
TORSDOF 1
ENDMDL
