MODEL 1
REMARK minimizedAffinity -1.09778047
REMARK minimizedRMSD -1
REMARK  1 active torsions:
REMARK  status: ('A' for Active; 'I' for Inactive)
REMARK    1  A    between atoms: C3_4  and  O_7 
ROOT
ATOM      1  C   UNL d   1      -1.707   1.183   0.750  0.00  0.00    -0.033 A 
ATOM      2  C1  UNL d   1      -1.065   2.363   1.129  0.00  0.00     0.039 A 
ATOM      3  C2  UNL d   1       0.326   2.401   1.236  0.00  0.00    -0.080 A 
ATOM      4  C3  UNL d   1       1.064   1.253   0.959  0.00  0.00     0.150 A 
ATOM      5  C4  UNL d   1       0.431   0.074   0.577  0.00  0.00    -0.007 A 
ATOM      6  C5  UNL d   1      -0.958   0.039   0.472  0.00  0.00     0.039 A 
ENDROOT
BRANCH   4   7
ATOM      7  O   UNL d   1       2.424   1.239   1.054  0.00  0.00    -0.526 OA
ATOM      8  H5  UNL d   1       2.720   2.114   1.355  0.00  0.00     0.418 HD
ENDBRANCH   4   7
TORSDOF 1
ENDMDL
