MODEL 1
REMARK minimizedAffinity 0.26215902
REMARK minimizedRMSD -1
REMARK  1 active torsions:
REMARK  status: ('A' for Active; 'I' for Inactive)
REMARK    1  A    between atoms: C3_4  and  O_7 
ROOT
ATOM      1  C   UNL d   1      -2.870   1.564   0.719  0.00  0.00    -0.033 A 
ATOM      2  C1  UNL d   1      -2.714   0.194   0.501  0.00  0.00     0.039 A 
ATOM      3  C2  UNL d   1      -1.437  -0.371   0.483  0.00  0.00    -0.080 A 
ATOM      4  C3  UNL d   1      -0.327   0.444   0.686  0.00  0.00     0.150 A 
ATOM      5  C4  UNL d   1      -0.475   1.809   0.908  0.00  0.00    -0.007 A 
ATOM      6  C5  UNL d   1      -1.751   2.371   0.925  0.00  0.00     0.039 A 
ENDROOT
BRANCH   4   7
ATOM      7  O   UNL d   1       0.939  -0.061   0.673  0.00  0.00    -0.526 OA
ATOM      8  H5  UNL d   1       0.890  -1.012   0.480  0.00  0.00     0.418 HD
ENDBRANCH   4   7
TORSDOF 1
ENDMDL
