MODEL 1
REMARK minimizedAffinity 1.30012953
REMARK minimizedRMSD -1
REMARK  1 active torsions:
REMARK  status: ('A' for Active; 'I' for Inactive)
REMARK    1  A    between atoms: C3_4  and  O_7 
ROOT
ATOM      1  C   UNL d   1      -1.202   0.929   0.278  0.00  0.00    -0.033 A 
ATOM      2  C1  UNL d   1      -0.146   0.021   0.179  0.00  0.00     0.039 A 
ATOM      3  C2  UNL d   1       1.128   0.380   0.623  0.00  0.00    -0.080 A 
ATOM      4  C3  UNL d   1       1.333   1.647   1.162  0.00  0.00     0.150 A 
ATOM      5  C4  UNL d   1       0.284   2.555   1.267  0.00  0.00    -0.007 A 
ATOM      6  C5  UNL d   1      -0.988   2.195   0.823  0.00  0.00     0.039 A 
ENDROOT
BRANCH   4   7
ATOM      7  O   UNL d   1       2.560   2.044   1.604  0.00  0.00    -0.526 OA
ATOM      8  H5  UNL d   1       3.192   1.325   1.443  0.00  0.00     0.418 HD
ENDBRANCH   4   7
TORSDOF 1
ENDMDL
