MODEL 1
REMARK minimizedAffinity -2.74171877
REMARK minimizedRMSD -1
REMARK  1 active torsions:
REMARK  status: ('A' for Active; 'I' for Inactive)
REMARK    1  A    between atoms: C3_4  and  O_7 
ROOT
ATOM      1  C   UNL d   1      -5.649   3.604  -5.978  0.00  0.00    -0.033 A 
ATOM      2  C1  UNL d   1      -5.793   4.993  -5.970  0.00  0.00     0.039 A 
ATOM      3  C2  UNL d   1      -4.664   5.814  -5.972  0.00  0.00    -0.080 A 
ATOM      4  C3  UNL d   1      -3.398   5.235  -5.982  0.00  0.00     0.150 A 
ATOM      5  C4  UNL d   1      -3.247   3.852  -5.994  0.00  0.00    -0.007 A 
ATOM      6  C5  UNL d   1      -4.376   3.034  -5.992  0.00  0.00     0.039 A 
ENDROOT
BRANCH   4   7
ATOM      7  O   UNL d   1      -2.266   5.995  -5.980  0.00  0.00    -0.526 OA
ATOM      8  H5  UNL d   1      -2.525   6.931  -5.942  0.00  0.00     0.418 HD
ENDBRANCH   4   7
TORSDOF 1
ENDMDL
