MODEL 1
REMARK minimizedAffinity 1.11900508
REMARK minimizedRMSD -1
REMARK  1 active torsions:
REMARK  status: ('A' for Active; 'I' for Inactive)
REMARK    1  A    between atoms: C3_4  and  O_7 
ROOT
ATOM      1  C   UNL d   1      -2.120   0.458   1.347  0.00  0.00    -0.033 A 
ATOM      2  C1  UNL d   1      -1.418   1.662   1.256  0.00  0.00     0.039 A 
ATOM      3  C2  UNL d   1      -0.055   1.657   0.955  0.00  0.00    -0.080 A 
ATOM      4  C3  UNL d   1       0.594   0.443   0.745  0.00  0.00     0.150 A 
ATOM      5  C4  UNL d   1      -0.100  -0.760   0.830  0.00  0.00    -0.007 A 
ATOM      6  C5  UNL d   1      -1.461  -0.753   1.132  0.00  0.00     0.039 A 
ENDROOT
BRANCH   4   7
ATOM      7  O   UNL d   1       1.924   0.387   0.453  0.00  0.00    -0.526 OA
ATOM      8  H5  UNL d   1       2.278   1.293   0.456  0.00  0.00     0.418 HD
ENDBRANCH   4   7
TORSDOF 1
ENDMDL
