MODEL 1
REMARK minimizedAffinity 1.86696696
REMARK minimizedRMSD -1
REMARK  1 active torsions:
REMARK  status: ('A' for Active; 'I' for Inactive)
REMARK    1  A    between atoms: C3_4  and  O_7 
ROOT
ATOM      1  C   UNL d   1      -2.015   5.284  -5.990  0.00  0.00    -0.033 A 
ATOM      2  C1  UNL d   1      -2.012   3.888  -5.987  0.00  0.00     0.039 A 
ATOM      3  C2  UNL d   1      -3.218   3.185  -5.983  0.00  0.00    -0.080 A 
ATOM      4  C3  UNL d   1      -4.419   3.889  -5.983  0.00  0.00     0.150 A 
ATOM      5  C4  UNL d   1      -4.430   5.280  -5.989  0.00  0.00    -0.007 A 
ATOM      6  C5  UNL d   1      -3.224   5.980  -5.992  0.00  0.00     0.039 A 
ENDROOT
BRANCH   4   7
ATOM      7  O   UNL d   1      -5.622   3.247  -5.974  0.00  0.00    -0.526 OA
ATOM      8  H5  UNL d   1      -5.459   2.290  -5.941  0.00  0.00     0.418 HD
ENDBRANCH   4   7
TORSDOF 1
ENDMDL
