MODEL 1
REMARK minimizedAffinity -0.943546116
REMARK minimizedRMSD -1
REMARK  1 active torsions:
REMARK  status: ('A' for Active; 'I' for Inactive)
REMARK    1  A    between atoms: C3_4  and  O_7 
ROOT
ATOM      1  C   UNL d   1      -0.565   1.307   0.478  0.00  0.00    -0.033 A 
ATOM      2  C1  UNL d   1       0.668   0.654   0.467  0.00  0.00     0.039 A 
ATOM      3  C2  UNL d   1       1.765   1.217   1.122  0.00  0.00    -0.080 A 
ATOM      4  C3  UNL d   1       1.615   2.432   1.785  0.00  0.00     0.150 A 
ATOM      5  C4  UNL d   1       0.387   3.087   1.803  0.00  0.00    -0.007 A 
ATOM      6  C5  UNL d   1      -0.706   2.523   1.148  0.00  0.00     0.039 A 
ENDROOT
BRANCH   4   7
ATOM      7  O   UNL d   1       2.657   3.024   2.434  0.00  0.00    -0.526 OA
ATOM      8  H5  UNL d   1       3.448   2.473   2.312  0.00  0.00     0.418 HD
ENDBRANCH   4   7
TORSDOF 1
ENDMDL
