MODEL 1
REMARK minimizedAffinity 2.71522593
REMARK minimizedRMSD -1
REMARK  1 active torsions:
REMARK  status: ('A' for Active; 'I' for Inactive)
REMARK    1  A    between atoms: C3_4  and  O_7 
ROOT
ATOM      1  C   UNL d   1      -2.323   1.443   1.317  0.00  0.00    -0.033 A 
ATOM      2  C1  UNL d   1      -2.157   0.082   1.050  0.00  0.00     0.039 A 
ATOM      3  C2  UNL d   1      -0.894  -0.420   0.731  0.00  0.00    -0.080 A 
ATOM      4  C3  UNL d   1       0.194   0.447   0.683  0.00  0.00     0.150 A 
ATOM      5  C4  UNL d   1       0.037   1.803   0.950  0.00  0.00    -0.007 A 
ATOM      6  C5  UNL d   1      -1.226   2.303   1.268  0.00  0.00     0.039 A 
ENDROOT
BRANCH   4   7
ATOM      7  O   UNL d   1       1.445   0.004   0.371  0.00  0.00    -0.526 OA
ATOM      8  H5  UNL d   1       1.396  -0.948   0.182  0.00  0.00     0.418 HD
ENDBRANCH   4   7
TORSDOF 1
ENDMDL
