MODEL 1
REMARK minimizedAffinity -4.43404293
REMARK minimizedRMSD -1
REMARK  0 active torsions:
REMARK  status: ('A' for Active; 'I' for Inactive)
ROOT
ATOM      1  C   UNL d   1      -2.101   1.107   0.829  0.00  0.00     0.020 A 
ATOM      2  C1  UNL d   1      -1.483   1.275   2.067  0.00  0.00     0.020 A 
ATOM      3  C2  UNL d   1      -0.201   0.764   2.283  0.00  0.00     0.034 A 
ATOM      4  C3  UNL d   1       0.467   0.083   1.259  0.00  0.00     0.017 A 
ATOM      5  C4  UNL d   1      -0.154  -0.085   0.016  0.00  0.00     0.017 A 
ATOM      6  C5  UNL d   1      -1.437   0.428  -0.195  0.00  0.00     0.034 A 
ATOM      7 Cl   UNL d   1       0.607  -0.914  -1.296  0.00  0.00    -0.070 Cl
ATOM      8 Cl1  UNL d   1       2.051  -0.521   1.595  0.00  0.00    -0.070 Cl
ENDROOT
TORSDOF 0
ENDMDL
