MODEL 1
REMARK minimizedAffinity -3.86870503
REMARK minimizedRMSD -1
REMARK  0 active torsions:
REMARK  status: ('A' for Active; 'I' for Inactive)
ROOT
ATOM      1  C   UNL d   1       0.840  -0.452  -1.211  0.00  0.00     0.020 A 
ATOM      2  C1  UNL d   1       1.657   0.067  -0.207  0.00  0.00     0.020 A 
ATOM      3  C2  UNL d   1       1.087   0.695   0.902  0.00  0.00     0.034 A 
ATOM      4  C3  UNL d   1      -0.304   0.805   1.011  0.00  0.00     0.017 A 
ATOM      5  C4  UNL d   1      -1.123   0.284   0.003  0.00  0.00     0.017 A 
ATOM      6  C5  UNL d   1      -0.547  -0.344  -1.106  0.00  0.00     0.034 A 
ATOM      7 Cl   UNL d   1      -2.848   0.381   0.067  0.00  0.00    -0.070 Cl
ATOM      8 Cl1  UNL d   1      -0.940   1.594   2.411  0.00  0.00    -0.070 Cl
ENDROOT
TORSDOF 0
ENDMDL
