MODEL 1
REMARK minimizedAffinity -5.39523649
REMARK minimizedRMSD -1
REMARK  0 active torsions:
REMARK  status: ('A' for Active; 'I' for Inactive)
ROOT
ATOM      1  C   UNL d   1       0.246   0.896   2.703  0.00  0.00     0.020 A 
ATOM      2  C1  UNL d   1      -1.011   1.468   2.890  0.00  0.00     0.020 A 
ATOM      3  C2  UNL d   1      -1.901   1.564   1.819  0.00  0.00     0.034 A 
ATOM      4  C3  UNL d   1      -1.535   1.087   0.555  0.00  0.00     0.017 A 
ATOM      5  C4  UNL d   1      -0.273   0.513   0.368  0.00  0.00     0.017 A 
ATOM      6  C5  UNL d   1       0.614   0.419   1.444  0.00  0.00     0.034 A 
ATOM      7 Cl   UNL d   1       0.250  -0.098  -1.162  0.00  0.00    -0.070 Cl
ATOM      8 Cl1  UNL d   1      -2.686   1.238  -0.725  0.00  0.00    -0.070 Cl
ENDROOT
TORSDOF 0
ENDMDL
