MODEL 1
REMARK minimizedAffinity -3.00120687
REMARK minimizedRMSD -1
REMARK  0 active torsions:
REMARK  status: ('A' for Active; 'I' for Inactive)
ROOT
ATOM      1  C   UNL d   1      -1.154   0.966  -1.184  0.00  0.00     0.020 A 
ATOM      2  C1  UNL d   1       0.182   0.726  -1.501  0.00  0.00     0.020 A 
ATOM      3  C2  UNL d   1       1.051   0.224  -0.530  0.00  0.00     0.034 A 
ATOM      4  C3  UNL d   1       0.584  -0.041   0.763  0.00  0.00     0.017 A 
ATOM      5  C4  UNL d   1      -0.758   0.200   1.080  0.00  0.00     0.017 A 
ATOM      6  C5  UNL d   1      -1.623   0.703   0.103  0.00  0.00     0.034 A 
ATOM      7 Cl   UNL d   1      -1.407  -0.102   2.653  0.00  0.00    -0.070 Cl
ATOM      8 Cl1  UNL d   1       1.714  -0.662   1.913  0.00  0.00    -0.070 Cl
ENDROOT
TORSDOF 0
ENDMDL
