MODEL 1
REMARK minimizedAffinity -2.31038141
REMARK minimizedRMSD -1
REMARK  0 active torsions:
REMARK  status: ('A' for Active; 'I' for Inactive)
ROOT
ATOM      1  C   UNL d   1      -1.938  -0.566  -0.310  0.00  0.00     0.020 A 
ATOM      2  C1  UNL d   1      -0.798  -1.134  -0.879  0.00  0.00     0.020 A 
ATOM      3  C2  UNL d   1       0.415  -1.106  -0.188  0.00  0.00     0.034 A 
ATOM      4  C3  UNL d   1       0.492  -0.511   1.076  0.00  0.00     0.017 A 
ATOM      5  C4  UNL d   1      -0.652   0.059   1.646  0.00  0.00     0.017 A 
ATOM      6  C5  UNL d   1      -1.864   0.029   0.950  0.00  0.00     0.034 A 
ATOM      7 Cl   UNL d   1      -0.635   0.812   3.202  0.00  0.00    -0.070 Cl
ATOM      8 Cl1  UNL d   1       2.025  -0.513   1.873  0.00  0.00    -0.070 Cl
ENDROOT
TORSDOF 0
ENDMDL
