MODEL 1
REMARK minimizedAffinity -1.1866765
REMARK minimizedRMSD -1
REMARK  0 active torsions:
REMARK  status: ('A' for Active; 'I' for Inactive)
ROOT
ATOM      1  C   UNL d   1      -1.823   0.592   1.538  0.00  0.00     0.020 A 
ATOM      2  C1  UNL d   1      -1.501   0.207   0.237  0.00  0.00     0.020 A 
ATOM      3  C2  UNL d   1      -0.331  -0.514  -0.009  0.00  0.00     0.034 A 
ATOM      4  C3  UNL d   1       0.523  -0.852   1.048  0.00  0.00     0.017 A 
ATOM      5  C4  UNL d   1       0.199  -0.465   2.353  0.00  0.00     0.017 A 
ATOM      6  C5  UNL d   1      -0.974   0.257   2.593  0.00  0.00     0.034 A 
ATOM      7 Cl   UNL d   1       1.202  -0.845   3.708  0.00  0.00    -0.070 Cl
ATOM      8 Cl1  UNL d   1       1.953  -1.745   0.671  0.00  0.00    -0.070 Cl
ENDROOT
TORSDOF 0
ENDMDL
