MODEL 1
REMARK minimizedAffinity -1.44651198
REMARK minimizedRMSD -1
REMARK  0 active torsions:
REMARK  status: ('A' for Active; 'I' for Inactive)
ROOT
ATOM      1  C   UNL d   1       0.294  -0.368   4.052  0.00  0.00     0.020 A 
ATOM      2  C1  UNL d   1      -0.838   0.019   3.335  0.00  0.00     0.020 A 
ATOM      3  C2  UNL d   1      -0.862  -0.113   1.945  0.00  0.00     0.034 A 
ATOM      4  C3  UNL d   1       0.247  -0.633   1.268  0.00  0.00     0.017 A 
ATOM      5  C4  UNL d   1       1.382  -1.021   1.989  0.00  0.00     0.017 A 
ATOM      6  C5  UNL d   1       1.401  -0.887   3.380  0.00  0.00     0.034 A 
ATOM      7 Cl   UNL d   1       2.789  -1.671   1.223  0.00  0.00    -0.070 Cl
ATOM      8 Cl1  UNL d   1       0.148  -0.768  -0.452  0.00  0.00    -0.070 Cl
ENDROOT
TORSDOF 0
ENDMDL
