MODEL 1
REMARK minimizedAffinity -4.54999399
REMARK minimizedRMSD -1
REMARK  0 active torsions:
REMARK  status: ('A' for Active; 'I' for Inactive)
ROOT
ATOM      1  C   UNL d   1      -1.120   1.400   2.936  0.00  0.00     0.020 A 
ATOM      2  C1  UNL d   1       0.167   1.790   2.567  0.00  0.00     0.020 A 
ATOM      3  C2  UNL d   1       0.711   1.348   1.359  0.00  0.00     0.034 A 
ATOM      4  C3  UNL d   1      -0.031   0.513   0.516  0.00  0.00     0.017 A 
ATOM      5  C4  UNL d   1      -1.323   0.121   0.888  0.00  0.00     0.017 A 
ATOM      6  C5  UNL d   1      -1.863   0.567   2.098  0.00  0.00     0.034 A 
ATOM      7 Cl   UNL d   1      -2.299  -0.908  -0.099  0.00  0.00    -0.070 Cl
ATOM      8 Cl1  UNL d   1       0.704   0.005  -0.962  0.00  0.00    -0.070 Cl
ENDROOT
TORSDOF 0
ENDMDL
