MODEL 1
REMARK minimizedAffinity -2.31662607
REMARK minimizedRMSD -1
REMARK  0 active torsions:
REMARK  status: ('A' for Active; 'I' for Inactive)
ROOT
ATOM      1  C   UNL d   1      -1.835   0.892   1.101  0.00  0.00     0.020 A 
ATOM      2  C1  UNL d   1      -1.170   0.351   2.201  0.00  0.00     0.020 A 
ATOM      3  C2  UNL d   1      -0.104  -0.530   2.008  0.00  0.00     0.034 A 
ATOM      4  C3  UNL d   1       0.301  -0.872   0.713  0.00  0.00     0.017 A 
ATOM      5  C4  UNL d   1      -0.367  -0.328  -0.391  0.00  0.00     0.017 A 
ATOM      6  C5  UNL d   1      -1.434   0.554  -0.192  0.00  0.00     0.034 A 
ATOM      7 Cl   UNL d   1       0.076  -0.703  -2.019  0.00  0.00    -0.070 Cl
ATOM      8 Cl1  UNL d   1       1.628  -1.967   0.549  0.00  0.00    -0.070 Cl
ENDROOT
TORSDOF 0
ENDMDL
