MODEL 1
REMARK minimizedAffinity -1.37017787
REMARK minimizedRMSD -1
REMARK  0 active torsions:
REMARK  status: ('A' for Active; 'I' for Inactive)
ROOT
ATOM      1  C   UNL d   1      -0.234   0.183   0.168  0.00  0.00     0.020 A 
ATOM      2  C1  UNL d   1      -0.040  -1.045  -0.462  0.00  0.00     0.020 A 
ATOM      3  C2  UNL d   1       0.546  -1.095  -1.729  0.00  0.00     0.034 A 
ATOM      4  C3  UNL d   1       0.940   0.085  -2.369  0.00  0.00     0.017 A 
ATOM      5  C4  UNL d   1       0.745   1.318  -1.736  0.00  0.00     0.017 A 
ATOM      6  C5  UNL d   1       0.158   1.362  -0.467  0.00  0.00     0.034 A 
ATOM      7 Cl   UNL d   1       1.205   2.817  -2.463  0.00  0.00    -0.070 Cl
ATOM      8 Cl1  UNL d   1       1.658  -0.051  -3.935  0.00  0.00    -0.070 Cl
ENDROOT
TORSDOF 0
ENDMDL
