MODEL 1
REMARK minimizedAffinity -4.4818697
REMARK minimizedRMSD -1
REMARK  0 active torsions:
REMARK  status: ('A' for Active; 'I' for Inactive)
ROOT
ATOM      1  C   UNL d   1       0.768  -2.177  -0.729  0.00  0.00     0.077 C 
ATOM      2  C1  UNL d   1       0.234  -0.779  -0.823  0.00  0.00    -0.074 A 
ATOM      3  C2  UNL d   1       0.558   0.043  -1.907  0.00  0.00    -0.005 A 
ATOM      4  C3  UNL d   1       0.045   1.338  -1.986  0.00  0.00     0.006 A 
ATOM      5  C4  UNL d   1      -0.794   1.823  -0.982  0.00  0.00    -0.005 A 
ATOM      6  C5  UNL d   1      -1.129   1.016   0.109  0.00  0.00    -0.074 A 
ATOM      7  C6  UNL d   1      -2.038   1.519   1.191  0.00  0.00     0.077 C 
ATOM      8  C7  UNL d   1      -0.616  -0.287   0.177  0.00  0.00    -0.001 A 
ENDROOT
TORSDOF 0
ENDMDL
