MODEL 1
REMARK minimizedAffinity -2.04852223
REMARK minimizedRMSD -1
REMARK  0 active torsions:
REMARK  status: ('A' for Active; 'I' for Inactive)
ROOT
ATOM      1  C   UNL d   1      -1.312   3.212   1.775  0.00  0.00     0.077 C 
ATOM      2  C1  UNL d   1      -0.872   1.976   1.048  0.00  0.00    -0.074 A 
ATOM      3  C2  UNL d   1      -1.193   1.781  -0.299  0.00  0.00    -0.005 A 
ATOM      4  C3  UNL d   1      -0.768   0.630  -0.963  0.00  0.00     0.006 A 
ATOM      5  C4  UNL d   1      -0.020  -0.336  -0.289  0.00  0.00    -0.005 A 
ATOM      6  C5  UNL d   1       0.311  -0.157   1.058  0.00  0.00    -0.074 A 
ATOM      7  C6  UNL d   1       1.122  -1.181   1.795  0.00  0.00     0.077 C 
ATOM      8  C7  UNL d   1      -0.113   1.005   1.717  0.00  0.00    -0.001 A 
ENDROOT
TORSDOF 0
ENDMDL
