MODEL 1
REMARK minimizedAffinity 7.78963757
REMARK minimizedRMSD -1
REMARK  0 active torsions:
REMARK  status: ('A' for Active; 'I' for Inactive)
ROOT
ATOM      1  C   UNL d   1       0.373   1.466   2.986  0.00  0.00     0.077 C 
ATOM      2  C1  UNL d   1      -0.325   1.879   1.724  0.00  0.00    -0.074 A 
ATOM      3  C2  UNL d   1      -1.377   2.800   1.753  0.00  0.00    -0.005 A 
ATOM      4  C3  UNL d   1      -2.010   3.182   0.571  0.00  0.00     0.006 A 
ATOM      5  C4  UNL d   1      -1.599   2.647  -0.651  0.00  0.00    -0.005 A 
ATOM      6  C5  UNL d   1      -0.548   1.726  -0.700  0.00  0.00    -0.074 A 
ATOM      7  C6  UNL d   1      -0.086   1.149  -2.005  0.00  0.00     0.077 C 
ATOM      8  C7  UNL d   1       0.088   1.352   0.492  0.00  0.00    -0.001 A 
ENDROOT
TORSDOF 0
ENDMDL
