MODEL 1
REMARK minimizedAffinity -2.97882342
REMARK minimizedRMSD -1
REMARK  0 active torsions:
REMARK  status: ('A' for Active; 'I' for Inactive)
ROOT
ATOM      1  C   UNL d   1       0.555  -2.828  -1.200  0.00  0.00     0.077 C 
ATOM      2  C1  UNL d   1       0.402  -1.357  -0.954  0.00  0.00    -0.074 A 
ATOM      3  C2  UNL d   1       0.812  -0.422  -1.910  0.00  0.00    -0.005 A 
ATOM      4  C3  UNL d   1       0.655   0.944  -1.671  0.00  0.00     0.006 A 
ATOM      5  C4  UNL d   1       0.087   1.387  -0.475  0.00  0.00    -0.005 A 
ATOM      6  C5  UNL d   1      -0.329   0.466   0.492  0.00  0.00    -0.074 A 
ATOM      7  C6  UNL d   1      -0.950   0.926   1.778  0.00  0.00     0.077 C 
ATOM      8  C7  UNL d   1      -0.174  -0.904   0.241  0.00  0.00    -0.001 A 
ENDROOT
TORSDOF 0
ENDMDL
