MODEL 1
REMARK minimizedAffinity -5.35417604
REMARK minimizedRMSD -1
REMARK  0 active torsions:
REMARK  status: ('A' for Active; 'I' for Inactive)
ROOT
ATOM      1  C   UNL d   1       0.144   1.481  -2.816  0.00  0.00     0.077 C 
ATOM      2  C1  UNL d   1       0.123   1.028  -1.387  0.00  0.00    -0.074 A 
ATOM      3  C2  UNL d   1       0.808  -0.124  -0.987  0.00  0.00    -0.005 A 
ATOM      4  C3  UNL d   1       0.787  -0.527   0.348  0.00  0.00     0.006 A 
ATOM      5  C4  UNL d   1       0.081   0.216   1.295  0.00  0.00    -0.005 A 
ATOM      6  C5  UNL d   1      -0.610   1.370   0.914  0.00  0.00    -0.074 A 
ATOM      7  C6  UNL d   1      -1.365   2.185   1.922  0.00  0.00     0.077 C 
ATOM      8  C7  UNL d   1      -0.578   1.773  -0.428  0.00  0.00    -0.001 A 
ENDROOT
TORSDOF 0
ENDMDL
