MODEL 1
REMARK minimizedAffinity -4.43349838
REMARK minimizedRMSD -1
REMARK  0 active torsions:
REMARK  status: ('A' for Active; 'I' for Inactive)
ROOT
ATOM      1  C   UNL d   1       0.683  -0.294   1.578  0.00  0.00     0.077 C 
ATOM      2  C1  UNL d   1       0.062   1.028   1.236  0.00  0.00    -0.074 A 
ATOM      3  C2  UNL d   1      -0.307   1.930   2.240  0.00  0.00    -0.005 A 
ATOM      4  C3  UNL d   1      -0.874   3.160   1.907  0.00  0.00     0.006 A 
ATOM      5  C4  UNL d   1      -1.078   3.500   0.569  0.00  0.00    -0.005 A 
ATOM      6  C5  UNL d   1      -0.714   2.612  -0.448  0.00  0.00    -0.074 A 
ATOM      7  C6  UNL d   1      -0.917   2.966  -1.892  0.00  0.00     0.077 C 
ATOM      8  C7  UNL d   1      -0.138   1.381  -0.106  0.00  0.00    -0.001 A 
ENDROOT
TORSDOF 0
ENDMDL
