MODEL 1
REMARK minimizedAffinity -4.38844442
REMARK minimizedRMSD -1
REMARK  0 active torsions:
REMARK  status: ('A' for Active; 'I' for Inactive)
ROOT
ATOM      1  C   UNL d   1      -1.609   2.954   1.749  0.00  0.00     0.077 C 
ATOM      2  C1  UNL d   1      -0.791   2.028   0.899  0.00  0.00    -0.074 A 
ATOM      3  C2  UNL d   1      -0.803   2.133  -0.496  0.00  0.00    -0.005 A 
ATOM      4  C3  UNL d   1      -0.029   1.271  -1.273  0.00  0.00     0.006 A 
ATOM      5  C4  UNL d   1       0.763   0.297  -0.664  0.00  0.00    -0.005 A 
ATOM      6  C5  UNL d   1       0.788   0.177   0.729  0.00  0.00    -0.074 A 
ATOM      7  C6  UNL d   1       1.641  -0.859   1.399  0.00  0.00     0.077 C 
ATOM      8  C7  UNL d   1       0.013   1.051   1.503  0.00  0.00    -0.001 A 
ENDROOT
TORSDOF 0
ENDMDL
