MODEL 1
REMARK minimizedAffinity -5.55212688
REMARK minimizedRMSD -1
REMARK  0 active torsions:
REMARK  status: ('A' for Active; 'I' for Inactive)
ROOT
ATOM      1  C   UNL d   1      -0.950   3.298  -1.967  0.00  0.00     0.077 C 
ATOM      2  C1  UNL d   1      -0.783   2.645  -0.627  0.00  0.00    -0.074 A 
ATOM      3  C2  UNL d   1      -1.348   3.207   0.522  0.00  0.00    -0.005 A 
ATOM      4  C3  UNL d   1      -1.192   2.583   1.760  0.00  0.00     0.006 A 
ATOM      5  C4  UNL d   1      -0.472   1.392   1.861  0.00  0.00    -0.005 A 
ATOM      6  C5  UNL d   1       0.098   0.814   0.722  0.00  0.00    -0.074 A 
ATOM      7  C6  UNL d   1       0.867  -0.471   0.811  0.00  0.00     0.077 C 
ATOM      8  C7  UNL d   1      -0.068   1.444  -0.519  0.00  0.00    -0.001 A 
ENDROOT
TORSDOF 0
ENDMDL
