MODEL 1
REMARK minimizedAffinity 6.22809649
REMARK minimizedRMSD -1
REMARK  1 active torsions:
REMARK  status: ('A' for Active; 'I' for Inactive)
REMARK    1  A    between atoms: C1_2  and  C2_3 
ROOT
ATOM      1  C2  UNL d   1       1.498  -2.627  -1.926  0.00  0.00    -0.081 A 
ATOM      2  C3  UNL d   1       2.034  -1.615  -1.121  0.00  0.00     0.006 A 
ATOM      3  C4  UNL d   1       3.148  -0.887  -1.546  0.00  0.00     0.002 A 
ATOM      4  C5  UNL d   1       3.740  -1.154  -2.786  0.00  0.00    -0.080 A 
ATOM      5  C6  UNL d   1       4.917  -0.359  -3.267  0.00  0.00     0.076 C 
ATOM      6  C7  UNL d   1       3.215  -2.177  -3.583  0.00  0.00     0.002 A 
ATOM      7  C8  UNL d   1       2.101  -2.905  -3.158  0.00  0.00     0.006 A 
ENDROOT
BRANCH   1   8
ATOM      8  C1  UNL d   1       0.258  -3.370  -1.500  0.00  0.00     0.054 C 
ATOM      9  C   UNL d   1      -0.823  -2.412  -1.021  0.00  0.00     0.018 C 
ENDBRANCH   1   8
TORSDOF 1
ENDMDL
