MODEL 1
REMARK minimizedAffinity 15.0647621
REMARK minimizedRMSD -1
REMARK  1 active torsions:
REMARK  status: ('A' for Active; 'I' for Inactive)
REMARK    1  A    between atoms: C1_2  and  C2_3 
ROOT
ATOM      1  C2  UNL d   1      -1.273   3.183   4.591  0.00  0.00    -0.081 A 
ATOM      2  C3  UNL d   1      -2.019   2.257   3.852  0.00  0.00     0.006 A 
ATOM      3  C4  UNL d   1      -1.531   1.761   2.640  0.00  0.00     0.002 A 
ATOM      4  C5  UNL d   1      -0.288   2.176   2.153  0.00  0.00    -0.080 A 
ATOM      5  C6  UNL d   1       0.261   1.628   0.869  0.00  0.00     0.076 C 
ATOM      6  C7  UNL d   1       0.450   3.114   2.883  0.00  0.00     0.002 A 
ATOM      7  C8  UNL d   1      -0.037   3.611   4.094  0.00  0.00     0.006 A 
ENDROOT
BRANCH   1   8
ATOM      8  C1  UNL d   1      -1.767   3.671   5.929  0.00  0.00     0.054 C 
ATOM      9  C   UNL d   1      -3.285   3.782   5.952  0.00  0.00     0.018 C 
ENDBRANCH   1   8
TORSDOF 1
ENDMDL
