MODEL 1
REMARK minimizedAffinity 17.835041
REMARK minimizedRMSD -1
REMARK  1 active torsions:
REMARK  status: ('A' for Active; 'I' for Inactive)
REMARK    1  A    between atoms: C1_2  and  C2_3 
ROOT
ATOM      1  C2  UNL d   1       3.517  -5.379  -5.118  0.00  0.00    -0.081 A 
ATOM      2  C3  UNL d   1       3.697  -4.210  -4.369  0.00  0.00     0.006 A 
ATOM      3  C4  UNL d   1       2.642  -3.676  -3.625  0.00  0.00     0.002 A 
ATOM      4  C5  UNL d   1       1.393  -4.306  -3.612  0.00  0.00    -0.080 A 
ATOM      5  C6  UNL d   1       0.261  -3.759  -2.794  0.00  0.00     0.076 C 
ATOM      6  C7  UNL d   1       1.208  -5.464  -4.375  0.00  0.00     0.002 A 
ATOM      7  C8  UNL d   1       2.262  -5.998  -5.119  0.00  0.00     0.006 A 
ENDROOT
BRANCH   1   8
ATOM      8  C1  UNL d   1       4.671  -5.994  -5.869  0.00  0.00     0.054 C 
ATOM      9  C   UNL d   1       5.958  -5.216  -5.638  0.00  0.00     0.018 C 
ENDBRANCH   1   8
TORSDOF 1
ENDMDL
