MODEL 1
REMARK minimizedAffinity 5.17460394
REMARK minimizedRMSD -1
REMARK  1 active torsions:
REMARK  status: ('A' for Active; 'I' for Inactive)
REMARK    1  A    between atoms: C1_2  and  C2_3 
ROOT
ATOM      1  C2  UNL d   1      -1.728   1.586   1.901  0.00  0.00    -0.081 A 
ATOM      2  C3  UNL d   1      -0.546   1.684   1.155  0.00  0.00     0.006 A 
ATOM      3  C4  UNL d   1       0.514   2.473   1.608  0.00  0.00     0.002 A 
ATOM      4  C5  UNL d   1       0.414   3.170   2.817  0.00  0.00    -0.080 A 
ATOM      5  C6  UNL d   1       1.555   3.996   3.330  0.00  0.00     0.076 C 
ATOM      6  C7  UNL d   1      -0.773   3.086   3.553  0.00  0.00     0.002 A 
ATOM      7  C8  UNL d   1      -1.833   2.298   3.100  0.00  0.00     0.006 A 
ENDROOT
BRANCH   1   8
ATOM      8  C1  UNL d   1      -2.848   0.685   1.447  0.00  0.00     0.054 C 
ATOM      9  C   UNL d   1      -3.721   0.256   2.617  0.00  0.00     0.018 C 
ENDBRANCH   1   8
TORSDOF 1
ENDMDL
