MODEL 1
REMARK minimizedAffinity 3.4740088
REMARK minimizedRMSD -1
REMARK  1 active torsions:
REMARK  status: ('A' for Active; 'I' for Inactive)
REMARK    1  A    between atoms: C1_2  and  C2_3 
ROOT
ATOM      1  C2  UNL d   1       4.607  -5.784  -3.919  0.00  0.00    -0.081 A 
ATOM      2  C3  UNL d   1       4.548  -5.949  -5.308  0.00  0.00     0.006 A 
ATOM      3  C4  UNL d   1       3.331  -5.838  -5.983  0.00  0.00     0.002 A 
ATOM      4  C5  UNL d   1       2.154  -5.552  -5.283  0.00  0.00    -0.080 A 
ATOM      5  C6  UNL d   1       0.845  -5.399  -6.000  0.00  0.00     0.076 C 
ATOM      6  C7  UNL d   1       2.210  -5.404  -3.893  0.00  0.00     0.002 A 
ATOM      7  C8  UNL d   1       3.427  -5.516  -3.217  0.00  0.00     0.006 A 
ENDROOT
BRANCH   1   8
ATOM      8  C1  UNL d   1       5.929  -5.840  -3.196  0.00  0.00     0.054 C 
ATOM      9  C   UNL d   1       5.774  -5.459  -1.730  0.00  0.00     0.018 C 
ENDBRANCH   1   8
TORSDOF 1
ENDMDL
