MODEL 1
REMARK minimizedAffinity 8.99635601
REMARK minimizedRMSD -1
REMARK  1 active torsions:
REMARK  status: ('A' for Active; 'I' for Inactive)
REMARK    1  A    between atoms: C1_2  and  C2_3 
ROOT
ATOM      1  C2  UNL d   1      -0.838  -1.489   0.126  0.00  0.00    -0.081 A 
ATOM      2  C3  UNL d   1      -1.276  -1.766  -1.175  0.00  0.00     0.006 A 
ATOM      3  C4  UNL d   1      -2.170  -2.812  -1.414  0.00  0.00     0.002 A 
ATOM      4  C5  UNL d   1      -2.647  -3.593  -0.356  0.00  0.00    -0.080 A 
ATOM      5  C6  UNL d   1      -3.631  -4.700  -0.595  0.00  0.00     0.076 C 
ATOM      6  C7  UNL d   1      -2.197  -3.328   0.941  0.00  0.00     0.002 A 
ATOM      7  C8  UNL d   1      -1.302  -2.282   1.181  0.00  0.00     0.006 A 
ENDROOT
BRANCH   1   8
ATOM      8  C1  UNL d   1       0.076  -0.321   0.395  0.00  0.00     0.054 C 
ATOM      9  C   UNL d   1      -0.666   1.002   0.271  0.00  0.00     0.018 C 
ENDBRANCH   1   8
TORSDOF 1
ENDMDL
