MODEL 1
REMARK minimizedAffinity -1.05182838
REMARK minimizedRMSD -1
REMARK  1 active torsions:
REMARK  status: ('A' for Active; 'I' for Inactive)
REMARK    1  A    between atoms: C1_2  and  C2_3 
ROOT
ATOM      1  C2  UNL d   1      -0.260   3.226   2.124  0.00  0.00    -0.081 A 
ATOM      2  C3  UNL d   1       0.073   2.289   1.138  0.00  0.00     0.006 A 
ATOM      3  C4  UNL d   1       1.404   2.107   0.754  0.00  0.00     0.002 A 
ATOM      4  C5  UNL d   1       2.424   2.853   1.355  0.00  0.00    -0.080 A 
ATOM      5  C6  UNL d   1       3.860   2.647   0.974  0.00  0.00     0.076 C 
ATOM      6  C7  UNL d   1       2.089   3.802   2.327  0.00  0.00     0.002 A 
ATOM      7  C8  UNL d   1       0.759   3.984   2.710  0.00  0.00     0.006 A 
ENDROOT
BRANCH   1   8
ATOM      8  C1  UNL d   1      -1.687   3.378   2.585  0.00  0.00     0.054 C 
ATOM      9  C   UNL d   1      -1.754   3.782   4.051  0.00  0.00     0.018 C 
ENDBRANCH   1   8
TORSDOF 1
ENDMDL
