MODEL 1
REMARK minimizedAffinity 6.3765564
REMARK minimizedRMSD -1
REMARK  1 active torsions:
REMARK  status: ('A' for Active; 'I' for Inactive)
REMARK    1  A    between atoms: C1_2  and  C2_3 
ROOT
ATOM      1  C2  UNL d   1       0.128   1.914   1.108  0.00  0.00    -0.081 A 
ATOM      2  C3  UNL d   1      -0.642   1.469   2.189  0.00  0.00     0.006 A 
ATOM      3  C4  UNL d   1      -1.018   2.354   3.203  0.00  0.00     0.002 A 
ATOM      4  C5  UNL d   1      -0.636   3.699   3.148  0.00  0.00    -0.080 A 
ATOM      5  C6  UNL d   1      -1.058   4.666   4.214  0.00  0.00     0.076 C 
ATOM      6  C7  UNL d   1       0.148   4.140   2.077  0.00  0.00     0.002 A 
ATOM      7  C8  UNL d   1       0.524   3.255   1.063  0.00  0.00     0.006 A 
ENDROOT
BRANCH   1   8
ATOM      8  C1  UNL d   1       0.480   0.977  -0.019  0.00  0.00     0.054 C 
ATOM      9  C   UNL d   1       0.123  -0.462   0.326  0.00  0.00     0.018 C 
ENDBRANCH   1   8
TORSDOF 1
ENDMDL
