MODEL 1
REMARK minimizedAffinity -3.20284867
REMARK minimizedRMSD -1
REMARK  1 active torsions:
REMARK  status: ('A' for Active; 'I' for Inactive)
REMARK    1  A    between atoms: C1_2  and  C2_3 
ROOT
ATOM      1  C2  UNL d   1      -3.650  -0.779   2.974  0.00  0.00    -0.081 A 
ATOM      2  C3  UNL d   1      -2.740  -1.841   3.035  0.00  0.00     0.006 A 
ATOM      3  C4  UNL d   1      -1.624  -1.867   2.195  0.00  0.00     0.002 A 
ATOM      4  C5  UNL d   1      -1.396  -0.828   1.286  0.00  0.00    -0.080 A 
ATOM      5  C6  UNL d   1      -0.186  -0.828   0.399  0.00  0.00     0.076 C 
ATOM      6  C7  UNL d   1      -2.315   0.224   1.212  0.00  0.00     0.002 A 
ATOM      7  C8  UNL d   1      -3.431   0.250   2.052  0.00  0.00     0.006 A 
ENDROOT
BRANCH   1   8
ATOM      8  C1  UNL d   1      -4.819  -0.717   3.924  0.00  0.00     0.054 C 
ATOM      9  C   UNL d   1      -5.998   0.020   3.303  0.00  0.00     0.018 C 
ENDBRANCH   1   8
TORSDOF 1
ENDMDL
