MODEL 1
REMARK minimizedAffinity 2.12888598
REMARK minimizedRMSD -1
REMARK  1 active torsions:
REMARK  status: ('A' for Active; 'I' for Inactive)
REMARK    1  A    between atoms: C1_2  and  C2_3 
ROOT
ATOM      1  C2  UNL d   1       0.422   2.488   2.084  0.00  0.00    -0.081 A 
ATOM      2  C3  UNL d   1       0.999   1.655   1.117  0.00  0.00     0.006 A 
ATOM      3  C4  UNL d   1       0.204   1.036   0.150  0.00  0.00     0.002 A 
ATOM      4  C5  UNL d   1      -1.180   1.245   0.128  0.00  0.00    -0.080 A 
ATOM      5  C6  UNL d   1      -2.041   0.611  -0.923  0.00  0.00     0.076 C 
ATOM      6  C7  UNL d   1      -1.758   2.063   1.105  0.00  0.00     0.002 A 
ATOM      7  C8  UNL d   1      -0.963   2.682   2.072  0.00  0.00     0.006 A 
ENDROOT
BRANCH   1   8
ATOM      8  C1  UNL d   1       1.285   3.208   3.088  0.00  0.00     0.054 C 
ATOM      9  C   UNL d   1       0.461   4.160   3.943  0.00  0.00     0.018 C 
ENDBRANCH   1   8
TORSDOF 1
ENDMDL
