MODEL 1
REMARK minimizedAffinity 0.117824413
REMARK minimizedRMSD -1
REMARK  1 active torsions:
REMARK  status: ('A' for Active; 'I' for Inactive)
REMARK    1  A    between atoms: C1_2  and  C2_3 
ROOT
ATOM      1  C2  UNL d   1       4.671   2.756  -3.955  0.00  0.00    -0.081 A 
ATOM      2  C3  UNL d   1       4.609   2.827  -5.352  0.00  0.00     0.006 A 
ATOM      3  C4  UNL d   1       3.382   2.989  -6.000  0.00  0.00     0.002 A 
ATOM      4  C5  UNL d   1       2.199   3.092  -5.262  0.00  0.00    -0.080 A 
ATOM      5  C6  UNL d   1       0.878   3.297  -5.943  0.00  0.00     0.076 C 
ATOM      6  C7  UNL d   1       2.258   3.004  -3.867  0.00  0.00     0.002 A 
ATOM      7  C8  UNL d   1       3.484   2.841  -3.219  0.00  0.00     0.006 A 
ENDROOT
BRANCH   1   8
ATOM      8  C1  UNL d   1       5.999   2.646  -3.251  0.00  0.00     0.054 C 
ATOM      9  C   UNL d   1       5.996   3.417  -1.939  0.00  0.00     0.018 C 
ENDBRANCH   1   8
TORSDOF 1
ENDMDL
