MODEL 1
REMARK minimizedAffinity 5.55836868
REMARK minimizedRMSD -1
REMARK  1 active torsions:
REMARK  status: ('A' for Active; 'I' for Inactive)
REMARK    1  A    between atoms: C1_2  and  C2_3 
ROOT
ATOM      1  C2  UNL d   1      -2.887  -0.724   3.349  0.00  0.00    -0.081 A 
ATOM      2  C3  UNL d   1      -2.941   0.595   2.881  0.00  0.00     0.006 A 
ATOM      3  C4  UNL d   1      -2.229   0.972   1.740  0.00  0.00     0.002 A 
ATOM      4  C5  UNL d   1      -1.456   0.036   1.044  0.00  0.00    -0.080 A 
ATOM      5  C6  UNL d   1      -0.710   0.420  -0.199  0.00  0.00     0.076 C 
ATOM      6  C7  UNL d   1      -1.388  -1.277   1.521  0.00  0.00     0.002 A 
ATOM      7  C8  UNL d   1      -2.099  -1.655   2.662  0.00  0.00     0.006 A 
ENDROOT
BRANCH   1   8
ATOM      8  C1  UNL d   1      -3.705  -1.149   4.541  0.00  0.00     0.054 C 
ATOM      9  C   UNL d   1      -5.182  -1.256   4.188  0.00  0.00     0.018 C 
ENDBRANCH   1   8
TORSDOF 1
ENDMDL
