MODEL 1
REMARK minimizedAffinity 1.98993278
REMARK minimizedRMSD -1
REMARK  1 active torsions:
REMARK  status: ('A' for Active; 'I' for Inactive)
REMARK    1  A    between atoms: C1_2  and  C2_3 
ROOT
ATOM      1  C2  UNL d   1      -1.924  -0.118   1.915  0.00  0.00    -0.081 A 
ATOM      2  C3  UNL d   1      -2.928   0.466   2.697  0.00  0.00     0.006 A 
ATOM      3  C4  UNL d   1      -3.325  -0.126   3.898  0.00  0.00     0.002 A 
ATOM      4  C5  UNL d   1      -2.719  -1.307   4.342  0.00  0.00    -0.080 A 
ATOM      5  C6  UNL d   1      -3.115  -1.936   5.645  0.00  0.00     0.076 C 
ATOM      6  C7  UNL d   1      -1.728  -1.899   3.553  0.00  0.00     0.002 A 
ATOM      7  C8  UNL d   1      -1.331  -1.308   2.351  0.00  0.00     0.006 A 
ENDROOT
BRANCH   1   8
ATOM      8  C1  UNL d   1      -1.449   0.552   0.652  0.00  0.00     0.054 C 
ATOM      9  C   UNL d   1       0.055   0.398   0.475  0.00  0.00     0.018 C 
ENDBRANCH   1   8
TORSDOF 1
ENDMDL
