MODEL 1
REMARK minimizedAffinity 7.97339487
REMARK minimizedRMSD -1
REMARK  1 active torsions:
REMARK  status: ('A' for Active; 'I' for Inactive)
REMARK    1  A    between atoms: C1_2  and  C2_3 
ROOT
ATOM      1  C2  UNL d   1      -1.843  -4.003  -2.005  0.00  0.00    -0.081 A 
ATOM      2  C3  UNL d   1      -0.807  -4.392  -2.863  0.00  0.00     0.006 A 
ATOM      3  C4  UNL d   1       0.490  -3.912  -2.669  0.00  0.00     0.002 A 
ATOM      4  C5  UNL d   1       0.775  -3.043  -1.610  0.00  0.00    -0.080 A 
ATOM      5  C6  UNL d   1       2.170  -2.545  -1.372  0.00  0.00     0.076 C 
ATOM      6  C7  UNL d   1      -0.264  -2.641  -0.763  0.00  0.00     0.002 A 
ATOM      7  C8  UNL d   1      -1.561  -3.119  -0.957  0.00  0.00     0.006 A 
ENDROOT
BRANCH   1   8
ATOM      8  C1  UNL d   1      -3.230  -4.569  -2.172  0.00  0.00     0.054 C 
ATOM      9  C   UNL d   1      -3.870  -4.874  -0.825  0.00  0.00     0.018 C 
ENDBRANCH   1   8
TORSDOF 1
ENDMDL
