MODEL 1
REMARK minimizedAffinity -1.64723051
REMARK minimizedRMSD -1
REMARK  1 active torsions:
REMARK  status: ('A' for Active; 'I' for Inactive)
REMARK    1  A    between atoms: C3_4  and  O_7 
ROOT
ATOM      1  C   UNL d   1      -5.516   5.145  -6.000  0.00  0.00    -0.033 A 
ATOM      2  C1  UNL d   1      -5.483   3.749  -5.999  0.00  0.00     0.039 A 
ATOM      3  C2  UNL d   1      -4.258   3.079  -5.997  0.00  0.00    -0.080 A 
ATOM      4  C3  UNL d   1      -3.076   3.814  -5.996  0.00  0.00     0.150 A 
ATOM      5  C4  UNL d   1      -3.102   5.205  -5.993  0.00  0.00    -0.007 A 
ATOM      6  C5  UNL d   1      -4.326   5.873  -5.996  0.00  0.00     0.039 A 
ENDROOT
BRANCH   4   7
ATOM      7  O   UNL d   1      -1.857   3.204  -5.999  0.00  0.00    -0.526 OA
ATOM      8  H5  UNL d   1      -1.994   2.243  -6.030  0.00  0.00     0.418 HD
ENDBRANCH   4   7
TORSDOF 1
ENDMDL
