MODEL 1
REMARK minimizedAffinity -2.21583176
REMARK minimizedRMSD -1
REMARK  1 active torsions:
REMARK  status: ('A' for Active; 'I' for Inactive)
REMARK    1  A    between atoms: C3_4  and  O_7 
ROOT
ATOM      1  C   UNL d   1      -2.359   1.573   1.062  0.00  0.00    -0.033 A 
ATOM      2  C1  UNL d   1      -1.947   0.246   0.932  0.00  0.00     0.039 A 
ATOM      3  C2  UNL d   1      -0.601  -0.050   0.709  0.00  0.00    -0.080 A 
ATOM      4  C3  UNL d   1       0.322   0.989   0.621  0.00  0.00     0.150 A 
ATOM      5  C4  UNL d   1      -0.081   2.313   0.755  0.00  0.00    -0.007 A 
ATOM      6  C5  UNL d   1      -1.426   2.607   0.975  0.00  0.00     0.039 A 
ENDROOT
BRANCH   4   7
ATOM      7  O   UNL d   1       1.646   0.749   0.401  0.00  0.00    -0.526 OA
ATOM      8  H5  UNL d   1       1.773  -0.209   0.300  0.00  0.00     0.418 HD
ENDBRANCH   4   7
TORSDOF 1
ENDMDL
