MODEL 1
REMARK minimizedAffinity 5.04393768
REMARK minimizedRMSD -1
REMARK  1 active torsions:
REMARK  status: ('A' for Active; 'I' for Inactive)
REMARK    1  A    between atoms: C3_4  and  O_7 
ROOT
ATOM      1  C   UNL d   1      -1.147   3.377   3.375  0.00  0.00    -0.033 A 
ATOM      2  C1  UNL d   1      -0.188   3.691   4.340  0.00  0.00     0.039 A 
ATOM      3  C2  UNL d   1       1.167   3.486   4.073  0.00  0.00    -0.080 A 
ATOM      4  C3  UNL d   1       1.549   2.968   2.838  0.00  0.00     0.150 A 
ATOM      5  C4  UNL d   1       0.599   2.656   1.871  0.00  0.00    -0.007 A 
ATOM      6  C5  UNL d   1      -0.754   2.861   2.140  0.00  0.00     0.039 A 
ENDROOT
BRANCH   4   7
ATOM      7  O   UNL d   1       2.859   2.746   2.534  0.00  0.00    -0.526 OA
ATOM      8  H5  UNL d   1       3.399   2.980   3.307  0.00  0.00     0.418 HD
ENDBRANCH   4   7
TORSDOF 1
ENDMDL
