MODEL 1
REMARK minimizedAffinity -4.30289221
REMARK minimizedRMSD -1
REMARK  1 active torsions:
REMARK  status: ('A' for Active; 'I' for Inactive)
REMARK    1  A    between atoms: C3_4  and  O_7 
ROOT
ATOM      1  C   UNL d   1      -4.781   3.762  -5.989  0.00  0.00    -0.033 A 
ATOM      2  C1  UNL d   1      -3.547   3.110  -5.994  0.00  0.00     0.039 A 
ATOM      3  C2  UNL d   1      -2.410   3.761  -5.510  0.00  0.00    -0.080 A 
ATOM      4  C3  UNL d   1      -2.521   5.060  -5.023  0.00  0.00     0.150 A 
ATOM      5  C4  UNL d   1      -3.749   5.714  -5.011  0.00  0.00    -0.007 A 
ATOM      6  C5  UNL d   1      -4.883   5.064  -5.496  0.00  0.00     0.039 A 
ENDROOT
BRANCH   4   7
ATOM      7  O   UNL d   1      -1.439   5.737  -4.544  0.00  0.00    -0.526 OA
ATOM      8  H5  UNL d   1      -0.655   5.171  -4.641  0.00  0.00     0.418 HD
ENDBRANCH   4   7
TORSDOF 1
ENDMDL
