MODEL 1
REMARK minimizedAffinity -0.331718087
REMARK minimizedRMSD -1
REMARK  1 active torsions:
REMARK  status: ('A' for Active; 'I' for Inactive)
REMARK    1  A    between atoms: C3_4  and  O_7 
ROOT
ATOM      1  C   UNL d   1      -2.852   4.940  -5.996  0.00  0.00    -0.033 A 
ATOM      2  C1  UNL d   1      -1.670   5.683  -5.994  0.00  0.00     0.039 A 
ATOM      3  C2  UNL d   1      -0.435   5.031  -5.992  0.00  0.00    -0.080 A 
ATOM      4  C3  UNL d   1      -0.396   3.640  -5.993  0.00  0.00     0.150 A 
ATOM      5  C4  UNL d   1      -1.570   2.894  -5.999  0.00  0.00    -0.007 A 
ATOM      6  C5  UNL d   1      -2.802   3.546  -6.000  0.00  0.00     0.039 A 
ENDROOT
BRANCH   4   7
ATOM      7  O   UNL d   1       0.786   2.960  -5.987  0.00  0.00    -0.526 OA
ATOM      8  H5  UNL d   1       1.512   3.605  -5.954  0.00  0.00     0.418 HD
ENDBRANCH   4   7
TORSDOF 1
ENDMDL
