MODEL 1
REMARK minimizedAffinity -2.42166543
REMARK minimizedRMSD -1
REMARK  1 active torsions:
REMARK  status: ('A' for Active; 'I' for Inactive)
REMARK    1  A    between atoms: C3_4  and  O_7 
ROOT
ATOM      1  C   UNL d   1      -4.989   3.899  -5.998  0.00  0.00    -0.033 A 
ATOM      2  C1  UNL d   1      -5.277   5.140  -5.426  0.00  0.00     0.039 A 
ATOM      3  C2  UNL d   1      -4.275   5.857  -4.770  0.00  0.00    -0.080 A 
ATOM      4  C3  UNL d   1      -2.991   5.325  -4.695  0.00  0.00     0.150 A 
ATOM      5  C4  UNL d   1      -2.696   4.092  -5.267  0.00  0.00    -0.007 A 
ATOM      6  C5  UNL d   1      -3.698   3.376  -5.920  0.00  0.00     0.039 A 
ENDROOT
BRANCH   4   7
ATOM      7  O   UNL d   1      -1.981   5.987  -4.062  0.00  0.00    -0.526 OA
ATOM      8  H5  UNL d   1      -2.339   6.811  -3.691  0.00  0.00     0.418 HD
ENDBRANCH   4   7
TORSDOF 1
ENDMDL
