MODEL 1
REMARK minimizedAffinity 2.64719176
REMARK minimizedRMSD -1
REMARK  1 active torsions:
REMARK  status: ('A' for Active; 'I' for Inactive)
REMARK    1  A    between atoms: C3_4  and  O_7 
ROOT
ATOM      1  C   UNL d   1       0.762   3.245   3.920  0.00  0.00    -0.033 A 
ATOM      2  C1  UNL d   1       1.215   2.996   2.623  0.00  0.00     0.039 A 
ATOM      3  C2  UNL d   1       0.299   2.828   1.582  0.00  0.00    -0.080 A 
ATOM      4  C3  UNL d   1      -1.064   2.912   1.851  0.00  0.00     0.150 A 
ATOM      5  C4  UNL d   1      -1.522   3.165   3.140  0.00  0.00    -0.007 A 
ATOM      6  C5  UNL d   1      -0.606   3.331   4.178  0.00  0.00     0.039 A 
ENDROOT
BRANCH   4   7
ATOM      7  O   UNL d   1      -1.995   2.751   0.869  0.00  0.00    -0.526 OA
ATOM      8  H5  UNL d   1      -1.534   2.554   0.036  0.00  0.00     0.418 HD
ENDBRANCH   4   7
TORSDOF 1
ENDMDL
