MODEL 1
REMARK minimizedAffinity 2.32919145
REMARK minimizedRMSD -1
REMARK  1 active torsions:
REMARK  status: ('A' for Active; 'I' for Inactive)
REMARK    1  A    between atoms: C3_4  and  O_7 
ROOT
ATOM      1  C   UNL d   1      -1.153  -3.348  -1.658  0.00  0.00    -0.033 A 
ATOM      2  C1  UNL d   1      -0.025  -2.814  -2.285  0.00  0.00     0.039 A 
ATOM      3  C2  UNL d   1       0.780  -1.893  -1.612  0.00  0.00    -0.080 A 
ATOM      4  C3  UNL d   1       0.448  -1.515  -0.314  0.00  0.00     0.150 A 
ATOM      5  C4  UNL d   1      -0.671  -2.047   0.319  0.00  0.00    -0.007 A 
ATOM      6  C5  UNL d   1      -1.475  -2.966  -0.355  0.00  0.00     0.039 A 
ENDROOT
BRANCH   4   7
ATOM      7  O   UNL d   1       1.200  -0.616   0.381  0.00  0.00    -0.526 OA
ATOM      8  H5  UNL d   1       1.924  -0.313  -0.192  0.00  0.00     0.418 HD
ENDBRANCH   4   7
TORSDOF 1
ENDMDL
