MODEL 1
REMARK minimizedAffinity 4.31159353
REMARK minimizedRMSD -1
REMARK  1 active torsions:
REMARK  status: ('A' for Active; 'I' for Inactive)
REMARK    1  A    between atoms: C3_4  and  O_7 
ROOT
ATOM      1  C   UNL d   1      -1.017   3.294   1.646  0.00  0.00    -0.033 A 
ATOM      2  C1  UNL d   1       0.347   3.371   1.935  0.00  0.00     0.039 A 
ATOM      3  C2  UNL d   1       1.207   2.352   1.522  0.00  0.00    -0.080 A 
ATOM      4  C3  UNL d   1       0.693   1.264   0.822  0.00  0.00     0.150 A 
ATOM      5  C4  UNL d   1      -0.664   1.184   0.527  0.00  0.00    -0.007 A 
ATOM      6  C5  UNL d   1      -1.522   2.202   0.940  0.00  0.00     0.039 A 
ENDROOT
BRANCH   4   7
ATOM      7  O   UNL d   1       1.493   0.243   0.403  0.00  0.00    -0.526 OA
ATOM      8  H5  UNL d   1       2.401   0.421   0.703  0.00  0.00     0.418 HD
ENDBRANCH   4   7
TORSDOF 1
ENDMDL
