MODEL 1
REMARK minimizedAffinity 2.87536407
REMARK minimizedRMSD -1
REMARK  1 active torsions:
REMARK  status: ('A' for Active; 'I' for Inactive)
REMARK    1  A    between atoms: C3_4  and  O_7 
ROOT
ATOM      1  C   UNL d   1      -0.361  -0.703   0.699  0.00  0.00    -0.033 A 
ATOM      2  C1  UNL d   1       0.768   0.110   0.585  0.00  0.00     0.039 A 
ATOM      3  C2  UNL d   1       0.659   1.490   0.769  0.00  0.00    -0.080 A 
ATOM      4  C3  UNL d   1      -0.583   2.043   1.067  0.00  0.00     0.150 A 
ATOM      5  C4  UNL d   1      -1.712   1.239   1.186  0.00  0.00    -0.007 A 
ATOM      6  C5  UNL d   1      -1.601  -0.138   1.001  0.00  0.00     0.039 A 
ENDROOT
BRANCH   4   7
ATOM      7  O   UNL d   1      -0.739   3.385   1.251  0.00  0.00    -0.526 OA
ATOM      8  H5  UNL d   1       0.119   3.817   1.110  0.00  0.00     0.418 HD
ENDBRANCH   4   7
TORSDOF 1
ENDMDL
