MODEL 1
REMARK minimizedAffinity -3.58274961
REMARK minimizedRMSD -1
REMARK  1 active torsions:
REMARK  status: ('A' for Active; 'I' for Inactive)
REMARK    1  A    between atoms: C3_4  and  O_7 
ROOT
ATOM      1  C   UNL d   1      -4.871   5.218  -5.994  0.00  0.00    -0.033 A 
ATOM      2  C1  UNL d   1      -3.643   5.883  -5.997  0.00  0.00     0.039 A 
ATOM      3  C2  UNL d   1      -2.452   5.154  -5.999  0.00  0.00    -0.080 A 
ATOM      4  C3  UNL d   1      -2.502   3.763  -5.998  0.00  0.00     0.150 A 
ATOM      5  C4  UNL d   1      -3.722   3.094  -5.999  0.00  0.00    -0.007 A 
ATOM      6  C5  UNL d   1      -4.910   3.824  -5.996  0.00  0.00     0.039 A 
ENDROOT
BRANCH   4   7
ATOM      7  O   UNL d   1      -1.367   3.009  -5.995  0.00  0.00    -0.526 OA
ATOM      8  H5  UNL d   1      -0.601   3.606  -5.966  0.00  0.00     0.418 HD
ENDBRANCH   4   7
TORSDOF 1
ENDMDL
