MODEL 1
REMARK minimizedAffinity -1.8590498
REMARK minimizedRMSD -1
REMARK  1 active torsions:
REMARK  status: ('A' for Active; 'I' for Inactive)
REMARK    1  A    between atoms: C3_4  and  O_7 
ROOT
ATOM      1  C   UNL d   1      -3.959   5.533  -6.000  0.00  0.00    -0.033 A 
ATOM      2  C1  UNL d   1      -4.232   4.164  -5.995  0.00  0.00     0.039 A 
ATOM      3  C2  UNL d   1      -3.183   3.241  -5.990  0.00  0.00    -0.080 A 
ATOM      4  C3  UNL d   1      -1.869   3.701  -5.990  0.00  0.00     0.150 A 
ATOM      5  C4  UNL d   1      -1.591   5.064  -5.991  0.00  0.00    -0.007 A 
ATOM      6  C5  UNL d   1      -2.639   5.983  -5.997  0.00  0.00     0.039 A 
ENDROOT
BRANCH   4   7
ATOM      7  O   UNL d   1      -0.813   2.839  -5.991  0.00  0.00    -0.526 OA
ATOM      8  H5  UNL d   1      -1.157   1.931  -6.019  0.00  0.00     0.418 HD
ENDBRANCH   4   7
TORSDOF 1
ENDMDL
