MODEL 1
REMARK minimizedAffinity 2.97476983
REMARK minimizedRMSD -1
REMARK  1 active torsions:
REMARK  status: ('A' for Active; 'I' for Inactive)
REMARK    1  A    between atoms: C3_4  and  O_7 
ROOT
ATOM      1  C   UNL d   1      -1.408   4.673  -5.997  0.00  0.00    -0.033 A 
ATOM      2  C1  UNL d   1      -1.678   3.304  -6.000  0.00  0.00     0.039 A 
ATOM      3  C2  UNL d   1      -2.999   2.851  -5.999  0.00  0.00    -0.080 A 
ATOM      4  C3  UNL d   1      -4.039   3.776  -5.998  0.00  0.00     0.150 A 
ATOM      5  C4  UNL d   1      -3.777   5.142  -5.999  0.00  0.00    -0.007 A 
ATOM      6  C5  UNL d   1      -2.457   5.593  -5.999  0.00  0.00     0.039 A 
ENDROOT
BRANCH   4   7
ATOM      7  O   UNL d   1      -5.344   3.382  -5.992  0.00  0.00    -0.526 OA
ATOM      8  H5  UNL d   1      -5.371   2.411  -5.962  0.00  0.00     0.418 HD
ENDBRANCH   4   7
TORSDOF 1
ENDMDL
