MODEL 1
REMARK minimizedAffinity -3.06446576
REMARK minimizedRMSD -1
REMARK  1 active torsions:
REMARK  status: ('A' for Active; 'I' for Inactive)
REMARK    1  A    between atoms: C3_4  and  O_7 
ROOT
ATOM      1  C   UNL d   1      -4.447   3.687  -5.998  0.00  0.00    -0.033 A 
ATOM      2  C1  UNL d   1      -3.200   3.059  -5.985  0.00  0.00     0.039 A 
ATOM      3  C2  UNL d   1      -2.032   3.823  -5.950  0.00  0.00    -0.080 A 
ATOM      4  C3  UNL d   1      -2.125   5.212  -5.928  0.00  0.00     0.150 A 
ATOM      5  C4  UNL d   1      -3.364   5.844  -5.937  0.00  0.00    -0.007 A 
ATOM      6  C5  UNL d   1      -4.529   5.080  -5.973  0.00  0.00     0.039 A 
ENDROOT
BRANCH   4   7
ATOM      7  O   UNL d   1      -1.012   6.000  -5.898  0.00  0.00    -0.526 OA
ATOM      8  H5  UNL d   1      -0.228   5.426  -5.924  0.00  0.00     0.418 HD
ENDBRANCH   4   7
TORSDOF 1
ENDMDL
