MODEL 1
REMARK minimizedAffinity 0.359213054
REMARK minimizedRMSD -1
REMARK  1 active torsions:
REMARK  status: ('A' for Active; 'I' for Inactive)
REMARK    1  A    between atoms: C3_4  and  O_7 
ROOT
ATOM      1  C   UNL d   1       4.104   3.220  -4.979  0.00  0.00    -0.033 A 
ATOM      2  C1  UNL d   1       3.342   2.645  -3.960  0.00  0.00     0.039 A 
ATOM      3  C2  UNL d   1       1.953   2.789  -3.957  0.00  0.00    -0.080 A 
ATOM      4  C3  UNL d   1       1.339   3.508  -4.979  0.00  0.00     0.150 A 
ATOM      5  C4  UNL d   1       2.091   4.080  -6.000  0.00  0.00    -0.007 A 
ATOM      6  C5  UNL d   1       3.478   3.936  -6.000  0.00  0.00     0.039 A 
ENDROOT
BRANCH   4   7
ATOM      7  O   UNL d   1      -0.013   3.679  -5.017  0.00  0.00    -0.526 OA
ATOM      8  H5  UNL d   1      -0.399   3.254  -4.233  0.00  0.00     0.418 HD
ENDBRANCH   4   7
TORSDOF 1
ENDMDL
