MODEL 1
REMARK minimizedAffinity 0.962428451
REMARK minimizedRMSD -1
REMARK  1 active torsions:
REMARK  status: ('A' for Active; 'I' for Inactive)
REMARK    1  A    between atoms: C3_4  and  O_7 
ROOT
ATOM      1  C   UNL d   1      -3.020   2.960  -5.890  0.00  0.00    -0.033 A 
ATOM      2  C1  UNL d   1      -4.378   2.635  -5.860  0.00  0.00     0.039 A 
ATOM      3  C2  UNL d   1      -5.340   3.646  -5.897  0.00  0.00    -0.080 A 
ATOM      4  C3  UNL d   1      -4.932   4.976  -5.965  0.00  0.00     0.150 A 
ATOM      5  C4  UNL d   1      -3.581   5.306  -5.999  0.00  0.00    -0.007 A 
ATOM      6  C5  UNL d   1      -2.622   4.295  -5.961  0.00  0.00     0.039 A 
ENDROOT
BRANCH   4   7
ATOM      7  O   UNL d   1      -5.834   5.997  -5.998  0.00  0.00    -0.526 OA
ATOM      8  H5  UNL d   1      -6.728   5.620  -5.939  0.00  0.00     0.418 HD
ENDBRANCH   4   7
TORSDOF 1
ENDMDL
