MODEL 1
REMARK minimizedAffinity 0.70741576
REMARK minimizedRMSD -1
REMARK  1 active torsions:
REMARK  status: ('A' for Active; 'I' for Inactive)
REMARK    1  A    between atoms: C3_4  and  O_7 
ROOT
ATOM      1  C   UNL d   1      -0.691   1.518   0.465  0.00  0.00    -0.033 A 
ATOM      2  C1  UNL d   1       0.509   0.842   0.233  0.00  0.00     0.039 A 
ATOM      3  C2  UNL d   1       1.667   1.218   0.916  0.00  0.00    -0.080 A 
ATOM      4  C3  UNL d   1       1.612   2.268   1.829  0.00  0.00     0.150 A 
ATOM      5  C4  UNL d   1       0.419   2.942   2.068  0.00  0.00    -0.007 A 
ATOM      6  C5  UNL d   1      -0.736   2.567   1.384  0.00  0.00     0.039 A 
ENDROOT
BRANCH   4   7
ATOM      7  O   UNL d   1       2.718   2.673   2.516  0.00  0.00    -0.526 OA
ATOM      8  H5  UNL d   1       3.474   2.135   2.227  0.00  0.00     0.418 HD
ENDBRANCH   4   7
TORSDOF 1
ENDMDL
