MODEL 1
REMARK minimizedAffinity -4.72299385
REMARK minimizedRMSD -1
REMARK  0 active torsions:
REMARK  status: ('A' for Active; 'I' for Inactive)
ROOT
ATOM      1  C   UNL d   1      -2.985   0.432  -3.328  0.00  0.00     0.078 C 
ATOM      2  C1  UNL d   1      -1.959   1.402  -2.823  0.00  0.00    -0.077 A 
ATOM      3  C2  UNL d   1      -1.357   2.328  -3.684  0.00  0.00    -0.001 A 
ATOM      4  C3  UNL d   1      -0.397   3.219  -3.203  0.00  0.00     0.003 A 
ATOM      5  C4  UNL d   1      -0.028   3.192  -1.860  0.00  0.00    -0.005 A 
ATOM      6  C5  UNL d   1      -0.619   2.272  -0.996  0.00  0.00     0.003 A 
ATOM      7  C6  UNL d   1      -1.580   1.380  -1.475  0.00  0.00    -0.001 A 
ENDROOT
TORSDOF 0
ENDMDL
