MODEL 1
REMARK minimizedAffinity -5.72330761
REMARK minimizedRMSD -1
REMARK  0 active torsions:
REMARK  status: ('A' for Active; 'I' for Inactive)
ROOT
ATOM      1  C   UNL d   1       3.726  -0.109  -0.766  0.00  0.00     0.078 C 
ATOM      2  C1  UNL d   1       2.394  -0.378  -0.133  0.00  0.00    -0.077 A 
ATOM      3  C2  UNL d   1       2.240  -1.393   0.819  0.00  0.00    -0.001 A 
ATOM      4  C3  UNL d   1       0.991  -1.639   1.393  0.00  0.00     0.003 A 
ATOM      5  C4  UNL d   1      -0.113  -0.875   1.021  0.00  0.00    -0.005 A 
ATOM      6  C5  UNL d   1       0.030   0.136   0.073  0.00  0.00     0.003 A 
ATOM      7  C6  UNL d   1       1.278   0.383  -0.502  0.00  0.00    -0.001 A 
ENDROOT
TORSDOF 0
ENDMDL
