MODEL 1
REMARK minimizedAffinity -4.14258289
REMARK minimizedRMSD -1
REMARK  0 active torsions:
REMARK  status: ('A' for Active; 'I' for Inactive)
ROOT
ATOM      1  C   UNL d   1      -0.366   1.945  -1.339  0.00  0.00     0.078 C 
ATOM      2  C1  UNL d   1       0.539   0.882  -0.792  0.00  0.00    -0.077 A 
ATOM      3  C2  UNL d   1       0.020  -0.306  -0.265  0.00  0.00    -0.001 A 
ATOM      4  C3  UNL d   1       0.875  -1.282   0.250  0.00  0.00     0.003 A 
ATOM      5  C4  UNL d   1       2.254  -1.079   0.244  0.00  0.00    -0.005 A 
ATOM      6  C5  UNL d   1       2.779   0.101  -0.276  0.00  0.00     0.003 A 
ATOM      7  C6  UNL d   1       1.926   1.079  -0.792  0.00  0.00    -0.001 A 
ENDROOT
TORSDOF 0
ENDMDL
