MODEL 1
REMARK minimizedAffinity -2.32391524
REMARK minimizedRMSD -1
REMARK  0 active torsions:
REMARK  status: ('A' for Active; 'I' for Inactive)
ROOT
ATOM      1  C   UNL d   1       1.818  -2.406   1.252  0.00  0.00     0.078 C 
ATOM      2  C1  UNL d   1       1.513  -1.170   0.460  0.00  0.00    -0.077 A 
ATOM      3  C2  UNL d   1       2.541  -0.372  -0.056  0.00  0.00    -0.001 A 
ATOM      4  C3  UNL d   1       2.241   0.781  -0.784  0.00  0.00     0.003 A 
ATOM      5  C4  UNL d   1       0.914   1.147  -1.001  0.00  0.00    -0.005 A 
ATOM      6  C5  UNL d   1      -0.115   0.360  -0.489  0.00  0.00     0.003 A 
ATOM      7  C6  UNL d   1       0.182  -0.794   0.238  0.00  0.00    -0.001 A 
ENDROOT
TORSDOF 0
ENDMDL
