MODEL 1
REMARK minimizedAffinity -3.71992922
REMARK minimizedRMSD -1
REMARK  0 active torsions:
REMARK  status: ('A' for Active; 'I' for Inactive)
ROOT
ATOM      1  C   UNL d   1       1.188  -2.732   1.061  0.00  0.00     0.078 C 
ATOM      2  C1  UNL d   1       0.508  -1.432   0.752  0.00  0.00    -0.077 A 
ATOM      3  C2  UNL d   1      -0.750  -1.130   1.288  0.00  0.00    -0.001 A 
ATOM      4  C3  UNL d   1      -1.375   0.080   0.983  0.00  0.00     0.003 A 
ATOM      5  C4  UNL d   1      -0.751   0.997   0.140  0.00  0.00    -0.005 A 
ATOM      6  C5  UNL d   1       0.500   0.705  -0.399  0.00  0.00     0.003 A 
ATOM      7  C6  UNL d   1       1.127  -0.505  -0.096  0.00  0.00    -0.001 A 
ENDROOT
TORSDOF 0
ENDMDL
