MODEL 1
REMARK minimizedAffinity -4.12963057
REMARK minimizedRMSD -1
REMARK  0 active torsions:
REMARK  status: ('A' for Active; 'I' for Inactive)
ROOT
ATOM      1  C   UNL d   1      -0.741   0.960  -0.710  0.00  0.00     0.078 C 
ATOM      2  C1  UNL d   1       0.332   0.047  -0.198  0.00  0.00    -0.077 A 
ATOM      3  C2  UNL d   1       0.057  -0.908   0.788  0.00  0.00    -0.001 A 
ATOM      4  C3  UNL d   1       1.068  -1.745   1.263  0.00  0.00     0.003 A 
ATOM      5  C4  UNL d   1       2.362  -1.635   0.757  0.00  0.00    -0.005 A 
ATOM      6  C5  UNL d   1       2.646  -0.687  -0.223  0.00  0.00     0.003 A 
ATOM      7  C6  UNL d   1       1.636   0.151  -0.699  0.00  0.00    -0.001 A 
ENDROOT
TORSDOF 0
ENDMDL
