MODEL 1
REMARK minimizedAffinity -4.17908239
REMARK minimizedRMSD -1
REMARK  0 active torsions:
REMARK  status: ('A' for Active; 'I' for Inactive)
ROOT
ATOM      1  C   UNL d   1       1.072  -2.644   0.856  0.00  0.00     0.078 C 
ATOM      2  C1  UNL d   1       0.249  -1.408   0.650  0.00  0.00    -0.077 A 
ATOM      3  C2  UNL d   1       0.593  -0.468  -0.329  0.00  0.00    -0.001 A 
ATOM      4  C3  UNL d   1      -0.177   0.683  -0.503  0.00  0.00     0.003 A 
ATOM      5  C4  UNL d   1      -1.295   0.906   0.299  0.00  0.00    -0.005 A 
ATOM      6  C5  UNL d   1      -1.643  -0.023   1.278  0.00  0.00     0.003 A 
ATOM      7  C6  UNL d   1      -0.874  -1.175   1.453  0.00  0.00    -0.001 A 
ENDROOT
TORSDOF 0
ENDMDL
