MODEL 1
REMARK minimizedAffinity -1.87235844
REMARK minimizedRMSD -1
REMARK  0 active torsions:
REMARK  status: ('A' for Active; 'I' for Inactive)
ROOT
ATOM      1  C   UNL d   1       0.762   5.018  -4.156  0.00  0.00     0.078 C 
ATOM      2  C1  UNL d   1      -0.170   3.884  -3.846  0.00  0.00    -0.077 A 
ATOM      3  C2  UNL d   1      -1.361   3.713  -4.562  0.00  0.00    -0.001 A 
ATOM      4  C3  UNL d   1      -2.223   2.659  -4.256  0.00  0.00     0.003 A 
ATOM      5  C4  UNL d   1      -1.905   1.769  -3.232  0.00  0.00    -0.005 A 
ATOM      6  C5  UNL d   1      -0.723   1.933  -2.512  0.00  0.00     0.003 A 
ATOM      7  C6  UNL d   1       0.140   2.987  -2.817  0.00  0.00    -0.001 A 
ENDROOT
TORSDOF 0
ENDMDL
