MODEL 1
REMARK minimizedAffinity -2.84631634
REMARK minimizedRMSD -1
REMARK  0 active torsions:
REMARK  status: ('A' for Active; 'I' for Inactive)
ROOT
ATOM      1  C   UNL d   1      -2.044  -1.891   1.365  0.00  0.00     0.078 C 
ATOM      2  C1  UNL d   1      -0.612  -1.724   0.952  0.00  0.00    -0.077 A 
ATOM      3  C2  UNL d   1       0.218  -2.835   0.759  0.00  0.00    -0.001 A 
ATOM      4  C3  UNL d   1       1.551  -2.664   0.384  0.00  0.00     0.003 A 
ATOM      5  C4  UNL d   1       2.068  -1.383   0.200  0.00  0.00    -0.005 A 
ATOM      6  C5  UNL d   1       1.250  -0.271   0.393  0.00  0.00     0.003 A 
ATOM      7  C6  UNL d   1      -0.083  -0.440   0.768  0.00  0.00    -0.001 A 
ENDROOT
TORSDOF 0
ENDMDL
