MODEL 1
REMARK minimizedAffinity 3.24287271
REMARK minimizedRMSD -1
REMARK  1 active torsions:
REMARK  status: ('A' for Active; 'I' for Inactive)
REMARK    1  A    between atoms: N_2  and  C1_3 
ROOT
ATOM      1  C1  UNL d   1       3.854  -0.514  -1.795  0.00  0.00     0.143 A 
ATOM      2  C2  UNL d   1       2.852  -0.764  -0.851  0.00  0.00    -0.057 A 
ATOM      3  C3  UNL d   1       2.001  -1.870  -0.971  0.00  0.00     0.033 A 
ATOM      4  C4  UNL d   1       2.119  -2.731  -2.057  0.00  0.00    -0.042 A 
ATOM      5  C5  UNL d   1       3.092  -2.488  -3.020  0.00  0.00     0.033 A 
ATOM      6  C6  UNL d   1       3.943  -1.386  -2.891  0.00  0.00    -0.057 A 
ENDROOT
BRANCH   1   7
ATOM      7  N   UNL d   1       4.667   0.622  -1.784  0.00  0.00    -0.732 N 
ATOM      8  C   UNL d   1       4.265   1.809  -1.060  0.00  0.00     0.284 C 
ATOM      9  H3  UNL d   1       5.654   0.393  -1.692  0.00  0.00     0.395 HD
ENDBRANCH   1   7
TORSDOF 1
ENDMDL
