MODEL 1
REMARK minimizedAffinity 1.53338897
REMARK minimizedRMSD -1
REMARK  1 active torsions:
REMARK  status: ('A' for Active; 'I' for Inactive)
REMARK    1  A    between atoms: N_2  and  C1_3 
ROOT
ATOM      1  C1  UNL d   1       1.473   0.024  -0.262  0.00  0.00     0.143 A 
ATOM      2  C2  UNL d   1       2.315  -1.069  -0.031  0.00  0.00    -0.057 A 
ATOM      3  C3  UNL d   1       1.901  -2.377  -0.313  0.00  0.00     0.033 A 
ATOM      4  C4  UNL d   1       0.623  -2.618  -0.806  0.00  0.00    -0.042 A 
ATOM      5  C5  UNL d   1      -0.240  -1.549  -1.021  0.00  0.00     0.033 A 
ATOM      6  C6  UNL d   1       0.181  -0.245  -0.743  0.00  0.00    -0.057 A 
ENDROOT
BRANCH   1   7
ATOM      7  N   UNL d   1       1.789   1.338   0.090  0.00  0.00    -0.732 N 
ATOM      8  C   UNL d   1       3.105   1.877  -0.181  0.00  0.00     0.284 C 
ATOM      9  H3  UNL d   1       1.028   1.985  -0.099  0.00  0.00     0.395 HD
ENDBRANCH   1   7
TORSDOF 1
ENDMDL
