MODEL 1
REMARK minimizedAffinity 0.421064526
REMARK minimizedRMSD -1
REMARK  1 active torsions:
REMARK  status: ('A' for Active; 'I' for Inactive)
REMARK    1  A    between atoms: N_2  and  C1_3 
ROOT
ATOM      1  C1  UNL d   1       2.293   0.725  -0.469  0.00  0.00     0.143 A 
ATOM      2  C2  UNL d   1       0.901   0.755  -0.607  0.00  0.00    -0.057 A 
ATOM      3  C3  UNL d   1       0.155  -0.426  -0.705  0.00  0.00     0.033 A 
ATOM      4  C4  UNL d   1       0.794  -1.662  -0.696  0.00  0.00    -0.042 A 
ATOM      5  C5  UNL d   1       2.179  -1.715  -0.586  0.00  0.00     0.033 A 
ATOM      6  C6  UNL d   1       2.917  -0.532  -0.481  0.00  0.00    -0.057 A 
ENDROOT
BRANCH   1   7
ATOM      7  N   UNL d   1       3.099   1.866  -0.466  0.00  0.00    -0.732 N 
ATOM      8  C   UNL d   1       4.414   1.841  -1.070  0.00  0.00     0.284 C 
ATOM      9  H3  UNL d   1       2.571   2.715  -0.655  0.00  0.00     0.395 HD
ENDBRANCH   1   7
TORSDOF 1
ENDMDL
