MODEL 1
REMARK minimizedAffinity 4.68799734
REMARK minimizedRMSD -1
REMARK  1 active torsions:
REMARK  status: ('A' for Active; 'I' for Inactive)
REMARK    1  A    between atoms: N_2  and  C1_3 
ROOT
ATOM      1  C1  UNL d   1       0.322  -1.648  -1.023  0.00  0.00     0.143 A 
ATOM      2  C2  UNL d   1       0.518  -0.282  -0.796  0.00  0.00    -0.057 A 
ATOM      3  C3  UNL d   1       1.804   0.267  -0.728  0.00  0.00     0.033 A 
ATOM      4  C4  UNL d   1       2.922  -0.550  -0.858  0.00  0.00    -0.042 A 
ATOM      5  C5  UNL d   1       2.753  -1.915  -1.059  0.00  0.00     0.033 A 
ATOM      6  C6  UNL d   1       1.465  -2.456  -1.132  0.00  0.00    -0.057 A 
ENDROOT
BRANCH   1   7
ATOM      7  N   UNL d   1      -0.929  -2.269  -1.002  0.00  0.00    -0.732 N 
ATOM      8  C   UNL d   1      -1.729  -2.275   0.204  0.00  0.00     0.284 C 
ATOM      9  H3  UNL d   1      -1.460  -2.100  -1.853  0.00  0.00     0.395 HD
ENDBRANCH   1   7
TORSDOF 1
ENDMDL
