MODEL 1
REMARK minimizedAffinity 0.407039732
REMARK minimizedRMSD -1
REMARK  1 active torsions:
REMARK  status: ('A' for Active; 'I' for Inactive)
REMARK    1  A    between atoms: N_2  and  C1_3 
ROOT
ATOM      1  C1  UNL d   1       3.341  -1.656  -1.066  0.00  0.00     0.143 A 
ATOM      2  C2  UNL d   1       3.504  -1.982  -2.416  0.00  0.00    -0.057 A 
ATOM      3  C3  UNL d   1       4.320  -1.214  -3.256  0.00  0.00     0.033 A 
ATOM      4  C4  UNL d   1       4.966  -0.085  -2.764  0.00  0.00    -0.042 A 
ATOM      5  C5  UNL d   1       4.798   0.273  -1.431  0.00  0.00     0.033 A 
ATOM      6  C6  UNL d   1       3.988  -0.502  -0.596  0.00  0.00    -0.057 A 
ENDROOT
BRANCH   1   7
ATOM      7  N   UNL d   1       2.466  -2.322  -0.205  0.00  0.00    -0.732 N 
ATOM      8  C   UNL d   1       1.036  -2.266  -0.418  0.00  0.00     0.284 C 
ATOM      9  H3  UNL d   1       2.810  -3.241   0.064  0.00  0.00     0.395 HD
ENDBRANCH   1   7
TORSDOF 1
ENDMDL
