MODEL 1
REMARK minimizedAffinity -2.53538489
REMARK minimizedRMSD -1
REMARK  1 active torsions:
REMARK  status: ('A' for Active; 'I' for Inactive)
REMARK    1  A    between atoms: N_2  and  C1_3 
ROOT
ATOM      1  C1  UNL d   1       1.930   0.522  -0.339  0.00  0.00     0.143 A 
ATOM      2  C2  UNL d   1       0.546   0.621  -0.521  0.00  0.00    -0.057 A 
ATOM      3  C3  UNL d   1      -0.249  -0.520  -0.681  0.00  0.00     0.033 A 
ATOM      4  C4  UNL d   1       0.332  -1.784  -0.689  0.00  0.00    -0.042 A 
ATOM      5  C5  UNL d   1       1.708  -1.905  -0.534  0.00  0.00     0.033 A 
ATOM      6  C6  UNL d   1       2.496  -0.762  -0.369  0.00  0.00    -0.057 A 
ENDROOT
BRANCH   1   7
ATOM      7  N   UNL d   1       2.787   1.623  -0.274  0.00  0.00    -0.732 N 
ATOM      8  C   UNL d   1       4.035   1.631  -1.006  0.00  0.00     0.284 C 
ATOM      9  H3  UNL d   1       2.285   2.508  -0.299  0.00  0.00     0.395 HD
ENDBRANCH   1   7
TORSDOF 1
ENDMDL
