MODEL 1
REMARK minimizedAffinity 2.27012992
REMARK minimizedRMSD -1
REMARK  1 active torsions:
REMARK  status: ('A' for Active; 'I' for Inactive)
REMARK    1  A    between atoms: N_2  and  C1_3 
ROOT
ATOM      1  C1  UNL d   1       2.172   0.343  -0.494  0.00  0.00     0.143 A 
ATOM      2  C2  UNL d   1       3.377   0.128  -1.172  0.00  0.00    -0.057 A 
ATOM      3  C3  UNL d   1       4.369   1.114  -1.221  0.00  0.00     0.033 A 
ATOM      4  C4  UNL d   1       4.161   2.349  -0.615  0.00  0.00    -0.042 A 
ATOM      5  C5  UNL d   1       2.961   2.594   0.043  0.00  0.00     0.033 A 
ATOM      6  C6  UNL d   1       1.977   1.602   0.095  0.00  0.00    -0.057 A 
ENDROOT
BRANCH   1   7
ATOM      7  N   UNL d   1       1.108  -0.562  -0.493  0.00  0.00    -0.732 N 
ATOM      8  C   UNL d   1       1.352  -1.988  -0.534  0.00  0.00     0.284 C 
ATOM      9  H3  UNL d   1       0.364  -0.286   0.144  0.00  0.00     0.395 HD
ENDBRANCH   1   7
TORSDOF 1
ENDMDL
