MODEL 1
REMARK minimizedAffinity -3.11332369
REMARK minimizedRMSD -1
REMARK  0 active torsions:
REMARK  status: ('A' for Active; 'I' for Inactive)
ROOT
ATOM      1  O1  BZF d   1      -0.912  -0.637  -0.396  0.00  0.00    -0.204 OA
ATOM      2  C2  BZF d   1      -0.133  -0.279   0.687  0.00  0.00     0.174 A 
ATOM      3  C3  BZF d   1       1.019  -0.981   0.701  0.00  0.00    -0.012 A 
ATOM      4  C3A BZF d   1       0.996  -1.765  -0.496  0.00  0.00    -0.107 A 
ATOM      5  C4  BZF d   1       1.869  -2.655  -1.052  0.00  0.00     0.055 A 
ATOM      6  C5  BZF d   1       1.514  -3.304  -2.192  0.00  0.00    -0.016 A 
ATOM      7  C6  BZF d   1       0.294  -3.091  -2.799  0.00  0.00     0.022 A 
ATOM      8  C7  BZF d   1      -0.603  -2.214  -2.288  0.00  0.00     0.029 A 
ATOM      9  C7A BZF d   1      -0.234  -1.532  -1.154  0.00  0.00     0.058 A 
ENDROOT
TORSDOF 0
ENDMDL
