MODEL 1
REMARK minimizedAffinity -1.48911512
REMARK minimizedRMSD -1
REMARK  0 active torsions:
REMARK  status: ('A' for Active; 'I' for Inactive)
ROOT
ATOM      1  O1  BZF d   1       0.893   0.361  -0.922  0.00  0.00    -0.204 OA
ATOM      2  C2  BZF d   1       0.829  -0.835  -0.233  0.00  0.00     0.174 A 
ATOM      3  C3  BZF d   1       0.195  -0.674   0.946  0.00  0.00    -0.012 A 
ATOM      4  C3A BZF d   1      -0.242   0.688   0.956  0.00  0.00    -0.107 A 
ATOM      5  C4  BZF d   1      -0.943   1.443   1.853  0.00  0.00     0.055 A 
ATOM      6  C5  BZF d   1      -1.141   2.762   1.594  0.00  0.00    -0.016 A 
ATOM      7  C6  BZF d   1      -0.648   3.360   0.452  0.00  0.00     0.022 A 
ATOM      8  C7  BZF d   1       0.048   2.651  -0.469  0.00  0.00     0.029 A 
ATOM      9  C7A BZF d   1       0.222   1.310  -0.226  0.00  0.00     0.058 A 
ENDROOT
TORSDOF 0
ENDMDL
