MODEL 1
REMARK minimizedAffinity -0.997995555
REMARK minimizedRMSD -1
REMARK  0 active torsions:
REMARK  status: ('A' for Active; 'I' for Inactive)
ROOT
ATOM      1  O1  BZF d   1      -0.306  -0.062  -1.227  0.00  0.00    -0.204 OA
ATOM      2  C2  BZF d   1       0.213   0.286   0.006  0.00  0.00     0.174 A 
ATOM      3  C3  BZF d   1       0.888  -0.748   0.549  0.00  0.00    -0.012 A 
ATOM      4  C3A BZF d   1       0.863  -1.778  -0.444  0.00  0.00    -0.107 A 
ATOM      5  C4  BZF d   1       1.378  -3.041  -0.499  0.00  0.00     0.055 A 
ATOM      6  C5  BZF d   1       1.112  -3.816  -1.583  0.00  0.00    -0.016 A 
ATOM      7  C6  BZF d   1       0.332  -3.362  -2.626  0.00  0.00     0.022 A 
ATOM      8  C7  BZF d   1      -0.197  -2.114  -2.619  0.00  0.00     0.029 A 
ATOM      9  C7A BZF d   1       0.097  -1.317  -1.540  0.00  0.00     0.058 A 
ENDROOT
TORSDOF 0
ENDMDL
