MODEL 1
REMARK minimizedAffinity -3.85071063
REMARK minimizedRMSD -1
REMARK  0 active torsions:
REMARK  status: ('A' for Active; 'I' for Inactive)
ROOT
ATOM      1  O1  BZF d   1       0.644   0.209  -0.720  0.00  0.00    -0.204 OA
ATOM      2  C2  BZF d   1       0.509  -0.961   0.002  0.00  0.00     0.174 A 
ATOM      3  C3  BZF d   1      -0.163  -0.739   1.150  0.00  0.00    -0.012 A 
ATOM      4  C3A BZF d   1      -0.546   0.639   1.102  0.00  0.00    -0.107 A 
ATOM      5  C4  BZF d   1      -1.249   1.448   1.948  0.00  0.00     0.055 A 
ATOM      6  C5  BZF d   1      -1.386   2.765   1.642  0.00  0.00    -0.016 A 
ATOM      7  C6  BZF d   1      -0.828   3.306   0.502  0.00  0.00     0.022 A 
ATOM      8  C7  BZF d   1      -0.126   2.543  -0.370  0.00  0.00     0.029 A 
ATOM      9  C7A BZF d   1      -0.015   1.205  -0.080  0.00  0.00     0.058 A 
ENDROOT
TORSDOF 0
ENDMDL
