MODEL 1
REMARK minimizedAffinity -4.55271244
REMARK minimizedRMSD -1
REMARK  0 active torsions:
REMARK  status: ('A' for Active; 'I' for Inactive)
ROOT
ATOM      1  O1  BZF d   1       0.567   0.158  -0.685  0.00  0.00    -0.204 OA
ATOM      2  C2  BZF d   1       0.653  -0.958   0.126  0.00  0.00     0.174 A 
ATOM      3  C3  BZF d   1       0.024  -0.745   1.300  0.00  0.00    -0.012 A 
ATOM      4  C3A BZF d   1      -0.564   0.554   1.182  0.00  0.00    -0.107 A 
ATOM      5  C4  BZF d   1      -1.330   1.317   2.016  0.00  0.00     0.055 A 
ATOM      6  C5  BZF d   1      -1.681   2.571   1.628  0.00  0.00    -0.016 A 
ATOM      7  C6  BZF d   1      -1.280   3.095   0.416  0.00  0.00     0.022 A 
ATOM      8  C7  BZF d   1      -0.523   2.375  -0.447  0.00  0.00     0.029 A 
ATOM      9  C7A BZF d   1      -0.195   1.095  -0.072  0.00  0.00     0.058 A 
ENDROOT
TORSDOF 0
ENDMDL
