MODEL 1
REMARK minimizedAffinity -1.64541078
REMARK minimizedRMSD -1
REMARK  0 active torsions:
REMARK  status: ('A' for Active; 'I' for Inactive)
ROOT
ATOM      1  O1  BZF d   1       0.727   0.167  -0.750  0.00  0.00    -0.204 OA
ATOM      2  C2  BZF d   1       0.808  -1.203  -0.904  0.00  0.00     0.174 A 
ATOM      3  C3  BZF d   1       0.148  -1.836   0.087  0.00  0.00    -0.012 A 
ATOM      4  C3A BZF d   1      -0.456  -0.796   0.861  0.00  0.00    -0.107 A 
ATOM      5  C4  BZF d   1      -1.254  -0.792   1.970  0.00  0.00     0.055 A 
ATOM      6  C5  BZF d   1      -1.613   0.397   2.522  0.00  0.00    -0.016 A 
ATOM      7  C6  BZF d   1      -1.189   1.599   1.995  0.00  0.00     0.022 A 
ATOM      8  C7  BZF d   1      -0.401   1.647   0.893  0.00  0.00     0.029 A 
ATOM      9  C7A BZF d   1      -0.064   0.448   0.314  0.00  0.00     0.058 A 
ENDROOT
TORSDOF 0
ENDMDL
