MODEL 1
REMARK minimizedAffinity -2.96971154
REMARK minimizedRMSD -1
REMARK  0 active torsions:
REMARK  status: ('A' for Active; 'I' for Inactive)
ROOT
ATOM      1  O1  BZF d   1       0.738   0.757  -0.835  0.00  0.00    -0.204 OA
ATOM      2  C2  BZF d   1       0.424  -0.501  -0.359  0.00  0.00     0.174 A 
ATOM      3  C3  BZF d   1      -0.267  -0.417   0.796  0.00  0.00    -0.012 A 
ATOM      4  C3A BZF d   1      -0.472   0.983   1.011  0.00  0.00    -0.107 A 
ATOM      5  C4  BZF d   1      -1.107   1.701   1.984  0.00  0.00     0.055 A 
ATOM      6  C5  BZF d   1      -1.063   3.058   1.938  0.00  0.00    -0.016 A 
ATOM      7  C6  BZF d   1      -0.389   3.730   0.939  0.00  0.00     0.022 A 
ATOM      8  C7  BZF d   1       0.251   3.061  -0.051  0.00  0.00     0.029 A 
ATOM      9  C7A BZF d   1       0.180   1.690  -0.026  0.00  0.00     0.058 A 
ENDROOT
TORSDOF 0
ENDMDL
