MODEL 1
REMARK minimizedAffinity -3.75330663
REMARK minimizedRMSD -1
REMARK  0 active torsions:
REMARK  status: ('A' for Active; 'I' for Inactive)
ROOT
ATOM      1  O1  BZF d   1       0.986   0.185  -0.807  0.00  0.00    -0.204 OA
ATOM      2  C2  BZF d   1       0.585  -0.733   0.144  0.00  0.00     0.174 A 
ATOM      3  C3  BZF d   1       0.048  -0.111   1.214  0.00  0.00    -0.012 A 
ATOM      4  C3A BZF d   1       0.034   1.278   0.874  0.00  0.00    -0.107 A 
ATOM      5  C4  BZF d   1      -0.395   2.400   1.524  0.00  0.00     0.055 A 
ATOM      6  C5  BZF d   1      -0.198   3.614   0.946  0.00  0.00    -0.016 A 
ATOM      7  C6  BZF d   1       0.427   3.744  -0.276  0.00  0.00     0.022 A 
ATOM      8  C7  BZF d   1       0.865   2.660  -0.962  0.00  0.00     0.029 A 
ATOM      9  C7A BZF d   1       0.639   1.429  -0.396  0.00  0.00     0.058 A 
ENDROOT
TORSDOF 0
ENDMDL
