MODEL 1
REMARK minimizedAffinity -1.38886905
REMARK minimizedRMSD -1
REMARK  0 active torsions:
REMARK  status: ('A' for Active; 'I' for Inactive)
ROOT
ATOM      1  O1  BZF d   1       0.076   0.348  -1.460  0.00  0.00    -0.204 OA
ATOM      2  C2  BZF d   1       0.179   0.549  -0.097  0.00  0.00     0.174 A 
ATOM      3  C3  BZF d   1       0.387  -0.619   0.544  0.00  0.00    -0.012 A 
ATOM      4  C3A BZF d   1       0.508  -1.600  -0.490  0.00  0.00    -0.107 A 
ATOM      5  C4  BZF d   1       0.737  -2.946  -0.486  0.00  0.00     0.055 A 
ATOM      6  C5  BZF d   1       0.724  -3.623  -1.664  0.00  0.00    -0.016 A 
ATOM      7  C6  BZF d   1       0.480  -2.987  -2.864  0.00  0.00     0.022 A 
ATOM      8  C7  BZF d   1       0.252  -1.652  -2.919  0.00  0.00     0.029 A 
ATOM      9  C7A BZF d   1       0.297  -0.960  -1.734  0.00  0.00     0.058 A 
ENDROOT
TORSDOF 0
ENDMDL
