MODEL 1
REMARK minimizedAffinity -0.650073707
REMARK minimizedRMSD -1
REMARK  0 active torsions:
REMARK  status: ('A' for Active; 'I' for Inactive)
ROOT
ATOM      1  O1  BZF d   1       0.571  -0.098  -1.039  0.00  0.00    -0.204 OA
ATOM      2  C2  BZF d   1       0.947  -1.424  -1.133  0.00  0.00     0.174 A 
ATOM      3  C3  BZF d   1       0.684  -2.078   0.017  0.00  0.00    -0.012 A 
ATOM      4  C3A BZF d   1       0.024  -1.122   0.851  0.00  0.00    -0.107 A 
ATOM      5  C4  BZF d   1      -0.498  -1.178   2.112  0.00  0.00     0.055 A 
ATOM      6  C5  BZF d   1      -1.010  -0.048   2.666  0.00  0.00    -0.016 A 
ATOM      7  C6  BZF d   1      -1.011   1.155   1.991  0.00  0.00     0.022 A 
ATOM      8  C7  BZF d   1      -0.509   1.259   0.736  0.00  0.00     0.029 A 
ATOM      9  C7A BZF d   1      -0.021   0.111   0.161  0.00  0.00     0.058 A 
ENDROOT
TORSDOF 0
ENDMDL
