MODEL 1
REMARK minimizedAffinity -2.82876539
REMARK minimizedRMSD -1
REMARK  0 active torsions:
REMARK  status: ('A' for Active; 'I' for Inactive)
ROOT
ATOM      1  O1  BZF d   1       0.399   2.370  -0.930  0.00  0.00    -0.204 OA
ATOM      2  C2  BZF d   1       0.227   3.655  -0.454  0.00  0.00     0.174 A 
ATOM      3  C3  BZF d   1      -0.375   3.642   0.753  0.00  0.00    -0.012 A 
ATOM      4  C3A BZF d   1      -0.510   2.258   1.091  0.00  0.00    -0.107 A 
ATOM      5  C4  BZF d   1      -1.018   1.601   2.175  0.00  0.00     0.055 A 
ATOM      6  C5  BZF d   1      -1.067   0.243   2.162  0.00  0.00    -0.016 A 
ATOM      7  C6  BZF d   1      -0.621  -0.489   1.081  0.00  0.00     0.022 A 
ATOM      8  C7  BZF d   1      -0.104   0.118  -0.015  0.00  0.00     0.029 A 
ATOM      9  C7A BZF d   1      -0.023   1.489   0.009  0.00  0.00     0.058 A 
ENDROOT
TORSDOF 0
ENDMDL
