MODEL 1
REMARK minimizedAffinity -3.46258378
REMARK minimizedRMSD -1
REMARK  0 active torsions:
REMARK  status: ('A' for Active; 'I' for Inactive)
ROOT
ATOM      1  O1  BZF d   1       0.768   2.353  -0.837  0.00  0.00    -0.204 OA
ATOM      2  C2  BZF d   1       0.214   3.477  -0.256  0.00  0.00     0.174 A 
ATOM      3  C3  BZF d   1      -0.600   3.136   0.764  0.00  0.00    -0.012 A 
ATOM      4  C3A BZF d   1      -0.480   1.715   0.883  0.00  0.00    -0.107 A 
ATOM      5  C4  BZF d   1      -1.033   0.793   1.725  0.00  0.00     0.055 A 
ATOM      6  C5  BZF d   1      -0.766  -0.525   1.529  0.00  0.00    -0.016 A 
ATOM      7  C6  BZF d   1       0.044  -0.956   0.498  0.00  0.00     0.022 A 
ATOM      8  C7  BZF d   1       0.619  -0.078  -0.360  0.00  0.00     0.029 A 
ATOM      9  C7A BZF d   1       0.378   1.257  -0.144  0.00  0.00     0.058 A 
ENDROOT
TORSDOF 0
ENDMDL
