MODEL 1
REMARK minimizedAffinity -3.00223637
REMARK minimizedRMSD -1
REMARK  0 active torsions:
REMARK  status: ('A' for Active; 'I' for Inactive)
ROOT
ATOM      1  O1  BZF d   1       0.979   0.148  -0.616  0.00  0.00    -0.204 OA
ATOM      2  C2  BZF d   1       0.904  -1.032   0.098  0.00  0.00     0.174 A 
ATOM      3  C3  BZF d   1       0.431  -0.810   1.341  0.00  0.00    -0.012 A 
ATOM      4  C3A BZF d   1       0.109   0.584   1.377  0.00  0.00    -0.107 A 
ATOM      5  C4  BZF d   1      -0.416   1.402   2.337  0.00  0.00     0.055 A 
ATOM      6  C5  BZF d   1      -0.537   2.730   2.078  0.00  0.00    -0.016 A 
ATOM      7  C6  BZF d   1      -0.140   3.275   0.875  0.00  0.00     0.022 A 
ATOM      8  C7  BZF d   1       0.381   2.503  -0.110  0.00  0.00     0.029 A 
ATOM      9  C7A BZF d   1       0.475   1.155   0.136  0.00  0.00     0.058 A 
ENDROOT
TORSDOF 0
ENDMDL
