MODEL 1
REMARK minimizedAffinity -3.12612343
REMARK minimizedRMSD -1
REMARK  0 active torsions:
REMARK  status: ('A' for Active; 'I' for Inactive)
ROOT
ATOM      1  O1  BZF d   1       1.233   0.525  -0.862  0.00  0.00    -0.204 OA
ATOM      2  C2  BZF d   1       1.100  -0.766  -0.391  0.00  0.00     0.174 A 
ATOM      3  C3  BZF d   1       0.387  -0.788   0.753  0.00  0.00    -0.012 A 
ATOM      4  C3A BZF d   1      -0.026   0.566   0.964  0.00  0.00    -0.107 A 
ATOM      5  C4  BZF d   1      -0.775   1.180   1.927  0.00  0.00     0.055 A 
ATOM      6  C5  BZF d   1      -0.931   2.529   1.882  0.00  0.00    -0.016 A 
ATOM      7  C6  BZF d   1      -0.349   3.295   0.893  0.00  0.00     0.022 A 
ATOM      8  C7  BZF d   1       0.398   2.730  -0.086  0.00  0.00     0.029 A 
ATOM      9  C7A BZF d   1       0.530   1.363  -0.062  0.00  0.00     0.058 A 
ENDROOT
TORSDOF 0
ENDMDL
