MODEL 1
REMARK minimizedAffinity -2.77953744
REMARK minimizedRMSD -1
REMARK  0 active torsions:
REMARK  status: ('A' for Active; 'I' for Inactive)
ROOT
ATOM      1  O1  BZF d   1       0.473  -1.973  -0.156  0.00  0.00    -0.204 OA
ATOM      2  C2  BZF d   1       1.213  -1.389  -1.166  0.00  0.00     0.174 A 
ATOM      3  C3  BZF d   1       1.224  -0.046  -1.036  0.00  0.00    -0.012 A 
ATOM      4  C3A BZF d   1       0.520   0.220   0.181  0.00  0.00    -0.107 A 
ATOM      5  C4  BZF d   1       0.212   1.366   0.856  0.00  0.00     0.055 A 
ATOM      6  C5  BZF d   1      -0.551   1.287   1.978  0.00  0.00    -0.016 A 
ATOM      7  C6  BZF d   1      -1.027   0.081   2.449  0.00  0.00     0.022 A 
ATOM      8  C7  BZF d   1      -0.744  -1.083   1.816  0.00  0.00     0.029 A 
ATOM      9  C7A BZF d   1       0.054  -1.010   0.700  0.00  0.00     0.058 A 
ENDROOT
TORSDOF 0
ENDMDL
