MODEL 1
REMARK minimizedAffinity -2.35453248
REMARK minimizedRMSD -1
REMARK  0 active torsions:
REMARK  status: ('A' for Active; 'I' for Inactive)
ROOT
ATOM      1  O1  BZF d   1       0.778   0.558  -0.808  0.00  0.00    -0.204 OA
ATOM      2  C2  BZF d   1       0.478  -0.555  -0.047  0.00  0.00     0.174 A 
ATOM      3  C3  BZF d   1      -0.194  -0.206   1.069  0.00  0.00    -0.012 A 
ATOM      4  C3A BZF d   1      -0.403   1.205   0.956  0.00  0.00    -0.107 A 
ATOM      5  C4  BZF d   1      -1.025   2.128   1.746  0.00  0.00     0.055 A 
ATOM      6  C5  BZF d   1      -0.989   3.438   1.386  0.00  0.00    -0.016 A 
ATOM      7  C6  BZF d   1      -0.336   3.860   0.247  0.00  0.00     0.022 A 
ATOM      8  C7  BZF d   1       0.291   2.981  -0.572  0.00  0.00     0.029 A 
ATOM      9  C7A BZF d   1       0.228   1.652  -0.228  0.00  0.00     0.058 A 
ENDROOT
TORSDOF 0
ENDMDL
