MODEL 1
REMARK minimizedAffinity -6.30444574
REMARK minimizedRMSD -1
REMARK  0 active torsions:
REMARK  status: ('A' for Active; 'I' for Inactive)
ROOT
ATOM      1  C   UNL d   1       1.505  -1.067   0.753  0.00  0.00     0.077 C 
ATOM      2  C1  UNL d   1       0.185  -0.985   0.045  0.00  0.00    -0.074 A 
ATOM      3  C2  UNL d   1      -0.975  -1.510   0.625  0.00  0.00    -0.005 A 
ATOM      4  C3  UNL d   1      -2.197  -1.417  -0.041  0.00  0.00     0.006 A 
ATOM      5  C4  UNL d   1      -2.272  -0.800  -1.291  0.00  0.00    -0.005 A 
ATOM      6  C5  UNL d   1      -1.123  -0.270  -1.885  0.00  0.00    -0.074 A 
ATOM      7  C6  UNL d   1      -1.187   0.405  -3.223  0.00  0.00     0.077 C 
ATOM      8  C7  UNL d   1       0.101  -0.360  -1.207  0.00  0.00    -0.001 A 
ENDROOT
TORSDOF 0
ENDMDL
