MODEL 1
REMARK minimizedAffinity -3.31408811
REMARK minimizedRMSD -1
REMARK  0 active torsions:
REMARK  status: ('A' for Active; 'I' for Inactive)
ROOT
ATOM      1  C   UNL d   1       0.852   0.689   0.463  0.00  0.00     0.077 C 
ATOM      2  C1  UNL d   1      -0.385   0.332  -0.307  0.00  0.00    -0.074 A 
ATOM      3  C2  UNL d   1      -0.730   1.023  -1.473  0.00  0.00    -0.005 A 
ATOM      4  C3  UNL d   1      -1.879   0.673  -2.183  0.00  0.00     0.006 A 
ATOM      5  C4  UNL d   1      -2.691  -0.369  -1.735  0.00  0.00    -0.005 A 
ATOM      6  C5  UNL d   1      -2.361  -1.072  -0.572  0.00  0.00    -0.074 A 
ATOM      7  C6  UNL d   1      -3.219  -2.201  -0.083  0.00  0.00     0.077 C 
ATOM      8  C7  UNL d   1      -1.202  -0.719   0.132  0.00  0.00    -0.001 A 
ENDROOT
TORSDOF 0
ENDMDL
