MODEL 1
REMARK minimizedAffinity -2.62601924
REMARK minimizedRMSD -1
REMARK  0 active torsions:
REMARK  status: ('A' for Active; 'I' for Inactive)
ROOT
ATOM      1  C   UNL d   1      -2.598  -2.129  -2.279  0.00  0.00     0.077 C 
ATOM      2  C1  UNL d   1      -2.115  -1.319  -1.114  0.00  0.00    -0.074 A 
ATOM      3  C2  UNL d   1      -2.921  -1.127   0.013  0.00  0.00    -0.005 A 
ATOM      4  C3  UNL d   1      -2.454  -0.379   1.093  0.00  0.00     0.006 A 
ATOM      5  C4  UNL d   1      -1.178   0.184   1.059  0.00  0.00    -0.005 A 
ATOM      6  C5  UNL d   1      -0.357   0.002  -0.059  0.00  0.00    -0.074 A 
ATOM      7  C6  UNL d   1       1.022   0.592  -0.108  0.00  0.00     0.077 C 
ATOM      8  C7  UNL d   1      -0.831  -0.757  -1.138  0.00  0.00    -0.001 A 
ENDROOT
TORSDOF 0
ENDMDL
