MODEL 1
REMARK minimizedAffinity -2.06708121
REMARK minimizedRMSD -1
REMARK  0 active torsions:
REMARK  status: ('A' for Active; 'I' for Inactive)
ROOT
ATOM      1  C   UNL d   1       1.105  -0.030   0.753  0.00  0.00     0.077 C 
ATOM      2  C1  UNL d   1      -0.051  -0.026  -0.202  0.00  0.00    -0.074 A 
ATOM      3  C2  UNL d   1       0.106   0.420  -1.518  0.00  0.00    -0.005 A 
ATOM      4  C3  UNL d   1      -0.977   0.408  -2.398  0.00  0.00     0.006 A 
ATOM      5  C4  UNL d   1      -2.224  -0.048  -1.971  0.00  0.00    -0.005 A 
ATOM      6  C5  UNL d   1      -2.400  -0.498  -0.659  0.00  0.00    -0.074 A 
ATOM      7  C6  UNL d   1      -3.732  -1.000  -0.187  0.00  0.00     0.077 C 
ATOM      8  C7  UNL d   1      -1.306  -0.490   0.217  0.00  0.00    -0.001 A 
ENDROOT
TORSDOF 0
ENDMDL
