MODEL 1
REMARK minimizedAffinity -3.88944888
REMARK minimizedRMSD -1
REMARK  0 active torsions:
REMARK  status: ('A' for Active; 'I' for Inactive)
ROOT
ATOM      1  C   UNL d   1       0.272   0.138  -2.288  0.00  0.00     0.077 C 
ATOM      2  C1  UNL d   1      -0.680  -0.174  -1.172  0.00  0.00    -0.074 A 
ATOM      3  C2  UNL d   1      -2.046   0.096  -1.296  0.00  0.00    -0.005 A 
ATOM      4  C3  UNL d   1      -2.921  -0.209  -0.253  0.00  0.00     0.006 A 
ATOM      5  C4  UNL d   1      -2.438  -0.786   0.923  0.00  0.00    -0.005 A 
ATOM      6  C5  UNL d   1      -1.075  -1.063   1.064  0.00  0.00    -0.074 A 
ATOM      7  C6  UNL d   1      -0.541  -1.692   2.317  0.00  0.00     0.077 C 
ATOM      8  C7  UNL d   1      -0.204  -0.761   0.009  0.00  0.00    -0.001 A 
ENDROOT
TORSDOF 0
ENDMDL
