MODEL 1
REMARK minimizedAffinity -4.8612752
REMARK minimizedRMSD -1
REMARK  0 active torsions:
REMARK  status: ('A' for Active; 'I' for Inactive)
ROOT
ATOM      1  C   UNL d   1      -2.464  -2.301  -3.730  0.00  0.00     0.077 C 
ATOM      2  C1  UNL d   1      -2.444  -2.397  -2.233  0.00  0.00    -0.074 A 
ATOM      3  C2  UNL d   1      -2.384  -3.639  -1.593  0.00  0.00    -0.005 A 
ATOM      4  C3  UNL d   1      -2.357  -3.711  -0.200  0.00  0.00     0.006 A 
ATOM      5  C4  UNL d   1      -2.388  -2.545   0.565  0.00  0.00    -0.005 A 
ATOM      6  C5  UNL d   1      -2.446  -1.294  -0.058  0.00  0.00    -0.074 A 
ATOM      7  C6  UNL d   1      -2.470  -0.030   0.750  0.00  0.00     0.077 C 
ATOM      8  C7  UNL d   1      -2.467  -1.229  -1.458  0.00  0.00    -0.001 A 
ENDROOT
TORSDOF 0
ENDMDL
