MODEL 1
REMARK minimizedAffinity -4.61608028
REMARK minimizedRMSD -1
REMARK  0 active torsions:
REMARK  status: ('A' for Active; 'I' for Inactive)
ROOT
ATOM      1  C   UNL d   1       0.805  -2.189   1.829  0.00  0.00     0.077 C 
ATOM      2  C1  UNL d   1       0.254  -1.371   0.699  0.00  0.00    -0.074 A 
ATOM      3  C2  UNL d   1       0.999  -0.334   0.131  0.00  0.00    -0.005 A 
ATOM      4  C3  UNL d   1       0.477   0.412  -0.926  0.00  0.00     0.006 A 
ATOM      5  C4  UNL d   1      -0.795   0.127  -1.425  0.00  0.00    -0.005 A 
ATOM      6  C5  UNL d   1      -1.555  -0.908  -0.870  0.00  0.00    -0.074 A 
ATOM      7  C6  UNL d   1      -2.919  -1.233  -1.401  0.00  0.00     0.077 C 
ATOM      8  C7  UNL d   1      -1.020  -1.656   0.187  0.00  0.00    -0.001 A 
ENDROOT
TORSDOF 0
ENDMDL
