MODEL 1
REMARK minimizedAffinity -5.12846088
REMARK minimizedRMSD -1
REMARK  0 active torsions:
REMARK  status: ('A' for Active; 'I' for Inactive)
ROOT
ATOM      1  C   UNL d   1      -1.546   0.808  -0.584  0.00  0.00     0.077 C 
ATOM      2  C1  UNL d   1      -0.187   1.000   0.021  0.00  0.00    -0.074 A 
ATOM      3  C2  UNL d   1       0.518  -0.080   0.561  0.00  0.00    -0.005 A 
ATOM      4  C3  UNL d   1       1.785   0.113   1.112  0.00  0.00     0.006 A 
ATOM      5  C4  UNL d   1       2.358   1.385   1.128  0.00  0.00    -0.005 A 
ATOM      6  C5  UNL d   1       1.668   2.477   0.592  0.00  0.00    -0.074 A 
ATOM      7  C6  UNL d   1       2.274   3.849   0.593  0.00  0.00     0.077 C 
ATOM      8  C7  UNL d   1       0.398   2.274   0.034  0.00  0.00    -0.001 A 
ENDROOT
TORSDOF 0
ENDMDL
