MODEL 1
REMARK minimizedAffinity -5.59647131
REMARK minimizedRMSD -1
REMARK  0 active torsions:
REMARK  status: ('A' for Active; 'I' for Inactive)
ROOT
ATOM      1  C   UNL d   1       1.075   0.770  -0.008  0.00  0.00     0.077 C 
ATOM      2  C1  UNL d   1      -0.229   0.188  -0.466  0.00  0.00    -0.074 A 
ATOM      3  C2  UNL d   1      -0.862   0.662  -1.620  0.00  0.00    -0.005 A 
ATOM      4  C3  UNL d   1      -2.070   0.104  -2.039  0.00  0.00     0.006 A 
ATOM      5  C4  UNL d   1      -2.656  -0.931  -1.310  0.00  0.00    -0.005 A 
ATOM      6  C5  UNL d   1      -2.038  -1.418  -0.154  0.00  0.00    -0.074 A 
ATOM      7  C6  UNL d   1      -2.650  -2.536   0.636  0.00  0.00     0.077 C 
ATOM      8  C7  UNL d   1      -0.821  -0.857   0.257  0.00  0.00    -0.001 A 
ENDROOT
TORSDOF 0
ENDMDL
