MODEL 1
REMARK minimizedAffinity -2.00034404
REMARK minimizedRMSD -1
REMARK  0 active torsions:
REMARK  status: ('A' for Active; 'I' for Inactive)
ROOT
ATOM      1  C   UNL d   1      -2.776   1.526   1.596  0.00  0.00     0.077 C 
ATOM      2  C1  UNL d   1      -1.707   0.527   1.268  0.00  0.00    -0.074 A 
ATOM      3  C2  UNL d   1      -1.605  -0.675   1.976  0.00  0.00    -0.005 A 
ATOM      4  C3  UNL d   1      -0.612  -1.600   1.653  0.00  0.00     0.006 A 
ATOM      5  C4  UNL d   1       0.289  -1.332   0.622  0.00  0.00    -0.005 A 
ATOM      6  C5  UNL d   1       0.203  -0.136  -0.097  0.00  0.00    -0.074 A 
ATOM      7  C6  UNL d   1       1.157   0.163  -1.215  0.00  0.00     0.077 C 
ATOM      8  C7  UNL d   1      -0.803   0.785   0.228  0.00  0.00    -0.001 A 
ENDROOT
TORSDOF 0
ENDMDL
