MODEL 1
REMARK minimizedAffinity -4.1753583
REMARK minimizedRMSD -1
REMARK  0 active torsions:
REMARK  status: ('A' for Active; 'I' for Inactive)
ROOT
ATOM      1  C   UNL d   1      -2.192  -1.510  -2.698  0.00  0.00     0.077 C 
ATOM      2  C1  UNL d   1      -1.998  -0.872  -1.355  0.00  0.00    -0.074 A 
ATOM      3  C2  UNL d   1      -3.062  -0.754  -0.454  0.00  0.00    -0.005 A 
ATOM      4  C3  UNL d   1      -2.864  -0.167   0.795  0.00  0.00     0.006 A 
ATOM      5  C4  UNL d   1      -1.602   0.307   1.157  0.00  0.00    -0.005 A 
ATOM      6  C5  UNL d   1      -0.526   0.197   0.270  0.00  0.00    -0.074 A 
ATOM      7  C6  UNL d   1       0.838   0.693   0.646  0.00  0.00     0.077 C 
ATOM      8  C7  UNL d   1      -0.732  -0.401  -0.981  0.00  0.00    -0.001 A 
ENDROOT
TORSDOF 0
ENDMDL
