MODEL 1
REMARK minimizedAffinity -5.21873426
REMARK minimizedRMSD -1
REMARK  0 active torsions:
REMARK  status: ('A' for Active; 'I' for Inactive)
ROOT
ATOM      1  C   UNL d   1       4.686   3.291  -1.999  0.00  0.00     0.077 C 
ATOM      2  C1  UNL d   1       3.968   2.730  -0.808  0.00  0.00    -0.074 A 
ATOM      3  C2  UNL d   1       4.212   3.225   0.478  0.00  0.00    -0.005 A 
ATOM      4  C3  UNL d   1       3.529   2.699   1.575  0.00  0.00     0.006 A 
ATOM      5  C4  UNL d   1       2.598   1.675   1.398  0.00  0.00    -0.005 A 
ATOM      6  C5  UNL d   1       2.340   1.169   0.120  0.00  0.00    -0.074 A 
ATOM      7  C6  UNL d   1       1.335   0.075  -0.088  0.00  0.00     0.077 C 
ATOM      8  C7  UNL d   1       3.025   1.707  -0.978  0.00  0.00    -0.001 A 
ENDROOT
TORSDOF 0
ENDMDL
