MODEL 1
REMARK minimizedAffinity -4.8307929
REMARK minimizedRMSD -1
REMARK  0 active torsions:
REMARK  status: ('A' for Active; 'I' for Inactive)
ROOT
ATOM      1  C   UNL d   1      -3.710  -0.663   0.038  0.00  0.00     0.077 C 
ATOM      2  C1  UNL d   1      -2.415  -0.423  -0.679  0.00  0.00    -0.074 A 
ATOM      3  C2  UNL d   1      -2.364  -0.383  -2.076  0.00  0.00    -0.005 A 
ATOM      4  C3  UNL d   1      -1.153  -0.149  -2.729  0.00  0.00     0.006 A 
ATOM      5  C4  UNL d   1       0.016   0.046  -1.993  0.00  0.00    -0.005 A 
ATOM      6  C5  UNL d   1      -0.016   0.010  -0.595  0.00  0.00    -0.074 A 
ATOM      7  C6  UNL d   1       1.229   0.228   0.212  0.00  0.00     0.077 C 
ATOM      8  C7  UNL d   1      -1.238  -0.218   0.054  0.00  0.00    -0.001 A 
ENDROOT
TORSDOF 0
ENDMDL
