MODEL 1
REMARK minimizedAffinity -5.61065769
REMARK minimizedRMSD -1
REMARK  0 active torsions:
REMARK  status: ('A' for Active; 'I' for Inactive)
ROOT
ATOM      1  C   UNL d   1      -2.146  -1.295  -2.842  0.00  0.00     0.077 C 
ATOM      2  C1  UNL d   1      -1.813  -0.770  -1.476  0.00  0.00    -0.074 A 
ATOM      3  C2  UNL d   1      -2.824  -0.432  -0.570  0.00  0.00    -0.005 A 
ATOM      4  C3  UNL d   1      -2.499   0.045   0.699  0.00  0.00     0.006 A 
ATOM      5  C4  UNL d   1      -1.163   0.190   1.075  0.00  0.00    -0.005 A 
ATOM      6  C5  UNL d   1      -0.139  -0.144   0.182  0.00  0.00    -0.074 A 
ATOM      7  C6  UNL d   1       1.302  -0.003   0.573  0.00  0.00     0.077 C 
ATOM      8  C7  UNL d   1      -0.473  -0.629  -1.089  0.00  0.00    -0.001 A 
ENDROOT
TORSDOF 0
ENDMDL
