MODEL 1
REMARK minimizedAffinity -1.58768833
REMARK minimizedRMSD -1
REMARK  0 active torsions:
REMARK  status: ('A' for Active; 'I' for Inactive)
ROOT
ATOM      1  C   UNL d   1       1.882  -0.262   0.349  0.00  0.00     0.077 C 
ATOM      2  C1  UNL d   1       2.241   1.123   0.798  0.00  0.00    -0.074 A 
ATOM      3  C2  UNL d   1       2.009   1.534   2.115  0.00  0.00    -0.005 A 
ATOM      4  C3  UNL d   1       2.357   2.823   2.521  0.00  0.00     0.006 A 
ATOM      5  C4  UNL d   1       2.941   3.711   1.616  0.00  0.00    -0.005 A 
ATOM      6  C5  UNL d   1       3.181   3.317   0.296  0.00  0.00    -0.074 A 
ATOM      7  C6  UNL d   1       3.816   4.256  -0.686  0.00  0.00     0.077 C 
ATOM      8  C7  UNL d   1       2.835   2.018  -0.103  0.00  0.00    -0.001 A 
ENDROOT
TORSDOF 0
ENDMDL
