MODEL 1
REMARK minimizedAffinity -1.50138342
REMARK minimizedRMSD -1
REMARK  0 active torsions:
REMARK  status: ('A' for Active; 'I' for Inactive)
ROOT
ATOM      1  C   UNL d   1       2.929  -1.011   0.485  0.00  0.00     0.124 A 
ATOM      2  C1  UNL d   1       1.978  -1.829  -0.111  0.00  0.00     0.062 A 
ATOM      3  C2  UNL d   1       0.696  -1.346  -0.358  0.00  0.00     0.162 A 
ATOM      4  C3  UNL d   1       0.357  -0.039  -0.011  0.00  0.00    -0.034 A 
ATOM      5  C4  UNL d   1       1.318   0.777   0.589  0.00  0.00     0.162 A 
ATOM      6  C5  UNL d   1       2.598   0.290   0.834  0.00  0.00     0.062 A 
ATOM      7  F   UNL d   1       3.515   1.081   1.410  0.00  0.00    -0.097 F 
ATOM      8  F1  UNL d   1       1.026   2.039   0.936  0.00  0.00    -0.096 F 
ATOM      9  I   UNL d   1      -1.559   0.686  -0.379  0.00  0.00    -0.060 I 
ATOM     10  F2  UNL d   1      -0.202  -2.159  -0.935  0.00  0.00    -0.096 F 
ATOM     11  F3  UNL d   1       2.295  -3.087  -0.448  0.00  0.00    -0.097 F 
ATOM     12  F4  UNL d   1       4.161  -1.478   0.723  0.00  0.00    -0.092 F 
ENDROOT
TORSDOF 0
ENDMDL
