MODEL 1
REMARK minimizedAffinity -4.57645178
REMARK minimizedRMSD -1
REMARK  0 active torsions:
REMARK  status: ('A' for Active; 'I' for Inactive)
ROOT
ATOM      1  C   UNL d   1       2.663   0.053   0.573  0.00  0.00     0.124 A 
ATOM      2  C1  UNL d   1       1.791  -0.917   1.048  0.00  0.00     0.062 A 
ATOM      3  C2  UNL d   1       0.416  -0.753   0.904  0.00  0.00     0.162 A 
ATOM      4  C3  UNL d   1      -0.095   0.385   0.280  0.00  0.00    -0.034 A 
ATOM      5  C4  UNL d   1       0.788   1.356  -0.195  0.00  0.00     0.162 A 
ATOM      6  C5  UNL d   1       2.161   1.188  -0.048  0.00  0.00     0.062 A 
ATOM      7  F   UNL d   1       3.002   2.126  -0.508  0.00  0.00    -0.097 F 
ATOM      8  F1  UNL d   1       0.330   2.462  -0.800  0.00  0.00    -0.096 F 
ATOM      9  I   UNL d   1      -2.150   0.634   0.062  0.00  0.00    -0.060 I 
ATOM     10  F2  UNL d   1      -0.403  -1.706   1.373  0.00  0.00    -0.096 F 
ATOM     11  F3  UNL d   1       2.274  -2.014   1.649  0.00  0.00    -0.097 F 
ATOM     12  F4  UNL d   1       3.985  -0.107   0.714  0.00  0.00    -0.092 F 
ENDROOT
TORSDOF 0
ENDMDL
