MODEL 1
REMARK minimizedAffinity -1.35488236
REMARK minimizedRMSD -1
REMARK  0 active torsions:
REMARK  status: ('A' for Active; 'I' for Inactive)
ROOT
ATOM      1  C   UNL d   1       2.640  -1.199   0.466  0.00  0.00     0.124 A 
ATOM      2  C1  UNL d   1       1.774  -1.751  -0.467  0.00  0.00     0.062 A 
ATOM      3  C2  UNL d   1       0.511  -1.199  -0.663  0.00  0.00     0.162 A 
ATOM      4  C3  UNL d   1       0.108  -0.087   0.076  0.00  0.00    -0.034 A 
ATOM      5  C4  UNL d   1       0.984   0.463   1.013  0.00  0.00     0.162 A 
ATOM      6  C5  UNL d   1       2.245  -0.093   1.205  0.00  0.00     0.062 A 
ATOM      7  F   UNL d   1       3.081   0.442   2.107  0.00  0.00    -0.097 F 
ATOM      8  F1  UNL d   1       0.628   1.532   1.740  0.00  0.00    -0.096 F 
ATOM      9  I   UNL d   1      -1.779   0.742  -0.214  0.00  0.00    -0.060 I 
ATOM     10  F2  UNL d   1      -0.305  -1.754  -1.571  0.00  0.00    -0.096 F 
ATOM     11  F3  UNL d   1       2.153  -2.821  -1.181  0.00  0.00    -0.097 F 
ATOM     12  F4  UNL d   1       3.854  -1.733   0.654  0.00  0.00    -0.092 F 
ENDROOT
TORSDOF 0
ENDMDL
