MODEL 1
REMARK minimizedAffinity -4.19401741
REMARK minimizedRMSD -1
REMARK  0 active torsions:
REMARK  status: ('A' for Active; 'I' for Inactive)
ROOT
ATOM      1  C   UNL d   1       2.820  -0.341   0.353  0.00  0.00     0.124 A 
ATOM      2  C1  UNL d   1       1.877  -1.348   0.203  0.00  0.00     0.062 A 
ATOM      3  C2  UNL d   1       0.541  -1.028  -0.019  0.00  0.00     0.162 A 
ATOM      4  C3  UNL d   1       0.139   0.306  -0.093  0.00  0.00    -0.034 A 
ATOM      5  C4  UNL d   1       1.094   1.313   0.060  0.00  0.00     0.162 A 
ATOM      6  C5  UNL d   1       2.428   0.988   0.281  0.00  0.00     0.062 A 
ATOM      7  F   UNL d   1       3.338   1.963   0.426  0.00  0.00    -0.097 F 
ATOM      8  F1  UNL d   1       0.742   2.606  -0.006  0.00  0.00    -0.096 F 
ATOM      9  I   UNL d   1      -1.858   0.788  -0.424  0.00  0.00    -0.060 I 
ATOM     10  F2  UNL d   1      -0.349  -2.022  -0.160  0.00  0.00    -0.096 F 
ATOM     11  F3  UNL d   1       2.254  -2.633   0.273  0.00  0.00    -0.097 F 
ATOM     12  F4  UNL d   1       4.105  -0.651   0.567  0.00  0.00    -0.092 F 
ENDROOT
TORSDOF 0
ENDMDL
