MODEL 1
REMARK minimizedAffinity 1.63232696
REMARK minimizedRMSD -1
REMARK  0 active torsions:
REMARK  status: ('A' for Active; 'I' for Inactive)
ROOT
ATOM      1  C   UNL d   1       1.885  -0.590   0.384  0.00  0.00     0.124 A 
ATOM      2  C1  UNL d   1       1.149  -1.509  -0.351  0.00  0.00     0.062 A 
ATOM      3  C2  UNL d   1      -0.169  -1.231  -0.700  0.00  0.00     0.162 A 
ATOM      4  C3  UNL d   1      -0.761  -0.028  -0.315  0.00  0.00    -0.034 A 
ATOM      5  C4  UNL d   1      -0.015   0.891   0.425  0.00  0.00     0.162 A 
ATOM      6  C5  UNL d   1       1.303   0.608   0.772  0.00  0.00     0.062 A 
ATOM      7  F   UNL d   1       2.012   1.497   1.482  0.00  0.00    -0.097 F 
ATOM      8  F1  UNL d   1      -0.552   2.057   0.812  0.00  0.00    -0.096 F 
ATOM      9  I   UNL d   1      -2.732   0.392  -0.835  0.00  0.00    -0.060 I 
ATOM     10  F2  UNL d   1      -0.857  -2.137  -1.411  0.00  0.00    -0.096 F 
ATOM     11  F3  UNL d   1       1.709  -2.668  -0.726  0.00  0.00    -0.097 F 
ATOM     12  F4  UNL d   1       3.153  -0.861   0.720  0.00  0.00    -0.092 F 
ENDROOT
TORSDOF 0
ENDMDL
