MODEL 1
REMARK minimizedAffinity -4.77020597
REMARK minimizedRMSD -1
REMARK  0 active torsions:
REMARK  status: ('A' for Active; 'I' for Inactive)
ROOT
ATOM      1  C   UNL d   1       2.774   0.155   0.795  0.00  0.00     0.124 A 
ATOM      2  C1  UNL d   1       2.356   1.307   0.143  0.00  0.00     0.062 A 
ATOM      3  C2  UNL d   1       1.002   1.520  -0.103  0.00  0.00     0.162 A 
ATOM      4  C3  UNL d   1       0.056   0.580   0.306  0.00  0.00    -0.034 A 
ATOM      5  C4  UNL d   1       0.484  -0.576   0.961  0.00  0.00     0.162 A 
ATOM      6  C5  UNL d   1       1.838  -0.785   1.204  0.00  0.00     0.062 A 
ATOM      7  F   UNL d   1       2.240  -1.898   1.834  0.00  0.00    -0.097 F 
ATOM      8  F1  UNL d   1      -0.398  -1.501   1.367  0.00  0.00    -0.096 F 
ATOM      9  I   UNL d   1      -1.968   0.895  -0.060  0.00  0.00    -0.060 I 
ATOM     10  F2  UNL d   1       0.627   2.642  -0.735  0.00  0.00    -0.096 F 
ATOM     11  F3  UNL d   1       3.258   2.216  -0.253  0.00  0.00    -0.097 F 
ATOM     12  F4  UNL d   1       4.077  -0.048   1.029  0.00  0.00    -0.092 F 
ENDROOT
TORSDOF 0
ENDMDL
