MODEL 1
REMARK minimizedAffinity 5.13024139
REMARK minimizedRMSD -1
REMARK  0 active torsions:
REMARK  status: ('A' for Active; 'I' for Inactive)
ROOT
ATOM      1  C   UNL d   1       2.399  -1.117   0.122  0.00  0.00     0.124 A 
ATOM      2  C1  UNL d   1       1.562  -1.593  -0.878  0.00  0.00     0.062 A 
ATOM      3  C2  UNL d   1       0.270  -1.092  -1.006  0.00  0.00     0.162 A 
ATOM      4  C3  UNL d   1      -0.194  -0.109  -0.133  0.00  0.00    -0.034 A 
ATOM      5  C4  UNL d   1       0.653   0.364   0.871  0.00  0.00     0.162 A 
ATOM      6  C5  UNL d   1       1.944  -0.140   0.996  0.00  0.00     0.062 A 
ATOM      7  F   UNL d   1       2.751   0.321   1.962  0.00  0.00    -0.097 F 
ATOM      8  F1  UNL d   1       0.240   1.309   1.729  0.00  0.00    -0.096 F 
ATOM      9  I   UNL d   1      -2.125   0.643  -0.321  0.00  0.00    -0.060 I 
ATOM     10  F2  UNL d   1      -0.517  -1.570  -1.982  0.00  0.00    -0.096 F 
ATOM     11  F3  UNL d   1       1.999  -2.538  -1.723  0.00  0.00    -0.097 F 
ATOM     12  F4  UNL d   1       3.642  -1.602   0.244  0.00  0.00    -0.092 F 
ENDROOT
TORSDOF 0
ENDMDL
