MODEL 1
REMARK minimizedAffinity 3.22792244
REMARK minimizedRMSD -1
REMARK  0 active torsions:
REMARK  status: ('A' for Active; 'I' for Inactive)
ROOT
ATOM      1  C   UNL d   1       2.774   0.315  -0.301  0.00  0.00     0.124 A 
ATOM      2  C1  UNL d   1       1.889  -0.753  -0.352  0.00  0.00     0.062 A 
ATOM      3  C2  UNL d   1       0.519  -0.534  -0.232  0.00  0.00     0.162 A 
ATOM      4  C3  UNL d   1       0.026   0.760  -0.063  0.00  0.00    -0.034 A 
ATOM      5  C4  UNL d   1       0.922   1.829  -0.013  0.00  0.00     0.162 A 
ATOM      6  C5  UNL d   1       2.290   1.604  -0.132  0.00  0.00     0.062 A 
ATOM      7  F   UNL d   1       3.144   2.637  -0.083  0.00  0.00    -0.097 F 
ATOM      8  F1  UNL d   1       0.482   3.085   0.149  0.00  0.00    -0.096 F 
ATOM      9  I   UNL d   1      -2.021   1.092   0.116  0.00  0.00    -0.060 I 
ATOM     10  F2  UNL d   1      -0.313  -1.585  -0.284  0.00  0.00    -0.096 F 
ATOM     11  F3  UNL d   1       2.353  -2.000  -0.514  0.00  0.00    -0.097 F 
ATOM     12  F4  UNL d   1       4.091   0.100  -0.415  0.00  0.00    -0.092 F 
ENDROOT
TORSDOF 0
ENDMDL
