MODEL 1
REMARK minimizedAffinity 1.41852117
REMARK minimizedRMSD -1
REMARK  0 active torsions:
REMARK  status: ('A' for Active; 'I' for Inactive)
ROOT
ATOM      1  C   UNL d   1       2.492  -0.959   0.056  0.00  0.00     0.124 A 
ATOM      2  C1  UNL d   1       1.660  -1.765  -0.708  0.00  0.00     0.062 A 
ATOM      3  C2  UNL d   1       0.278  -1.677  -0.566  0.00  0.00     0.162 A 
ATOM      4  C3  UNL d   1      -0.281  -0.778   0.343  0.00  0.00    -0.034 A 
ATOM      5  C4  UNL d   1       0.563   0.029   1.108  0.00  0.00     0.162 A 
ATOM      6  C5  UNL d   1       1.944  -0.063   0.962  0.00  0.00     0.062 A 
ATOM      7  F   UNL d   1       2.747   0.717   1.701  0.00  0.00    -0.097 F 
ATOM      8  F1  UNL d   1       0.060   0.903   1.991  0.00  0.00    -0.096 F 
ATOM      9  I   UNL d   1      -2.346  -0.644   0.558  0.00  0.00    -0.060 I 
ATOM     10  F2  UNL d   1      -0.503  -2.469  -1.317  0.00  0.00    -0.096 F 
ATOM     11  F3  UNL d   1       2.187  -2.632  -1.584  0.00  0.00    -0.097 F 
ATOM     12  F4  UNL d   1       3.822  -1.046  -0.082  0.00  0.00    -0.092 F 
ENDROOT
TORSDOF 0
ENDMDL
