MODEL 1
REMARK minimizedAffinity 3.01441288
REMARK minimizedRMSD -1
REMARK  0 active torsions:
REMARK  status: ('A' for Active; 'I' for Inactive)
ROOT
ATOM      1  C   UNL d   1       1.917   1.247   1.040  0.00  0.00     0.124 A 
ATOM      2  C1  UNL d   1       0.782   1.457   0.269  0.00  0.00     0.062 A 
ATOM      3  C2  UNL d   1       0.147   0.384  -0.350  0.00  0.00     0.162 A 
ATOM      4  C3  UNL d   1       0.646  -0.910  -0.199  0.00  0.00    -0.034 A 
ATOM      5  C4  UNL d   1       1.788  -1.113   0.577  0.00  0.00     0.162 A 
ATOM      6  C5  UNL d   1       2.419  -0.037   1.193  0.00  0.00     0.062 A 
ATOM      7  F   UNL d   1       3.515  -0.242   1.938  0.00  0.00    -0.097 F 
ATOM      8  F1  UNL d   1       2.294  -2.345   0.743  0.00  0.00    -0.096 F 
ATOM      9  I   UNL d   1      -0.300  -2.518  -1.122  0.00  0.00    -0.060 I 
ATOM     10  F2  UNL d   1      -0.948   0.616  -1.089  0.00  0.00    -0.096 F 
ATOM     11  F3  UNL d   1       0.295   2.697   0.118  0.00  0.00    -0.097 F 
ATOM     12  F4  UNL d   1       2.525   2.282   1.633  0.00  0.00    -0.092 F 
ENDROOT
TORSDOF 0
ENDMDL
