MODEL 1
REMARK minimizedAffinity 4.62945843
REMARK minimizedRMSD -1
REMARK  2 active torsions:
REMARK  status: ('A' for Active; 'I' for Inactive)
REMARK    1  A    between atoms: C1_2  and  C2_3 
REMARK    2  A    between atoms: C2_3  and  C3_4 
ROOT
ATOM      1  C3  UNL d   1      -3.322   2.028  -2.709  0.00  0.00    -0.075 A 
ATOM      2  C4  UNL d   1      -3.628   2.604  -3.950  0.00  0.00     0.002 A 
ATOM      3  C5  UNL d   1      -4.417   3.753  -4.022  0.00  0.00     0.002 A 
ATOM      4  C6  UNL d   1      -4.918   4.332  -2.859  0.00  0.00    -0.004 A 
ATOM      5  C7  UNL d   1      -4.634   3.758  -1.621  0.00  0.00     0.002 A 
ATOM      6  C8  UNL d   1      -3.841   2.611  -1.546  0.00  0.00     0.002 A 
ENDROOT
BRANCH   1   7
ATOM      7  C2  UNL d   1      -2.444   0.802  -2.622  0.00  0.00     0.056 C 
BRANCH   7   8
ATOM      8  C1  UNL d   1      -2.651  -0.196  -3.767  0.00  0.00     0.007 C 
ATOM      9  C   UNL d   1      -3.825  -1.138  -3.537  0.00  0.00     0.009 C 
ENDBRANCH   7   8
ENDBRANCH   1   7
TORSDOF 2
ENDMDL
