MODEL 1
REMARK minimizedAffinity -1.5467118
REMARK minimizedRMSD -1
REMARK  2 active torsions:
REMARK  status: ('A' for Active; 'I' for Inactive)
REMARK    1  A    between atoms: C1_2  and  C2_3 
REMARK    2  A    between atoms: C2_3  and  C3_4 
ROOT
ATOM      1  C3  UNL d   1       1.850  -2.897   1.822  0.00  0.00    -0.075 A 
ATOM      2  C4  UNL d   1       2.235  -3.798   2.826  0.00  0.00     0.002 A 
ATOM      3  C5  UNL d   1       2.447  -3.356   4.132  0.00  0.00     0.002 A 
ATOM      4  C6  UNL d   1       2.287  -2.009   4.449  0.00  0.00    -0.004 A 
ATOM      5  C7  UNL d   1       1.921  -1.102   3.457  0.00  0.00     0.002 A 
ATOM      6  C8  UNL d   1       1.704  -1.542   2.150  0.00  0.00     0.002 A 
ENDROOT
BRANCH   1   7
ATOM      7  C2  UNL d   1       1.591  -3.374   0.413  0.00  0.00     0.056 C 
BRANCH   7   8
ATOM      8  C1  UNL d   1       1.388  -2.243  -0.601  0.00  0.00     0.007 C 
ATOM      9  C   UNL d   1      -0.045  -1.730  -0.650  0.00  0.00     0.009 C 
ENDBRANCH   7   8
ENDBRANCH   1   7
TORSDOF 2
ENDMDL
