MODEL 1
REMARK minimizedAffinity 6.75131798
REMARK minimizedRMSD -1
REMARK  2 active torsions:
REMARK  status: ('A' for Active; 'I' for Inactive)
REMARK    1  A    between atoms: C1_2  and  C2_3 
REMARK    2  A    between atoms: C2_3  and  C3_4 
ROOT
ATOM      1  C3  UNL d   1       1.232  -0.771   1.435  0.00  0.00    -0.075 A 
ATOM      2  C4  UNL d   1      -0.162  -0.837   1.576  0.00  0.00     0.002 A 
ATOM      3  C5  UNL d   1      -0.952  -1.390   0.568  0.00  0.00     0.002 A 
ATOM      4  C6  UNL d   1      -0.360  -1.875  -0.597  0.00  0.00    -0.004 A 
ATOM      5  C7  UNL d   1       1.022  -1.799  -0.756  0.00  0.00     0.002 A 
ATOM      6  C8  UNL d   1       1.814  -1.250   0.254  0.00  0.00     0.002 A 
ENDROOT
BRANCH   1   7
ATOM      7  C2  UNL d   1       2.094  -0.201   2.535  0.00  0.00     0.056 C 
BRANCH   7   8
ATOM      8  C1  UNL d   1       2.629  -1.249   3.516  0.00  0.00     0.007 C 
ATOM      9  C   UNL d   1       1.900  -1.248   4.853  0.00  0.00     0.009 C 
ENDBRANCH   7   8
ENDBRANCH   1   7
TORSDOF 2
ENDMDL
