MODEL 1
REMARK minimizedAffinity 12.8486423
REMARK minimizedRMSD -1
REMARK  2 active torsions:
REMARK  status: ('A' for Active; 'I' for Inactive)
REMARK    1  A    between atoms: C1_2  and  C2_3 
REMARK    2  A    between atoms: C2_3  and  C3_4 
ROOT
ATOM      1  C3  UNL d   1       2.683   0.495   2.348  0.00  0.00    -0.075 A 
ATOM      2  C4  UNL d   1       2.410   1.275   3.481  0.00  0.00     0.002 A 
ATOM      3  C5  UNL d   1       1.922   0.685   4.647  0.00  0.00     0.002 A 
ATOM      4  C6  UNL d   1       1.691  -0.689   4.692  0.00  0.00    -0.004 A 
ATOM      5  C7  UNL d   1       1.943  -1.471   3.567  0.00  0.00     0.002 A 
ATOM      6  C8  UNL d   1       2.436  -0.884   2.401  0.00  0.00     0.002 A 
ENDROOT
BRANCH   1   7
ATOM      7  C2  UNL d   1       3.240   1.123   1.093  0.00  0.00     0.056 C 
BRANCH   7   8
ATOM      8  C1  UNL d   1       3.341   2.651   1.153  0.00  0.00     0.007 C 
ATOM      9  C   UNL d   1       3.204   3.316  -0.211  0.00  0.00     0.009 C 
ENDBRANCH   7   8
ENDBRANCH   1   7
TORSDOF 2
ENDMDL
