MODEL 1
REMARK minimizedAffinity 0.655344248
REMARK minimizedRMSD -1
REMARK  2 active torsions:
REMARK  status: ('A' for Active; 'I' for Inactive)
REMARK    1  A    between atoms: C1_2  and  C2_3 
REMARK    2  A    between atoms: C2_3  and  C3_4 
ROOT
ATOM      1  C3  UNL d   1       2.277  -1.677   2.568  0.00  0.00    -0.075 A 
ATOM      2  C4  UNL d   1       3.167  -2.706   2.910  0.00  0.00     0.002 A 
ATOM      3  C5  UNL d   1       3.292  -3.122   4.236  0.00  0.00     0.002 A 
ATOM      4  C6  UNL d   1       2.539  -2.510   5.236  0.00  0.00    -0.004 A 
ATOM      5  C7  UNL d   1       1.664  -1.476   4.909  0.00  0.00     0.002 A 
ATOM      6  C8  UNL d   1       1.533  -1.060   3.583  0.00  0.00     0.002 A 
ENDROOT
BRANCH   1   7
ATOM      7  C2  UNL d   1       2.115  -1.242   1.131  0.00  0.00     0.056 C 
BRANCH   7   8
ATOM      8  C1  UNL d   1       1.580  -2.339   0.204  0.00  0.00     0.007 C 
ATOM      9  C   UNL d   1       0.630  -1.812  -0.863  0.00  0.00     0.009 C 
ENDBRANCH   7   8
ENDBRANCH   1   7
TORSDOF 2
ENDMDL
