MODEL 1
REMARK minimizedAffinity 6.90674305
REMARK minimizedRMSD -1
REMARK  2 active torsions:
REMARK  status: ('A' for Active; 'I' for Inactive)
REMARK    1  A    between atoms: C1_2  and  C2_3 
REMARK    2  A    between atoms: C2_3  and  C3_4 
ROOT
ATOM      1  C3  UNL d   1       2.955  -0.488   2.294  0.00  0.00    -0.075 A 
ATOM      2  C4  UNL d   1       1.763  -0.172   2.963  0.00  0.00     0.002 A 
ATOM      3  C5  UNL d   1       1.319  -0.956   4.028  0.00  0.00     0.002 A 
ATOM      4  C6  UNL d   1       2.053  -2.069   4.431  0.00  0.00    -0.004 A 
ATOM      5  C7  UNL d   1       3.230  -2.402   3.763  0.00  0.00     0.002 A 
ATOM      6  C8  UNL d   1       3.679  -1.617   2.700  0.00  0.00     0.002 A 
ENDROOT
BRANCH   1   7
ATOM      7  C2  UNL d   1       3.456   0.374   1.160  0.00  0.00     0.056 C 
BRANCH   7   8
ATOM      8  C1  UNL d   1       3.092   1.856   1.295  0.00  0.00     0.007 C 
ATOM      9  C   UNL d   1       3.271   2.639   0.001  0.00  0.00     0.009 C 
ENDBRANCH   7   8
ENDBRANCH   1   7
TORSDOF 2
ENDMDL
