MODEL 1
REMARK minimizedAffinity 6.92968035
REMARK minimizedRMSD -1
REMARK  2 active torsions:
REMARK  status: ('A' for Active; 'I' for Inactive)
REMARK    1  A    between atoms: C1_2  and  C2_3 
REMARK    2  A    between atoms: C2_3  and  C3_4 
ROOT
ATOM      1  C3  UNL d   1       2.158  -2.432   4.466  0.00  0.00    -0.075 A 
ATOM      2  C4  UNL d   1       3.465  -2.887   4.240  0.00  0.00     0.002 A 
ATOM      3  C5  UNL d   1       3.862  -4.149   4.682  0.00  0.00     0.002 A 
ATOM      4  C6  UNL d   1       2.963  -4.967   5.363  0.00  0.00    -0.004 A 
ATOM      5  C7  UNL d   1       1.667  -4.518   5.608  0.00  0.00     0.002 A 
ATOM      6  C8  UNL d   1       1.266  -3.257   5.163  0.00  0.00     0.002 A 
ENDROOT
BRANCH   1   7
ATOM      7  C2  UNL d   1       1.714  -1.078   3.965  0.00  0.00     0.056 C 
BRANCH   7   8
ATOM      8  C1  UNL d   1       1.936  -0.866   2.463  0.00  0.00     0.007 C 
ATOM      9  C   UNL d   1       1.760   0.583   2.030  0.00  0.00     0.009 C 
ENDBRANCH   7   8
ENDBRANCH   1   7
TORSDOF 2
ENDMDL
