MODEL 1
REMARK minimizedAffinity 3.60831904
REMARK minimizedRMSD -1
REMARK  2 active torsions:
REMARK  status: ('A' for Active; 'I' for Inactive)
REMARK    1  A    between atoms: C1_2  and  C2_3 
REMARK    2  A    between atoms: C2_3  and  C3_4 
ROOT
ATOM      1  C3  UNL d   1      -5.906   1.188  -3.202  0.00  0.00    -0.075 A 
ATOM      2  C4  UNL d   1      -5.999   0.069  -4.043  0.00  0.00     0.002 A 
ATOM      3  C5  UNL d   1      -5.998   0.223  -5.430  0.00  0.00     0.002 A 
ATOM      4  C6  UNL d   1      -5.914   1.495  -5.992  0.00  0.00    -0.004 A 
ATOM      5  C7  UNL d   1      -5.838   2.614  -5.167  0.00  0.00     0.002 A 
ATOM      6  C8  UNL d   1      -5.834   2.463  -3.779  0.00  0.00     0.002 A 
ENDROOT
BRANCH   1   7
ATOM      7  C2  UNL d   1      -5.877   1.026  -1.701  0.00  0.00     0.056 C 
BRANCH   7   8
ATOM      8  C1  UNL d   1      -5.797   2.349  -0.933  0.00  0.00     0.007 C 
ATOM      9  C   UNL d   1      -5.621   2.162   0.568  0.00  0.00     0.009 C 
ENDBRANCH   7   8
ENDBRANCH   1   7
TORSDOF 2
ENDMDL
