MODEL 1
REMARK minimizedAffinity -1.87315989
REMARK minimizedRMSD -1
REMARK  2 active torsions:
REMARK  status: ('A' for Active; 'I' for Inactive)
REMARK    1  A    between atoms: C2'_3  and  C1'_4 
REMARK    2  A    between atoms: C1'_4  and  C1_5 
ROOT
ATOM      1  C1  I4B d   1      -3.957   0.123  -5.995  0.00  0.00    -0.075 A 
ATOM      2  C2  I4B d   1      -5.204   0.697  -5.970  0.00  0.00     0.003 A 
ATOM      3  C3  I4B d   1      -5.340   2.106  -5.937  0.00  0.00     0.002 A 
ATOM      4  C4  I4B d   1      -4.210   2.896  -5.879  0.00  0.00    -0.004 A 
ATOM      5  C5  I4B d   1      -2.947   2.314  -5.927  0.00  0.00     0.002 A 
ATOM      6  C6  I4B d   1      -2.819   0.919  -5.999  0.00  0.00     0.003 A 
ENDROOT
BRANCH   1   7
ATOM      7  C1' I4B d   1      -3.850  -1.369  -5.997  0.00  0.00     0.060 C 
BRANCH   7   8
ATOM      8  C2' I4B d   1      -5.192  -1.934  -5.579  0.00  0.00    -0.013 C 
ATOM      9  C4' I4B d   1      -5.333  -3.373  -6.000  0.00  0.00     0.013 C 
ATOM     10  C3' I4B d   1      -5.311  -1.791  -4.091  0.00  0.00     0.013 C 
ENDBRANCH   7   8
ENDBRANCH   1   7
TORSDOF 2
ENDMDL
