MODEL 1
REMARK minimizedAffinity 2.99991369
REMARK minimizedRMSD -1
REMARK  2 active torsions:
REMARK  status: ('A' for Active; 'I' for Inactive)
REMARK    1  A    between atoms: C2'_3  and  C1'_4 
REMARK    2  A    between atoms: C1'_4  and  C1_5 
ROOT
ATOM      1  C1  I4B d   1       0.910   0.570  -1.039  0.00  0.00    -0.075 A 
ATOM      2  C2  I4B d   1       0.426  -0.342  -1.943  0.00  0.00     0.003 A 
ATOM      3  C3  I4B d   1      -0.543  -1.295  -1.546  0.00  0.00     0.002 A 
ATOM      4  C4  I4B d   1      -0.958  -1.333  -0.230  0.00  0.00    -0.004 A 
ATOM      5  C5  I4B d   1      -0.483  -0.394   0.680  0.00  0.00     0.002 A 
ATOM      6  C6  I4B d   1       0.448   0.572   0.271  0.00  0.00     0.003 A 
ENDROOT
BRANCH   1   7
ATOM      7  C1' I4B d   1       1.957   1.541  -1.484  0.00  0.00     0.060 C 
BRANCH   7   8
ATOM      8  C2' I4B d   1       2.647   2.084  -0.249  0.00  0.00    -0.013 C 
ATOM      9  C4' I4B d   1       4.145   2.047  -0.401  0.00  0.00     0.013 C 
ATOM     10  C3' I4B d   1       2.159   3.484  -0.024  0.00  0.00     0.013 C 
ENDBRANCH   7   8
ENDBRANCH   1   7
TORSDOF 2
ENDMDL
