MODEL 1
REMARK minimizedAffinity 4.96835279
REMARK minimizedRMSD -1
REMARK  2 active torsions:
REMARK  status: ('A' for Active; 'I' for Inactive)
REMARK    1  A    between atoms: C2'_3  and  C1'_4 
REMARK    2  A    between atoms: C1'_4  and  C1_5 
ROOT
ATOM      1  C1  I4B d   1       1.115   1.342  -0.349  0.00  0.00    -0.075 A 
ATOM      2  C2  I4B d   1      -0.106   0.834  -0.716  0.00  0.00     0.003 A 
ATOM      3  C3  I4B d   1      -0.182  -0.349  -1.492  0.00  0.00     0.002 A 
ATOM      4  C4  I4B d   1       0.980  -0.958  -1.917  0.00  0.00    -0.004 A 
ATOM      5  C5  I4B d   1       2.217  -0.455  -1.525  0.00  0.00     0.002 A 
ATOM      6  C6  I4B d   1       2.285   0.696  -0.725  0.00  0.00     0.003 A 
ENDROOT
BRANCH   1   7
ATOM      7  C1' I4B d   1       1.159   2.611   0.442  0.00  0.00     0.060 C 
BRANCH   7   8
ATOM      8  C2' I4B d   1       1.790   2.302   1.785  0.00  0.00    -0.013 C 
ATOM      9  C4' I4B d   1       2.220   3.562   2.488  0.00  0.00     0.013 C 
ATOM     10  C3' I4B d   1       0.789   1.540   2.602  0.00  0.00     0.013 C 
ENDBRANCH   7   8
ENDBRANCH   1   7
TORSDOF 2
ENDMDL
