MODEL 1
REMARK minimizedAffinity 6.051126
REMARK minimizedRMSD -1
REMARK  2 active torsions:
REMARK  status: ('A' for Active; 'I' for Inactive)
REMARK    1  A    between atoms: C2'_3  and  C1'_4 
REMARK    2  A    between atoms: C1'_4  and  C1_5 
ROOT
ATOM      1  C1  I4B d   1      -4.829   0.857  -5.929  0.00  0.00    -0.075 A 
ATOM      2  C2  I4B d   1      -5.802  -0.104  -5.816  0.00  0.00     0.003 A 
ATOM      3  C3  I4B d   1      -5.448  -1.475  -5.778  0.00  0.00     0.002 A 
ATOM      4  C4  I4B d   1      -4.123  -1.839  -5.905  0.00  0.00    -0.004 A 
ATOM      5  C5  I4B d   1      -3.136  -0.862  -5.996  0.00  0.00     0.002 A 
ATOM      6  C6  I4B d   1      -3.489   0.496  -5.996  0.00  0.00     0.003 A 
ENDROOT
BRANCH   1   7
ATOM      7  C1' I4B d   1      -5.240   2.294  -5.999  0.00  0.00     0.060 C 
BRANCH   7   8
ATOM      8  C2' I4B d   1      -4.204   3.113  -5.257  0.00  0.00    -0.013 C 
ATOM      9  C4' I4B d   1      -2.884   3.110  -5.982  0.00  0.00     0.013 C 
ATOM     10  C3' I4B d   1      -4.736   4.507  -5.107  0.00  0.00     0.013 C 
ENDBRANCH   7   8
ENDBRANCH   1   7
TORSDOF 2
ENDMDL
