MODEL 1
REMARK minimizedAffinity -1.19125581
REMARK minimizedRMSD -1
REMARK  2 active torsions:
REMARK  status: ('A' for Active; 'I' for Inactive)
REMARK    1  A    between atoms: C2'_3  and  C1'_4 
REMARK    2  A    between atoms: C1'_4  and  C1_5 
ROOT
ATOM      1  C1  I4B d   1      -3.615   0.133  -5.995  0.00  0.00    -0.075 A 
ATOM      2  C2  I4B d   1      -4.910   0.589  -6.000  0.00  0.00     0.003 A 
ATOM      3  C3  I4B d   1      -5.176   1.980  -5.999  0.00  0.00     0.002 A 
ATOM      4  C4  I4B d   1      -4.125   2.873  -5.942  0.00  0.00    -0.004 A 
ATOM      5  C5  I4B d   1      -2.813   2.409  -5.961  0.00  0.00     0.002 A 
ATOM      6  C6  I4B d   1      -2.555   1.031  -6.000  0.00  0.00     0.003 A 
ENDROOT
BRANCH   1   7
ATOM      7  C1' I4B d   1      -3.370  -1.342  -5.963  0.00  0.00     0.060 C 
BRANCH   7   8
ATOM      8  C2' I4B d   1      -4.670  -2.023  -5.584  0.00  0.00    -0.013 C 
ATOM      9  C4' I4B d   1      -4.668  -3.470  -5.998  0.00  0.00     0.013 C 
ATOM     10  C3' I4B d   1      -4.850  -1.884  -4.102  0.00  0.00     0.013 C 
ENDBRANCH   7   8
ENDBRANCH   1   7
TORSDOF 2
ENDMDL
