MODEL 1
REMARK minimizedAffinity 6.63375616
REMARK minimizedRMSD -1
REMARK  2 active torsions:
REMARK  status: ('A' for Active; 'I' for Inactive)
REMARK    1  A    between atoms: C2'_3  and  C1'_4 
REMARK    2  A    between atoms: C1'_4  and  C1_5 
ROOT
ATOM      1  C1  I4B d   1       1.196   0.792  -1.358  0.00  0.00    -0.075 A 
ATOM      2  C2  I4B d   1       0.811   0.076  -0.252  0.00  0.00     0.003 A 
ATOM      3  C3  I4B d   1       0.080  -1.128  -0.401  0.00  0.00     0.002 A 
ATOM      4  C4  I4B d   1      -0.286  -1.549  -1.662  0.00  0.00    -0.004 A 
ATOM      5  C5  I4B d   1       0.125  -0.835  -2.784  0.00  0.00     0.002 A 
ATOM      6  C6  I4B d   1       0.881   0.337  -2.632  0.00  0.00     0.003 A 
ENDROOT
BRANCH   1   7
ATOM      7  C1' I4B d   1       1.938   2.076  -1.164  0.00  0.00     0.060 C 
BRANCH   7   8
ATOM      8  C2' I4B d   1       2.991   1.849  -0.099  0.00  0.00    -0.013 C 
ATOM      9  C4' I4B d   1       4.376   2.087  -0.642  0.00  0.00     0.013 C 
ATOM     10  C3' I4B d   1       2.694   2.767   1.049  0.00  0.00     0.013 C 
ENDBRANCH   7   8
ENDBRANCH   1   7
TORSDOF 2
ENDMDL
