MODEL 1
REMARK minimizedAffinity 3.66204953
REMARK minimizedRMSD -1
REMARK  2 active torsions:
REMARK  status: ('A' for Active; 'I' for Inactive)
REMARK    1  A    between atoms: C2'_3  and  C1'_4 
REMARK    2  A    between atoms: C1'_4  and  C1_5 
ROOT
ATOM      1  C1  I4B d   1      -5.034   0.006  -5.922  0.00  0.00    -0.075 A 
ATOM      2  C2  I4B d   1      -5.993   0.988  -5.895  0.00  0.00     0.003 A 
ATOM      3  C3  I4B d   1      -5.617   2.353  -5.935  0.00  0.00     0.002 A 
ATOM      4  C4  I4B d   1      -4.279   2.689  -5.950  0.00  0.00    -0.004 A 
ATOM      5  C5  I4B d   1      -3.309   1.692  -6.000  0.00  0.00     0.002 A 
ATOM      6  C6  I4B d   1      -3.689   0.342  -5.998  0.00  0.00     0.003 A 
ENDROOT
BRANCH   1   7
ATOM      7  C1' I4B d   1      -5.465  -1.424  -5.845  0.00  0.00     0.060 C 
BRANCH   7   8
ATOM      8  C2' I4B d   1      -4.246  -2.262  -5.516  0.00  0.00    -0.013 C 
ATOM      9  C4' I4B d   1      -3.952  -2.241  -4.039  0.00  0.00     0.013 C 
ATOM     10  C3' I4B d   1      -4.501  -3.659  -5.997  0.00  0.00     0.013 C 
ENDBRANCH   7   8
ENDBRANCH   1   7
TORSDOF 2
ENDMDL
