MODEL 1
REMARK minimizedAffinity -1.58780551
REMARK minimizedRMSD -1
REMARK  2 active torsions:
REMARK  status: ('A' for Active; 'I' for Inactive)
REMARK    1  A    between atoms: C2'_3  and  C1'_4 
REMARK    2  A    between atoms: C1'_4  and  C1_5 
ROOT
ATOM      1  C1  I4B d   1      -2.310  -3.984  -3.411  0.00  0.00    -0.075 A 
ATOM      2  C2  I4B d   1      -2.288  -2.799  -2.718  0.00  0.00     0.003 A 
ATOM      3  C3  I4B d   1      -2.037  -2.793  -1.324  0.00  0.00     0.002 A 
ATOM      4  C4  I4B d   1      -1.864  -3.990  -0.659  0.00  0.00    -0.004 A 
ATOM      5  C5  I4B d   1      -1.864  -5.188  -1.367  0.00  0.00     0.002 A 
ATOM      6  C6  I4B d   1      -2.076  -5.185  -2.754  0.00  0.00     0.003 A 
ENDROOT
BRANCH   1   7
ATOM      7  C1' I4B d   1      -2.611  -3.957  -4.875  0.00  0.00     0.060 C 
BRANCH   7   8
ATOM      8  C2' I4B d   1      -3.851  -3.110  -5.082  0.00  0.00    -0.013 C 
ATOM      9  C4' I4B d   1      -3.563  -1.932  -5.975  0.00  0.00     0.013 C 
ATOM     10  C3' I4B d   1      -4.918  -3.985  -5.666  0.00  0.00     0.013 C 
ENDBRANCH   7   8
ENDBRANCH   1   7
TORSDOF 2
ENDMDL
