MODEL 1
REMARK minimizedAffinity 7.5349164
REMARK minimizedRMSD -1
REMARK  2 active torsions:
REMARK  status: ('A' for Active; 'I' for Inactive)
REMARK    1  A    between atoms: C2'_3  and  C1'_4 
REMARK    2  A    between atoms: C1'_4  and  C1_5 
ROOT
ATOM      1  C1  I4B d   1      -3.350   1.220  -5.899  0.00  0.00    -0.075 A 
ATOM      2  C2  I4B d   1      -2.294   2.097  -5.885  0.00  0.00     0.003 A 
ATOM      3  C3  I4B d   1      -2.527   3.493  -5.830  0.00  0.00     0.002 A 
ATOM      4  C4  I4B d   1      -3.823   3.966  -5.840  0.00  0.00    -0.004 A 
ATOM      5  C5  I4B d   1      -4.892   3.075  -5.831  0.00  0.00     0.002 A 
ATOM      6  C6  I4B d   1      -4.654   1.693  -5.848  0.00  0.00     0.003 A 
ENDROOT
BRANCH   1   7
ATOM      7  C1' I4B d   1      -3.068  -0.246  -5.991  0.00  0.00     0.060 C 
BRANCH   7   8
ATOM      8  C2' I4B d   1      -4.125  -0.976  -5.188  0.00  0.00    -0.013 C 
ATOM      9  C4' I4B d   1      -4.737  -2.098  -5.984  0.00  0.00     0.013 C 
ATOM     10  C3' I4B d   1      -3.481  -1.490  -3.935  0.00  0.00     0.013 C 
ENDBRANCH   7   8
ENDBRANCH   1   7
TORSDOF 2
ENDMDL
