MODEL 1
REMARK minimizedAffinity -2.82005763
REMARK minimizedRMSD -1
REMARK  2 active torsions:
REMARK  status: ('A' for Active; 'I' for Inactive)
REMARK    1  A    between atoms: C2'_3  and  C1'_4 
REMARK    2  A    between atoms: C1'_4  and  C1_5 
ROOT
ATOM      1  C1  I4B d   1      -3.508  -0.009  -5.977  0.00  0.00    -0.075 A 
ATOM      2  C2  I4B d   1      -4.745   0.585  -5.997  0.00  0.00     0.003 A 
ATOM      3  C3  I4B d   1      -4.859   1.996  -5.948  0.00  0.00     0.002 A 
ATOM      4  C4  I4B d   1      -3.719   2.766  -5.830  0.00  0.00    -0.004 A 
ATOM      5  C5  I4B d   1      -2.465   2.162  -5.833  0.00  0.00     0.002 A 
ATOM      6  C6  I4B d   1      -2.358   0.766  -5.920  0.00  0.00     0.003 A 
ENDROOT
BRANCH   1   7
ATOM      7  C1' I4B d   1      -3.426  -1.503  -5.997  0.00  0.00     0.060 C 
BRANCH   7   8
ATOM      8  C2' I4B d   1      -4.768  -2.050  -5.554  0.00  0.00    -0.013 C 
ATOM      9  C4' I4B d   1      -4.947  -3.479  -5.995  0.00  0.00     0.013 C 
ATOM     10  C3' I4B d   1      -4.848  -1.930  -4.062  0.00  0.00     0.013 C 
ENDBRANCH   7   8
ENDBRANCH   1   7
TORSDOF 2
ENDMDL
