MODEL 1
REMARK minimizedAffinity 7.29069901
REMARK minimizedRMSD -1
REMARK  2 active torsions:
REMARK  status: ('A' for Active; 'I' for Inactive)
REMARK    1  A    between atoms: C2'_3  and  C1'_4 
REMARK    2  A    between atoms: C1'_4  and  C1_5 
ROOT
ATOM      1  C1  I4B d   1       2.096  -0.381  -1.317  0.00  0.00    -0.075 A 
ATOM      2  C2  I4B d   1       1.714  -0.583  -2.620  0.00  0.00     0.003 A 
ATOM      3  C3  I4B d   1       0.343  -0.713  -2.949  0.00  0.00     0.002 A 
ATOM      4  C4  I4B d   1      -0.603  -0.684  -1.945  0.00  0.00    -0.004 A 
ATOM      5  C5  I4B d   1      -0.216  -0.456  -0.627  0.00  0.00     0.002 A 
ATOM      6  C6  I4B d   1       1.141  -0.291  -0.312  0.00  0.00     0.003 A 
ENDROOT
BRANCH   1   7
ATOM      7  C1' I4B d   1       3.554  -0.282  -1.000  0.00  0.00     0.060 C 
BRANCH   7   8
ATOM      8  C2' I4B d   1       4.005   1.130  -1.315  0.00  0.00    -0.013 C 
ATOM      9  C4' I4B d   1       3.206   2.144  -0.539  0.00  0.00     0.013 C 
ATOM     10  C3' I4B d   1       5.466   1.232  -0.993  0.00  0.00     0.013 C 
ENDBRANCH   7   8
ENDBRANCH   1   7
TORSDOF 2
ENDMDL
