MODEL 1
REMARK minimizedAffinity 3.2841053
REMARK minimizedRMSD -1
REMARK  0 active torsions:
REMARK  status: ('A' for Active; 'I' for Inactive)
ROOT
ATOM      1  C2' OXE d   1      -3.501  -1.289  -0.347  0.00  0.00     0.078 C 
ATOM      2  C1' OXE d   1      -3.040  -0.274   2.229  0.00  0.00     0.078 C 
ATOM      3  C1  OXE d   1      -1.847  -0.474   1.328  0.00  0.00    -0.078 A 
ATOM      4  C2  OXE d   1      -2.077  -1.015   0.086  0.00  0.00    -0.078 A 
ATOM      5  C3  OXE d   1      -1.019  -1.169  -0.805  0.00  0.00     0.003 A 
ATOM      6  C4  OXE d   1       0.297  -0.922  -0.393  0.00  0.00    -0.002 A 
ATOM      7  C5  OXE d   1       0.556  -0.408   0.882  0.00  0.00    -0.002 A 
ATOM      8  C6  OXE d   1      -0.506  -0.139   1.738  0.00  0.00     0.003 A 
ENDROOT
TORSDOF 0
ENDMDL
