MODEL 1
REMARK minimizedAffinity -2.52701735
REMARK minimizedRMSD -1
REMARK  0 active torsions:
REMARK  status: ('A' for Active; 'I' for Inactive)
ROOT
ATOM      1  C2' OXE d   1       1.442  -0.954   3.536  0.00  0.00     0.078 C 
ATOM      2  C1' OXE d   1       1.882  -0.888   0.764  0.00  0.00     0.078 C 
ATOM      3  C1  OXE d   1       0.522  -0.476   1.270  0.00  0.00    -0.078 A 
ATOM      4  C2  OXE d   1       0.301  -0.556   2.624  0.00  0.00    -0.078 A 
ATOM      5  C3  OXE d   1      -0.917  -0.136   3.150  0.00  0.00     0.003 A 
ATOM      6  C4  OXE d   1      -1.971   0.221   2.299  0.00  0.00    -0.002 A 
ATOM      7  C5  OXE d   1      -1.779   0.271   0.914  0.00  0.00    -0.002 A 
ATOM      8  C6  OXE d   1      -0.528  -0.033   0.388  0.00  0.00     0.003 A 
ENDROOT
TORSDOF 0
ENDMDL
