MODEL 1
REMARK minimizedAffinity 0.157502145
REMARK minimizedRMSD -1
REMARK  0 active torsions:
REMARK  status: ('A' for Active; 'I' for Inactive)
ROOT
ATOM      1  C2' OXE d   1       1.532  -1.088   0.597  0.00  0.00     0.078 C 
ATOM      2  C1' OXE d   1       0.451  -0.826   3.174  0.00  0.00     0.078 C 
ATOM      3  C1  OXE d   1      -0.465  -0.589   2.000  0.00  0.00    -0.078 A 
ATOM      4  C2  OXE d   1       0.084  -0.674   0.743  0.00  0.00    -0.078 A 
ATOM      5  C3  OXE d   1      -0.729  -0.518  -0.376  0.00  0.00     0.003 A 
ATOM      6  C4  OXE d   1      -2.065  -0.124  -0.233  0.00  0.00    -0.002 A 
ATOM      7  C5  OXE d   1      -2.634   0.006   1.038  0.00  0.00    -0.002 A 
ATOM      8  C6  OXE d   1      -1.860  -0.263   2.162  0.00  0.00     0.003 A 
ENDROOT
TORSDOF 0
ENDMDL
