MODEL 1
REMARK minimizedAffinity 1.32482684
REMARK minimizedRMSD -1
REMARK  0 active torsions:
REMARK  status: ('A' for Active; 'I' for Inactive)
ROOT
ATOM      1  C2' OXE d   1       0.875  -0.789   3.917  0.00  0.00     0.078 C 
ATOM      2  C1' OXE d   1       1.857  -1.098   1.306  0.00  0.00     0.078 C 
ATOM      3  C1  OXE d   1       0.426  -0.649   1.471  0.00  0.00    -0.078 A 
ATOM      4  C2  OXE d   1      -0.060  -0.545   2.752  0.00  0.00    -0.078 A 
ATOM      5  C3  OXE d   1      -1.355  -0.082   2.962  0.00  0.00     0.003 A 
ATOM      6  C4  OXE d   1      -2.216   0.131   1.879  0.00  0.00    -0.002 A 
ATOM      7  C5  OXE d   1      -1.753  -0.007   0.566  0.00  0.00    -0.002 A 
ATOM      8  C6  OXE d   1      -0.425  -0.355   0.345  0.00  0.00     0.003 A 
ENDROOT
TORSDOF 0
ENDMDL
