MODEL 1
REMARK minimizedAffinity -0.60913676
REMARK minimizedRMSD -1
REMARK  0 active torsions:
REMARK  status: ('A' for Active; 'I' for Inactive)
ROOT
ATOM      1  C2' OXE d   1       0.370  -1.133   3.864  0.00  0.00     0.078 C 
ATOM      2  C1' OXE d   1       1.147  -0.540   1.232  0.00  0.00     0.078 C 
ATOM      3  C1  OXE d   1      -0.320  -0.450   1.570  0.00  0.00    -0.078 A 
ATOM      4  C2  OXE d   1      -0.697  -0.787   2.848  0.00  0.00    -0.078 A 
ATOM      5  C3  OXE d   1      -2.031  -0.669   3.228  0.00  0.00     0.003 A 
ATOM      6  C4  OXE d   1      -3.013  -0.358   2.279  0.00  0.00    -0.002 A 
ATOM      7  C5  OXE d   1      -2.655  -0.049   0.962  0.00  0.00    -0.002 A 
ATOM      8  C6  OXE d   1      -1.312  -0.049   0.603  0.00  0.00     0.003 A 
ENDROOT
TORSDOF 0
ENDMDL
