MODEL 1
REMARK minimizedAffinity -1.6535567
REMARK minimizedRMSD -1
REMARK  0 active torsions:
REMARK  status: ('A' for Active; 'I' for Inactive)
ROOT
ATOM      1  C2' OXE d   1       1.082  -0.589   0.267  0.00  0.00     0.078 C 
ATOM      2  C1' OXE d   1      -1.661  -0.087   0.588  0.00  0.00     0.078 C 
ATOM      3  C1  OXE d   1      -0.885  -0.550   1.795  0.00  0.00    -0.078 A 
ATOM      4  C2  OXE d   1       0.447  -0.838   1.618  0.00  0.00    -0.078 A 
ATOM      5  C3  OXE d   1       1.222  -1.216   2.711  0.00  0.00     0.003 A 
ATOM      6  C4  OXE d   1       0.624  -1.454   3.955  0.00  0.00    -0.002 A 
ATOM      7  C5  OXE d   1      -0.739  -1.205   4.147  0.00  0.00    -0.002 A 
ATOM      8  C6  OXE d   1      -1.497  -0.713   3.091  0.00  0.00     0.003 A 
ENDROOT
TORSDOF 0
ENDMDL
