MODEL 1
REMARK minimizedAffinity -1.99287069
REMARK minimizedRMSD -1
REMARK  0 active torsions:
REMARK  status: ('A' for Active; 'I' for Inactive)
ROOT
ATOM      1  C2' OXE d   1      -3.133  -1.624   4.033  0.00  0.00     0.078 C 
ATOM      2  C1' OXE d   1      -1.454  -3.335   5.493  0.00  0.00     0.078 C 
ATOM      3  C1  OXE d   1      -0.806  -2.334   4.570  0.00  0.00    -0.078 A 
ATOM      4  C2  OXE d   1      -1.637  -1.532   3.824  0.00  0.00    -0.078 A 
ATOM      5  C3  OXE d   1      -1.091  -0.555   2.997  0.00  0.00     0.003 A 
ATOM      6  C4  OXE d   1       0.294  -0.483   2.802  0.00  0.00    -0.002 A 
ATOM      7  C5  OXE d   1       1.156  -1.317   3.522  0.00  0.00    -0.002 A 
ATOM      8  C6  OXE d   1       0.625  -2.217   4.440  0.00  0.00     0.003 A 
ENDROOT
TORSDOF 0
ENDMDL
