MODEL 1
REMARK minimizedAffinity 5.99170685
REMARK minimizedRMSD -1
REMARK  0 active torsions:
REMARK  status: ('A' for Active; 'I' for Inactive)
ROOT
ATOM      1  C2' OXE d   1       1.668  -1.063   0.958  0.00  0.00     0.078 C 
ATOM      2  C1' OXE d   1       0.816  -1.104   3.633  0.00  0.00     0.078 C 
ATOM      3  C1  OXE d   1      -0.190  -0.713   2.580  0.00  0.00    -0.078 A 
ATOM      4  C2  OXE d   1       0.248  -0.650   1.279  0.00  0.00    -0.078 A 
ATOM      5  C3  OXE d   1      -0.653  -0.347   0.262  0.00  0.00     0.003 A 
ATOM      6  C4  OXE d   1      -1.962   0.044   0.568  0.00  0.00    -0.002 A 
ATOM      7  C5  OXE d   1      -2.418   0.025   1.890  0.00  0.00    -0.002 A 
ATOM      8  C6  OXE d   1      -1.558  -0.391   2.901  0.00  0.00     0.003 A 
ENDROOT
TORSDOF 0
ENDMDL
