MODEL 1
REMARK minimizedAffinity -1.18952966
REMARK minimizedRMSD -1
REMARK  0 active torsions:
REMARK  status: ('A' for Active; 'I' for Inactive)
ROOT
ATOM      1  C2' OXE d   1       0.819  -0.552   0.831  0.00  0.00     0.078 C 
ATOM      2  C1' OXE d   1      -1.278   0.304   2.490  0.00  0.00     0.078 C 
ATOM      3  C1  OXE d   1      -1.615  -0.081   1.071  0.00  0.00    -0.078 A 
ATOM      4  C2  OXE d   1      -0.576  -0.454   0.253  0.00  0.00    -0.078 A 
ATOM      5  C3  OXE d   1      -0.839  -0.872  -1.049  0.00  0.00     0.003 A 
ATOM      6  C4  OXE d   1      -2.131  -0.768  -1.579  0.00  0.00    -0.002 A 
ATOM      7  C5  OXE d   1      -3.197  -0.353  -0.774  0.00  0.00    -0.002 A 
ATOM      8  C6  OXE d   1      -2.964  -0.047   0.562  0.00  0.00     0.003 A 
ENDROOT
TORSDOF 0
ENDMDL
