MODEL 1
REMARK minimizedAffinity 1.83801115
REMARK minimizedRMSD -1
REMARK  0 active torsions:
REMARK  status: ('A' for Active; 'I' for Inactive)
ROOT
ATOM      1  C2' OXE d   1       0.813  -0.665  -0.037  0.00  0.00     0.078 C 
ATOM      2  C1' OXE d   1      -1.917  -0.076  -0.316  0.00  0.00     0.078 C 
ATOM      3  C1  OXE d   1      -1.403  -0.389   1.067  0.00  0.00    -0.078 A 
ATOM      4  C2  OXE d   1      -0.075  -0.722   1.187  0.00  0.00    -0.078 A 
ATOM      5  C3  OXE d   1       0.464  -0.966   2.447  0.00  0.00     0.003 A 
ATOM      6  C4  OXE d   1      -0.367  -1.027   3.573  0.00  0.00    -0.002 A 
ATOM      7  C5  OXE d   1      -1.730  -0.730   3.467  0.00  0.00    -0.002 A 
ATOM      8  C6  OXE d   1      -2.254  -0.368   2.231  0.00  0.00     0.003 A 
ENDROOT
TORSDOF 0
ENDMDL
