MODEL 1
REMARK minimizedAffinity -6.38413954
REMARK minimizedRMSD -1
REMARK  0 active torsions:
REMARK  status: ('A' for Active; 'I' for Inactive)
ROOT
ATOM      1  C   UNL d   1       0.372   0.539   3.689  0.00  0.00    -0.002 A 
ATOM      2  C1  UNL d   1       1.515  -0.033   3.148  0.00  0.00     0.010 A 
ATOM      3  C2  UNL d   1       1.548  -0.423   1.808  0.00  0.00     0.041 A 
ATOM      4  C3  UNL d   1       0.402  -0.225   1.013  0.00  0.00    -0.075 A 
ATOM      5  S   UNL d   1       0.212  -0.625  -0.654  0.00  0.00     0.015 SA
ATOM      6  C4  UNL d   1      -1.391  -0.045  -0.687  0.00  0.00     0.022 A 
ATOM      7  C5  UNL d   1      -1.787   0.444   0.535  0.00  0.00     0.026 A 
ATOM      8  C6  UNL d   1      -0.760   0.349   1.535  0.00  0.00    -0.082 A 
ATOM      9  C7  UNL d   1      -0.762   0.734   2.897  0.00  0.00     0.045 A 
ENDROOT
TORSDOF 0
ENDMDL
