MODEL 1
REMARK minimizedAffinity -5.008533
REMARK minimizedRMSD -1
REMARK  0 active torsions:
REMARK  status: ('A' for Active; 'I' for Inactive)
ROOT
ATOM      1  C   UNL d   1       0.882   0.967   3.205  0.00  0.00    -0.002 A 
ATOM      2  C1  UNL d   1      -0.490   1.002   3.410  0.00  0.00     0.010 A 
ATOM      3  C2  UNL d   1      -1.369   0.592   2.405  0.00  0.00     0.041 A 
ATOM      4  C3  UNL d   1      -0.841   0.141   1.180  0.00  0.00    -0.075 A 
ATOM      5  S   UNL d   1      -1.725  -0.410  -0.193  0.00  0.00     0.015 SA
ATOM      6  C4  UNL d   1      -0.303  -0.706  -1.084  0.00  0.00     0.022 A 
ATOM      7  C5  UNL d   1       0.828  -0.397  -0.367  0.00  0.00     0.026 A 
ATOM      8  C6  UNL d   1       0.537   0.096   0.950  0.00  0.00    -0.082 A 
ATOM      9  C7  UNL d   1       1.403   0.518   1.988  0.00  0.00     0.045 A 
ENDROOT
TORSDOF 0
ENDMDL
