MODEL 1
REMARK minimizedAffinity -0.85968256
REMARK minimizedRMSD -1
REMARK  0 active torsions:
REMARK  status: ('A' for Active; 'I' for Inactive)
ROOT
ATOM      1  C   UNL d   1      -1.003   1.132   3.295  0.00  0.00    -0.002 A 
ATOM      2  C1  UNL d   1       0.306   1.593   3.262  0.00  0.00     0.010 A 
ATOM      3  C2  UNL d   1       1.129   1.317   2.169  0.00  0.00     0.041 A 
ATOM      4  C3  UNL d   1       0.610   0.563   1.098  0.00  0.00    -0.075 A 
ATOM      5  S   UNL d   1       1.434   0.103  -0.345  0.00  0.00     0.015 SA
ATOM      6  C4  UNL d   1       0.068  -0.716  -0.952  0.00  0.00     0.022 A 
ATOM      7  C5  UNL d   1      -0.999  -0.651  -0.088  0.00  0.00     0.026 A 
ATOM      8  C6  UNL d   1      -0.705   0.088   1.108  0.00  0.00    -0.082 A 
ATOM      9  C7  UNL d   1      -1.514   0.384   2.231  0.00  0.00     0.045 A 
ENDROOT
TORSDOF 0
ENDMDL
