MODEL 1
REMARK minimizedAffinity -3.52668762
REMARK minimizedRMSD -1
REMARK  0 active torsions:
REMARK  status: ('A' for Active; 'I' for Inactive)
ROOT
ATOM      1  C   UNL d   1      -0.301   1.840   2.754  0.00  0.00    -0.002 A 
ATOM      2  C1  UNL d   1      -1.337   0.997   3.130  0.00  0.00     0.010 A 
ATOM      3  C2  UNL d   1      -1.734  -0.055   2.302  0.00  0.00     0.041 A 
ATOM      4  C3  UNL d   1      -1.063  -0.249   1.079  0.00  0.00    -0.075 A 
ATOM      5  S   UNL d   1      -1.375  -1.472  -0.096  0.00  0.00     0.015 SA
ATOM      6  C4  UNL d   1      -0.140  -0.906  -1.124  0.00  0.00     0.022 A 
ATOM      7  C5  UNL d   1       0.506   0.190  -0.600  0.00  0.00     0.026 A 
ATOM      8  C6  UNL d   1      -0.015   0.586   0.679  0.00  0.00    -0.082 A 
ATOM      9  C7  UNL d   1       0.362   1.644   1.540  0.00  0.00     0.045 A 
ENDROOT
TORSDOF 0
ENDMDL
