MODEL 1
REMARK minimizedAffinity -3.07905746
REMARK minimizedRMSD -1
REMARK  0 active torsions:
REMARK  status: ('A' for Active; 'I' for Inactive)
ROOT
ATOM      1  C   UNL d   1       0.311   1.334   3.293  0.00  0.00    -0.002 A 
ATOM      2  C1  UNL d   1       1.483   0.762   2.820  0.00  0.00     0.010 A 
ATOM      3  C2  UNL d   1       1.499   0.077   1.603  0.00  0.00     0.041 A 
ATOM      4  C3  UNL d   1       0.306  -0.021   0.861  0.00  0.00    -0.075 A 
ATOM      5  S   UNL d   1       0.087  -0.810  -0.656  0.00  0.00     0.015 SA
ATOM      6  C4  UNL d   1      -1.567  -0.405  -0.713  0.00  0.00     0.022 A 
ATOM      7  C5  UNL d   1      -1.960   0.314   0.390  0.00  0.00     0.026 A 
ATOM      8  C6  UNL d   1      -0.887   0.548   1.316  0.00  0.00    -0.082 A 
ATOM      9  C7  UNL d   1      -0.871   1.234   2.554  0.00  0.00     0.045 A 
ENDROOT
TORSDOF 0
ENDMDL
