MODEL 1
REMARK minimizedAffinity 3.73168969
REMARK minimizedRMSD -1
REMARK  0 active torsions:
REMARK  status: ('A' for Active; 'I' for Inactive)
ROOT
ATOM      1  C   UNL d   1      -1.703  -2.524  -5.063  0.00  0.00    -0.002 A 
ATOM      2  C1  UNL d   1      -1.954  -1.530  -5.999  0.00  0.00     0.010 A 
ATOM      3  C2  UNL d   1      -1.263  -0.318  -5.951  0.00  0.00     0.041 A 
ATOM      4  C3  UNL d   1      -0.304  -0.119  -4.938  0.00  0.00    -0.075 A 
ATOM      5  S   UNL d   1       0.664   1.284  -4.683  0.00  0.00     0.015 SA
ATOM      6  C4  UNL d   1       1.435   0.598  -3.327  0.00  0.00     0.022 A 
ATOM      7  C5  UNL d   1       0.976  -0.670  -3.060  0.00  0.00     0.026 A 
ATOM      8  C6  UNL d   1      -0.033  -1.105  -3.984  0.00  0.00    -0.082 A 
ATOM      9  C7  UNL d   1      -0.751  -2.323  -4.059  0.00  0.00     0.045 A 
ENDROOT
TORSDOF 0
ENDMDL
