MODEL 1
REMARK minimizedAffinity -1.40918577
REMARK minimizedRMSD -1
REMARK  0 active torsions:
REMARK  status: ('A' for Active; 'I' for Inactive)
ROOT
ATOM      1  C   UNL d   1      -1.170   0.981   3.259  0.00  0.00    -0.002 A 
ATOM      2  C1  UNL d   1      -0.102   1.746   2.810  0.00  0.00     0.010 A 
ATOM      3  C2  UNL d   1       0.598   1.381   1.659  0.00  0.00     0.041 A 
ATOM      4  C3  UNL d   1       0.202   0.225   0.958  0.00  0.00    -0.075 A 
ATOM      5  S   UNL d   1       0.910  -0.414  -0.478  0.00  0.00     0.015 SA
ATOM      6  C4  UNL d   1      -0.188  -1.716  -0.530  0.00  0.00     0.022 A 
ATOM      7  C5  UNL d   1      -1.080  -1.680   0.515  0.00  0.00     0.026 A 
ATOM      8  C6  UNL d   1      -0.871  -0.561   1.389  0.00  0.00    -0.082 A 
ATOM      9  C7  UNL d   1      -1.560  -0.165   2.561  0.00  0.00     0.045 A 
ENDROOT
TORSDOF 0
ENDMDL
