MODEL 1
REMARK minimizedAffinity 20.9832916
REMARK minimizedRMSD -1
REMARK  0 active torsions:
REMARK  status: ('A' for Active; 'I' for Inactive)
ROOT
ATOM      1  N1  IND d   1       4.002  -0.867   1.597  0.00  0.00    -0.196 N 
ATOM      2  C2  IND d   1       4.932  -0.826   0.596  0.00  0.00     0.054 A 
ATOM      3  C3  IND d   1       4.637   0.160  -0.281  0.00  0.00    -0.031 A 
ATOM      4  C4  IND d   1       2.733   1.891  -0.215  0.00  0.00     0.051 A 
ATOM      5  C5  IND d   1       1.610   2.231   0.485  0.00  0.00    -0.031 A 
ATOM      6  C6  IND d   1       1.220   1.544   1.617  0.00  0.00     0.015 A 
ATOM      7  C7  IND d   1       1.949   0.493   2.098  0.00  0.00    -0.016 A 
ATOM      8  C8  IND d   1       3.086   0.141   1.385  0.00  0.00    -0.047 A 
ATOM      9  C9  IND d   1       3.463   0.808   0.213  0.00  0.00    -0.096 A 
ATOM     10  HN1 IND d   1       3.990  -1.427   2.249  0.00  0.00     0.298 HD
ENDROOT
TORSDOF 0
ENDMDL
