MODEL 1
REMARK minimizedAffinity 16.9585552
REMARK minimizedRMSD -1
REMARK  0 active torsions:
REMARK  status: ('A' for Active; 'I' for Inactive)
ROOT
ATOM      1  N1  IND d   1      -1.020  -5.264   1.882  0.00  0.00    -0.196 N 
ATOM      2  C2  IND d   1      -2.167  -5.999   1.772  0.00  0.00     0.054 A 
ATOM      3  C3  IND d   1      -3.117  -5.292   1.119  0.00  0.00    -0.031 A 
ATOM      4  C4  IND d   1      -2.973  -2.953   0.054  0.00  0.00     0.051 A 
ATOM      5  C5  IND d   1      -2.140  -1.876  -0.072  0.00  0.00    -0.031 A 
ATOM      6  C6  IND d   1      -0.864  -1.875   0.454  0.00  0.00     0.015 A 
ATOM      7  C7  IND d   1      -0.368  -2.960   1.121  0.00  0.00    -0.016 A 
ATOM      8  C8  IND d   1      -1.213  -4.052   1.257  0.00  0.00    -0.047 A 
ATOM      9  C9  IND d   1      -2.524  -4.043   0.762  0.00  0.00    -0.096 A 
ATOM     10  HN1 IND d   1      -0.298  -5.517   2.276  0.00  0.00     0.298 HD
ENDROOT
TORSDOF 0
ENDMDL
