MODEL 1
REMARK minimizedAffinity 6.21400499
REMARK minimizedRMSD -1
REMARK  0 active torsions:
REMARK  status: ('A' for Active; 'I' for Inactive)
ROOT
ATOM      1  N1  IND d   1       3.519  -1.550   2.938  0.00  0.00    -0.196 N 
ATOM      2  C2  IND d   1       4.179  -1.187   1.798  0.00  0.00     0.054 A 
ATOM      3  C3  IND d   1       3.461  -0.272   1.109  0.00  0.00    -0.031 A 
ATOM      4  C4  IND d   1       1.223   0.846   1.718  0.00  0.00     0.051 A 
ATOM      5  C5  IND d   1       0.219   0.812   2.645  0.00  0.00    -0.031 A 
ATOM      6  C6  IND d   1       0.266  -0.026   3.740  0.00  0.00     0.015 A 
ATOM      7  C7  IND d   1       1.329  -0.857   3.957  0.00  0.00    -0.016 A 
ATOM      8  C8  IND d   1       2.347  -0.830   3.014  0.00  0.00    -0.047 A 
ATOM      9  C9  IND d   1       2.285  -0.013   1.878  0.00  0.00    -0.096 A 
ATOM     10  HN1 IND d   1       3.790  -2.130   3.512  0.00  0.00     0.298 HD
ENDROOT
TORSDOF 0
ENDMDL
