MODEL 1
REMARK minimizedAffinity 19.8272972
REMARK minimizedRMSD -1
REMARK  0 active torsions:
REMARK  status: ('A' for Active; 'I' for Inactive)
ROOT
ATOM      1  N1  IND d   1      -0.743  -1.436   4.877  0.00  0.00    -0.196 N 
ATOM      2  C2  IND d   1      -0.047  -0.261   4.942  0.00  0.00     0.054 A 
ATOM      3  C3  IND d   1       0.222   0.196   3.699  0.00  0.00    -0.031 A 
ATOM      4  C4  IND d   1      -0.473  -0.769   1.415  0.00  0.00     0.051 A 
ATOM      5  C5  IND d   1      -1.087  -1.847   0.844  0.00  0.00    -0.031 A 
ATOM      6  C6  IND d   1      -1.631  -2.863   1.602  0.00  0.00     0.015 A 
ATOM      7  C7  IND d   1      -1.592  -2.833   2.968  0.00  0.00    -0.016 A 
ATOM      8  C8  IND d   1      -0.962  -1.742   3.551  0.00  0.00    -0.047 A 
ATOM      9  C9  IND d   1      -0.371  -0.729   2.786  0.00  0.00    -0.096 A 
ATOM     10  HN1 IND d   1      -1.000  -1.905   5.550  0.00  0.00     0.298 HD
ENDROOT
TORSDOF 0
ENDMDL
