MODEL 1
REMARK minimizedAffinity 18.4807682
REMARK minimizedRMSD -1
REMARK  0 active torsions:
REMARK  status: ('A' for Active; 'I' for Inactive)
ROOT
ATOM      1  N1  IND d   1       1.645   3.343  -3.184  0.00  0.00    -0.196 N 
ATOM      2  C2  IND d   1       2.843   2.793  -2.820  0.00  0.00     0.054 A 
ATOM      3  C3  IND d   1       3.848   3.334  -3.543  0.00  0.00    -0.031 A 
ATOM      4  C4  IND d   1       3.770   5.210  -5.305  0.00  0.00     0.051 A 
ATOM      5  C5  IND d   1       2.897   6.000  -6.000  0.00  0.00    -0.031 A 
ATOM      6  C6  IND d   1       1.535   5.944  -5.785  0.00  0.00     0.015 A 
ATOM      7  C7  IND d   1       0.993   5.102  -4.856  0.00  0.00    -0.016 A 
ATOM      8  C8  IND d   1       1.876   4.294  -4.153  0.00  0.00    -0.047 A 
ATOM      9  C9  IND d   1       3.256   4.315  -4.397  0.00  0.00    -0.096 A 
ATOM     10  HN1 IND d   1       0.877   3.130  -2.862  0.00  0.00     0.298 HD
ENDROOT
TORSDOF 0
ENDMDL
