MODEL 1
REMARK minimizedAffinity 10.7452393
REMARK minimizedRMSD -1
REMARK  0 active torsions:
REMARK  status: ('A' for Active; 'I' for Inactive)
ROOT
ATOM      1  N1  IND d   1       1.493  -1.558   4.240  0.00  0.00    -0.196 N 
ATOM      2  C2  IND d   1       0.277  -1.141   3.775  0.00  0.00     0.054 A 
ATOM      3  C3  IND d   1       0.397  -0.651   2.520  0.00  0.00    -0.031 A 
ATOM      4  C4  IND d   1       2.473  -0.531   1.002  0.00  0.00     0.051 A 
ATOM      5  C5  IND d   1       3.820  -0.758   1.000  0.00  0.00    -0.031 A 
ATOM      6  C6  IND d   1       4.474  -1.276   2.100  0.00  0.00     0.015 A 
ATOM      7  C7  IND d   1       3.799  -1.599   3.243  0.00  0.00    -0.016 A 
ATOM      8  C8  IND d   1       2.432  -1.364   3.251  0.00  0.00    -0.047 A 
ATOM      9  C9  IND d   1       1.770  -0.798   2.153  0.00  0.00    -0.096 A 
ATOM     10  HN1 IND d   1       1.646  -1.887   5.020  0.00  0.00     0.298 HD
ENDROOT
TORSDOF 0
ENDMDL
