MODEL 1
REMARK minimizedAffinity 11.0665569
REMARK minimizedRMSD -1
REMARK  0 active torsions:
REMARK  status: ('A' for Active; 'I' for Inactive)
ROOT
ATOM      1  N1  IND d   1      -0.287  -2.873  -2.534  0.00  0.00    -0.196 N 
ATOM      2  C2  IND d   1      -1.177  -2.849  -3.572  0.00  0.00     0.054 A 
ATOM      3  C3  IND d   1      -2.427  -2.612  -3.114  0.00  0.00    -0.031 A 
ATOM      4  C4  IND d   1      -3.226  -2.130  -0.715  0.00  0.00     0.051 A 
ATOM      5  C5  IND d   1      -2.785  -2.081   0.578  0.00  0.00    -0.031 A 
ATOM      6  C6  IND d   1      -1.462  -2.295   0.906  0.00  0.00     0.015 A 
ATOM      7  C7  IND d   1      -0.524  -2.556  -0.053  0.00  0.00    -0.016 A 
ATOM      8  C8  IND d   1      -0.969  -2.614  -1.366  0.00  0.00    -0.047 A 
ATOM      9  C9  IND d   1      -2.318  -2.439  -1.700  0.00  0.00    -0.096 A 
ATOM     10  HN1 IND d   1       0.557  -3.025  -2.600  0.00  0.00     0.298 HD
ENDROOT
TORSDOF 0
ENDMDL
