MODEL 1
REMARK minimizedAffinity 11.8484516
REMARK minimizedRMSD -1
REMARK  0 active torsions:
REMARK  status: ('A' for Active; 'I' for Inactive)
ROOT
ATOM      1  N1  IND d   1      -4.371  -6.000  -0.115  0.00  0.00    -0.196 N 
ATOM      2  C2  IND d   1      -3.786  -5.998   1.121  0.00  0.00     0.054 A 
ATOM      3  C3  IND d   1      -2.959  -4.937   1.248  0.00  0.00    -0.031 A 
ATOM      4  C4  IND d   1      -2.490  -3.020  -0.406  0.00  0.00     0.051 A 
ATOM      5  C5  IND d   1      -2.763  -2.606  -1.679  0.00  0.00    -0.031 A 
ATOM      6  C6  IND d   1      -3.605  -3.314  -2.512  0.00  0.00     0.015 A 
ATOM      7  C7  IND d   1      -4.217  -4.463  -2.097  0.00  0.00    -0.016 A 
ATOM      8  C8  IND d   1      -3.937  -4.891  -0.807  0.00  0.00    -0.047 A 
ATOM      9  C9  IND d   1      -3.050  -4.199   0.029  0.00  0.00    -0.096 A 
ATOM     10  HN1 IND d   1      -4.918  -6.594  -0.410  0.00  0.00     0.298 HD
ENDROOT
TORSDOF 0
ENDMDL
