MODEL 1
REMARK minimizedAffinity 4.98750973
REMARK minimizedRMSD -1
REMARK  0 active torsions:
REMARK  status: ('A' for Active; 'I' for Inactive)
ROOT
ATOM      1  N1  IND d   1       6.000  -0.015  -0.120  0.00  0.00    -0.196 N 
ATOM      2  C2  IND d   1       5.629  -0.839   0.906  0.00  0.00     0.054 A 
ATOM      3  C3  IND d   1       4.676  -0.249   1.661  0.00  0.00    -0.031 A 
ATOM      4  C4  IND d   1       3.504   2.020   1.339  0.00  0.00     0.051 A 
ATOM      5  C5  IND d   1       3.530   3.145   0.563  0.00  0.00    -0.031 A 
ATOM      6  C6  IND d   1       4.396   3.276  -0.503  0.00  0.00     0.015 A 
ATOM      7  C7  IND d   1       5.265   2.277  -0.842  0.00  0.00    -0.016 A 
ATOM      8  C8  IND d   1       5.246   1.136  -0.052  0.00  0.00    -0.047 A 
ATOM      9  C9  IND d   1       4.399   1.015   1.057  0.00  0.00    -0.096 A 
ATOM     10  HN1 IND d   1       6.603  -0.186  -0.709  0.00  0.00     0.298 HD
ENDROOT
TORSDOF 0
ENDMDL
