MODEL 1
REMARK minimizedAffinity 12.1799507
REMARK minimizedRMSD -1
REMARK  0 active torsions:
REMARK  status: ('A' for Active; 'I' for Inactive)
ROOT
ATOM      1  N1  IND d   1       5.809  -1.099  -4.508  0.00  0.00    -0.196 N 
ATOM      2  C2  IND d   1       4.825  -1.501  -5.368  0.00  0.00     0.054 A 
ATOM      3  C3  IND d   1       3.755  -0.681  -5.274  0.00  0.00    -0.031 A 
ATOM      4  C4  IND d   1       3.439   1.441  -3.850  0.00  0.00     0.051 A 
ATOM      5  C5  IND d   1       4.047   2.187  -2.880  0.00  0.00    -0.031 A 
ATOM      6  C6  IND d   1       5.300   1.871  -2.395  0.00  0.00     0.015 A 
ATOM      7  C7  IND d   1       5.999   0.799  -2.873  0.00  0.00    -0.016 A 
ATOM      8  C8  IND d   1       5.382   0.035  -3.853  0.00  0.00    -0.047 A 
ATOM      9  C9  IND d   1       4.093   0.326  -4.319  0.00  0.00    -0.096 A 
ATOM     10  HN1 IND d   1       6.567  -1.489  -4.396  0.00  0.00     0.298 HD
ENDROOT
TORSDOF 0
ENDMDL
