MODEL 1
REMARK minimizedAffinity 5.70327854
REMARK minimizedRMSD -1
REMARK  0 active torsions:
REMARK  status: ('A' for Active; 'I' for Inactive)
ROOT
ATOM      1  N1  IND d   1       4.105  -0.905   2.476  0.00  0.00    -0.196 N 
ATOM      2  C2  IND d   1       5.242  -0.660   1.757  0.00  0.00     0.054 A 
ATOM      3  C3  IND d   1       5.090   0.450   1.000  0.00  0.00    -0.031 A 
ATOM      4  C4  IND d   1       3.098   2.076   0.864  0.00  0.00     0.051 A 
ATOM      5  C5  IND d   1       1.818   2.250   1.308  0.00  0.00    -0.031 A 
ATOM      6  C6  IND d   1       1.223   1.365   2.184  0.00  0.00     0.015 A 
ATOM      7  C7  IND d   1       1.894   0.274   2.660  0.00  0.00    -0.016 A 
ATOM      8  C8  IND d   1       3.192   0.090   2.205  0.00  0.00    -0.047 A 
ATOM      9  C9  IND d   1       3.786   0.962   1.283  0.00  0.00    -0.096 A 
ATOM     10  HN1 IND d   1       3.982  -1.569   3.008  0.00  0.00     0.298 HD
ENDROOT
TORSDOF 0
ENDMDL
