MODEL 1
REMARK minimizedAffinity 16.1093445
REMARK minimizedRMSD -1
REMARK  0 active torsions:
REMARK  status: ('A' for Active; 'I' for Inactive)
ROOT
ATOM      1  N1  IND d   1       2.858   4.809  -5.999  0.00  0.00    -0.196 N 
ATOM      2  C2  IND d   1       2.860   5.988  -5.307  0.00  0.00     0.054 A 
ATOM      3  C3  IND d   1       3.199   5.775  -4.016  0.00  0.00    -0.031 A 
ATOM      4  C4  IND d   1       3.889   3.588  -2.846  0.00  0.00     0.051 A 
ATOM      5  C5  IND d   1       4.002   2.242  -3.057  0.00  0.00    -0.031 A 
ATOM      6  C6  IND d   1       3.737   1.672  -4.285  0.00  0.00     0.015 A 
ATOM      7  C7  IND d   1       3.358   2.432  -5.356  0.00  0.00    -0.016 A 
ATOM      8  C8  IND d   1       3.235   3.797  -5.143  0.00  0.00    -0.047 A 
ATOM      9  C9  IND d   1       3.462   4.376  -3.888  0.00  0.00    -0.096 A 
ATOM     10  HN1 IND d   1       2.655   4.715  -6.830  0.00  0.00     0.298 HD
ENDROOT
TORSDOF 0
ENDMDL
