MODEL 1
REMARK minimizedAffinity 20.8115578
REMARK minimizedRMSD -1
REMARK  0 active torsions:
REMARK  status: ('A' for Active; 'I' for Inactive)
ROOT
ATOM      1  N1  IND d   1      -1.934  -1.143  -3.346  0.00  0.00    -0.196 N 
ATOM      2  C2  IND d   1      -2.465  -1.847  -2.301  0.00  0.00     0.054 A 
ATOM      3  C3  IND d   1      -2.209  -3.166  -2.445  0.00  0.00    -0.031 A 
ATOM      4  C4  IND d   1      -0.851  -4.381  -4.264  0.00  0.00     0.051 A 
ATOM      5  C5  IND d   1      -0.201  -4.166  -5.447  0.00  0.00    -0.031 A 
ATOM      6  C6  IND d   1      -0.091  -2.906  -6.000  0.00  0.00     0.015 A 
ATOM      7  C7  IND d   1      -0.620  -1.808  -5.382  0.00  0.00    -0.016 A 
ATOM      8  C8  IND d   1      -1.286  -2.024  -4.184  0.00  0.00    -0.047 A 
ATOM      9  C9  IND d   1      -1.438  -3.306  -3.640  0.00  0.00    -0.096 A 
ATOM     10  HN1 IND d   1      -1.995  -0.293  -3.461  0.00  0.00     0.298 HD
ENDROOT
TORSDOF 0
ENDMDL
