MODEL 1
REMARK minimizedAffinity 17.1062889
REMARK minimizedRMSD -1
REMARK  0 active torsions:
REMARK  status: ('A' for Active; 'I' for Inactive)
ROOT
ATOM      1  N1  IND d   1       4.809   1.095  -1.127  0.00  0.00    -0.196 N 
ATOM      2  C2  IND d   1       4.462   2.190  -1.869  0.00  0.00     0.054 A 
ATOM      3  C3  IND d   1       3.267   2.674  -1.462  0.00  0.00    -0.031 A 
ATOM      4  C4  IND d   1       1.755   1.888   0.467  0.00  0.00     0.051 A 
ATOM      5  C5  IND d   1       1.632   0.904   1.407  0.00  0.00    -0.031 A 
ATOM      6  C6  IND d   1       2.583  -0.086   1.556  0.00  0.00     0.015 A 
ATOM      7  C7  IND d   1       3.702  -0.121   0.773  0.00  0.00    -0.016 A 
ATOM      8  C8  IND d   1       3.827   0.873  -0.187  0.00  0.00    -0.047 A 
ATOM      9  C9  IND d   1       2.845   1.855  -0.371  0.00  0.00    -0.096 A 
ATOM     10  HN1 IND d   1       5.521   0.624  -1.230  0.00  0.00     0.298 HD
ENDROOT
TORSDOF 0
ENDMDL
