MODEL 1
REMARK minimizedAffinity 18.7792778
REMARK minimizedRMSD -1
REMARK  0 active torsions:
REMARK  status: ('A' for Active; 'I' for Inactive)
ROOT
ATOM      1  N1  IND d   1      -3.879  -2.983  -2.251  0.00  0.00    -0.196 N 
ATOM      2  C2  IND d   1      -3.076  -3.189  -3.339  0.00  0.00     0.054 A 
ATOM      3  C3  IND d   1      -1.776  -3.056  -2.995  0.00  0.00    -0.031 A 
ATOM      4  C4  IND d   1      -0.732  -2.605  -0.685  0.00  0.00     0.051 A 
ATOM      5  C5  IND d   1      -1.064  -2.311   0.608  0.00  0.00    -0.031 A 
ATOM      6  C6  IND d   1      -2.377  -2.228   1.023  0.00  0.00     0.015 A 
ATOM      7  C7  IND d   1      -3.412  -2.447   0.159  0.00  0.00    -0.016 A 
ATOM      8  C8  IND d   1      -3.080  -2.738  -1.156  0.00  0.00    -0.047 A 
ATOM      9  C9  IND d   1      -1.749  -2.783  -1.593  0.00  0.00    -0.096 A 
ATOM     10  HN1 IND d   1      -4.739  -3.004  -2.251  0.00  0.00     0.298 HD
ENDROOT
TORSDOF 0
ENDMDL
