MODEL 1
REMARK minimizedAffinity 19.4815445
REMARK minimizedRMSD -1
REMARK  0 active torsions:
REMARK  status: ('A' for Active; 'I' for Inactive)
ROOT
ATOM      1  N1  IND d   1       1.848  -0.598   4.225  0.00  0.00    -0.196 N 
ATOM      2  C2  IND d   1       0.709   0.064   4.590  0.00  0.00     0.054 A 
ATOM      3  C3  IND d   1       0.334   0.928   3.620  0.00  0.00    -0.031 A 
ATOM      4  C4  IND d   1       1.385   1.345   1.307  0.00  0.00     0.051 A 
ATOM      5  C5  IND d   1       2.460   1.004   0.535  0.00  0.00    -0.031 A 
ATOM      6  C6  IND d   1       3.404   0.092   0.961  0.00  0.00     0.015 A 
ATOM      7  C7  IND d   1       3.300  -0.525   2.175  0.00  0.00    -0.016 A 
ATOM      8  C8  IND d   1       2.214  -0.177   2.965  0.00  0.00    -0.047 A 
ATOM      9  C9  IND d   1       1.276   0.781   2.556  0.00  0.00    -0.096 A 
ATOM     10  HN1 IND d   1       2.265  -1.179   4.701  0.00  0.00     0.298 HD
ENDROOT
TORSDOF 0
ENDMDL
