MODEL 1
REMARK minimizedAffinity 17.3183746
REMARK minimizedRMSD -1
REMARK  0 active torsions:
REMARK  status: ('A' for Active; 'I' for Inactive)
ROOT
ATOM      1  N1  IND d   1       5.027   1.049  -4.777  0.00  0.00    -0.196 N 
ATOM      2  C2  IND d   1       5.998   0.691  -3.884  0.00  0.00     0.054 A 
ATOM      3  C3  IND d   1       5.624   1.016  -2.627  0.00  0.00    -0.031 A 
ATOM      4  C4  IND d   1       3.418   2.049  -1.792  0.00  0.00     0.051 A 
ATOM      5  C5  IND d   1       2.241   2.582  -2.239  0.00  0.00    -0.031 A 
ATOM      6  C6  IND d   1       1.925   2.629  -3.581  0.00  0.00     0.015 A 
ATOM      7  C7  IND d   1       2.774   2.133  -4.531  0.00  0.00    -0.016 A 
ATOM      8  C8  IND d   1       3.973   1.598  -4.081  0.00  0.00    -0.047 A 
ATOM      9  C9  IND d   1       4.317   1.586  -2.724  0.00  0.00    -0.096 A 
ATOM     10  HN1 IND d   1       5.068   0.949  -5.630  0.00  0.00     0.298 HD
ENDROOT
TORSDOF 0
ENDMDL
