MODEL 1
REMARK minimizedAffinity -1.01834905
REMARK minimizedRMSD -1
REMARK  0 active torsions:
REMARK  status: ('A' for Active; 'I' for Inactive)
ROOT
ATOM      1  N1  IND d   1       2.691   4.358  -5.825  0.00  0.00    -0.196 N 
ATOM      2  C2  IND d   1       2.182   5.458  -5.193  0.00  0.00     0.054 A 
ATOM      3  C3  IND d   1       2.664   5.541  -3.932  0.00  0.00    -0.031 A 
ATOM      4  C4  IND d   1       4.377   4.038  -2.734  0.00  0.00     0.051 A 
ATOM      5  C5  IND d   1       5.097   2.887  -2.893  0.00  0.00    -0.031 A 
ATOM      6  C6  IND d   1       5.053   2.154  -4.061  0.00  0.00     0.015 A 
ATOM      7  C7  IND d   1       4.293   2.553  -5.124  0.00  0.00    -0.016 A 
ATOM      8  C8  IND d   1       3.555   3.718  -4.964  0.00  0.00    -0.047 A 
ATOM      9  C9  IND d   1       3.563   4.443  -3.765  0.00  0.00    -0.096 A 
ATOM     10  HN1 IND d   1       2.503   4.108  -6.626  0.00  0.00     0.298 HD
ENDROOT
TORSDOF 0
ENDMDL
