MODEL 1
REMARK minimizedAffinity 1.05886173
REMARK minimizedRMSD -1
REMARK  0 active torsions:
REMARK  status: ('A' for Active; 'I' for Inactive)
ROOT
ATOM      1  C   UNL d   1       2.006  -2.476  -0.371  0.00  0.00     0.172 C 
ATOM      2  N   UNL d   1       2.570  -1.199  -0.002  0.00  0.00    -0.070 N 
ATOM      3  C1  UNL d   1       2.314  -0.005  -0.620  0.00  0.00    -0.004 A 
ATOM      4  C2  UNL d   1       3.042   0.970   0.027  0.00  0.00    -0.047 A 
ATOM      5  C3  UNL d   1       3.762   0.339   1.070  0.00  0.00    -0.047 A 
ATOM      6  C4  UNL d   1       3.451  -1.004   1.029  0.00  0.00    -0.004 A 
ENDROOT
TORSDOF 0
ENDMDL
