MODEL 1
REMARK minimizedAffinity 0.666907787
REMARK minimizedRMSD -1
REMARK  0 active torsions:
REMARK  status: ('A' for Active; 'I' for Inactive)
ROOT
ATOM      1  C   UNL d   1       1.109   0.990   4.206  0.00  0.00     0.172 C 
ATOM      2  N   UNL d   1       0.988   1.519   2.868  0.00  0.00    -0.070 N 
ATOM      3  C1  UNL d   1       2.022   1.966   2.090  0.00  0.00    -0.004 A 
ATOM      4  C2  UNL d   1       1.494   2.388   0.888  0.00  0.00    -0.047 A 
ATOM      5  C3  UNL d   1       0.095   2.188   0.947  0.00  0.00    -0.047 A 
ATOM      6  C4  UNL d   1      -0.192   1.649   2.183  0.00  0.00    -0.004 A 
ENDROOT
TORSDOF 0
ENDMDL
