MODEL 1
REMARK minimizedAffinity 0.774422348
REMARK minimizedRMSD -1
REMARK  0 active torsions:
REMARK  status: ('A' for Active; 'I' for Inactive)
ROOT
ATOM      1  C   UNL d   1      -0.078   0.751  -0.667  0.00  0.00     0.172 C 
ATOM      2  N   UNL d   1       0.301  -0.642  -0.627  0.00  0.00    -0.070 N 
ATOM      3  C1  UNL d   1      -0.547  -1.695  -0.414  0.00  0.00    -0.004 A 
ATOM      4  C2  UNL d   1       0.199  -2.853  -0.451  0.00  0.00    -0.047 A 
ATOM      5  C3  UNL d   1       1.544  -2.482  -0.692  0.00  0.00    -0.047 A 
ATOM      6  C4  UNL d   1       1.578  -1.108  -0.797  0.00  0.00    -0.004 A 
ENDROOT
TORSDOF 0
ENDMDL
