MODEL 1
REMARK minimizedAffinity 5.56582642
REMARK minimizedRMSD -1
REMARK  0 active torsions:
REMARK  status: ('A' for Active; 'I' for Inactive)
ROOT
ATOM      1  C   UNL d   1       0.305   0.659  -0.063  0.00  0.00     0.172 C 
ATOM      2  N   UNL d   1      -0.145  -0.561  -0.691  0.00  0.00    -0.070 N 
ATOM      3  C1  UNL d   1      -1.147  -0.660  -1.618  0.00  0.00    -0.004 A 
ATOM      4  C2  UNL d   1      -1.270  -1.987  -1.968  0.00  0.00    -0.047 A 
ATOM      5  C3  UNL d   1      -0.308  -2.711  -1.225  0.00  0.00    -0.047 A 
ATOM      6  C4  UNL d   1       0.374  -1.804  -0.442  0.00  0.00    -0.004 A 
ENDROOT
TORSDOF 0
ENDMDL
