MODEL 1
REMARK minimizedAffinity -1.00267482
REMARK minimizedRMSD -1
REMARK  0 active torsions:
REMARK  status: ('A' for Active; 'I' for Inactive)
ROOT
ATOM      1  C   UNL d   1       3.336   1.274  -0.365  0.00  0.00     0.172 C 
ATOM      2  N   UNL d   1       2.326   1.706   0.573  0.00  0.00    -0.070 N 
ATOM      3  C1  UNL d   1       1.003   1.910   0.283  0.00  0.00    -0.004 A 
ATOM      4  C2  UNL d   1       0.375   2.315   1.442  0.00  0.00    -0.047 A 
ATOM      5  C3  UNL d   1       1.355   2.355   2.462  0.00  0.00    -0.047 A 
ATOM      6  C4  UNL d   1       2.553   1.974   1.897  0.00  0.00    -0.004 A 
ENDROOT
TORSDOF 0
ENDMDL
