MODEL 1
REMARK minimizedAffinity 0.428230405
REMARK minimizedRMSD -1
REMARK  0 active torsions:
REMARK  status: ('A' for Active; 'I' for Inactive)
ROOT
ATOM      1  C   UNL d   1       2.376  -2.033  -0.391  0.00  0.00     0.172 C 
ATOM      2  N   UNL d   1       1.001  -1.654  -0.619  0.00  0.00    -0.070 N 
ATOM      3  C1  UNL d   1       0.506  -0.378  -0.574  0.00  0.00    -0.004 A 
ATOM      4  C2  UNL d   1      -0.843  -0.439  -0.847  0.00  0.00    -0.047 A 
ATOM      5  C3  UNL d   1      -1.171  -1.798  -1.062  0.00  0.00    -0.047 A 
ATOM      6  C4  UNL d   1      -0.011  -2.529  -0.916  0.00  0.00    -0.004 A 
ENDROOT
TORSDOF 0
ENDMDL
