MODEL 1
REMARK minimizedAffinity 10.5553284
REMARK minimizedRMSD -1
REMARK  1 active torsions:
REMARK  status: ('A' for Active; 'I' for Inactive)
REMARK    1  A    between atoms: N_2  and  C1_3 
ROOT
ATOM      1  C1  UNL d   1       2.979   3.462   5.289  0.00  0.00     0.143 A 
ATOM      2  C2  UNL d   1       3.301   3.577   3.933  0.00  0.00    -0.057 A 
ATOM      3  C3  UNL d   1       3.421   4.830   3.318  0.00  0.00     0.033 A 
ATOM      4  C4  UNL d   1       3.191   5.993   4.046  0.00  0.00    -0.042 A 
ATOM      5  C5  UNL d   1       2.845   5.902   5.390  0.00  0.00     0.033 A 
ATOM      6  C6  UNL d   1       2.734   4.648   5.999  0.00  0.00    -0.057 A 
ENDROOT
BRANCH   1   7
ATOM      7  N   UNL d   1       2.748   2.244   5.933  0.00  0.00    -0.732 N 
ATOM      8  C   UNL d   1       1.422   1.667   5.966  0.00  0.00     0.284 C 
ATOM      9  H3  UNL d   1       3.491   1.570   5.766  0.00  0.00     0.395 HD
ENDBRANCH   1   7
TORSDOF 1
ENDMDL
