MODEL 1
REMARK minimizedAffinity 3.60641122
REMARK minimizedRMSD -1
REMARK  1 active torsions:
REMARK  status: ('A' for Active; 'I' for Inactive)
REMARK    1  A    between atoms: N_2  and  C1_3 
ROOT
ATOM      1  C1  UNL d   1       0.017  -4.676  -1.226  0.00  0.00     0.143 A 
ATOM      2  C2  UNL d   1       0.362  -4.074  -2.441  0.00  0.00    -0.057 A 
ATOM      3  C3  UNL d   1       1.314  -3.049  -2.499  0.00  0.00     0.033 A 
ATOM      4  C4  UNL d   1       1.919  -2.586  -1.334  0.00  0.00    -0.042 A 
ATOM      5  C5  UNL d   1       1.573  -3.153  -0.113  0.00  0.00     0.033 A 
ATOM      6  C6  UNL d   1       0.626  -4.180  -0.062  0.00  0.00    -0.057 A 
ENDROOT
BRANCH   1   7
ATOM      7  N   UNL d   1      -0.993  -5.631  -1.090  0.00  0.00    -0.732 N 
ATOM      8  C   UNL d   1      -1.498  -5.990   0.218  0.00  0.00     0.284 C 
ATOM      9  H3  UNL d   1      -1.714  -5.538  -1.803  0.00  0.00     0.395 HD
ENDBRANCH   1   7
TORSDOF 1
ENDMDL
