MODEL 1
REMARK minimizedAffinity 10.7369585
REMARK minimizedRMSD -1
REMARK  1 active torsions:
REMARK  status: ('A' for Active; 'I' for Inactive)
REMARK    1  A    between atoms: N_2  and  C1_3 
ROOT
ATOM      1  C1  UNL d   1       2.057  -2.835  -0.880  0.00  0.00     0.143 A 
ATOM      2  C2  UNL d   1       2.466  -2.009  -1.933  0.00  0.00    -0.057 A 
ATOM      3  C3  UNL d   1       3.118  -0.794  -1.692  0.00  0.00     0.033 A 
ATOM      4  C4  UNL d   1       3.349  -0.368  -0.388  0.00  0.00    -0.042 A 
ATOM      5  C5  UNL d   1       2.929  -1.160   0.675  0.00  0.00     0.033 A 
ATOM      6  C6  UNL d   1       2.284  -2.376   0.427  0.00  0.00    -0.057 A 
ENDROOT
BRANCH   1   7
ATOM      7  N   UNL d   1       1.317  -4.006  -1.052  0.00  0.00    -0.732 N 
ATOM      8  C   UNL d   1       0.237  -4.061  -2.015  0.00  0.00     0.284 C 
ATOM      9  H3  UNL d   1       1.899  -4.840  -1.033  0.00  0.00     0.395 HD
ENDBRANCH   1   7
TORSDOF 1
ENDMDL
