MODEL 1
REMARK minimizedAffinity 11.0184612
REMARK minimizedRMSD -1
REMARK  1 active torsions:
REMARK  status: ('A' for Active; 'I' for Inactive)
REMARK    1  A    between atoms: N_2  and  C1_3 
ROOT
ATOM      1  C1  UNL d   1      -4.715   2.594   2.456  0.00  0.00     0.143 A 
ATOM      2  C2  UNL d   1      -3.630   3.452   2.248  0.00  0.00    -0.057 A 
ATOM      3  C3  UNL d   1      -2.394   2.967   1.807  0.00  0.00     0.033 A 
ATOM      4  C4  UNL d   1      -2.211   1.605   1.592  0.00  0.00    -0.042 A 
ATOM      5  C5  UNL d   1      -3.268   0.729   1.817  0.00  0.00     0.033 A 
ATOM      6  C6  UNL d   1      -4.502   1.221   2.251  0.00  0.00    -0.057 A 
ENDROOT
BRANCH   1   7
ATOM      7  N   UNL d   1      -5.940   3.002   2.989  0.00  0.00    -0.732 N 
ATOM      8  C   UNL d   1      -6.000   4.066   3.968  0.00  0.00     0.284 C 
ATOM      9  H3  UNL d   1      -6.675   3.042   2.286  0.00  0.00     0.395 HD
ENDBRANCH   1   7
TORSDOF 1
ENDMDL
