MODEL 1
REMARK minimizedAffinity -0.674315095
REMARK minimizedRMSD -1
REMARK  0 active torsions:
REMARK  status: ('A' for Active; 'I' for Inactive)
ROOT
ATOM      1  C2' OXE d   1      -2.272   1.530  -6.000  0.00  0.00     0.078 C 
ATOM      2  C1' OXE d   1      -3.173   2.352  -3.471  0.00  0.00     0.078 C 
ATOM      3  C1  OXE d   1      -3.506   0.950  -3.915  0.00  0.00    -0.078 A 
ATOM      4  C2  OXE d   1      -3.102   0.572  -5.173  0.00  0.00    -0.078 A 
ATOM      5  C3  OXE d   1      -3.336  -0.729  -5.610  0.00  0.00     0.003 A 
ATOM      6  C4  OXE d   1      -4.113  -1.606  -4.844  0.00  0.00    -0.002 A 
ATOM      7  C5  OXE d   1      -4.568  -1.228  -3.576  0.00  0.00    -0.002 A 
ATOM      8  C6  OXE d   1      -4.238   0.029  -3.081  0.00  0.00     0.003 A 
ENDROOT
TORSDOF 0
ENDMDL
