MODEL 1
REMARK minimizedAffinity 8.58239174
REMARK minimizedRMSD -1
REMARK  0 active torsions:
REMARK  status: ('A' for Active; 'I' for Inactive)
ROOT
ATOM      1  C2' OXE d   1      -3.000   3.279  -3.403  0.00  0.00     0.078 C 
ATOM      2  C1' OXE d   1      -3.550   1.108  -1.710  0.00  0.00     0.078 C 
ATOM      3  C1  OXE d   1      -3.659   0.885  -3.197  0.00  0.00    -0.078 A 
ATOM      4  C2  OXE d   1      -3.433   1.965  -4.017  0.00  0.00    -0.078 A 
ATOM      5  C3  OXE d   1      -3.467   1.800  -5.399  0.00  0.00     0.003 A 
ATOM      6  C4  OXE d   1      -3.878   0.584  -5.958  0.00  0.00    -0.002 A 
ATOM      7  C5  OXE d   1      -4.151  -0.517  -5.140  0.00  0.00    -0.002 A 
ATOM      8  C6  OXE d   1      -4.005  -0.396  -3.763  0.00  0.00     0.003 A 
ENDROOT
TORSDOF 0
ENDMDL
