MODEL 1
REMARK minimizedAffinity 4.072299
REMARK minimizedRMSD -1
REMARK  0 active torsions:
REMARK  status: ('A' for Active; 'I' for Inactive)
ROOT
ATOM      1  C2' OXE d   1      -1.873  -1.873  -4.875  0.00  0.00     0.078 C 
ATOM      2  C1' OXE d   1      -2.624  -0.749  -2.414  0.00  0.00     0.078 C 
ATOM      3  C1  OXE d   1      -3.404  -0.344  -3.640  0.00  0.00    -0.078 A 
ATOM      4  C2  OXE d   1      -3.001  -0.863  -4.846  0.00  0.00    -0.078 A 
ATOM      5  C3  OXE d   1      -3.720  -0.565  -6.000  0.00  0.00     0.003 A 
ATOM      6  C4  OXE d   1      -4.755   0.377  -5.967  0.00  0.00    -0.002 A 
ATOM      7  C5  OXE d   1      -5.157   0.948  -4.754  0.00  0.00    -0.002 A 
ATOM      8  C6  OXE d   1      -4.521   0.566  -3.578  0.00  0.00     0.003 A 
ENDROOT
TORSDOF 0
ENDMDL
