MODEL 1
REMARK minimizedAffinity 1.1323173
REMARK minimizedRMSD -1
REMARK  0 active torsions:
REMARK  status: ('A' for Active; 'I' for Inactive)
ROOT
ATOM      1  C2' OXE d   1      -3.545  -1.152  -2.494  0.00  0.00     0.078 C 
ATOM      2  C1' OXE d   1      -1.949  -0.845  -4.782  0.00  0.00     0.078 C 
ATOM      3  C1  OXE d   1      -3.361  -0.317  -4.833  0.00  0.00    -0.078 A 
ATOM      4  C2  OXE d   1      -4.150  -0.513  -3.725  0.00  0.00    -0.078 A 
ATOM      5  C3  OXE d   1      -5.442   0.003  -3.699  0.00  0.00     0.003 A 
ATOM      6  C4  OXE d   1      -5.997   0.584  -4.846  0.00  0.00    -0.002 A 
ATOM      7  C5  OXE d   1      -5.224   0.758  -5.998  0.00  0.00    -0.002 A 
ATOM      8  C6  OXE d   1      -3.894   0.352  -5.994  0.00  0.00     0.003 A 
ENDROOT
TORSDOF 0
ENDMDL
