MODEL 1
REMARK minimizedAffinity 0.448889583
REMARK minimizedRMSD -1
REMARK  0 active torsions:
REMARK  status: ('A' for Active; 'I' for Inactive)
ROOT
ATOM      1  C2' OXE d   1      -1.725  -1.126  -3.382  0.00  0.00     0.078 C 
ATOM      2  C1' OXE d   1      -4.104  -2.019  -2.191  0.00  0.00     0.078 C 
ATOM      3  C1  OXE d   1      -4.216  -1.153  -3.420  0.00  0.00    -0.078 A 
ATOM      4  C2  OXE d   1      -3.047  -0.682  -3.970  0.00  0.00    -0.078 A 
ATOM      5  C3  OXE d   1      -3.091   0.075  -5.136  0.00  0.00     0.003 A 
ATOM      6  C4  OXE d   1      -4.318   0.490  -5.668  0.00  0.00    -0.002 A 
ATOM      7  C5  OXE d   1      -5.520   0.054  -5.101  0.00  0.00    -0.002 A 
ATOM      8  C6  OXE d   1      -5.486  -0.801  -4.004  0.00  0.00     0.003 A 
ENDROOT
TORSDOF 0
ENDMDL
