MODEL 1
REMARK minimizedAffinity -2.35568023
REMARK minimizedRMSD -1
REMARK  0 active torsions:
REMARK  status: ('A' for Active; 'I' for Inactive)
ROOT
ATOM      1  C2' OXE d   1      -4.984   0.770  -6.000  0.00  0.00     0.078 C 
ATOM      2  C1' OXE d   1      -2.207   0.782  -5.591  0.00  0.00     0.078 C 
ATOM      3  C1  OXE d   1      -3.050  -0.063  -4.668  0.00  0.00    -0.078 A 
ATOM      4  C2  OXE d   1      -4.412  -0.026  -4.846  0.00  0.00    -0.078 A 
ATOM      5  C3  OXE d   1      -5.232  -0.829  -4.058  0.00  0.00     0.003 A 
ATOM      6  C4  OXE d   1      -4.696  -1.554  -2.987  0.00  0.00    -0.002 A 
ATOM      7  C5  OXE d   1      -3.316  -1.574  -2.764  0.00  0.00    -0.002 A 
ATOM      8  C6  OXE d   1      -2.476  -0.869  -3.620  0.00  0.00     0.003 A 
ENDROOT
TORSDOF 0
ENDMDL
