MODEL 1
REMARK minimizedAffinity -0.436573923
REMARK minimizedRMSD -1
REMARK  0 active torsions:
REMARK  status: ('A' for Active; 'I' for Inactive)
ROOT
ATOM      1  C2' OXE d   1      -3.771  -0.347  -3.176  0.00  0.00     0.078 C 
ATOM      2  C1' OXE d   1      -3.315  -0.230  -5.943  0.00  0.00     0.078 C 
ATOM      3  C1  OXE d   1      -3.385   1.072  -5.186  0.00  0.00    -0.078 A 
ATOM      4  C2  OXE d   1      -3.655   1.008  -3.840  0.00  0.00    -0.078 A 
ATOM      5  C3  OXE d   1      -3.677   2.176  -3.084  0.00  0.00     0.003 A 
ATOM      6  C4  OXE d   1      -3.579   3.426  -3.708  0.00  0.00    -0.002 A 
ATOM      7  C5  OXE d   1      -3.343   3.516  -5.084  0.00  0.00    -0.002 A 
ATOM      8  C6  OXE d   1      -3.202   2.350  -5.829  0.00  0.00     0.003 A 
ENDROOT
TORSDOF 0
ENDMDL
