MODEL 1
REMARK minimizedAffinity 3.67638516
REMARK minimizedRMSD -1
REMARK  0 active torsions:
REMARK  status: ('A' for Active; 'I' for Inactive)
ROOT
ATOM      1  C2' OXE d   1      -4.434   1.380  -5.999  0.00  0.00     0.078 C 
ATOM      2  C1' OXE d   1      -6.000   0.016  -4.111  0.00  0.00     0.078 C 
ATOM      3  C1  OXE d   1      -4.540  -0.349  -4.209  0.00  0.00    -0.078 A 
ATOM      4  C2  OXE d   1      -3.791   0.290  -5.168  0.00  0.00    -0.078 A 
ATOM      5  C3  OXE d   1      -2.427   0.031  -5.264  0.00  0.00     0.003 A 
ATOM      6  C4  OXE d   1      -1.843  -0.986  -4.498  0.00  0.00    -0.002 A 
ATOM      7  C5  OXE d   1      -2.597  -1.677  -3.543  0.00  0.00    -0.002 A 
ATOM      8  C6  OXE d   1      -3.933  -1.342  -3.357  0.00  0.00     0.003 A 
ENDROOT
TORSDOF 0
ENDMDL
