MODEL 1
REMARK minimizedAffinity -2.4929626
REMARK minimizedRMSD -1
REMARK  0 active torsions:
REMARK  status: ('A' for Active; 'I' for Inactive)
ROOT
ATOM      1  C2' OXE d   1      -3.778  -1.365  -2.305  0.00  0.00     0.078 C 
ATOM      2  C1' OXE d   1      -1.617  -1.211  -4.091  0.00  0.00     0.078 C 
ATOM      3  C1  OXE d   1      -2.874  -0.453  -4.440  0.00  0.00    -0.078 A 
ATOM      4  C2  OXE d   1      -3.942  -0.572  -3.584  0.00  0.00    -0.078 A 
ATOM      5  C3  OXE d   1      -5.107   0.150  -3.830  0.00  0.00     0.003 A 
ATOM      6  C4  OXE d   1      -5.254   0.873  -5.020  0.00  0.00    -0.002 A 
ATOM      7  C5  OXE d   1      -4.193   0.974  -5.925  0.00  0.00    -0.002 A 
ATOM      8  C6  OXE d   1      -2.984   0.354  -5.630  0.00  0.00     0.003 A 
ENDROOT
TORSDOF 0
ENDMDL
