MODEL 1
REMARK minimizedAffinity 2.6748476
REMARK minimizedRMSD -1
REMARK  0 active torsions:
REMARK  status: ('A' for Active; 'I' for Inactive)
ROOT
ATOM      1  C2' OXE d   1      -5.701   0.170  -3.750  0.00  0.00     0.078 C 
ATOM      2  C1' OXE d   1      -4.273  -2.081  -2.870  0.00  0.00     0.078 C 
ATOM      3  C1  OXE d   1      -3.657  -1.239  -3.958  0.00  0.00    -0.078 A 
ATOM      4  C2  OXE d   1      -4.384  -0.166  -4.416  0.00  0.00    -0.078 A 
ATOM      5  C3  OXE d   1      -3.838   0.676  -5.381  0.00  0.00     0.003 A 
ATOM      6  C4  OXE d   1      -2.624   0.353  -5.998  0.00  0.00    -0.002 A 
ATOM      7  C5  OXE d   1      -1.886  -0.758  -5.575  0.00  0.00    -0.002 A 
ATOM      8  C6  OXE d   1      -2.367  -1.538  -4.530  0.00  0.00     0.003 A 
ENDROOT
TORSDOF 0
ENDMDL
