MODEL 1
REMARK minimizedAffinity 4.52667093
REMARK minimizedRMSD -1
REMARK  0 active torsions:
REMARK  status: ('A' for Active; 'I' for Inactive)
ROOT
ATOM      1  C   UNL d   1       2.362  -1.194   2.322  0.00  0.00     0.077 C 
ATOM      2  C1  UNL d   1       0.959  -0.837   1.929  0.00  0.00    -0.074 A 
ATOM      3  C2  UNL d   1      -0.058  -1.797   1.943  0.00  0.00    -0.005 A 
ATOM      4  C3  UNL d   1      -1.360  -1.448   1.584  0.00  0.00     0.006 A 
ATOM      5  C4  UNL d   1      -1.658  -0.137   1.209  0.00  0.00    -0.005 A 
ATOM      6  C5  UNL d   1      -0.654   0.837   1.191  0.00  0.00    -0.074 A 
ATOM      7  C6  UNL d   1      -0.960   2.252   0.800  0.00  0.00     0.077 C 
ATOM      8  C7  UNL d   1       0.650   0.480   1.559  0.00  0.00    -0.001 A 
ENDROOT
TORSDOF 0
ENDMDL
