MODEL 1
REMARK minimizedAffinity 5.85175085
REMARK minimizedRMSD -1
REMARK  0 active torsions:
REMARK  status: ('A' for Active; 'I' for Inactive)
ROOT
ATOM      1  C   UNL d   1      -4.108  -0.455  -1.446  0.00  0.00     0.077 C 
ATOM      2  C1  UNL d   1      -2.998  -0.264  -0.456  0.00  0.00    -0.074 A 
ATOM      3  C2  UNL d   1      -2.548  -1.327   0.333  0.00  0.00    -0.005 A 
ATOM      4  C3  UNL d   1      -1.508  -1.136   1.243  0.00  0.00     0.006 A 
ATOM      5  C4  UNL d   1      -0.909   0.117   1.373  0.00  0.00    -0.005 A 
ATOM      6  C5  UNL d   1      -1.345   1.192   0.592  0.00  0.00    -0.074 A 
ATOM      7  C6  UNL d   1      -0.706   2.543   0.712  0.00  0.00     0.077 C 
ATOM      8  C7  UNL d   1      -2.386   0.991  -0.325  0.00  0.00    -0.001 A 
ENDROOT
TORSDOF 0
ENDMDL
