MODEL 1
REMARK minimizedAffinity 1.1625936
REMARK minimizedRMSD -1
REMARK  0 active torsions:
REMARK  status: ('A' for Active; 'I' for Inactive)
ROOT
ATOM      1  C   UNL d   1      -2.620  -3.404   0.462  0.00  0.00     0.077 C 
ATOM      2  C1  UNL d   1      -1.503  -2.489   0.868  0.00  0.00    -0.074 A 
ATOM      3  C2  UNL d   1      -0.244  -2.997   1.205  0.00  0.00    -0.005 A 
ATOM      4  C3  UNL d   1       0.788  -2.132   1.571  0.00  0.00     0.006 A 
ATOM      5  C4  UNL d   1       0.571  -0.754   1.604  0.00  0.00    -0.005 A 
ATOM      6  C5  UNL d   1      -0.681  -0.229   1.270  0.00  0.00    -0.074 A 
ATOM      7  C6  UNL d   1      -0.927   1.251   1.292  0.00  0.00     0.077 C 
ATOM      8  C7  UNL d   1      -1.710  -1.103   0.897  0.00  0.00    -0.001 A 
ENDROOT
TORSDOF 0
ENDMDL
