MODEL 1
REMARK minimizedAffinity 2.85552192
REMARK minimizedRMSD -1
REMARK  0 active torsions:
REMARK  status: ('A' for Active; 'I' for Inactive)
ROOT
ATOM      1  C   UNL d   1       1.499  -0.739   5.195  0.00  0.00     0.077 C 
ATOM      2  C1  UNL d   1       1.300  -1.103   3.754  0.00  0.00    -0.074 A 
ATOM      3  C2  UNL d   1       1.999  -2.170   3.179  0.00  0.00    -0.005 A 
ATOM      4  C3  UNL d   1       1.797  -2.502   1.839  0.00  0.00     0.006 A 
ATOM      5  C4  UNL d   1       0.896  -1.774   1.063  0.00  0.00    -0.005 A 
ATOM      6  C5  UNL d   1       0.187  -0.705   1.620  0.00  0.00    -0.074 A 
ATOM      7  C6  UNL d   1      -0.793   0.083   0.802  0.00  0.00     0.077 C 
ATOM      8  C7  UNL d   1       0.391  -0.381   2.969  0.00  0.00    -0.001 A 
ENDROOT
TORSDOF 0
ENDMDL
