MODEL 1
REMARK minimizedAffinity 1.970186
REMARK minimizedRMSD -1
REMARK  0 active torsions:
REMARK  status: ('A' for Active; 'I' for Inactive)
ROOT
ATOM      1  C   UNL d   1       6.000   5.110  -0.725  0.00  0.00     0.077 C 
ATOM      2  C1  UNL d   1       5.318   4.306  -1.792  0.00  0.00    -0.074 A 
ATOM      3  C2  UNL d   1       4.059   3.738  -1.570  0.00  0.00    -0.005 A 
ATOM      4  C3  UNL d   1       3.434   3.001  -2.575  0.00  0.00     0.006 A 
ATOM      5  C4  UNL d   1       4.059   2.824  -3.810  0.00  0.00    -0.005 A 
ATOM      6  C5  UNL d   1       5.317   3.384  -4.050  0.00  0.00    -0.074 A 
ATOM      7  C6  UNL d   1       5.999   3.212  -5.375  0.00  0.00     0.077 C 
ATOM      8  C7  UNL d   1       5.937   4.130  -3.038  0.00  0.00    -0.001 A 
ENDROOT
TORSDOF 0
ENDMDL
