MODEL 1
REMARK minimizedAffinity 1.95106781
REMARK minimizedRMSD -1
REMARK  0 active torsions:
REMARK  status: ('A' for Active; 'I' for Inactive)
ROOT
ATOM      1  C2' OXE d   1       0.591  -1.011   0.091  0.00  0.00     0.078 C 
ATOM      2  C1' OXE d   1       2.555   0.545   1.357  0.00  0.00     0.078 C 
ATOM      3  C1  OXE d   1       1.339   1.253   0.812  0.00  0.00    -0.078 A 
ATOM      4  C2  OXE d   1       0.406   0.489   0.153  0.00  0.00    -0.078 A 
ATOM      5  C3  OXE d   1      -0.761   1.084  -0.320  0.00  0.00     0.003 A 
ATOM      6  C4  OXE d   1      -0.920   2.474  -0.268  0.00  0.00    -0.002 A 
ATOM      7  C5  OXE d   1       0.038   3.274   0.364  0.00  0.00    -0.002 A 
ATOM      8  C6  OXE d   1       1.150   2.676   0.946  0.00  0.00     0.003 A 
ENDROOT
TORSDOF 0
ENDMDL
