MODEL 1
REMARK minimizedAffinity 10.2576914
REMARK minimizedRMSD -1
REMARK  0 active torsions:
REMARK  status: ('A' for Active; 'I' for Inactive)
ROOT
ATOM      1  C2' OXE d   1       3.098   0.818   1.016  0.00  0.00     0.078 C 
ATOM      2  C1' OXE d   1       2.369   2.672   2.994  0.00  0.00     0.078 C 
ATOM      3  C1  OXE d   1       1.526   2.608   1.744  0.00  0.00    -0.078 A 
ATOM      4  C2  OXE d   1       1.918   1.731   0.762  0.00  0.00    -0.078 A 
ATOM      5  C3  OXE d   1       1.145   1.593  -0.387  0.00  0.00     0.003 A 
ATOM      6  C4  OXE d   1       0.060   2.447  -0.619  0.00  0.00    -0.002 A 
ATOM      7  C5  OXE d   1      -0.332   3.375   0.351  0.00  0.00    -0.002 A 
ATOM      8  C6  OXE d   1       0.363   3.439   1.554  0.00  0.00     0.003 A 
ENDROOT
TORSDOF 0
ENDMDL
