MODEL 1
REMARK minimizedAffinity -1.32837594
REMARK minimizedRMSD -1
REMARK  0 active torsions:
REMARK  status: ('A' for Active; 'I' for Inactive)
ROOT
ATOM      1  C2' OXE d   1      -2.425   0.100   0.408  0.00  0.00     0.078 C 
ATOM      2  C1' OXE d   1      -0.592  -2.024   0.501  0.00  0.00     0.078 C 
ATOM      3  C1  OXE d   1      -0.058  -0.648   0.192  0.00  0.00    -0.078 A 
ATOM      4  C2  OXE d   1      -0.968   0.377   0.102  0.00  0.00    -0.078 A 
ATOM      5  C3  OXE d   1      -0.523   1.676  -0.127  0.00  0.00     0.003 A 
ATOM      6  C4  OXE d   1       0.824   1.922  -0.419  0.00  0.00    -0.002 A 
ATOM      7  C5  OXE d   1       1.762   0.885  -0.372  0.00  0.00    -0.002 A 
ATOM      8  C6  OXE d   1       1.344  -0.396  -0.027  0.00  0.00     0.003 A 
ENDROOT
TORSDOF 0
ENDMDL
