MODEL 1
REMARK minimizedAffinity -3.18931699
REMARK minimizedRMSD -1
REMARK  0 active torsions:
REMARK  status: ('A' for Active; 'I' for Inactive)
ROOT
ATOM      1  C2' OXE d   1      -0.108   2.132   0.092  0.00  0.00     0.078 C 
ATOM      2  C1' OXE d   1      -1.185  -0.364   0.792  0.00  0.00     0.078 C 
ATOM      3  C1  OXE d   1       0.286  -0.137   1.041  0.00  0.00    -0.078 A 
ATOM      4  C2  OXE d   1       0.814   1.071   0.652  0.00  0.00    -0.078 A 
ATOM      5  C3  OXE d   1       2.152   1.352   0.908  0.00  0.00     0.003 A 
ATOM      6  C4  OXE d   1       3.000   0.361   1.417  0.00  0.00    -0.002 A 
ATOM      7  C5  OXE d   1       2.491  -0.890   1.783  0.00  0.00    -0.002 A 
ATOM      8  C6  OXE d   1       1.131  -1.140   1.641  0.00  0.00     0.003 A 
ENDROOT
TORSDOF 0
ENDMDL
