MODEL 1
REMARK minimizedAffinity 3.6343708
REMARK minimizedRMSD -1
REMARK  0 active torsions:
REMARK  status: ('A' for Active; 'I' for Inactive)
ROOT
ATOM      1  C2' OXE d   1       0.011  -2.054   1.677  0.00  0.00     0.078 C 
ATOM      2  C1' OXE d   1       2.075  -1.332   3.439  0.00  0.00     0.078 C 
ATOM      3  C1  OXE d   1       1.751  -0.386   2.309  0.00  0.00    -0.078 A 
ATOM      4  C2  OXE d   1       0.772  -0.769   1.425  0.00  0.00    -0.078 A 
ATOM      5  C3  OXE d   1       0.396   0.091   0.397  0.00  0.00     0.003 A 
ATOM      6  C4  OXE d   1       1.111   1.272   0.165  0.00  0.00    -0.002 A 
ATOM      7  C5  OXE d   1       2.139   1.662   1.030  0.00  0.00    -0.002 A 
ATOM      8  C6  OXE d   1       2.442   0.866   2.130  0.00  0.00     0.003 A 
ENDROOT
TORSDOF 0
ENDMDL
