MODEL 1
REMARK minimizedAffinity -1.12952912
REMARK minimizedRMSD -1
REMARK  0 active torsions:
REMARK  status: ('A' for Active; 'I' for Inactive)
ROOT
ATOM      1  C2' OXE d   1       0.539   1.560  -0.302  0.00  0.00     0.078 C 
ATOM      2  C1' OXE d   1      -0.580  -0.877   0.527  0.00  0.00     0.078 C 
ATOM      3  C1  OXE d   1       0.636  -0.375   1.264  0.00  0.00    -0.078 A 
ATOM      4  C2  OXE d   1       1.205   0.795   0.821  0.00  0.00    -0.078 A 
ATOM      5  C3  OXE d   1       2.296   1.331   1.500  0.00  0.00     0.003 A 
ATOM      6  C4  OXE d   1       2.912   0.613   2.532  0.00  0.00    -0.002 A 
ATOM      7  C5  OXE d   1       2.372  -0.601   2.972  0.00  0.00    -0.002 A 
ATOM      8  C6  OXE d   1       1.212  -1.086   2.378  0.00  0.00     0.003 A 
ENDROOT
TORSDOF 0
ENDMDL
