MODEL 1
REMARK minimizedAffinity 10.808363
REMARK minimizedRMSD -1
REMARK  0 active torsions:
REMARK  status: ('A' for Active; 'I' for Inactive)
ROOT
ATOM      1  C2' OXE d   1      -5.296   3.550  -4.004  0.00  0.00     0.078 C 
ATOM      2  C1' OXE d   1      -4.302   2.705  -1.518  0.00  0.00     0.078 C 
ATOM      3  C1  OXE d   1      -3.966   1.872  -2.730  0.00  0.00    -0.078 A 
ATOM      4  C2  OXE d   1      -4.496   2.267  -3.935  0.00  0.00    -0.078 A 
ATOM      5  C3  OXE d   1      -4.172   1.566  -5.093  0.00  0.00     0.003 A 
ATOM      6  C4  OXE d   1      -3.439   0.375  -5.019  0.00  0.00    -0.002 A 
ATOM      7  C5  OXE d   1      -2.924  -0.067  -3.795  0.00  0.00    -0.002 A 
ATOM      8  C6  OXE d   1      -3.142   0.692  -2.650  0.00  0.00     0.003 A 
ENDROOT
TORSDOF 0
ENDMDL
