MODEL 1
REMARK minimizedAffinity 5.92513227
REMARK minimizedRMSD -1
REMARK  0 active torsions:
REMARK  status: ('A' for Active; 'I' for Inactive)
ROOT
ATOM      1  C2' OXE d   1       0.544  -2.454  -3.173  0.00  0.00     0.078 C 
ATOM      2  C1' OXE d   1      -2.030  -1.434  -2.711  0.00  0.00     0.078 C 
ATOM      3  C1  OXE d   1      -1.159  -1.714  -1.512  0.00  0.00    -0.078 A 
ATOM      4  C2  OXE d   1       0.082  -2.256  -1.745  0.00  0.00    -0.078 A 
ATOM      5  C3  OXE d   1       0.947  -2.483  -0.679  0.00  0.00     0.003 A 
ATOM      6  C4  OXE d   1       0.508  -2.307   0.639  0.00  0.00    -0.002 A 
ATOM      7  C5  OXE d   1      -0.766  -1.792   0.901  0.00  0.00    -0.002 A 
ATOM      8  C6  OXE d   1      -1.595  -1.451  -0.163  0.00  0.00     0.003 A 
ENDROOT
TORSDOF 0
ENDMDL
