MODEL 1
REMARK minimizedAffinity 2.00786495
REMARK minimizedRMSD -1
REMARK  0 active torsions:
REMARK  status: ('A' for Active; 'I' for Inactive)
ROOT
ATOM      1  C2' OXE d   1      -2.604  -3.104  -3.051  0.00  0.00     0.078 C 
ATOM      2  C1' OXE d   1      -1.941  -1.766  -0.674  0.00  0.00     0.078 C 
ATOM      3  C1  OXE d   1      -2.500  -0.946  -1.810  0.00  0.00    -0.078 A 
ATOM      4  C2  OXE d   1      -2.777  -1.602  -2.986  0.00  0.00    -0.078 A 
ATOM      5  C3  OXE d   1      -3.346  -0.903  -4.047  0.00  0.00     0.003 A 
ATOM      6  C4  OXE d   1      -3.494   0.487  -3.982  0.00  0.00    -0.002 A 
ATOM      7  C5  OXE d   1      -3.180   1.181  -2.808  0.00  0.00    -0.002 A 
ATOM      8  C6  OXE d   1      -2.723   0.474  -1.701  0.00  0.00     0.003 A 
ENDROOT
TORSDOF 0
ENDMDL
