MODEL 1
REMARK minimizedAffinity 7.87576675
REMARK minimizedRMSD -1
REMARK  0 active torsions:
REMARK  status: ('A' for Active; 'I' for Inactive)
ROOT
ATOM      1  C   UNL d   1       0.468   3.463  -0.062  0.00  0.00     0.020 A 
ATOM      2  C1  UNL d   1      -0.828   3.978  -0.051  0.00  0.00     0.020 A 
ATOM      3  C2  UNL d   1      -1.798   3.408   0.775  0.00  0.00     0.034 A 
ATOM      4  C3  UNL d   1      -1.475   2.320   1.594  0.00  0.00     0.017 A 
ATOM      5  C4  UNL d   1      -0.174   1.804   1.582  0.00  0.00     0.017 A 
ATOM      6  C5  UNL d   1       0.794   2.378   0.753  0.00  0.00     0.034 A 
ATOM      7 Cl   UNL d   1       0.300   0.463   2.565  0.00  0.00    -0.070 Cl
ATOM      8 Cl1  UNL d   1      -2.725   1.665   2.591  0.00  0.00    -0.070 Cl
ENDROOT
TORSDOF 0
ENDMDL
