MODEL 1
REMARK minimizedAffinity -1.37328792
REMARK minimizedRMSD -1
REMARK  0 active torsions:
REMARK  status: ('A' for Active; 'I' for Inactive)
ROOT
ATOM      1  C   UNL d   1      -0.770   3.017  -1.585  0.00  0.00     0.020 A 
ATOM      2  C1  UNL d   1       0.109   4.100  -1.581  0.00  0.00     0.020 A 
ATOM      3  C2  UNL d   1       0.719   4.499  -0.390  0.00  0.00     0.034 A 
ATOM      4  C3  UNL d   1       0.450   3.816   0.802  0.00  0.00     0.017 A 
ATOM      5  C4  UNL d   1      -0.432   2.730   0.797  0.00  0.00     0.017 A 
ATOM      6  C5  UNL d   1      -1.039   2.334  -0.399  0.00  0.00     0.034 A 
ATOM      7 Cl   UNL d   1      -0.813   1.838   2.227  0.00  0.00    -0.070 Cl
ATOM      8 Cl1  UNL d   1       1.239   4.365   2.238  0.00  0.00    -0.070 Cl
ENDROOT
TORSDOF 0
ENDMDL
