MODEL 1
REMARK minimizedAffinity 0.78377682
REMARK minimizedRMSD -1
REMARK  0 active torsions:
REMARK  status: ('A' for Active; 'I' for Inactive)
ROOT
ATOM      1  C   UNL d   1       0.022   2.091   1.687  0.00  0.00     0.020 A 
ATOM      2  C1  UNL d   1       0.016   3.312   2.361  0.00  0.00     0.020 A 
ATOM      3  C2  UNL d   1      -0.072   4.506   1.642  0.00  0.00     0.034 A 
ATOM      4  C3  UNL d   1      -0.153   4.482   0.245  0.00  0.00     0.017 A 
ATOM      5  C4  UNL d   1      -0.147   3.256  -0.431  0.00  0.00     0.017 A 
ATOM      6  C5  UNL d   1      -0.059   2.064   0.294  0.00  0.00     0.034 A 
ATOM      7 Cl   UNL d   1      -0.244   3.146  -2.153  0.00  0.00    -0.070 Cl
ATOM      8 Cl1  UNL d   1      -0.260   5.996  -0.580  0.00  0.00    -0.070 Cl
ENDROOT
TORSDOF 0
ENDMDL
