MODEL 1
REMARK minimizedAffinity 3.59714389
REMARK minimizedRMSD -1
REMARK  0 active torsions:
REMARK  status: ('A' for Active; 'I' for Inactive)
ROOT
ATOM      1  C   UNL d   1      -6.000  -5.999   4.830  0.00  0.00     0.020 A 
ATOM      2  C1  UNL d   1      -5.383  -5.547   5.995  0.00  0.00     0.020 A 
ATOM      3  C2  UNL d   1      -4.699  -4.329   5.996  0.00  0.00     0.034 A 
ATOM      4  C3  UNL d   1      -4.631  -3.560   4.829  0.00  0.00     0.017 A 
ATOM      5  C4  UNL d   1      -5.251  -4.014   3.659  0.00  0.00     0.017 A 
ATOM      6  C5  UNL d   1      -5.934  -5.234   3.664  0.00  0.00     0.034 A 
ATOM      7 Cl   UNL d   1      -5.210  -3.120   2.181  0.00  0.00    -0.070 Cl
ATOM      8 Cl1  UNL d   1      -3.769  -2.064   4.902  0.00  0.00    -0.070 Cl
ENDROOT
TORSDOF 0
ENDMDL
