MODEL 1
REMARK minimizedAffinity 2.23736525
REMARK minimizedRMSD -1
REMARK  0 active torsions:
REMARK  status: ('A' for Active; 'I' for Inactive)
ROOT
ATOM      1  C   UNL d   1      -5.995  -5.498   4.731  0.00  0.00     0.020 A 
ATOM      2  C1  UNL d   1      -5.507  -5.036   5.953  0.00  0.00     0.020 A 
ATOM      3  C2  UNL d   1      -4.731  -3.876   6.000  0.00  0.00     0.034 A 
ATOM      4  C3  UNL d   1      -4.441  -3.175   4.823  0.00  0.00     0.017 A 
ATOM      5  C4  UNL d   1      -4.932  -3.640   3.598  0.00  0.00     0.017 A 
ATOM      6  C5  UNL d   1      -5.709  -4.802   3.557  0.00  0.00     0.034 A 
ATOM      7 Cl   UNL d   1      -4.616  -2.829   2.105  0.00  0.00    -0.070 Cl
ATOM      8 Cl1  UNL d   1      -3.475  -1.748   4.956  0.00  0.00    -0.070 Cl
ENDROOT
TORSDOF 0
ENDMDL
