MODEL 1
REMARK minimizedAffinity 3.34579492
REMARK minimizedRMSD -1
REMARK  0 active torsions:
REMARK  status: ('A' for Active; 'I' for Inactive)
ROOT
ATOM      1  C   UNL d   1       0.157   2.988   0.762  0.00  0.00     0.020 A 
ATOM      2  C1  UNL d   1      -1.236   3.054   0.759  0.00  0.00     0.020 A 
ATOM      3  C2  UNL d   1      -1.972   2.297   1.672  0.00  0.00     0.034 A 
ATOM      4  C3  UNL d   1      -1.317   1.470   2.592  0.00  0.00     0.017 A 
ATOM      5  C4  UNL d   1       0.081   1.404   2.594  0.00  0.00     0.017 A 
ATOM      6  C5  UNL d   1       0.814   2.165   1.678  0.00  0.00     0.034 A 
ATOM      7 Cl   UNL d   1       0.960   0.406   3.698  0.00  0.00    -0.070 Cl
ATOM      8 Cl1  UNL d   1      -2.292   0.561   3.692  0.00  0.00    -0.070 Cl
ENDROOT
TORSDOF 0
ENDMDL
