MODEL 1
REMARK minimizedAffinity 14.969718
REMARK minimizedRMSD -1
REMARK  0 active torsions:
REMARK  status: ('A' for Active; 'I' for Inactive)
ROOT
ATOM      1  C   UNL d   1       0.281   4.346  -2.014  0.00  0.00     0.020 A 
ATOM      2  C1  UNL d   1      -0.259   4.597  -3.275  0.00  0.00     0.020 A 
ATOM      3  C2  UNL d   1      -1.323   3.825  -3.745  0.00  0.00     0.034 A 
ATOM      4  C3  UNL d   1      -1.852   2.799  -2.954  0.00  0.00     0.017 A 
ATOM      5  C4  UNL d   1      -1.309   2.547  -1.688  0.00  0.00     0.017 A 
ATOM      6  C5  UNL d   1      -0.243   3.323  -1.223  0.00  0.00     0.034 A 
ATOM      7 Cl   UNL d   1      -1.908   1.298  -0.655  0.00  0.00    -0.070 Cl
ATOM      8 Cl1  UNL d   1      -3.169   1.885  -3.598  0.00  0.00    -0.070 Cl
ENDROOT
TORSDOF 0
ENDMDL
