MODEL 1
REMARK minimizedAffinity 10.4963064
REMARK minimizedRMSD -1
REMARK  0 active torsions:
REMARK  status: ('A' for Active; 'I' for Inactive)
ROOT
ATOM      1  C   UNL d   1       1.087   5.074  -1.187  0.00  0.00     0.020 A 
ATOM      2  C1  UNL d   1       1.280   4.650   0.127  0.00  0.00     0.020 A 
ATOM      3  C2  UNL d   1       0.676   3.474   0.577  0.00  0.00     0.034 A 
ATOM      4  C3  UNL d   1      -0.124   2.718  -0.288  0.00  0.00     0.017 A 
ATOM      5  C4  UNL d   1      -0.317   3.145  -1.607  0.00  0.00     0.017 A 
ATOM      6  C5  UNL d   1       0.291   4.323  -2.052  0.00  0.00     0.034 A 
ATOM      7 Cl   UNL d   1      -1.290   2.265  -2.732  0.00  0.00    -0.070 Cl
ATOM      8 Cl1  UNL d   1      -0.840   1.275   0.336  0.00  0.00    -0.070 Cl
ENDROOT
TORSDOF 0
ENDMDL
