MODEL 1
REMARK minimizedAffinity 12.2298756
REMARK minimizedRMSD -1
REMARK  0 active torsions:
REMARK  status: ('A' for Active; 'I' for Inactive)
ROOT
ATOM      1  C   UNL d   1       5.583  -4.421  -2.598  0.00  0.00     0.020 A 
ATOM      2  C1  UNL d   1       5.999  -3.750  -3.747  0.00  0.00     0.020 A 
ATOM      3  C2  UNL d   1       5.063  -3.103  -4.556  0.00  0.00     0.034 A 
ATOM      4  C3  UNL d   1       3.705  -3.126  -4.217  0.00  0.00     0.017 A 
ATOM      5  C4  UNL d   1       3.288  -3.799  -3.063  0.00  0.00     0.017 A 
ATOM      6  C5  UNL d   1       4.230  -4.445  -2.256  0.00  0.00     0.034 A 
ATOM      7 Cl   UNL d   1       1.630  -3.871  -2.579  0.00  0.00    -0.070 Cl
ATOM      8 Cl1  UNL d   1       2.602  -2.305  -5.263  0.00  0.00    -0.070 Cl
ENDROOT
TORSDOF 0
ENDMDL
