MODEL 1
REMARK minimizedAffinity 6.7579298
REMARK minimizedRMSD -1
REMARK  0 active torsions:
REMARK  status: ('A' for Active; 'I' for Inactive)
ROOT
ATOM      1  C   UNL d   1      -0.430   3.705  -2.001  0.00  0.00     0.020 A 
ATOM      2  C1  UNL d   1      -1.199   2.547  -1.886  0.00  0.00     0.020 A 
ATOM      3  C2  UNL d   1      -1.370   1.945  -0.638  0.00  0.00     0.034 A 
ATOM      4  C3  UNL d   1      -0.773   2.499   0.500  0.00  0.00     0.017 A 
ATOM      5  C4  UNL d   1      -0.001   3.661   0.383  0.00  0.00     0.017 A 
ATOM      6  C5  UNL d   1       0.168   4.260  -0.869  0.00  0.00     0.034 A 
ATOM      7 Cl   UNL d   1       0.768   4.403   1.742  0.00  0.00    -0.070 Cl
ATOM      8 Cl1  UNL d   1      -1.028   1.701   2.011  0.00  0.00    -0.070 Cl
ENDROOT
TORSDOF 0
ENDMDL
