MODEL 1
REMARK minimizedAffinity 1.5194937
REMARK minimizedRMSD -1
REMARK  0 active torsions:
REMARK  status: ('A' for Active; 'I' for Inactive)
ROOT
ATOM      1  C   UNL d   1       0.421   3.778  -0.803  0.00  0.00     0.020 A 
ATOM      2  C1  UNL d   1      -0.519   2.749  -0.755  0.00  0.00     0.020 A 
ATOM      3  C2  UNL d   1      -0.817   2.132   0.462  0.00  0.00     0.034 A 
ATOM      4  C3  UNL d   1      -0.175   2.543   1.636  0.00  0.00     0.017 A 
ATOM      5  C4  UNL d   1       0.768   3.576   1.587  0.00  0.00     0.017 A 
ATOM      6  C5  UNL d   1       1.063   4.191   0.366  0.00  0.00     0.034 A 
ATOM      7 Cl   UNL d   1       1.600   4.138   2.993  0.00  0.00    -0.070 Cl
ATOM      8 Cl1  UNL d   1      -0.593   1.736   3.105  0.00  0.00    -0.070 Cl
ENDROOT
TORSDOF 0
ENDMDL
