MODEL 1
REMARK minimizedAffinity 2.44615626
REMARK minimizedRMSD -1
REMARK  0 active torsions:
REMARK  status: ('A' for Active; 'I' for Inactive)
ROOT
ATOM      1  C   UNL d   1       0.211   3.304   1.013  0.00  0.00     0.020 A 
ATOM      2  C1  UNL d   1      -0.256   2.218   0.273  0.00  0.00     0.020 A 
ATOM      3  C2  UNL d   1      -0.810   1.115   0.925  0.00  0.00     0.034 A 
ATOM      4  C3  UNL d   1      -0.897   1.094   2.322  0.00  0.00     0.017 A 
ATOM      5  C4  UNL d   1      -0.428   2.184   3.064  0.00  0.00     0.017 A 
ATOM      6  C5  UNL d   1       0.125   3.286   2.406  0.00  0.00     0.034 A 
ATOM      7 Cl   UNL d   1      -0.503   2.230   4.790  0.00  0.00    -0.070 Cl
ATOM      8 Cl1  UNL d   1      -1.594  -0.304   3.062  0.00  0.00    -0.070 Cl
ENDROOT
TORSDOF 0
ENDMDL
