MODEL 1
REMARK minimizedAffinity -2.52652264
REMARK minimizedRMSD -1
REMARK  0 active torsions:
REMARK  status: ('A' for Active; 'I' for Inactive)
ROOT
ATOM      1  C   UNL d   1      -4.297  -1.279  -0.559  0.00  0.00     0.020 A 
ATOM      2  C1  UNL d   1      -5.525  -1.651  -1.105  0.00  0.00     0.020 A 
ATOM      3  C2  UNL d   1      -6.000  -1.014  -2.253  0.00  0.00     0.034 A 
ATOM      4  C3  UNL d   1      -5.247  -0.001  -2.859  0.00  0.00     0.017 A 
ATOM      5  C4  UNL d   1      -4.014   0.371  -2.310  0.00  0.00     0.017 A 
ATOM      6  C5  UNL d   1      -3.543  -0.271  -1.160  0.00  0.00     0.034 A 
ATOM      7 Cl   UNL d   1      -3.029   1.611  -3.001  0.00  0.00    -0.070 Cl
ATOM      8 Cl1  UNL d   1      -5.896   0.743  -4.277  0.00  0.00    -0.070 Cl
ENDROOT
TORSDOF 0
ENDMDL
