MODEL 1
REMARK minimizedAffinity 12.3301163
REMARK minimizedRMSD -1
REMARK  0 active torsions:
REMARK  status: ('A' for Active; 'I' for Inactive)
ROOT
ATOM      1  C   UNL d   1      -0.038   5.164  -0.087  0.00  0.00     0.020 A 
ATOM      2  C1  UNL d   1       0.248   3.801  -0.159  0.00  0.00     0.020 A 
ATOM      3  C2  UNL d   1      -0.720   2.864   0.207  0.00  0.00     0.034 A 
ATOM      4  C3  UNL d   1      -1.979   3.288   0.648  0.00  0.00     0.017 A 
ATOM      5  C4  UNL d   1      -2.265   4.656   0.720  0.00  0.00     0.017 A 
ATOM      6  C5  UNL d   1      -1.292   5.590   0.352  0.00  0.00     0.034 A 
ATOM      7 Cl   UNL d   1      -3.796   5.256   1.255  0.00  0.00    -0.070 Cl
ATOM      8 Cl1  UNL d   1      -3.128   2.074   1.085  0.00  0.00    -0.070 Cl
ENDROOT
TORSDOF 0
ENDMDL
