MODEL 1
REMARK minimizedAffinity -1.91496778
REMARK minimizedRMSD -1
REMARK  0 active torsions:
REMARK  status: ('A' for Active; 'I' for Inactive)
ROOT
ATOM      1  C   UNL d   1      -1.879  -2.992   4.132  0.00  0.00     0.020 A 
ATOM      2  C1  UNL d   1      -2.117  -2.239   5.281  0.00  0.00     0.020 A 
ATOM      3  C2  UNL d   1      -3.395  -2.204   5.841  0.00  0.00     0.034 A 
ATOM      4  C3  UNL d   1      -4.442  -2.923   5.252  0.00  0.00     0.017 A 
ATOM      5  C4  UNL d   1      -4.202  -3.679   4.099  0.00  0.00     0.017 A 
ATOM      6  C5  UNL d   1      -2.920  -3.711   3.543  0.00  0.00     0.034 A 
ATOM      7 Cl   UNL d   1      -5.443  -4.593   3.316  0.00  0.00    -0.070 Cl
ATOM      8 Cl1  UNL d   1      -5.997  -2.835   5.999  0.00  0.00    -0.070 Cl
ENDROOT
TORSDOF 0
ENDMDL
