MODEL 1
REMARK minimizedAffinity 3.72550321
REMARK minimizedRMSD -1
REMARK  0 active torsions:
REMARK  status: ('A' for Active; 'I' for Inactive)
ROOT
ATOM      1  C   UNL d   1      -1.765   0.302   1.714  0.00  0.00     0.020 A 
ATOM      2  C1  UNL d   1      -1.473   0.744   3.004  0.00  0.00     0.020 A 
ATOM      3  C2  UNL d   1      -0.640   1.848   3.191  0.00  0.00     0.034 A 
ATOM      4  C3  UNL d   1      -0.096   2.515   2.088  0.00  0.00     0.017 A 
ATOM      5  C4  UNL d   1      -0.390   2.071   0.793  0.00  0.00     0.017 A 
ATOM      6  C5  UNL d   1      -1.225   0.964   0.611  0.00  0.00     0.034 A 
ATOM      7 Cl   UNL d   1       0.244   2.842  -0.618  0.00  0.00    -0.070 Cl
ATOM      8 Cl1  UNL d   1       0.926   3.874   2.394  0.00  0.00    -0.070 Cl
ENDROOT
TORSDOF 0
ENDMDL
