MODEL 1
REMARK minimizedAffinity -1.27350461
REMARK minimizedRMSD -1
REMARK  1 active torsions:
REMARK  status: ('A' for Active; 'I' for Inactive)
REMARK    1  A    between atoms: C1_2  and  C2_3 
ROOT
ATOM      1  C2  UNL d   1       2.277  -3.772   4.655  0.00  0.00    -0.081 A 
ATOM      2  C3  UNL d   1       2.408  -3.581   3.274  0.00  0.00     0.006 A 
ATOM      3  C4  UNL d   1       3.607  -3.108   2.735  0.00  0.00     0.002 A 
ATOM      4  C5  UNL d   1       4.697  -2.827   3.566  0.00  0.00    -0.080 A 
ATOM      5  C6  UNL d   1       6.000  -2.348   2.998  0.00  0.00     0.076 C 
ATOM      6  C7  UNL d   1       4.560  -3.001   4.948  0.00  0.00     0.002 A 
ATOM      7  C8  UNL d   1       3.361  -3.472   5.487  0.00  0.00     0.006 A 
ENDROOT
BRANCH   1   8
ATOM      8  C1  UNL d   1       1.007  -4.342   5.232  0.00  0.00     0.054 C 
ATOM      9  C   UNL d   1       1.277  -5.629   6.000  0.00  0.00     0.018 C 
ENDBRANCH   1   8
TORSDOF 1
ENDMDL
