MODEL 1
REMARK minimizedAffinity 3.71506691
REMARK minimizedRMSD -1
REMARK  1 active torsions:
REMARK  status: ('A' for Active; 'I' for Inactive)
REMARK    1  A    between atoms: C1_2  and  C2_3 
ROOT
ATOM      1  C2  UNL d   1       3.649  -2.461   4.853  0.00  0.00    -0.081 A 
ATOM      2  C3  UNL d   1       4.268  -1.803   3.783  0.00  0.00     0.006 A 
ATOM      3  C4  UNL d   1       3.503  -1.254   2.751  0.00  0.00     0.002 A 
ATOM      4  C5  UNL d   1       2.107  -1.346   2.777  0.00  0.00    -0.080 A 
ATOM      5  C6  UNL d   1       1.273  -0.733   1.691  0.00  0.00     0.076 C 
ATOM      6  C7  UNL d   1       1.490  -2.018   3.837  0.00  0.00     0.002 A 
ATOM      7  C8  UNL d   1       2.254  -2.569   4.868  0.00  0.00     0.006 A 
ENDROOT
BRANCH   1   8
ATOM      8  C1  UNL d   1       4.468  -2.999   5.999  0.00  0.00     0.054 C 
ATOM      9  C   UNL d   1       5.932  -2.604   5.866  0.00  0.00     0.018 C 
ENDBRANCH   1   8
TORSDOF 1
ENDMDL
