MODEL 1
REMARK minimizedAffinity 10.8232956
REMARK minimizedRMSD -1
REMARK  1 active torsions:
REMARK  status: ('A' for Active; 'I' for Inactive)
REMARK    1  A    between atoms: C1_2  and  C2_3 
ROOT
ATOM      1  C2  UNL d   1      -2.512   1.924  -0.056  0.00  0.00    -0.081 A 
ATOM      2  C3  UNL d   1      -2.760   1.444  -1.348  0.00  0.00     0.006 A 
ATOM      3  C4  UNL d   1      -2.287   0.190  -1.740  0.00  0.00     0.002 A 
ATOM      4  C5  UNL d   1      -1.565  -0.608  -0.846  0.00  0.00    -0.080 A 
ATOM      5  C6  UNL d   1      -1.077  -1.969  -1.245  0.00  0.00     0.076 C 
ATOM      6  C7  UNL d   1      -1.302  -0.122   0.439  0.00  0.00     0.002 A 
ATOM      7  C8  UNL d   1      -1.774   1.133   0.831  0.00  0.00     0.006 A 
ENDROOT
BRANCH   1   8
ATOM      8  C1  UNL d   1      -3.077   3.248   0.391  0.00  0.00     0.054 C 
ATOM      9  C   UNL d   1      -3.946   3.089   1.630  0.00  0.00     0.018 C 
ENDBRANCH   1   8
TORSDOF 1
ENDMDL
