MODEL 1
REMARK minimizedAffinity 11.7310133
REMARK minimizedRMSD -1
REMARK  1 active torsions:
REMARK  status: ('A' for Active; 'I' for Inactive)
REMARK    1  A    between atoms: C1_2  and  C2_3 
ROOT
ATOM      1  C2  UNL d   1       1.600  -1.101   2.820  0.00  0.00    -0.081 A 
ATOM      2  C3  UNL d   1       2.382  -2.025   2.117  0.00  0.00     0.006 A 
ATOM      3  C4  UNL d   1       2.680  -3.270   2.675  0.00  0.00     0.002 A 
ATOM      4  C5  UNL d   1       2.196  -3.615   3.942  0.00  0.00    -0.080 A 
ATOM      5  C6  UNL d   1       2.483  -4.960   4.540  0.00  0.00     0.076 C 
ATOM      6  C7  UNL d   1       1.430  -2.685   4.652  0.00  0.00     0.002 A 
ATOM      7  C8  UNL d   1       1.132  -1.439   4.095  0.00  0.00     0.006 A 
ENDROOT
BRANCH   1   8
ATOM      8  C1  UNL d   1       1.223   0.218   2.194  0.00  0.00     0.054 C 
ATOM      9  C   UNL d   1       0.023   0.068   1.270  0.00  0.00     0.018 C 
ENDBRANCH   1   8
TORSDOF 1
ENDMDL
