MODEL 1
REMARK minimizedAffinity 9.57427311
REMARK minimizedRMSD -1
REMARK  1 active torsions:
REMARK  status: ('A' for Active; 'I' for Inactive)
REMARK    1  A    between atoms: C1_2  and  C2_3 
ROOT
ATOM      1  C2  UNL d   1       3.478  -2.065   4.187  0.00  0.00    -0.081 A 
ATOM      2  C3  UNL d   1       2.285  -2.791   4.097  0.00  0.00     0.006 A 
ATOM      3  C4  UNL d   1       1.250  -2.354   3.267  0.00  0.00     0.002 A 
ATOM      4  C5  UNL d   1       1.395  -1.188   2.507  0.00  0.00    -0.080 A 
ATOM      5  C6  UNL d   1       0.303  -0.724   1.589  0.00  0.00     0.076 C 
ATOM      6  C7  UNL d   1       2.580  -0.452   2.610  0.00  0.00     0.002 A 
ATOM      7  C8  UNL d   1       3.615  -0.889   3.441  0.00  0.00     0.006 A 
ENDROOT
BRANCH   1   8
ATOM      8  C1  UNL d   1       4.621  -2.568   5.032  0.00  0.00     0.054 C 
ATOM      9  C   UNL d   1       5.953  -2.011   4.551  0.00  0.00     0.018 C 
ENDBRANCH   1   8
TORSDOF 1
ENDMDL
