MODEL 1
REMARK minimizedAffinity 5.19369841
REMARK minimizedRMSD -1
REMARK  1 active torsions:
REMARK  status: ('A' for Active; 'I' for Inactive)
REMARK    1  A    between atoms: C1_2  and  C2_3 
ROOT
ATOM      1  C2  UNL d   1       2.985  -1.068   3.448  0.00  0.00    -0.081 A 
ATOM      2  C3  UNL d   1       2.612  -1.700   4.641  0.00  0.00     0.006 A 
ATOM      3  C4  UNL d   1       3.578  -2.289   5.462  0.00  0.00     0.002 A 
ATOM      4  C5  UNL d   1       4.931  -2.247   5.108  0.00  0.00    -0.080 A 
ATOM      5  C6  UNL d   1       5.980  -2.849   5.995  0.00  0.00     0.076 C 
ATOM      6  C7  UNL d   1       5.301  -1.631   3.908  0.00  0.00     0.002 A 
ATOM      7  C8  UNL d   1       4.336  -1.043   3.087  0.00  0.00     0.006 A 
ENDROOT
BRANCH   1   8
ATOM      8  C1  UNL d   1       1.953  -0.376   2.594  0.00  0.00     0.054 C 
ATOM      9  C   UNL d   1       2.532   0.860   1.920  0.00  0.00     0.018 C 
ENDBRANCH   1   8
TORSDOF 1
ENDMDL
