MODEL 1
REMARK minimizedAffinity 6.11237383
REMARK minimizedRMSD -1
REMARK  1 active torsions:
REMARK  status: ('A' for Active; 'I' for Inactive)
REMARK    1  A    between atoms: C1_2  and  C2_3 
ROOT
ATOM      1  C2  UNL d   1       2.188  -0.826   3.157  0.00  0.00    -0.081 A 
ATOM      2  C3  UNL d   1       2.837  -0.060   2.181  0.00  0.00     0.006 A 
ATOM      3  C4  UNL d   1       3.129   1.286   2.416  0.00  0.00     0.002 A 
ATOM      4  C5  UNL d   1       2.785   1.885   3.632  0.00  0.00    -0.080 A 
ATOM      5  C6  UNL d   1       3.119   3.321   3.909  0.00  0.00     0.076 C 
ATOM      6  C7  UNL d   1       2.121   1.124   4.600  0.00  0.00     0.002 A 
ATOM      7  C8  UNL d   1       1.828  -0.221   4.366  0.00  0.00     0.006 A 
ENDROOT
BRANCH   1   8
ATOM      8  C1  UNL d   1       1.930  -2.294   2.932  0.00  0.00     0.054 C 
ATOM      9  C   UNL d   1       1.013  -2.865   4.003  0.00  0.00     0.018 C 
ENDBRANCH   1   8
TORSDOF 1
ENDMDL
