MODEL 1
REMARK minimizedAffinity 10.4830265
REMARK minimizedRMSD -1
REMARK  1 active torsions:
REMARK  status: ('A' for Active; 'I' for Inactive)
REMARK    1  A    between atoms: C1_2  and  C2_3 
ROOT
ATOM      1  C2  UNL d   1       2.869  -1.647   4.021  0.00  0.00    -0.081 A 
ATOM      2  C3  UNL d   1       4.081  -1.024   4.344  0.00  0.00     0.006 A 
ATOM      3  C4  UNL d   1       5.091  -1.736   4.994  0.00  0.00     0.002 A 
ATOM      4  C5  UNL d   1       4.910  -3.083   5.326  0.00  0.00    -0.080 A 
ATOM      5  C6  UNL d   1       5.999  -3.867   5.997  0.00  0.00     0.076 C 
ATOM      6  C7  UNL d   1       3.693  -3.700   5.019  0.00  0.00     0.002 A 
ATOM      7  C8  UNL d   1       2.682  -2.989   4.369  0.00  0.00     0.006 A 
ENDROOT
BRANCH   1   8
ATOM      8  C1  UNL d   1       1.802  -0.900   3.261  0.00  0.00     0.054 C 
ATOM      9  C   UNL d   1       2.214   0.542   3.002  0.00  0.00     0.018 C 
ENDBRANCH   1   8
TORSDOF 1
ENDMDL
