MODEL 1
REMARK minimizedAffinity 10.9770756
REMARK minimizedRMSD -1
REMARK  2 active torsions:
REMARK  status: ('A' for Active; 'I' for Inactive)
REMARK    1  A    between atoms: C1_2  and  C2_3 
REMARK    2  A    between atoms: C2_3  and  C3_4 
ROOT
ATOM      1  C3  UNL d   1      -5.323   3.610  -0.028  0.00  0.00    -0.075 A 
ATOM      2  C4  UNL d   1      -4.059   3.010  -0.114  0.00  0.00     0.002 A 
ATOM      3  C5  UNL d   1      -3.495   2.383   0.998  0.00  0.00     0.002 A 
ATOM      4  C6  UNL d   1      -4.182   2.358   2.210  0.00  0.00    -0.004 A 
ATOM      5  C7  UNL d   1      -5.432   2.966   2.311  0.00  0.00     0.002 A 
ATOM      6  C8  UNL d   1      -6.000   3.590   1.199  0.00  0.00     0.002 A 
ENDROOT
BRANCH   1   7
ATOM      7  C2  UNL d   1      -5.951   4.264  -1.236  0.00  0.00     0.056 C 
BRANCH   7   8
ATOM      8  C1  UNL d   1      -5.999   3.367  -2.477  0.00  0.00     0.007 C 
ATOM      9  C   UNL d   1      -5.999   4.148  -3.784  0.00  0.00     0.009 C 
ENDBRANCH   7   8
ENDBRANCH   1   7
TORSDOF 2
ENDMDL
