MODEL 1
REMARK minimizedAffinity 5.86871338
REMARK minimizedRMSD -1
REMARK  2 active torsions:
REMARK  status: ('A' for Active; 'I' for Inactive)
REMARK    1  A    between atoms: C1_2  and  C2_3 
REMARK    2  A    between atoms: C2_3  and  C3_4 
ROOT
ATOM      1  C3  UNL d   1       1.128   2.240   1.296  0.00  0.00    -0.075 A 
ATOM      2  C4  UNL d   1       1.880   1.127   1.697  0.00  0.00     0.002 A 
ATOM      3  C5  UNL d   1       1.270  -0.117   1.865  0.00  0.00     0.002 A 
ATOM      4  C6  UNL d   1      -0.098  -0.261   1.645  0.00  0.00    -0.004 A 
ATOM      5  C7  UNL d   1      -0.858   0.842   1.262  0.00  0.00     0.002 A 
ATOM      6  C8  UNL d   1      -0.250   2.087   1.089  0.00  0.00     0.002 A 
ENDROOT
BRANCH   1   7
ATOM      7  C2  UNL d   1       1.787   3.582   1.084  0.00  0.00     0.056 C 
BRANCH   7   8
ATOM      8  C1  UNL d   1       1.561   4.174  -0.311  0.00  0.00     0.007 C 
ATOM      9  C   UNL d   1       1.716   5.688  -0.353  0.00  0.00     0.009 C 
ENDBRANCH   7   8
ENDBRANCH   1   7
TORSDOF 2
ENDMDL
