MODEL 1
REMARK minimizedAffinity -0.0857626945
REMARK minimizedRMSD -1
REMARK  2 active torsions:
REMARK  status: ('A' for Active; 'I' for Inactive)
REMARK    1  A    between atoms: C1_2  and  C2_3 
REMARK    2  A    between atoms: C2_3  and  C3_4 
ROOT
ATOM      1  C3  UNL d   1       2.148  -3.024   3.853  0.00  0.00    -0.075 A 
ATOM      2  C4  UNL d   1       1.190  -3.936   4.320  0.00  0.00     0.002 A 
ATOM      3  C5  UNL d   1       1.524  -4.882   5.289  0.00  0.00     0.002 A 
ATOM      4  C6  UNL d   1       2.821  -4.935   5.796  0.00  0.00    -0.004 A 
ATOM      5  C7  UNL d   1       3.785  -4.045   5.329  0.00  0.00     0.002 A 
ATOM      6  C8  UNL d   1       3.452  -3.095   4.362  0.00  0.00     0.002 A 
ENDROOT
BRANCH   1   7
ATOM      7  C2  UNL d   1       1.785  -1.979   2.826  0.00  0.00     0.056 C 
BRANCH   7   8
ATOM      8  C1  UNL d   1       2.607  -0.690   2.929  0.00  0.00     0.007 C 
ATOM      9  C   UNL d   1       2.349   0.280   1.784  0.00  0.00     0.009 C 
ENDBRANCH   7   8
ENDBRANCH   1   7
TORSDOF 2
ENDMDL
