MODEL 1
REMARK minimizedAffinity 7.74870157
REMARK minimizedRMSD -1
REMARK  2 active torsions:
REMARK  status: ('A' for Active; 'I' for Inactive)
REMARK    1  A    between atoms: C1_2  and  C2_3 
REMARK    2  A    between atoms: C2_3  and  C3_4 
ROOT
ATOM      1  C3  UNL d   1       2.582   2.226   1.030  0.00  0.00    -0.075 A 
ATOM      2  C4  UNL d   1       2.404   2.897  -0.188  0.00  0.00     0.002 A 
ATOM      3  C5  UNL d   1       1.933   4.211  -0.211  0.00  0.00     0.002 A 
ATOM      4  C6  UNL d   1       1.625   4.864   0.980  0.00  0.00    -0.004 A 
ATOM      5  C7  UNL d   1       1.782   4.202   2.195  0.00  0.00     0.002 A 
ATOM      6  C8  UNL d   1       2.257   2.889   2.221  0.00  0.00     0.002 A 
ENDROOT
BRANCH   1   7
ATOM      7  C2  UNL d   1       3.119   0.815   1.064  0.00  0.00     0.056 C 
BRANCH   7   8
ATOM      8  C1  UNL d   1       2.092  -0.233   1.506  0.00  0.00     0.007 C 
ATOM      9  C   UNL d   1       2.531  -1.022   2.732  0.00  0.00     0.009 C 
ENDBRANCH   7   8
ENDBRANCH   1   7
TORSDOF 2
ENDMDL
