MODEL 1
REMARK minimizedAffinity 4.93915844
REMARK minimizedRMSD -1
REMARK  2 active torsions:
REMARK  status: ('A' for Active; 'I' for Inactive)
REMARK    1  A    between atoms: C1_2  and  C2_3 
REMARK    2  A    between atoms: C2_3  and  C3_4 
ROOT
ATOM      1  C3  UNL d   1       2.469   0.164   4.679  0.00  0.00    -0.075 A 
ATOM      2  C4  UNL d   1       3.055  -1.066   5.014  0.00  0.00     0.002 A 
ATOM      3  C5  UNL d   1       3.169  -2.078   4.061  0.00  0.00     0.002 A 
ATOM      4  C6  UNL d   1       2.692  -1.879   2.767  0.00  0.00    -0.004 A 
ATOM      5  C7  UNL d   1       2.094  -0.667   2.428  0.00  0.00     0.002 A 
ATOM      6  C8  UNL d   1       1.982   0.349   3.378  0.00  0.00     0.002 A 
ENDROOT
BRANCH   1   7
ATOM      7  C2  UNL d   1       2.369   1.275   5.697  0.00  0.00     0.056 C 
BRANCH   7   8
ATOM      8  C1  UNL d   1       3.121   2.551   5.305  0.00  0.00     0.007 C 
ATOM      9  C   UNL d   1       2.392   3.378   4.255  0.00  0.00     0.009 C 
ENDBRANCH   7   8
ENDBRANCH   1   7
TORSDOF 2
ENDMDL
