MODEL 1
REMARK minimizedAffinity 4.06513596
REMARK minimizedRMSD -1
REMARK  0 active torsions:
REMARK  status: ('A' for Active; 'I' for Inactive)
ROOT
ATOM      1  C4' PXY d   1       4.897   3.352  -5.362  0.00  0.00     0.077 C 
ATOM      2  C1' PXY d   1       5.990  -2.198  -4.169  0.00  0.00     0.077 C 
ATOM      3  C1  PXY d   1       5.700  -0.740  -4.470  0.00  0.00    -0.082 A 
ATOM      4  C2  PXY d   1       5.397  -0.375  -5.705  0.00  0.00     0.003 A 
ATOM      5  C3  PXY d   1       5.163   0.944  -6.000  0.00  0.00     0.003 A 
ATOM      6  C4  PXY d   1       5.188   1.890  -5.011  0.00  0.00    -0.082 A 
ATOM      7  C5  PXY d   1       5.485   1.523  -3.746  0.00  0.00     0.003 A 
ATOM      8  C6  PXY d   1       5.760   0.186  -3.475  0.00  0.00     0.003 A 
ENDROOT
TORSDOF 0
ENDMDL
