MODEL 1
REMARK minimizedAffinity -4.47162867
REMARK minimizedRMSD -1
REMARK  0 active torsions:
REMARK  status: ('A' for Active; 'I' for Inactive)
ROOT
ATOM      1  C4' PXY d   1       5.972   3.697  -5.922  0.00  0.00     0.077 C 
ATOM      2  C1' PXY d   1       5.997  -1.235  -2.907  0.00  0.00     0.077 C 
ATOM      3  C1  PXY d   1       5.985   0.065  -3.687  0.00  0.00    -0.082 A 
ATOM      4  C2  PXY d   1       5.970   0.033  -5.010  0.00  0.00     0.003 A 
ATOM      5  C3  PXY d   1       5.991   1.199  -5.732  0.00  0.00     0.003 A 
ATOM      6  C4  PXY d   1       5.975   2.410  -5.093  0.00  0.00    -0.082 A 
ATOM      7  C5  PXY d   1       5.980   2.450  -3.744  0.00  0.00     0.003 A 
ATOM      8  C6  PXY d   1       6.000   1.256  -3.030  0.00  0.00     0.003 A 
ENDROOT
TORSDOF 0
ENDMDL
