MODEL 1
REMARK minimizedAffinity 11.3001566
REMARK minimizedRMSD -1
REMARK  0 active torsions:
REMARK  status: ('A' for Active; 'I' for Inactive)
ROOT
ATOM      1  C4' PXY d   1       5.993  -0.827  -1.498  0.00  0.00     0.077 C 
ATOM      2  C1' PXY d   1       4.423   2.445  -5.998  0.00  0.00     0.077 C 
ATOM      3  C1  PXY d   1       4.833   1.597  -4.810  0.00  0.00    -0.082 A 
ATOM      4  C2  PXY d   1       5.560   0.509  -5.003  0.00  0.00     0.003 A 
ATOM      5  C3  PXY d   1       5.912  -0.287  -3.943  0.00  0.00     0.003 A 
ATOM      6  C4  PXY d   1       5.563   0.064  -2.667  0.00  0.00    -0.082 A 
ATOM      7  C5  PXY d   1       4.831   1.180  -2.460  0.00  0.00     0.003 A 
ATOM      8  C6  PXY d   1       4.448   1.951  -3.554  0.00  0.00     0.003 A 
ENDROOT
TORSDOF 0
ENDMDL
