MODEL 1
REMARK minimizedAffinity -2.70312691
REMARK minimizedRMSD -1
REMARK  0 active torsions:
REMARK  status: ('A' for Active; 'I' for Inactive)
ROOT
ATOM      1  C4' PXY d   1       5.165   3.715  -5.944  0.00  0.00     0.077 C 
ATOM      2  C1' PXY d   1       5.999  -1.410  -3.404  0.00  0.00     0.077 C 
ATOM      3  C1  PXY d   1       5.772  -0.063  -4.060  0.00  0.00    -0.082 A 
ATOM      4  C2  PXY d   1       5.986   0.076  -5.359  0.00  0.00     0.003 A 
ATOM      5  C3  PXY d   1       5.816   1.296  -5.963  0.00  0.00     0.003 A 
ATOM      6  C4  PXY d   1       5.372   2.371  -5.240  0.00  0.00    -0.082 A 
ATOM      7  C5  PXY d   1       5.142   2.234  -3.917  0.00  0.00     0.003 A 
ATOM      8  C6  PXY d   1       5.360   0.998  -3.315  0.00  0.00     0.003 A 
ENDROOT
TORSDOF 0
ENDMDL
