MODEL 1
REMARK minimizedAffinity 3.66389942
REMARK minimizedRMSD -1
REMARK  0 active torsions:
REMARK  status: ('A' for Active; 'I' for Inactive)
ROOT
ATOM      1  C4' PXY d   1      -4.233   1.668   0.777  0.00  0.00     0.077 C 
ATOM      2  C1' PXY d   1       0.854   4.411   0.672  0.00  0.00     0.077 C 
ATOM      3  C1  PXY d   1      -0.474   3.681   0.704  0.00  0.00    -0.082 A 
ATOM      4  C2  PXY d   1      -1.460   4.082  -0.082  0.00  0.00     0.003 A 
ATOM      5  C3  PXY d   1      -2.678   3.453  -0.043  0.00  0.00     0.003 A 
ATOM      6  C4  PXY d   1      -2.872   2.369   0.771  0.00  0.00    -0.082 A 
ATOM      7  C5  PXY d   1      -1.868   1.947   1.568  0.00  0.00     0.003 A 
ATOM      8  C6  PXY d   1      -0.652   2.625   1.543  0.00  0.00     0.003 A 
ENDROOT
TORSDOF 0
ENDMDL
