MODEL 1
REMARK minimizedAffinity 8.43009758
REMARK minimizedRMSD -1
REMARK  0 active torsions:
REMARK  status: ('A' for Active; 'I' for Inactive)
ROOT
ATOM      1  C4' PXY d   1      -1.663  -1.479   2.632  0.00  0.00     0.077 C 
ATOM      2  C1' PXY d   1       0.007  -3.063  -2.670  0.00  0.00     0.077 C 
ATOM      3  C1  PXY d   1      -0.419  -2.643  -1.277  0.00  0.00    -0.082 A 
ATOM      4  C2  PXY d   1      -1.408  -3.282  -0.675  0.00  0.00     0.003 A 
ATOM      5  C3  PXY d   1      -1.828  -2.894   0.572  0.00  0.00     0.003 A 
ATOM      6  C4  PXY d   1      -1.193  -1.875   1.230  0.00  0.00    -0.082 A 
ATOM      7  C5  PXY d   1      -0.176  -1.225   0.627  0.00  0.00     0.003 A 
ATOM      8  C6  PXY d   1       0.208  -1.607  -0.655  0.00  0.00     0.003 A 
ENDROOT
TORSDOF 0
ENDMDL
