MODEL 1
REMARK minimizedAffinity 4.68723011
REMARK minimizedRMSD -1
REMARK  0 active torsions:
REMARK  status: ('A' for Active; 'I' for Inactive)
ROOT
ATOM      1  C4' PXY d   1       2.585  -4.306  -4.187  0.00  0.00     0.077 C 
ATOM      2  C1' PXY d   1      -1.867  -3.513  -0.586  0.00  0.00     0.077 C 
ATOM      3  C1  PXY d   1      -0.692  -3.719  -1.521  0.00  0.00    -0.082 A 
ATOM      4  C2  PXY d   1      -0.851  -3.541  -2.822  0.00  0.00     0.003 A 
ATOM      5  C3  PXY d   1       0.193  -3.754  -3.685  0.00  0.00     0.003 A 
ATOM      6  C4  PXY d   1       1.428  -4.101  -3.205  0.00  0.00    -0.082 A 
ATOM      7  C5  PXY d   1       1.602  -4.273  -1.878  0.00  0.00     0.003 A 
ATOM      8  C6  PXY d   1       0.518  -4.093  -1.023  0.00  0.00     0.003 A 
ENDROOT
TORSDOF 0
ENDMDL
