MODEL 1
REMARK minimizedAffinity 11.8045549
REMARK minimizedRMSD -1
REMARK  0 active torsions:
REMARK  status: ('A' for Active; 'I' for Inactive)
ROOT
ATOM      1  C4' PXY d   1      -2.001  -2.367   2.087  0.00  0.00     0.077 C 
ATOM      2  C1' PXY d   1      -0.031  -3.661  -3.192  0.00  0.00     0.077 C 
ATOM      3  C1  PXY d   1      -0.537  -3.315  -1.805  0.00  0.00    -0.082 A 
ATOM      4  C2  PXY d   1      -1.428  -4.098  -1.220  0.00  0.00     0.003 A 
ATOM      5  C3  PXY d   1      -1.920  -3.782   0.021  0.00  0.00     0.003 A 
ATOM      6  C4  PXY d   1      -1.455  -2.683   0.691  0.00  0.00    -0.082 A 
ATOM      7  C5  PXY d   1      -0.538  -1.885   0.105  0.00  0.00     0.003 A 
ATOM      8  C6  PXY d   1      -0.082  -2.200  -1.172  0.00  0.00     0.003 A 
ENDROOT
TORSDOF 0
ENDMDL
