MODEL 1
REMARK minimizedAffinity 1.68996859
REMARK minimizedRMSD -1
REMARK  0 active torsions:
REMARK  status: ('A' for Active; 'I' for Inactive)
ROOT
ATOM      1  C4' PXY d   1      -0.840  -4.855  -2.434  0.00  0.00     0.077 C 
ATOM      2  C1' PXY d   1       3.568  -5.982  -5.999  0.00  0.00     0.077 C 
ATOM      3  C1  PXY d   1       2.404  -5.686  -5.074  0.00  0.00    -0.082 A 
ATOM      4  C2  PXY d   1       2.630  -5.130  -3.895  0.00  0.00     0.003 A 
ATOM      5  C3  PXY d   1       1.593  -4.885  -3.033  0.00  0.00     0.003 A 
ATOM      6  C4  PXY d   1       0.304  -5.163  -3.404  0.00  0.00    -0.082 A 
ATOM      7  C5  PXY d   1       0.064  -5.721  -4.610  0.00  0.00     0.003 A 
ATOM      8  C6  PXY d   1       1.135  -6.000  -5.453  0.00  0.00     0.003 A 
ENDROOT
TORSDOF 0
ENDMDL
