MODEL 1
REMARK minimizedAffinity 9.63252831
REMARK minimizedRMSD -1
REMARK  0 active torsions:
REMARK  status: ('A' for Active; 'I' for Inactive)
ROOT
ATOM      1  C4' PXY d   1      -2.088  -2.026   2.528  0.00  0.00     0.077 C 
ATOM      2  C1' PXY d   1      -0.119  -3.338  -2.746  0.00  0.00     0.077 C 
ATOM      3  C1  PXY d   1      -0.624  -2.990  -1.359  0.00  0.00    -0.082 A 
ATOM      4  C2  PXY d   1      -1.699  -3.596  -0.883  0.00  0.00     0.003 A 
ATOM      5  C3  PXY d   1      -2.187  -3.271   0.356  0.00  0.00     0.003 A 
ATOM      6  C4  PXY d   1      -1.538  -2.353   1.138  0.00  0.00    -0.082 A 
ATOM      7  C5  PXY d   1      -0.434  -1.737   0.663  0.00  0.00     0.003 A 
ATOM      8  C6  PXY d   1       0.022  -2.052  -0.614  0.00  0.00     0.003 A 
ENDROOT
TORSDOF 0
ENDMDL
