MODEL 1
REMARK minimizedAffinity 5.03273726
REMARK minimizedRMSD -1
REMARK  0 active torsions:
REMARK  status: ('A' for Active; 'I' for Inactive)
ROOT
ATOM      1  C4' PXY d   1       3.249   1.806   2.223  0.00  0.00     0.077 C 
ATOM      2  C1' PXY d   1      -2.285   3.077   1.135  0.00  0.00     0.077 C 
ATOM      3  C1  PXY d   1      -0.831   2.746   1.408  0.00  0.00    -0.082 A 
ATOM      4  C2  PXY d   1      -0.520   1.939   2.409  0.00  0.00     0.003 A 
ATOM      5  C3  PXY d   1       0.792   1.655   2.690  0.00  0.00     0.003 A 
ATOM      6  C4  PXY d   1       1.793   2.160   1.905  0.00  0.00    -0.082 A 
ATOM      7  C5  PXY d   1       1.484   2.976   0.875  0.00  0.00     0.003 A 
ATOM      8  C6  PXY d   1       0.148   3.285   0.632  0.00  0.00     0.003 A 
ENDROOT
TORSDOF 0
ENDMDL
