MODEL 1
REMARK minimizedAffinity 7.56514931
REMARK minimizedRMSD -1
REMARK  0 active torsions:
REMARK  status: ('A' for Active; 'I' for Inactive)
ROOT
ATOM      1  C4' PXY d   1       0.236  -0.145   0.729  0.00  0.00     0.077 C 
ATOM      2  C1' PXY d   1      -1.796  -4.852  -1.940  0.00  0.00     0.077 C 
ATOM      3  C1  PXY d   1      -1.271  -3.620  -1.230  0.00  0.00    -0.082 A 
ATOM      4  C2  PXY d   1      -0.769  -2.621  -1.937  0.00  0.00     0.003 A 
ATOM      5  C3  PXY d   1      -0.261  -1.513  -1.310  0.00  0.00     0.003 A 
ATOM      6  C4  PXY d   1      -0.314  -1.404   0.054  0.00  0.00    -0.082 A 
ATOM      7  C5  PXY d   1      -0.834  -2.414   0.783  0.00  0.00     0.003 A 
ATOM      8  C6  PXY d   1      -1.308  -3.548   0.129  0.00  0.00     0.003 A 
ENDROOT
TORSDOF 0
ENDMDL
