MODEL 1
REMARK minimizedAffinity 4.34574604
REMARK minimizedRMSD -1
REMARK  0 active torsions:
REMARK  status: ('A' for Active; 'I' for Inactive)
ROOT
ATOM      1  C4' PXY d   1      -1.811  -0.945   2.655  0.00  0.00     0.077 C 
ATOM      2  C1' PXY d   1      -0.344  -3.192  -2.466  0.00  0.00     0.077 C 
ATOM      3  C1  PXY d   1      -0.741  -2.608  -1.124  0.00  0.00    -0.082 A 
ATOM      4  C2  PXY d   1      -0.063  -1.584  -0.631  0.00  0.00     0.003 A 
ATOM      5  C3  PXY d   1      -0.388  -1.064   0.596  0.00  0.00     0.003 A 
ATOM      6  C4  PXY d   1      -1.451  -1.562   1.300  0.00  0.00    -0.082 A 
ATOM      7  C5  PXY d   1      -2.155  -2.599   0.798  0.00  0.00     0.003 A 
ATOM      8  C6  PXY d   1      -1.783  -3.139  -0.430  0.00  0.00     0.003 A 
ENDROOT
TORSDOF 0
ENDMDL
