MODEL 1
REMARK minimizedAffinity 6.26875687
REMARK minimizedRMSD -1
REMARK  0 active torsions:
REMARK  status: ('A' for Active; 'I' for Inactive)
ROOT
ATOM      1  C4' PXY d   1      -1.540   4.000  -1.000  0.00  0.00     0.077 C 
ATOM      2  C1' PXY d   1      -0.812   1.518   4.170  0.00  0.00     0.077 C 
ATOM      3  C1  PXY d   1      -0.990   2.169   2.813  0.00  0.00    -0.082 A 
ATOM      4  C2  PXY d   1      -2.097   2.846   2.552  0.00  0.00     0.003 A 
ATOM      5  C3  PXY d   1      -2.288   3.414   1.319  0.00  0.00     0.003 A 
ATOM      6  C4  PXY d   1      -1.313   3.334   0.360  0.00  0.00    -0.082 A 
ATOM      7  C5  PXY d   1      -0.177   2.654   0.622  0.00  0.00     0.003 A 
ATOM      8  C6  PXY d   1      -0.020   2.050   1.866  0.00  0.00     0.003 A 
ENDROOT
TORSDOF 0
ENDMDL
