MODEL 1
REMARK minimizedAffinity 15.2540722
REMARK minimizedRMSD -1
REMARK  0 active torsions:
REMARK  status: ('A' for Active; 'I' for Inactive)
ROOT
ATOM      1  C4' PXY d   1      -2.314   3.756   0.972  0.00  0.00     0.077 C 
ATOM      2  C1' PXY d   1       2.641   0.809   1.392  0.00  0.00     0.077 C 
ATOM      3  C1  PXY d   1       1.335   1.570   1.283  0.00  0.00    -0.082 A 
ATOM      4  C2  PXY d   1       1.321   2.768   0.721  0.00  0.00     0.003 A 
ATOM      5  C3  PXY d   1       0.154   3.485   0.643  0.00  0.00     0.003 A 
ATOM      6  C4  PXY d   1      -1.020   2.947   1.096  0.00  0.00    -0.082 A 
ATOM      7  C5  PXY d   1      -1.017   1.720   1.660  0.00  0.00     0.003 A 
ATOM      8  C6  PXY d   1       0.185   1.027   1.768  0.00  0.00     0.003 A 
ENDROOT
TORSDOF 0
ENDMDL
