MODEL 1
REMARK minimizedAffinity 9.3187933
REMARK minimizedRMSD -1
REMARK  0 active torsions:
REMARK  status: ('A' for Active; 'I' for Inactive)
ROOT
ATOM      1  C4' PXY d   1       4.324  -5.944  -0.795  0.00  0.00     0.077 C 
ATOM      2  C1' PXY d   1       2.026  -4.923  -6.000  0.00  0.00     0.077 C 
ATOM      3  C1  PXY d   1       2.637  -5.200  -4.640  0.00  0.00    -0.082 A 
ATOM      4  C2  PXY d   1       1.954  -4.909  -3.545  0.00  0.00     0.003 A 
ATOM      5  C3  PXY d   1       2.503  -5.123  -2.307  0.00  0.00     0.003 A 
ATOM      6  C4  PXY d   1       3.744  -5.690  -2.189  0.00  0.00    -0.082 A 
ATOM      7  C5  PXY d   1       4.443  -6.000  -3.301  0.00  0.00     0.003 A 
ATOM      8  C6  PXY d   1       3.884  -5.737  -4.549  0.00  0.00     0.003 A 
ENDROOT
TORSDOF 0
ENDMDL
