MODEL 1
REMARK minimizedAffinity -1.9316467
REMARK minimizedRMSD -1
REMARK  0 active torsions:
REMARK  status: ('A' for Active; 'I' for Inactive)
ROOT
ATOM      1  C4' PXY d   1       4.786  -0.025  -5.182  0.00  0.00     0.077 C 
ATOM      2  C1' PXY d   1       4.987   5.700  -5.956  0.00  0.00     0.077 C 
ATOM      3  C1  PXY d   1       4.921   4.199  -5.752  0.00  0.00    -0.082 A 
ATOM      4  C2  PXY d   1       5.998   3.547  -5.343  0.00  0.00     0.003 A 
ATOM      5  C3  PXY d   1       5.965   2.185  -5.183  0.00  0.00     0.003 A 
ATOM      6  C4  PXY d   1       4.803   1.491  -5.393  0.00  0.00    -0.082 A 
ATOM      7  C5  PXY d   1       3.698   2.151  -5.801  0.00  0.00     0.003 A 
ATOM      8  C6  PXY d   1       3.764   3.527  -5.996  0.00  0.00     0.003 A 
ENDROOT
TORSDOF 0
ENDMDL
