MODEL 1
REMARK minimizedAffinity 7.97907782
REMARK minimizedRMSD -1
REMARK  0 active torsions:
REMARK  status: ('A' for Active; 'I' for Inactive)
ROOT
ATOM      1  C4' PXY d   1      -5.051   2.311   0.456  0.00  0.00     0.077 C 
ATOM      2  C1' PXY d   1      -2.323   4.570  -4.113  0.00  0.00     0.077 C 
ATOM      3  C1  PXY d   1      -3.028   3.980  -2.907  0.00  0.00    -0.082 A 
ATOM      4  C2  PXY d   1      -4.000   3.099  -3.084  0.00  0.00     0.003 A 
ATOM      5  C3  PXY d   1      -4.669   2.580  -2.006  0.00  0.00     0.003 A 
ATOM      6  C4  PXY d   1      -4.305   2.926  -0.732  0.00  0.00    -0.082 A 
ATOM      7  C5  PXY d   1      -3.307   3.815  -0.543  0.00  0.00     0.003 A 
ATOM      8  C6  PXY d   1      -2.668   4.362  -1.652  0.00  0.00     0.003 A 
ENDROOT
TORSDOF 0
ENDMDL
