MODEL 1
REMARK minimizedAffinity 9.22224236
REMARK minimizedRMSD -1
REMARK  0 active torsions:
REMARK  status: ('A' for Active; 'I' for Inactive)
ROOT
ATOM      1  C4' PXY d   1      -0.957  -2.860  -1.586  0.00  0.00     0.077 C 
ATOM      2  C1' PXY d   1       1.030   1.923   0.980  0.00  0.00     0.077 C 
ATOM      3  C1  PXY d   1       0.504   0.676   0.297  0.00  0.00    -0.082 A 
ATOM      4  C2  PXY d   1       0.210  -0.392   1.022  0.00  0.00     0.003 A 
ATOM      5  C3  PXY d   1      -0.236  -1.539   0.417  0.00  0.00     0.003 A 
ATOM      6  C4  PXY d   1      -0.433  -1.576  -0.938  0.00  0.00    -0.082 A 
ATOM      7  C5  PXY d   1      -0.145  -0.488  -1.682  0.00  0.00     0.003 A 
ATOM      8  C6  PXY d   1       0.346   0.653  -1.054  0.00  0.00     0.003 A 
ENDROOT
TORSDOF 0
ENDMDL
