MODEL 1
REMARK minimizedAffinity -2.28770065
REMARK minimizedRMSD -1
REMARK  0 active torsions:
REMARK  status: ('A' for Active; 'I' for Inactive)
ROOT
ATOM      1  C4' PXY d   1       5.911   0.355  -5.215  0.00  0.00     0.077 C 
ATOM      2  C1' PXY d   1       3.522   5.560  -5.999  0.00  0.00     0.077 C 
ATOM      3  C1  PXY d   1       4.137   4.190  -5.791  0.00  0.00    -0.082 A 
ATOM      4  C2  PXY d   1       5.402   4.091  -5.416  0.00  0.00     0.003 A 
ATOM      5  C3  PXY d   1       5.983   2.859  -5.254  0.00  0.00     0.003 A 
ATOM      6  C4  PXY d   1       5.246   1.718  -5.427  0.00  0.00    -0.082 A 
ATOM      7  C5  PXY d   1       3.952   1.811  -5.800  0.00  0.00     0.003 A 
ATOM      8  C6  PXY d   1       3.393   3.070  -5.999  0.00  0.00     0.003 A 
ENDROOT
TORSDOF 0
ENDMDL
