MODEL 1
REMARK minimizedAffinity -3.36814094
REMARK minimizedRMSD -1
REMARK  0 active torsions:
REMARK  status: ('A' for Active; 'I' for Inactive)
ROOT
ATOM      1  C1  DEN d   1      -0.249  -0.013  -1.590  0.00  0.00     0.130 A 
ATOM      2  C2  DEN d   1       0.684  -1.038  -1.130  0.00  0.00    -0.031 A 
ATOM      3  C3  DEN d   1       0.922  -0.825   0.312  0.00  0.00     0.027 A 
ATOM      4  C4  DEN d   1      -0.060   0.980   1.869  0.00  0.00     0.027 A 
ATOM      5  C5  DEN d   1      -0.889   2.079   1.932  0.00  0.00    -0.003 A 
ATOM      6  C6  DEN d   1      -1.530   2.574   0.828  0.00  0.00     0.001 A 
ATOM      7  C7  DEN d   1      -1.389   1.941  -0.379  0.00  0.00     0.017 A 
ATOM      8  C8  DEN d   1      -0.549   0.838  -0.452  0.00  0.00    -0.094 A 
ATOM      9  C9  DEN d   1       0.081   0.345   0.678  0.00  0.00    -0.072 A 
ENDROOT
TORSDOF 0
ENDMDL
