MODEL 1
REMARK minimizedAffinity -5.75931072
REMARK minimizedRMSD -1
REMARK  0 active torsions:
REMARK  status: ('A' for Active; 'I' for Inactive)
ROOT
ATOM      1  C1  DEN d   1      -1.235   2.045   0.286  0.00  0.00     0.130 A 
ATOM      2  C2  DEN d   1      -1.147   2.519   1.664  0.00  0.00    -0.031 A 
ATOM      3  C3  DEN d   1      -0.418   1.504   2.450  0.00  0.00     0.027 A 
ATOM      4  C4  DEN d   1       0.583  -0.742   1.669  0.00  0.00     0.027 A 
ATOM      5  C5  DEN d   1       0.749  -1.582   0.590  0.00  0.00    -0.003 A 
ATOM      6  C6  DEN d   1       0.240  -1.290  -0.648  0.00  0.00     0.001 A 
ATOM      7  C7  DEN d   1      -0.421  -0.107  -0.848  0.00  0.00     0.017 A 
ATOM      8  C8  DEN d   1      -0.599   0.741   0.236  0.00  0.00    -0.094 A 
ATOM      9  C9  DEN d   1      -0.067   0.434   1.477  0.00  0.00    -0.072 A 
ENDROOT
TORSDOF 0
ENDMDL
