MODEL 1
REMARK minimizedAffinity -0.505230606
REMARK minimizedRMSD -1
REMARK  0 active torsions:
REMARK  status: ('A' for Active; 'I' for Inactive)
ROOT
ATOM      1  C1  DEN d   1      -2.233   2.006   1.313  0.00  0.00     0.130 A 
ATOM      2  C2  DEN d   1      -1.542   2.447   2.522  0.00  0.00    -0.031 A 
ATOM      3  C3  DEN d   1      -0.194   1.845   2.522  0.00  0.00     0.027 A 
ATOM      4  C4  DEN d   1       0.888   0.287   0.775  0.00  0.00     0.027 A 
ATOM      5  C5  DEN d   1       0.688  -0.375  -0.416  0.00  0.00    -0.003 A 
ATOM      6  C6  DEN d   1      -0.502  -0.317  -1.092  0.00  0.00     0.001 A 
ATOM      7  C7  DEN d   1      -1.523   0.455  -0.604  0.00  0.00     0.017 A 
ATOM      8  C8  DEN d   1      -1.331   1.119   0.600  0.00  0.00    -0.094 A 
ATOM      9  C9  DEN d   1      -0.116   1.058   1.262  0.00  0.00    -0.072 A 
ENDROOT
TORSDOF 0
ENDMDL
