MODEL 1
REMARK minimizedAffinity 2.01776075
REMARK minimizedRMSD -1
REMARK  0 active torsions:
REMARK  status: ('A' for Active; 'I' for Inactive)
ROOT
ATOM      1  C1  BNZ d   1       1.862   0.229  -1.200  0.00  0.00     0.000 A 
ATOM      2  C2  BNZ d   1       1.705  -0.683  -0.190  0.00  0.00     0.000 A 
ATOM      3  C3  BNZ d   1       1.924  -0.330   1.112  0.00  0.00     0.000 A 
ATOM      4  C4  BNZ d   1       2.338   0.921   1.400  0.00  0.00     0.000 A 
ATOM      5  C5  BNZ d   1       2.510   1.849   0.392  0.00  0.00     0.000 A 
ATOM      6  C6  BNZ d   1       2.251   1.502  -0.914  0.00  0.00     0.000 A 
ENDROOT
TORSDOF 0
ENDMDL
