MODEL 1
REMARK minimizedAffinity 2.03348112
REMARK minimizedRMSD -1
REMARK  0 active torsions:
REMARK  status: ('A' for Active; 'I' for Inactive)
ROOT
ATOM      1  C1  BNZ d   1       2.887   0.003   3.008  0.00  0.00     0.000 A 
ATOM      2  C2  BNZ d   1       1.813   0.666   3.540  0.00  0.00     0.000 A 
ATOM      3  C3  BNZ d   1       0.626   0.730   2.865  0.00  0.00     0.000 A 
ATOM      4  C4  BNZ d   1       0.526   0.166   1.644  0.00  0.00     0.000 A 
ATOM      5  C5  BNZ d   1       1.603  -0.498   1.091  0.00  0.00     0.000 A 
ATOM      6  C6  BNZ d   1       2.784  -0.594   1.790  0.00  0.00     0.000 A 
ENDROOT
TORSDOF 0
ENDMDL
