MODEL 1
REMARK minimizedAffinity 4.89559317
REMARK minimizedRMSD -1
REMARK  0 active torsions:
REMARK  status: ('A' for Active; 'I' for Inactive)
ROOT
ATOM      1  C1  BNZ d   1       1.260   1.109   3.044  0.00  0.00     0.000 A 
ATOM      2  C2  BNZ d   1       2.075   0.298   2.300  0.00  0.00     0.000 A 
ATOM      3  C3  BNZ d   1       1.561  -0.490   1.309  0.00  0.00     0.000 A 
ATOM      4  C4  BNZ d   1       0.230  -0.497   1.089  0.00  0.00     0.000 A 
ATOM      5  C5  BNZ d   1      -0.606   0.309   1.838  0.00  0.00     0.000 A 
ATOM      6  C6  BNZ d   1      -0.080   1.130   2.809  0.00  0.00     0.000 A 
ENDROOT
TORSDOF 0
ENDMDL
