MODEL 1
REMARK minimizedAffinity 6.29577684
REMARK minimizedRMSD -1
REMARK  0 active torsions:
REMARK  status: ('A' for Active; 'I' for Inactive)
ROOT
ATOM      1  C1  BNZ d   1       0.825  -1.507   2.045  0.00  0.00     0.000 A 
ATOM      2  C2  BNZ d   1       0.699  -0.263   1.485  0.00  0.00     0.000 A 
ATOM      3  C3  BNZ d   1       0.534   0.844   2.270  0.00  0.00     0.000 A 
ATOM      4  C4  BNZ d   1       0.454   0.702   3.609  0.00  0.00     0.000 A 
ATOM      5  C5  BNZ d   1       0.569  -0.547   4.187  0.00  0.00     0.000 A 
ATOM      6  C6  BNZ d   1       0.775  -1.654   3.396  0.00  0.00     0.000 A 
ENDROOT
TORSDOF 0
ENDMDL
