MODEL 1
REMARK minimizedAffinity 2.14969444
REMARK minimizedRMSD -1
REMARK  0 active torsions:
REMARK  status: ('A' for Active; 'I' for Inactive)
ROOT
ATOM      1  C1  BNZ d   1      -0.187  -3.119  -4.632  0.00  0.00     0.000 A 
ATOM      2  C2  BNZ d   1       0.129  -4.403  -4.273  0.00  0.00     0.000 A 
ATOM      3  C3  BNZ d   1      -0.210  -4.889  -3.041  0.00  0.00     0.000 A 
ATOM      4  C4  BNZ d   1      -0.826  -4.080  -2.156  0.00  0.00     0.000 A 
ATOM      5  C5  BNZ d   1      -1.143  -2.780  -2.499  0.00  0.00     0.000 A 
ATOM      6  C6  BNZ d   1      -0.835  -2.307  -3.754  0.00  0.00     0.000 A 
ENDROOT
TORSDOF 0
ENDMDL
