MODEL 1
REMARK minimizedAffinity 6.3829298
REMARK minimizedRMSD -1
REMARK  0 active torsions:
REMARK  status: ('A' for Active; 'I' for Inactive)
ROOT
ATOM      1  C1  BNZ d   1      -2.151  -3.106  -3.106  0.00  0.00     0.000 A 
ATOM      2  C2  BNZ d   1      -1.610  -4.364  -3.078  0.00  0.00     0.000 A 
ATOM      3  C3  BNZ d   1      -1.873  -5.261  -4.075  0.00  0.00     0.000 A 
ATOM      4  C4  BNZ d   1      -2.707  -4.914  -5.077  0.00  0.00     0.000 A 
ATOM      5  C5  BNZ d   1      -3.267  -3.653  -5.114  0.00  0.00     0.000 A 
ATOM      6  C6  BNZ d   1      -2.969  -2.739  -4.129  0.00  0.00     0.000 A 
ENDROOT
TORSDOF 0
ENDMDL
