MODEL 1
REMARK minimizedAffinity 1.52704227
REMARK minimizedRMSD -1
REMARK  0 active torsions:
REMARK  status: ('A' for Active; 'I' for Inactive)
ROOT
ATOM      1  C1  BNZ d   1       2.213   2.246   0.516  0.00  0.00     0.000 A 
ATOM      2  C2  BNZ d   1       1.961   1.081   1.190  0.00  0.00     0.000 A 
ATOM      3  C3  BNZ d   1       1.705  -0.078   0.513  0.00  0.00     0.000 A 
ATOM      4  C4  BNZ d   1       1.662  -0.063  -0.835  0.00  0.00     0.000 A 
ATOM      5  C5  BNZ d   1       1.905   1.106  -1.529  0.00  0.00     0.000 A 
ATOM      6  C6  BNZ d   1       2.200   2.262  -0.845  0.00  0.00     0.000 A 
ENDROOT
TORSDOF 0
ENDMDL
