MODEL 1
REMARK minimizedAffinity 2.88703346
REMARK minimizedRMSD -1
REMARK  0 active torsions:
REMARK  status: ('A' for Active; 'I' for Inactive)
ROOT
ATOM      1  C1  BNZ d   1      -1.267  -5.432  -4.034  0.00  0.00     0.000 A 
ATOM      2  C2  BNZ d   1      -1.855  -4.472  -4.815  0.00  0.00     0.000 A 
ATOM      3  C3  BNZ d   1      -2.020  -3.197  -4.351  0.00  0.00     0.000 A 
ATOM      4  C4  BNZ d   1      -1.636  -2.894  -3.095  0.00  0.00     0.000 A 
ATOM      5  C5  BNZ d   1      -1.051  -3.852  -2.292  0.00  0.00     0.000 A 
ATOM      6  C6  BNZ d   1      -0.850  -5.125  -2.776  0.00  0.00     0.000 A 
ENDROOT
TORSDOF 0
ENDMDL
