MODEL 1
REMARK minimizedAffinity 7.99528885
REMARK minimizedRMSD -1
REMARK  0 active torsions:
REMARK  status: ('A' for Active; 'I' for Inactive)
ROOT
ATOM      1  C1  BNZ d   1       0.389  -5.529  -3.623  0.00  0.00     0.000 A 
ATOM      2  C2  BNZ d   1       0.335  -5.481  -4.991  0.00  0.00     0.000 A 
ATOM      3  C3  BNZ d   1      -0.860  -5.347  -5.640  0.00  0.00     0.000 A 
ATOM      4  C4  BNZ d   1      -2.002  -5.301  -4.923  0.00  0.00     0.000 A 
ATOM      5  C5  BNZ d   1      -1.965  -5.358  -3.544  0.00  0.00     0.000 A 
ATOM      6  C6  BNZ d   1      -0.757  -5.454  -2.893  0.00  0.00     0.000 A 
ENDROOT
TORSDOF 0
ENDMDL
