MODEL 1
REMARK minimizedAffinity -0.288473159
REMARK minimizedRMSD -1
REMARK  0 active torsions:
REMARK  status: ('A' for Active; 'I' for Inactive)
ROOT
ATOM      1  C   UNL d   1      -0.237  -0.718   0.733  0.00  0.00     0.023 A 
ATOM      2  C1  UNL d   1      -0.734  -1.989   0.448  0.00  0.00     0.003 A 
ATOM      3  C2  UNL d   1       0.143  -3.063   0.281  0.00  0.00     0.048 A 
ATOM      4  C3  UNL d   1       1.517  -2.858   0.402  0.00  0.00     0.023 A 
ATOM      5  C4  UNL d   1       2.020  -1.587   0.688  0.00  0.00     0.048 A 
ATOM      6  C5  UNL d   1       1.139  -0.517   0.853  0.00  0.00     0.003 A 
ATOM      7  I   UNL d   1       2.825  -4.454   0.154  0.00  0.00    -0.146 I 
ENDROOT
TORSDOF 0
ENDMDL
