MODEL 1
REMARK minimizedAffinity -2.07491708
REMARK minimizedRMSD -1
REMARK  0 active torsions:
REMARK  status: ('A' for Active; 'I' for Inactive)
ROOT
ATOM      1  C   UNL d   1       0.027  -0.845   0.754  0.00  0.00     0.023 A 
ATOM      2  C1  UNL d   1       1.320  -0.421   0.450  0.00  0.00     0.003 A 
ATOM      3  C2  UNL d   1       2.305  -1.356   0.123  0.00  0.00     0.048 A 
ATOM      4  C3  UNL d   1       1.989  -2.714   0.102  0.00  0.00     0.023 A 
ATOM      5  C4  UNL d   1       0.696  -3.143   0.404  0.00  0.00     0.048 A 
ATOM      6  C5  UNL d   1      -0.285  -2.205   0.731  0.00  0.00     0.003 A 
ATOM      7  I   UNL d   1       3.452  -4.107  -0.385  0.00  0.00    -0.146 I 
ENDROOT
TORSDOF 0
ENDMDL
