MODEL 1
REMARK minimizedAffinity -4.82030249
REMARK minimizedRMSD -1
REMARK  0 active torsions:
REMARK  status: ('A' for Active; 'I' for Inactive)
ROOT
ATOM      1  C   UNL d   1       0.022  -0.697   0.691  0.00  0.00     0.023 A 
ATOM      2  C1  UNL d   1       1.386  -0.443   0.832  0.00  0.00     0.003 A 
ATOM      3  C2  UNL d   1       2.312  -1.474   0.657  0.00  0.00     0.048 A 
ATOM      4  C3  UNL d   1       1.866  -2.756   0.339  0.00  0.00     0.023 A 
ATOM      5  C4  UNL d   1       0.502  -3.015   0.196  0.00  0.00     0.048 A 
ATOM      6  C5  UNL d   1      -0.420  -1.981   0.373  0.00  0.00     0.003 A 
ATOM      7  I   UNL d   1       3.241  -4.292   0.078  0.00  0.00    -0.146 I 
ENDROOT
TORSDOF 0
ENDMDL
