MODEL 1
REMARK minimizedAffinity 8.89177418
REMARK minimizedRMSD -1
REMARK  0 active torsions:
REMARK  status: ('A' for Active; 'I' for Inactive)
ROOT
ATOM      1  C   UNL d   1       0.089  -0.034   1.570  0.00  0.00     0.023 A 
ATOM      2  C1  UNL d   1      -1.050  -0.345   0.826  0.00  0.00     0.003 A 
ATOM      3  C2  UNL d   1      -1.043  -1.440  -0.040  0.00  0.00     0.048 A 
ATOM      4  C3  UNL d   1       0.106  -2.222  -0.155  0.00  0.00     0.023 A 
ATOM      5  C4  UNL d   1       1.247  -1.916   0.588  0.00  0.00     0.048 A 
ATOM      6  C5  UNL d   1       1.236  -0.819   1.451  0.00  0.00     0.003 A 
ATOM      7  I   UNL d   1       0.119  -3.854  -1.442  0.00  0.00    -0.146 I 
ENDROOT
TORSDOF 0
ENDMDL
