MODEL 1
REMARK minimizedAffinity -0.973608017
REMARK minimizedRMSD -1
REMARK  0 active torsions:
REMARK  status: ('A' for Active; 'I' for Inactive)
ROOT
ATOM      1  C   UNL d   1       0.289  -1.148   0.456  0.00  0.00     0.023 A 
ATOM      2  C1  UNL d   1       1.642  -0.813   0.422  0.00  0.00     0.003 A 
ATOM      3  C2  UNL d   1       2.606  -1.810   0.255  0.00  0.00     0.048 A 
ATOM      4  C3  UNL d   1       2.209  -3.140   0.122  0.00  0.00     0.023 A 
ATOM      5  C4  UNL d   1       0.856  -3.480   0.154  0.00  0.00     0.048 A 
ATOM      6  C5  UNL d   1      -0.104  -2.480   0.322  0.00  0.00     0.003 A 
ATOM      7  I   UNL d   1       3.642  -4.625  -0.126  0.00  0.00    -0.146 I 
ENDROOT
TORSDOF 0
ENDMDL
