MODEL 1
REMARK minimizedAffinity 1.48613834
REMARK minimizedRMSD -1
REMARK  0 active torsions:
REMARK  status: ('A' for Active; 'I' for Inactive)
ROOT
ATOM      1  C   UNL d   1       2.019  -2.529   0.568  0.00  0.00     0.023 A 
ATOM      2  C1  UNL d   1       0.745  -3.094   0.497  0.00  0.00     0.003 A 
ATOM      3  C2  UNL d   1      -0.382  -2.311   0.752  0.00  0.00     0.048 A 
ATOM      4  C3  UNL d   1      -0.229  -0.963   1.077  0.00  0.00     0.023 A 
ATOM      5  C4  UNL d   1       1.043  -0.394   1.148  0.00  0.00     0.048 A 
ATOM      6  C5  UNL d   1       2.168  -1.181   0.893  0.00  0.00     0.003 A 
ATOM      7  I   UNL d   1      -1.906   0.204   1.457  0.00  0.00    -0.146 I 
ENDROOT
TORSDOF 0
ENDMDL
