MODEL 1
REMARK minimizedAffinity 0.296657741
REMARK minimizedRMSD -1
REMARK  0 active torsions:
REMARK  status: ('A' for Active; 'I' for Inactive)
ROOT
ATOM      1  C   UNL d   1      -0.130  -0.141   1.193  0.00  0.00     0.023 A 
ATOM      2  C1  UNL d   1       1.182  -0.114   0.720  0.00  0.00     0.003 A 
ATOM      3  C2  UNL d   1       1.786  -1.289   0.267  0.00  0.00     0.048 A 
ATOM      4  C3  UNL d   1       1.073  -2.487   0.290  0.00  0.00     0.023 A 
ATOM      5  C4  UNL d   1      -0.241  -2.518   0.761  0.00  0.00     0.048 A 
ATOM      6  C5  UNL d   1      -0.841  -1.342   1.214  0.00  0.00     0.003 A 
ATOM      7  I   UNL d   1       1.970  -4.236  -0.383  0.00  0.00    -0.146 I 
ENDROOT
TORSDOF 0
ENDMDL
