MODEL 1
REMARK minimizedAffinity -4.53206444
REMARK minimizedRMSD -1
REMARK  0 active torsions:
REMARK  status: ('A' for Active; 'I' for Inactive)
ROOT
ATOM      1  C   UNL d   1       0.087  -0.843   0.785  0.00  0.00     0.023 A 
ATOM      2  C1  UNL d   1       1.383  -0.458   0.443  0.00  0.00     0.003 A 
ATOM      3  C2  UNL d   1       2.346  -1.426   0.150  0.00  0.00     0.048 A 
ATOM      4  C3  UNL d   1       2.004  -2.777   0.199  0.00  0.00     0.023 A 
ATOM      5  C4  UNL d   1       0.708  -3.167   0.539  0.00  0.00     0.048 A 
ATOM      6  C5  UNL d   1      -0.251  -2.195   0.832  0.00  0.00     0.003 A 
ATOM      7  I   UNL d   1       3.435  -4.221  -0.238  0.00  0.00    -0.146 I 
ENDROOT
TORSDOF 0
ENDMDL
