MODEL 1
REMARK minimizedAffinity -3.28257632
REMARK minimizedRMSD -1
REMARK  0 active torsions:
REMARK  status: ('A' for Active; 'I' for Inactive)
ROOT
ATOM      1  C   UNL d   1       3.422  -3.756  -0.222  0.00  0.00     0.023 A 
ATOM      2  C1  UNL d   1       2.148  -4.319  -0.134  0.00  0.00     0.003 A 
ATOM      3  C2  UNL d   1       1.048  -3.516   0.175  0.00  0.00     0.048 A 
ATOM      4  C3  UNL d   1       1.229  -2.150   0.393  0.00  0.00     0.023 A 
ATOM      5  C4  UNL d   1       2.501  -1.583   0.305  0.00  0.00     0.048 A 
ATOM      6  C5  UNL d   1       3.598  -2.389  -0.003  0.00  0.00     0.003 A 
ATOM      7  I   UNL d   1      -0.407  -0.953   0.853  0.00  0.00    -0.146 I 
ENDROOT
TORSDOF 0
ENDMDL
