MODEL 1
REMARK minimizedAffinity 1.23869848
REMARK minimizedRMSD -1
REMARK  0 active torsions:
REMARK  status: ('A' for Active; 'I' for Inactive)
ROOT
ATOM      1  C   UNL d   1       2.546   1.287  -3.582  0.00  0.00     0.023 A 
ATOM      2  C1  UNL d   1       3.437   0.963  -2.559  0.00  0.00     0.003 A 
ATOM      3  C2  UNL d   1       4.104   1.976  -1.866  0.00  0.00     0.048 A 
ATOM      4  C3  UNL d   1       3.874   3.310  -2.200  0.00  0.00     0.023 A 
ATOM      5  C4  UNL d   1       2.983   3.639  -3.223  0.00  0.00     0.048 A 
ATOM      6  C5  UNL d   1       2.319   2.623  -3.914  0.00  0.00     0.003 A 
ATOM      7  I   UNL d   1       4.866   4.818  -1.170  0.00  0.00    -0.146 I 
ENDROOT
TORSDOF 0
ENDMDL
