MODEL 1
REMARK minimizedAffinity 2.30177236
REMARK minimizedRMSD -1
REMARK  0 active torsions:
REMARK  status: ('A' for Active; 'I' for Inactive)
ROOT
ATOM      1  C   UNL d   1      -0.593  -0.129   0.932  0.00  0.00     0.023 A 
ATOM      2  C1  UNL d   1       0.720  -0.240   1.387  0.00  0.00     0.003 A 
ATOM      3  C2  UNL d   1       1.432  -1.425   1.185  0.00  0.00     0.048 A 
ATOM      4  C3  UNL d   1       0.824  -2.493   0.527  0.00  0.00     0.023 A 
ATOM      5  C4  UNL d   1      -0.490  -2.386   0.069  0.00  0.00     0.048 A 
ATOM      6  C5  UNL d   1      -1.198  -1.200   0.273  0.00  0.00     0.003 A 
ATOM      7  I   UNL d   1       1.881  -4.257   0.225  0.00  0.00    -0.146 I 
ENDROOT
TORSDOF 0
ENDMDL
