MODEL 1
REMARK minimizedAffinity -4.09994936
REMARK minimizedRMSD -1
REMARK  0 active torsions:
REMARK  status: ('A' for Active; 'I' for Inactive)
ROOT
ATOM      1  C   UNL d   1       0.719  -1.234   0.552  0.00  0.00     0.023 A 
ATOM      2  C1  UNL d   1       0.425  -2.586   0.376  0.00  0.00     0.003 A 
ATOM      3  C2  UNL d   1       1.459  -3.513   0.229  0.00  0.00     0.048 A 
ATOM      4  C3  UNL d   1       2.785  -3.082   0.261  0.00  0.00     0.023 A 
ATOM      5  C4  UNL d   1       3.084  -1.730   0.439  0.00  0.00     0.048 A 
ATOM      6  C5  UNL d   1       2.047  -0.806   0.584  0.00  0.00     0.003 A 
ATOM      7  I   UNL d   1       4.325  -4.460   0.044  0.00  0.00    -0.146 I 
ENDROOT
TORSDOF 0
ENDMDL
