MODEL 1
REMARK minimizedAffinity -1.77442622
REMARK minimizedRMSD -1
REMARK  0 active torsions:
REMARK  status: ('A' for Active; 'I' for Inactive)
ROOT
ATOM      1  C   UNL d   1       2.071  -2.841   0.172  0.00  0.00     0.023 A 
ATOM      2  C1  UNL d   1       2.304  -1.496   0.459  0.00  0.00     0.003 A 
ATOM      3  C2  UNL d   1       1.235  -0.648   0.757  0.00  0.00     0.048 A 
ATOM      4  C3  UNL d   1      -0.065  -1.153   0.766  0.00  0.00     0.023 A 
ATOM      5  C4  UNL d   1      -0.304  -2.498   0.480  0.00  0.00     0.048 A 
ATOM      6  C5  UNL d   1       0.769  -3.341   0.182  0.00  0.00     0.003 A 
ATOM      7  I   UNL d   1      -1.659   0.106   1.208  0.00  0.00    -0.146 I 
ENDROOT
TORSDOF 0
ENDMDL
