MODEL 1
REMARK minimizedAffinity -1.91678309
REMARK minimizedRMSD -1
REMARK  0 active torsions:
REMARK  status: ('A' for Active; 'I' for Inactive)
ROOT
ATOM      1  C   UNL d   1       2.332  -2.706  -0.061  0.00  0.00     0.023 A 
ATOM      2  C1  UNL d   1       2.404  -1.338   0.199  0.00  0.00     0.003 A 
ATOM      3  C2  UNL d   1       1.253  -0.633   0.560  0.00  0.00     0.048 A 
ATOM      4  C3  UNL d   1       0.035  -1.304   0.661  0.00  0.00     0.023 A 
ATOM      5  C4  UNL d   1      -0.041  -2.673   0.403  0.00  0.00     0.048 A 
ATOM      6  C5  UNL d   1       1.111  -3.373   0.042  0.00  0.00     0.003 A 
ATOM      7  I   UNL d   1      -1.678  -0.257   1.199  0.00  0.00    -0.146 I 
ENDROOT
TORSDOF 0
ENDMDL
