MODEL 1
REMARK minimizedAffinity -3.2900033
REMARK minimizedRMSD -1
REMARK  0 active torsions:
REMARK  status: ('A' for Active; 'I' for Inactive)
ROOT
ATOM      1  C   UNL d   1       0.038  -0.909   0.829  0.00  0.00     0.023 A 
ATOM      2  C1  UNL d   1      -0.281  -2.251   0.625  0.00  0.00     0.003 A 
ATOM      3  C2  UNL d   1       0.733  -3.183   0.389  0.00  0.00     0.048 A 
ATOM      4  C3  UNL d   1       2.063  -2.765   0.361  0.00  0.00     0.023 A 
ATOM      5  C4  UNL d   1       2.386  -1.423   0.566  0.00  0.00     0.048 A 
ATOM      6  C5  UNL d   1       1.370  -0.495   0.800  0.00  0.00     0.003 A 
ATOM      7  I   UNL d   1       3.573  -4.150   0.012  0.00  0.00    -0.146 I 
ENDROOT
TORSDOF 0
ENDMDL
