MODEL 1
REMARK minimizedAffinity 7.2634716
REMARK minimizedRMSD -1
REMARK  0 active torsions:
REMARK  status: ('A' for Active; 'I' for Inactive)
ROOT
ATOM      1  C   UNL d   1      -4.921  -4.049   1.607  0.00  0.00     0.023 A 
ATOM      2  C1  UNL d   1      -4.837  -5.434   1.750  0.00  0.00     0.003 A 
ATOM      3  C2  UNL d   1      -4.621  -5.996   3.010  0.00  0.00     0.048 A 
ATOM      4  C3  UNL d   1      -4.490  -5.166   4.123  0.00  0.00     0.023 A 
ATOM      5  C4  UNL d   1      -4.574  -3.780   3.986  0.00  0.00     0.048 A 
ATOM      6  C5  UNL d   1      -4.790  -3.223   2.724  0.00  0.00     0.003 A 
ATOM      7  I   UNL d   1      -4.168  -6.000   6.000  0.00  0.00    -0.146 I 
ENDROOT
TORSDOF 0
ENDMDL
