MODEL 1
REMARK minimizedAffinity -4.63674927
REMARK minimizedRMSD -1
REMARK  0 active torsions:
REMARK  status: ('A' for Active; 'I' for Inactive)
ROOT
ATOM      1  C   UNL d   1      -0.098  -0.455   0.768  0.00  0.00     0.023 A 
ATOM      2  C1  UNL d   1       1.275  -0.225   0.864  0.00  0.00     0.003 A 
ATOM      3  C2  UNL d   1       2.173  -1.283   0.715  0.00  0.00     0.048 A 
ATOM      4  C3  UNL d   1       1.693  -2.569   0.469  0.00  0.00     0.023 A 
ATOM      5  C4  UNL d   1       0.320  -2.804   0.372  0.00  0.00     0.048 A 
ATOM      6  C5  UNL d   1      -0.575  -1.742   0.523  0.00  0.00     0.003 A 
ATOM      7  I   UNL d   1       3.028  -4.146   0.247  0.00  0.00    -0.146 I 
ENDROOT
TORSDOF 0
ENDMDL
