MODEL 1
REMARK minimizedAffinity -3.98223925
REMARK minimizedRMSD -1
REMARK  3 active torsions:
REMARK  status: ('A' for Active; 'I' for Inactive)
REMARK    1  A    between atoms: C3'_2  and  C2'_3 
REMARK    2  A    between atoms: C2'_3  and  C1'_4 
REMARK    3  A    between atoms: C1'_4  and  C1_5 
ROOT
ATOM      1  C1  N4B d   1       0.521   1.343  -1.222  0.00  0.00    -0.075 A 
ATOM      2  C2  N4B d   1       1.796   1.938  -1.343  0.00  0.00     0.002 A 
ATOM      3  C3  N4B d   1       2.266   2.308  -2.579  0.00  0.00     0.002 A 
ATOM      4  C4  N4B d   1       1.490   2.078  -3.705  0.00  0.00    -0.004 A 
ATOM      5  C5  N4B d   1       0.249   1.526  -3.576  0.00  0.00     0.002 A 
ATOM      6  C6  N4B d   1      -0.238   1.152  -2.340  0.00  0.00     0.002 A 
ENDROOT
BRANCH   1   7
ATOM      7  C1' N4B d   1       0.001   0.843   0.098  0.00  0.00     0.057 C 
BRANCH   7   8
ATOM      8  C2' N4B d   1       0.932  -0.246   0.624  0.00  0.00     0.009 C 
BRANCH   8   9
ATOM      9  C3' N4B d   1       0.447  -1.637   0.252  0.00  0.00     0.004 C 
ATOM     10  C4' N4B d   1      -0.064  -2.408   1.432  0.00  0.00     0.003 C 
ENDBRANCH   8   9
ENDBRANCH   7   8
ENDBRANCH   1   7
TORSDOF 3
ENDMDL
