MODEL 1
REMARK minimizedAffinity -2.66874433
REMARK minimizedRMSD -1
REMARK  3 active torsions:
REMARK  status: ('A' for Active; 'I' for Inactive)
REMARK    1  A    between atoms: C3'_2  and  C2'_3 
REMARK    2  A    between atoms: C2'_3  and  C1'_4 
REMARK    3  A    between atoms: C1'_4  and  C1_5 
ROOT
ATOM      1  C1  N4B d   1      -0.315  -0.089   0.342  0.00  0.00    -0.075 A 
ATOM      2  C2  N4B d   1      -1.372  -0.171   1.274  0.00  0.00     0.002 A 
ATOM      3  C3  N4B d   1      -1.575  -1.330   1.982  0.00  0.00     0.002 A 
ATOM      4  C4  N4B d   1      -0.749  -2.422   1.762  0.00  0.00    -0.004 A 
ATOM      5  C5  N4B d   1       0.286  -2.326   0.878  0.00  0.00     0.002 A 
ATOM      6  C6  N4B d   1       0.504  -1.166   0.162  0.00  0.00     0.002 A 
ENDROOT
BRANCH   1   7
ATOM      7  C1' N4B d   1      -0.107   1.128  -0.518  0.00  0.00     0.057 C 
BRANCH   7   8
ATOM      8  C2' N4B d   1       1.191   0.970  -1.304  0.00  0.00     0.009 C 
BRANCH   8   9
ATOM      9  C3' N4B d   1       1.229   1.871  -2.526  0.00  0.00     0.004 C 
ATOM     10  C4' N4B d   1       2.589   1.942  -3.154  0.00  0.00     0.003 C 
ENDBRANCH   8   9
ENDBRANCH   7   8
ENDBRANCH   1   7
TORSDOF 3
ENDMDL
