MODEL 1
REMARK minimizedAffinity -2.31453133
REMARK minimizedRMSD -1
REMARK  3 active torsions:
REMARK  status: ('A' for Active; 'I' for Inactive)
REMARK    1  A    between atoms: C3'_2  and  C2'_3 
REMARK    2  A    between atoms: C2'_3  and  C1'_4 
REMARK    3  A    between atoms: C1'_4  and  C1_5 
ROOT
ATOM      1  C1  N4B d   1       0.936   1.871  -1.143  0.00  0.00    -0.075 A 
ATOM      2  C2  N4B d   1       2.244   1.607  -1.604  0.00  0.00     0.002 A 
ATOM      3  C3  N4B d   1       2.532   1.699  -2.944  0.00  0.00     0.002 A 
ATOM      4  C4  N4B d   1       1.527   2.033  -3.840  0.00  0.00    -0.004 A 
ATOM      5  C5  N4B d   1       0.272   2.312  -3.383  0.00  0.00     0.002 A 
ATOM      6  C6  N4B d   1      -0.030   2.227  -2.039  0.00  0.00     0.002 A 
ENDROOT
BRANCH   1   7
ATOM      7  C1' N4B d   1       0.553   1.700   0.302  0.00  0.00     0.057 C 
BRANCH   7   8
ATOM      8  C2' N4B d   1      -0.102   0.335   0.488  0.00  0.00     0.009 C 
BRANCH   8   9
ATOM      9  C3' N4B d   1       0.924  -0.763   0.708  0.00  0.00     0.004 C 
ATOM     10  C4' N4B d   1       0.403  -2.124   0.354  0.00  0.00     0.003 C 
ENDBRANCH   8   9
ENDBRANCH   7   8
ENDBRANCH   1   7
TORSDOF 3
ENDMDL
