MODEL 1
REMARK minimizedAffinity 6.41234589
REMARK minimizedRMSD -1
REMARK  3 active torsions:
REMARK  status: ('A' for Active; 'I' for Inactive)
REMARK    1  A    between atoms: C3'_2  and  C2'_3 
REMARK    2  A    between atoms: C2'_3  and  C1'_4 
REMARK    3  A    between atoms: C1'_4  and  C1_5 
ROOT
ATOM      1  C1  N4B d   1       4.751   4.054  -1.289  0.00  0.00    -0.075 A 
ATOM      2  C2  N4B d   1       4.479   5.429  -1.112  0.00  0.00     0.002 A 
ATOM      3  C3  N4B d   1       4.423   5.961   0.153  0.00  0.00     0.002 A 
ATOM      4  C4  N4B d   1       4.616   5.138   1.252  0.00  0.00    -0.004 A 
ATOM      5  C5  N4B d   1       4.904   3.816   1.072  0.00  0.00     0.002 A 
ATOM      6  C6  N4B d   1       4.967   3.269  -0.194  0.00  0.00     0.002 A 
ENDROOT
BRANCH   1   7
ATOM      7  C1' N4B d   1       4.738   3.410  -2.648  0.00  0.00     0.057 C 
BRANCH   7   8
ATOM      8  C2' N4B d   1       3.549   2.459  -2.740  0.00  0.00     0.009 C 
BRANCH   8   9
ATOM      9  C3' N4B d   1       3.127   2.213  -4.178  0.00  0.00     0.004 C 
ATOM     10  C4' N4B d   1       1.809   2.846  -4.513  0.00  0.00     0.003 C 
ENDBRANCH   8   9
ENDBRANCH   7   8
ENDBRANCH   1   7
TORSDOF 3
ENDMDL
