MODEL 1
REMARK minimizedAffinity -3.90231514
REMARK minimizedRMSD -1
REMARK  3 active torsions:
REMARK  status: ('A' for Active; 'I' for Inactive)
REMARK    1  A    between atoms: C3'_2  and  C2'_3 
REMARK    2  A    between atoms: C2'_3  and  C1'_4 
REMARK    3  A    between atoms: C1'_4  and  C1_5 
ROOT
ATOM      1  C1  N4B d   1       0.626   1.698  -1.295  0.00  0.00    -0.075 A 
ATOM      2  C2  N4B d   1       1.876   2.254  -1.645  0.00  0.00     0.002 A 
ATOM      3  C3  N4B d   1       2.190   2.460  -2.966  0.00  0.00     0.002 A 
ATOM      4  C4  N4B d   1       1.282   2.102  -3.951  0.00  0.00    -0.004 A 
ATOM      5  C5  N4B d   1       0.067   1.590  -3.604  0.00  0.00     0.002 A 
ATOM      6  C6  N4B d   1      -0.265   1.381  -2.280  0.00  0.00     0.002 A 
ENDROOT
BRANCH   1   7
ATOM      7  C1' N4B d   1       0.271   1.375   0.131  0.00  0.00     0.057 C 
BRANCH   7   8
ATOM      8  C2' N4B d   1      -0.299  -0.039   0.196  0.00  0.00     0.009 C 
BRANCH   8   9
ATOM      9  C3' N4B d   1       0.793  -1.086   0.334  0.00  0.00     0.004 C 
ATOM     10  C4' N4B d   1       0.280  -2.395   0.857  0.00  0.00     0.003 C 
ENDBRANCH   8   9
ENDBRANCH   7   8
ENDBRANCH   1   7
TORSDOF 3
ENDMDL
