MODEL 1
REMARK minimizedAffinity -4.85467577
REMARK minimizedRMSD -1
REMARK  3 active torsions:
REMARK  status: ('A' for Active; 'I' for Inactive)
REMARK    1  A    between atoms: C3'_2  and  C2'_3 
REMARK    2  A    between atoms: C2'_3  and  C1'_4 
REMARK    3  A    between atoms: C1'_4  and  C1_5 
ROOT
ATOM      1  C1  N4B d   1      -0.048  -0.308   0.376  0.00  0.00    -0.075 A 
ATOM      2  C2  N4B d   1      -1.085   0.524   0.852  0.00  0.00     0.002 A 
ATOM      3  C3  N4B d   1      -1.992   0.038   1.761  0.00  0.00     0.002 A 
ATOM      4  C4  N4B d   1      -1.895  -1.276   2.192  0.00  0.00    -0.004 A 
ATOM      5  C5  N4B d   1      -0.875  -2.066   1.746  0.00  0.00     0.002 A 
ATOM      6  C6  N4B d   1       0.046  -1.590   0.835  0.00  0.00     0.002 A 
ENDROOT
BRANCH   1   7
ATOM      7  C1' N4B d   1       0.917   0.152  -0.683  0.00  0.00     0.057 C 
BRANCH   7   8
ATOM      8  C2' N4B d   1       0.683   1.634  -0.963  0.00  0.00     0.009 C 
BRANCH   8   9
ATOM      9  C3' N4B d   1       1.522   2.131  -2.128  0.00  0.00     0.004 C 
ATOM     10  C4' N4B d   1       0.696   2.483  -3.329  0.00  0.00     0.003 C 
ENDBRANCH   8   9
ENDBRANCH   7   8
ENDBRANCH   1   7
TORSDOF 3
ENDMDL
