MODEL 1
REMARK minimizedAffinity -3.51865005
REMARK minimizedRMSD -1
REMARK  3 active torsions:
REMARK  status: ('A' for Active; 'I' for Inactive)
REMARK    1  A    between atoms: C3'_2  and  C2'_3 
REMARK    2  A    between atoms: C2'_3  and  C1'_4 
REMARK    3  A    between atoms: C1'_4  and  C1_5 
ROOT
ATOM      1  C1  N4B d   1       0.546   0.244   0.239  0.00  0.00    -0.075 A 
ATOM      2  C2  N4B d   1      -0.553  -0.228   0.989  0.00  0.00     0.002 A 
ATOM      3  C3  N4B d   1      -0.658  -1.564   1.288  0.00  0.00     0.002 A 
ATOM      4  C4  N4B d   1       0.310  -2.447   0.834  0.00  0.00    -0.004 A 
ATOM      5  C5  N4B d   1       1.382  -1.980   0.131  0.00  0.00     0.002 A 
ATOM      6  C6  N4B d   1       1.503  -0.639  -0.174  0.00  0.00     0.002 A 
ENDROOT
BRANCH   1   7
ATOM      7  C1' N4B d   1       0.660   1.682  -0.186  0.00  0.00     0.057 C 
BRANCH   7   8
ATOM      8  C2' N4B d   1       1.368   1.751  -1.536  0.00  0.00     0.009 C 
BRANCH   8   9
ATOM      9  C3' N4B d   1       0.409   2.091  -2.664  0.00  0.00     0.004 C 
ATOM     10  C4' N4B d   1       0.620   1.240  -3.881  0.00  0.00     0.003 C 
ENDBRANCH   8   9
ENDBRANCH   7   8
ENDBRANCH   1   7
TORSDOF 3
ENDMDL
