MODEL 1
REMARK minimizedAffinity -0.480583638
REMARK minimizedRMSD -1
REMARK  0 active torsions:
REMARK  status: ('A' for Active; 'I' for Inactive)
ROOT
ATOM      1  C1  DEN d   1       0.126   1.344  -0.209  0.00  0.00     0.130 A 
ATOM      2  C2  DEN d   1      -1.208   0.889  -0.592  0.00  0.00    -0.031 A 
ATOM      3  C3  DEN d   1      -1.135  -0.560  -0.865  0.00  0.00     0.027 A 
ATOM      4  C4  DEN d   1       0.901  -2.137  -0.728  0.00  0.00     0.027 A 
ATOM      5  C5  DEN d   1       2.250  -2.207  -0.458  0.00  0.00    -0.003 A 
ATOM      6  C6  DEN d   1       2.986  -1.102  -0.121  0.00  0.00     0.001 A 
ATOM      7  C7  DEN d   1       2.368   0.115  -0.002  0.00  0.00     0.017 A 
ATOM      8  C8  DEN d   1       1.010   0.195  -0.281  0.00  0.00    -0.094 A 
ATOM      9  C9  DEN d   1       0.281  -0.936  -0.607  0.00  0.00    -0.072 A 
ENDROOT
TORSDOF 0
ENDMDL
