MODEL 1
REMARK minimizedAffinity -3.06174374
REMARK minimizedRMSD -1
REMARK  0 active torsions:
REMARK  status: ('A' for Active; 'I' for Inactive)
ROOT
ATOM      1  C1  DEN d   1       0.118   1.512  -0.667  0.00  0.00     0.130 A 
ATOM      2  C2  DEN d   1       1.473   2.030  -0.497  0.00  0.00    -0.031 A 
ATOM      3  C3  DEN d   1       2.403   0.883  -0.497  0.00  0.00     0.027 A 
ATOM      4  C4  DEN d   1       1.881  -1.630  -0.748  0.00  0.00     0.027 A 
ATOM      5  C5  DEN d   1       0.874  -2.557  -0.905  0.00  0.00    -0.003 A 
ATOM      6  C6  DEN d   1      -0.447  -2.199  -0.960  0.00  0.00     0.001 A 
ATOM      7  C7  DEN d   1      -0.794  -0.875  -0.902  0.00  0.00     0.017 A 
ATOM      8  C8  DEN d   1       0.215   0.065  -0.735  0.00  0.00    -0.094 A 
ATOM      9  C9  DEN d   1       1.545  -0.316  -0.695  0.00  0.00    -0.072 A 
ENDROOT
TORSDOF 0
ENDMDL
