MODEL 1
REMARK minimizedAffinity -2.24533296
REMARK minimizedRMSD -1
REMARK  0 active torsions:
REMARK  status: ('A' for Active; 'I' for Inactive)
ROOT
ATOM      1  C1  DEN d   1      -2.118  -0.448   0.010  0.00  0.00     0.130 A 
ATOM      2  C2  DEN d   1      -2.034   0.993  -0.213  0.00  0.00    -0.031 A 
ATOM      3  C3  DEN d   1      -0.615   1.340  -0.430  0.00  0.00     0.027 A 
ATOM      4  C4  DEN d   1       1.449  -0.207  -0.447  0.00  0.00     0.027 A 
ATOM      5  C5  DEN d   1       1.879  -1.507  -0.294  0.00  0.00    -0.003 A 
ATOM      6  C6  DEN d   1       1.019  -2.531   0.003  0.00  0.00     0.001 A 
ATOM      7  C7  DEN d   1      -0.324  -2.279   0.111  0.00  0.00     0.017 A 
ATOM      8  C8  DEN d   1      -0.764  -0.970  -0.035  0.00  0.00    -0.094 A 
ATOM      9  C9  DEN d   1       0.120   0.049  -0.347  0.00  0.00    -0.072 A 
ENDROOT
TORSDOF 0
ENDMDL
