MODEL 1
REMARK minimizedAffinity -4.0336442
REMARK minimizedRMSD -1
REMARK  0 active torsions:
REMARK  status: ('A' for Active; 'I' for Inactive)
ROOT
ATOM      1  C1  DEN d   1      -0.016  -0.945  -0.259  0.00  0.00     0.130 A 
ATOM      2  C2  DEN d   1      -0.538   0.415  -0.356  0.00  0.00    -0.031 A 
ATOM      3  C3  DEN d   1       0.598   1.350  -0.236  0.00  0.00     0.027 A 
ATOM      4  C4  DEN d   1       3.103   0.827   0.085  0.00  0.00     0.027 A 
ATOM      5  C5  DEN d   1       4.029  -0.182   0.235  0.00  0.00    -0.003 A 
ATOM      6  C6  DEN d   1       3.670  -1.504   0.265  0.00  0.00     0.001 A 
ATOM      7  C7  DEN d   1       2.357  -1.854   0.097  0.00  0.00     0.017 A 
ATOM      8  C8  DEN d   1       1.417  -0.842  -0.047  0.00  0.00    -0.094 A 
ATOM      9  C9  DEN d   1       1.801   0.487  -0.087  0.00  0.00    -0.072 A 
ENDROOT
TORSDOF 0
ENDMDL
