MODEL 1
REMARK minimizedAffinity -2.69408488
REMARK minimizedRMSD -1
REMARK  0 active torsions:
REMARK  status: ('A' for Active; 'I' for Inactive)
ROOT
ATOM      1  C1  DEN d   1      -0.431   0.766  -0.370  0.00  0.00     0.130 A 
ATOM      2  C2  DEN d   1      -1.315  -0.375  -0.587  0.00  0.00    -0.031 A 
ATOM      3  C3  DEN d   1      -0.479  -1.588  -0.684  0.00  0.00     0.027 A 
ATOM      4  C4  DEN d   1       2.086  -1.809  -0.514  0.00  0.00     0.027 A 
ATOM      5  C5  DEN d   1       3.263  -1.114  -0.345  0.00  0.00    -0.003 A 
ATOM      6  C6  DEN d   1       3.294   0.248  -0.207  0.00  0.00     0.001 A 
ATOM      7  C7  DEN d   1       2.121   0.955  -0.191  0.00  0.00     0.017 A 
ATOM      8  C8  DEN d   1       0.930   0.263  -0.369  0.00  0.00    -0.094 A 
ATOM      9  C9  DEN d   1       0.919  -1.115  -0.494  0.00  0.00    -0.072 A 
ENDROOT
TORSDOF 0
ENDMDL
