MODEL 1
REMARK minimizedAffinity 2.14641523
REMARK minimizedRMSD -1
REMARK  0 active torsions:
REMARK  status: ('A' for Active; 'I' for Inactive)
ROOT
ATOM      1  C1  DEN d   1      -0.276  -0.510   0.991  0.00  0.00     0.130 A 
ATOM      2  C2  DEN d   1       0.203  -0.376  -0.382  0.00  0.00    -0.031 A 
ATOM      3  C3  DEN d   1      -0.901   0.167  -1.199  0.00  0.00     0.027 A 
ATOM      4  C4  DEN d   1      -3.290   0.814  -0.474  0.00  0.00     0.027 A 
ATOM      5  C5  DEN d   1      -4.166   0.867   0.588  0.00  0.00    -0.003 A 
ATOM      6  C6  DEN d   1      -3.820   0.436   1.841  0.00  0.00     0.001 A 
ATOM      7  C7  DEN d   1      -2.551  -0.025   2.074  0.00  0.00     0.017 A 
ATOM      8  C8  DEN d   1      -1.665  -0.088   1.007  0.00  0.00    -0.094 A 
ATOM      9  C9  DEN d   1      -2.030   0.364  -0.250  0.00  0.00    -0.072 A 
ENDROOT
TORSDOF 0
ENDMDL
