MODEL 1
REMARK minimizedAffinity -2.84959531
REMARK minimizedRMSD -1
REMARK  0 active torsions:
REMARK  status: ('A' for Active; 'I' for Inactive)
ROOT
ATOM      1  C4' PXY d   1      -0.289  -2.125   4.972  0.00  0.00     0.077 C 
ATOM      2  C1' PXY d   1       1.582  -1.029  -0.386  0.00  0.00     0.077 C 
ATOM      3  C1  PXY d   1       1.102  -1.324   1.021  0.00  0.00    -0.082 A 
ATOM      4  C2  PXY d   1      -0.190  -1.256   1.300  0.00  0.00     0.003 A 
ATOM      5  C3  PXY d   1      -0.638  -1.488   2.575  0.00  0.00     0.003 A 
ATOM      6  C4  PXY d   1       0.240  -1.845   3.563  0.00  0.00    -0.082 A 
ATOM      7  C5  PXY d   1       1.558  -1.927   3.285  0.00  0.00     0.003 A 
ATOM      8  C6  PXY d   1       1.997  -1.648   1.994  0.00  0.00     0.003 A 
ENDROOT
TORSDOF 0
ENDMDL
