MODEL 1
REMARK minimizedAffinity 6.36604548
REMARK minimizedRMSD -1
REMARK  0 active torsions:
REMARK  status: ('A' for Active; 'I' for Inactive)
ROOT
ATOM      1  C4' PXY d   1      -1.238   5.999  -2.043  0.00  0.00     0.077 C 
ATOM      2  C1' PXY d   1      -0.024   0.691  -0.104  0.00  0.00     0.077 C 
ATOM      3  C1  PXY d   1      -0.338   2.088  -0.601  0.00  0.00    -0.082 A 
ATOM      4  C2  PXY d   1      -1.226   2.254  -1.568  0.00  0.00     0.003 A 
ATOM      5  C3  PXY d   1      -1.499   3.508  -2.051  0.00  0.00     0.003 A 
ATOM      6  C4  PXY d   1      -0.896   4.608  -1.503  0.00  0.00    -0.082 A 
ATOM      7  C5  PXY d   1       0.003   4.448  -0.509  0.00  0.00     0.003 A 
ATOM      8  C6  PXY d   1       0.297   3.163  -0.061  0.00  0.00     0.003 A 
ENDROOT
TORSDOF 0
ENDMDL
