MODEL 1
REMARK minimizedAffinity 1.88525927
REMARK minimizedRMSD -1
REMARK  0 active torsions:
REMARK  status: ('A' for Active; 'I' for Inactive)
ROOT
ATOM      1  C4' PXY d   1       3.298  -1.611  -0.190  0.00  0.00     0.077 C 
ATOM      2  C1' PXY d   1       4.937  -5.306  -4.323  0.00  0.00     0.077 C 
ATOM      3  C1  PXY d   1       4.509  -4.346  -3.230  0.00  0.00    -0.082 A 
ATOM      4  C2  PXY d   1       3.758  -3.300  -3.535  0.00  0.00     0.003 A 
ATOM      5  C3  PXY d   1       3.388  -2.405  -2.565  0.00  0.00     0.003 A 
ATOM      6  C4  PXY d   1       3.746  -2.612  -1.259  0.00  0.00    -0.082 A 
ATOM      7  C5  PXY d   1       4.503  -3.682  -0.938  0.00  0.00     0.003 A 
ATOM      8  C6  PXY d   1       4.903  -4.556  -1.945  0.00  0.00     0.003 A 
ENDROOT
TORSDOF 0
ENDMDL
