MODEL 1
REMARK minimizedAffinity 0.894794643
REMARK minimizedRMSD -1
REMARK  0 active torsions:
REMARK  status: ('A' for Active; 'I' for Inactive)
ROOT
ATOM      1  C4' PXY d   1       3.822  -2.115  -4.229  0.00  0.00     0.077 C 
ATOM      2  C1' PXY d   1       5.320  -5.585   0.146  0.00  0.00     0.077 C 
ATOM      3  C1  PXY d   1       4.925  -4.665  -0.993  0.00  0.00    -0.082 A 
ATOM      4  C2  PXY d   1       4.484  -5.182  -2.128  0.00  0.00     0.003 A 
ATOM      5  C3  PXY d   1       4.152  -4.366  -3.179  0.00  0.00     0.003 A 
ATOM      6  C4  PXY d   1       4.223  -3.005  -3.049  0.00  0.00    -0.082 A 
ATOM      7  C5  PXY d   1       4.662  -2.470  -1.890  0.00  0.00     0.003 A 
ATOM      8  C6  PXY d   1       5.033  -3.316  -0.849  0.00  0.00     0.003 A 
ENDROOT
TORSDOF 0
ENDMDL
