MODEL 1
REMARK minimizedAffinity 3.60989666
REMARK minimizedRMSD -1
REMARK  0 active torsions:
REMARK  status: ('A' for Active; 'I' for Inactive)
ROOT
ATOM      1  C4' PXY d   1       3.005  -1.756  -0.688  0.00  0.00     0.077 C 
ATOM      2  C1' PXY d   1       4.950  -6.000  -4.097  0.00  0.00     0.077 C 
ATOM      3  C1  PXY d   1       4.445  -4.878  -3.211  0.00  0.00    -0.082 A 
ATOM      4  C2  PXY d   1       4.238  -5.104  -1.924  0.00  0.00     0.003 A 
ATOM      5  C3  PXY d   1       3.751  -4.109  -1.115  0.00  0.00     0.003 A 
ATOM      6  C4  PXY d   1       3.523  -2.856  -1.618  0.00  0.00    -0.082 A 
ATOM      7  C5  PXY d   1       3.742  -2.616  -2.928  0.00  0.00     0.003 A 
ATOM      8  C6  PXY d   1       4.197  -3.650  -3.741  0.00  0.00     0.003 A 
ENDROOT
TORSDOF 0
ENDMDL
