MODEL 1
REMARK minimizedAffinity -4.56411171
REMARK minimizedRMSD -1
REMARK  0 active torsions:
REMARK  status: ('A' for Active; 'I' for Inactive)
ROOT
ATOM      1  C4' PXY d   1       1.110  -5.468  -1.303  0.00  0.00     0.077 C 
ATOM      2  C1' PXY d   1       5.672  -1.981  -0.629  0.00  0.00     0.077 C 
ATOM      3  C1  PXY d   1       4.480  -2.900  -0.817  0.00  0.00    -0.082 A 
ATOM      4  C2  PXY d   1       3.348  -2.641  -0.182  0.00  0.00     0.003 A 
ATOM      5  C3  PXY d   1       2.271  -3.479  -0.316  0.00  0.00     0.003 A 
ATOM      6  C4  PXY d   1       2.336  -4.563  -1.150  0.00  0.00    -0.082 A 
ATOM      7  C5  PXY d   1       3.484  -4.827  -1.809  0.00  0.00     0.003 A 
ATOM      8  C6  PXY d   1       4.579  -3.988  -1.628  0.00  0.00     0.003 A 
ENDROOT
TORSDOF 0
ENDMDL
