MODEL 1
REMARK minimizedAffinity -0.7374264
REMARK minimizedRMSD -1
REMARK  0 active torsions:
REMARK  status: ('A' for Active; 'I' for Inactive)
ROOT
ATOM      1  C4' PXY d   1       4.113  -2.036  -0.588  0.00  0.00     0.077 C 
ATOM      2  C1' PXY d   1       4.467  -5.962  -4.815  0.00  0.00     0.077 C 
ATOM      3  C1  PXY d   1       4.376  -4.942  -3.698  0.00  0.00    -0.082 A 
ATOM      4  C2  PXY d   1       3.745  -3.797  -3.907  0.00  0.00     0.003 A 
ATOM      5  C3  PXY d   1       3.681  -2.850  -2.917  0.00  0.00     0.003 A 
ATOM      6  C4  PXY d   1       4.221  -3.099  -1.684  0.00  0.00    -0.082 A 
ATOM      7  C5  PXY d   1       4.857  -4.269  -1.460  0.00  0.00     0.003 A 
ATOM      8  C6  PXY d   1       4.947  -5.200  -2.490  0.00  0.00     0.003 A 
ENDROOT
TORSDOF 0
ENDMDL
