MODEL 1
REMARK minimizedAffinity 3.86840558
REMARK minimizedRMSD -1
REMARK  0 active torsions:
REMARK  status: ('A' for Active; 'I' for Inactive)
ROOT
ATOM      1  C4' PXY d   1       5.651  -6.000  -0.237  0.00  0.00     0.077 C 
ATOM      2  C1' PXY d   1       3.569  -1.691  -3.479  0.00  0.00     0.077 C 
ATOM      3  C1  PXY d   1       4.107  -2.829  -2.635  0.00  0.00    -0.082 A 
ATOM      4  C2  PXY d   1       4.626  -2.573  -1.445  0.00  0.00     0.003 A 
ATOM      5  C3  PXY d   1       5.146  -3.587  -0.682  0.00  0.00     0.003 A 
ATOM      6  C4  PXY d   1       5.087  -4.883  -1.119  0.00  0.00    -0.082 A 
ATOM      7  C5  PXY d   1       4.550  -5.154  -2.328  0.00  0.00     0.003 A 
ATOM      8  C6  PXY d   1       4.064  -4.105  -3.104  0.00  0.00     0.003 A 
ENDROOT
TORSDOF 0
ENDMDL
