MODEL 1
REMARK minimizedAffinity -2.38449264
REMARK minimizedRMSD -1
REMARK  0 active torsions:
REMARK  status: ('A' for Active; 'I' for Inactive)
ROOT
ATOM      1  N1  IND d   1       0.622   1.164   2.283  0.00  0.00    -0.196 N 
ATOM      2  C2  IND d   1      -0.618   1.672   2.550  0.00  0.00     0.054 A 
ATOM      3  C3  IND d   1      -1.489   1.322   1.578  0.00  0.00    -0.031 A 
ATOM      4  C4  IND d   1      -1.119  -0.165  -0.491  0.00  0.00     0.051 A 
ATOM      5  C5  IND d   1      -0.143  -0.829  -1.180  0.00  0.00    -0.031 A 
ATOM      6  C6  IND d   1       1.164  -0.866  -0.739  0.00  0.00     0.015 A 
ATOM      7  C7  IND d   1       1.543  -0.246   0.419  0.00  0.00    -0.016 A 
ATOM      8  C8  IND d   1       0.556   0.435   1.117  0.00  0.00    -0.047 A 
ATOM      9  C9  IND d   1      -0.764   0.512   0.652  0.00  0.00    -0.096 A 
ATOM     10  HN1 IND d   1       1.326   1.281   2.763  0.00  0.00     0.298 HD
ENDROOT
TORSDOF 0
ENDMDL
