MODEL 1
REMARK minimizedAffinity -4.43151426
REMARK minimizedRMSD -1
REMARK  0 active torsions:
REMARK  status: ('A' for Active; 'I' for Inactive)
ROOT
ATOM      1  N1  IND d   1       0.735  -1.095  -0.451  0.00  0.00    -0.196 N 
ATOM      2  C2  IND d   1       2.039  -1.015  -0.046  0.00  0.00     0.054 A 
ATOM      3  C3  IND d   1       2.159  -0.145   0.982  0.00  0.00    -0.031 A 
ATOM      4  C4  IND d   1       0.336   1.180   2.226  0.00  0.00     0.051 A 
ATOM      5  C5  IND d   1      -1.001   1.462   2.195  0.00  0.00    -0.031 A 
ATOM      6  C6  IND d   1      -1.845   0.892   1.264  0.00  0.00     0.015 A 
ATOM      7  C7  IND d   1      -1.383   0.006   0.332  0.00  0.00    -0.016 A 
ATOM      8  C8  IND d   1      -0.025  -0.277   0.355  0.00  0.00    -0.047 A 
ATOM      9  C9  IND d   1       0.844   0.331   1.271  0.00  0.00    -0.096 A 
ATOM     10  HN1 IND d   1       0.440  -1.576  -1.100  0.00  0.00     0.298 HD
ENDROOT
TORSDOF 0
ENDMDL
