MODEL 1
REMARK minimizedAffinity -1.78266323
REMARK minimizedRMSD -1
REMARK  0 active torsions:
REMARK  status: ('A' for Active; 'I' for Inactive)
ROOT
ATOM      1  N1  IND d   1       0.398   0.906   2.463  0.00  0.00    -0.196 N 
ATOM      2  C2  IND d   1      -0.867   1.408   2.595  0.00  0.00     0.054 A 
ATOM      3  C3  IND d   1      -1.623   1.066   1.528  0.00  0.00    -0.031 A 
ATOM      4  C4  IND d   1      -1.020  -0.399  -0.502  0.00  0.00     0.051 A 
ATOM      5  C5  IND d   1       0.029  -1.054  -1.084  0.00  0.00    -0.031 A 
ATOM      6  C6  IND d   1       1.278  -1.093  -0.500  0.00  0.00     0.015 A 
ATOM      7  C7  IND d   1       1.524  -0.484   0.698  0.00  0.00    -0.016 A 
ATOM      8  C8  IND d   1       0.464   0.188   1.289  0.00  0.00    -0.047 A 
ATOM      9  C9  IND d   1      -0.796   0.267   0.680  0.00  0.00    -0.096 A 
ATOM     10  HN1 IND d   1       1.043   1.019   3.019  0.00  0.00     0.298 HD
ENDROOT
TORSDOF 0
ENDMDL
