MODEL 1
REMARK minimizedAffinity -0.357967466
REMARK minimizedRMSD -1
REMARK  0 active torsions:
REMARK  status: ('A' for Active; 'I' for Inactive)
ROOT
ATOM      1  N1  IND d   1      -1.004  -0.934  -0.047  0.00  0.00    -0.196 N 
ATOM      2  C2  IND d   1      -0.019  -0.583  -0.928  0.00  0.00     0.054 A 
ATOM      3  C3  IND d   1       0.774   0.371  -0.390  0.00  0.00    -0.031 A 
ATOM      4  C4  IND d   1       0.700   1.429   1.956  0.00  0.00     0.051 A 
ATOM      5  C5  IND d   1      -0.043   1.455   3.103  0.00  0.00    -0.031 A 
ATOM      6  C6  IND d   1      -1.165   0.669   3.263  0.00  0.00     0.015 A 
ATOM      7  C7  IND d   1      -1.582  -0.186   2.281  0.00  0.00    -0.016 A 
ATOM      8  C8  IND d   1      -0.834  -0.210   1.113  0.00  0.00    -0.047 A 
ATOM      9  C9  IND d   1       0.282   0.617   0.928  0.00  0.00    -0.096 A 
ATOM     10  HN1 IND d   1      -1.626  -1.510  -0.193  0.00  0.00     0.298 HD
ENDROOT
TORSDOF 0
ENDMDL
