MODEL 1
REMARK minimizedAffinity -3.94839144
REMARK minimizedRMSD -1
REMARK  0 active torsions:
REMARK  status: ('A' for Active; 'I' for Inactive)
ROOT
ATOM      1  N1  IND d   1       1.287   0.626  -0.747  0.00  0.00    -0.196 N 
ATOM      2  C2  IND d   1       1.001  -0.044  -1.904  0.00  0.00     0.054 A 
ATOM      3  C3  IND d   1      -0.229  -0.601  -1.833  0.00  0.00    -0.031 A 
ATOM      4  C4  IND d   1      -1.985  -0.453   0.044  0.00  0.00     0.051 A 
ATOM      5  C5  IND d   1      -2.167   0.018   1.313  0.00  0.00    -0.031 A 
ATOM      6  C6  IND d   1      -1.189   0.733   1.973  0.00  0.00     0.015 A 
ATOM      7  C7  IND d   1       0.010   1.014   1.381  0.00  0.00    -0.016 A 
ATOM      8  C8  IND d   1       0.201   0.531   0.095  0.00  0.00    -0.047 A 
ATOM      9  C9  IND d   1      -0.772  -0.232  -0.564  0.00  0.00    -0.096 A 
ATOM     10  HN1 IND d   1       2.022   1.038  -0.575  0.00  0.00     0.298 HD
ENDROOT
TORSDOF 0
ENDMDL
