MODEL 1
REMARK minimizedAffinity -2.57917142
REMARK minimizedRMSD -1
REMARK  0 active torsions:
REMARK  status: ('A' for Active; 'I' for Inactive)
ROOT
ATOM      1  N1  IND d   1       0.661   0.843  -0.632  0.00  0.00    -0.196 N 
ATOM      2  C2  IND d   1       0.302  -0.369  -1.153  0.00  0.00     0.054 A 
ATOM      3  C3  IND d   1      -0.592  -0.982  -0.345  0.00  0.00    -0.031 A 
ATOM      4  C4  IND d   1      -1.678  -0.138   1.831  0.00  0.00     0.051 A 
ATOM      5  C5  IND d   1      -1.639   0.896   2.724  0.00  0.00    -0.031 A 
ATOM      6  C6  IND d   1      -0.816   1.988   2.539  0.00  0.00     0.015 A 
ATOM      7  C7  IND d   1      -0.006   2.093   1.443  0.00  0.00    -0.016 A 
ATOM      8  C8  IND d   1      -0.039   1.042   0.538  0.00  0.00    -0.047 A 
ATOM      9  C9  IND d   1      -0.840  -0.089   0.742  0.00  0.00    -0.096 A 
ATOM     10  HN1 IND d   1       1.230   1.388  -0.976  0.00  0.00     0.298 HD
ENDROOT
TORSDOF 0
ENDMDL
