MODEL 1
REMARK minimizedAffinity -2.1393435
REMARK minimizedRMSD -1
REMARK  0 active torsions:
REMARK  status: ('A' for Active; 'I' for Inactive)
ROOT
ATOM      1  N1  IND d   1       1.948   0.543   2.047  0.00  0.00    -0.196 N 
ATOM      2  C2  IND d   1       1.062   1.524   2.396  0.00  0.00     0.054 A 
ATOM      3  C3  IND d   1       0.140   1.693   1.422  0.00  0.00    -0.031 A 
ATOM      4  C4  IND d   1      -0.167   0.399  -0.782  0.00  0.00     0.051 A 
ATOM      5  C5  IND d   1       0.417  -0.563  -1.557  0.00  0.00    -0.031 A 
ATOM      6  C6  IND d   1       1.563  -1.222  -1.160  0.00  0.00     0.015 A 
ATOM      7  C7  IND d   1       2.164  -0.948   0.036  0.00  0.00    -0.016 A 
ATOM      8  C8  IND d   1       1.577   0.033   0.822  0.00  0.00    -0.047 A 
ATOM      9  C9  IND d   1       0.438   0.734   0.406  0.00  0.00    -0.096 A 
ATOM     10  HN1 IND d   1       2.623   0.287   2.514  0.00  0.00     0.298 HD
ENDROOT
TORSDOF 0
ENDMDL
