MODEL 1
REMARK minimizedAffinity -3.75491858
REMARK minimizedRMSD -1
REMARK  0 active torsions:
REMARK  status: ('A' for Active; 'I' for Inactive)
ROOT
ATOM      1  N1  IND d   1       0.093   1.365  -1.497  0.00  0.00    -0.196 N 
ATOM      2  C2  IND d   1       0.415   0.050  -1.685  0.00  0.00     0.054 A 
ATOM      3  C3  IND d   1       0.088  -0.676  -0.593  0.00  0.00    -0.031 A 
ATOM      4  C4  IND d   1      -1.079   0.071   1.577  0.00  0.00     0.051 A 
ATOM      5  C5  IND d   1      -1.535   1.184   2.227  0.00  0.00    -0.031 A 
ATOM      6  C6  IND d   1      -1.472   2.439   1.657  0.00  0.00     0.015 A 
ATOM      7  C7  IND d   1      -0.959   2.627   0.404  0.00  0.00    -0.016 A 
ATOM      8  C8  IND d   1      -0.490   1.500  -0.256  0.00  0.00    -0.047 A 
ATOM      9  C9  IND d   1      -0.512   0.231   0.335  0.00  0.00    -0.096 A 
ATOM     10  HN1 IND d   1       0.232   2.001  -2.059  0.00  0.00     0.298 HD
ENDROOT
TORSDOF 0
ENDMDL
