MODEL 1
REMARK minimizedAffinity 1.08031726
REMARK minimizedRMSD -1
REMARK  0 active torsions:
REMARK  status: ('A' for Active; 'I' for Inactive)
ROOT
ATOM      1  N1  IND d   1       1.694  -0.440   1.590  0.00  0.00    -0.196 N 
ATOM      2  C2  IND d   1       2.136  -1.021   0.434  0.00  0.00     0.054 A 
ATOM      3  C3  IND d   1       1.163  -0.999  -0.505  0.00  0.00    -0.031 A 
ATOM      4  C4  IND d   1      -1.194   0.031  -0.394  0.00  0.00     0.051 A 
ATOM      5  C5  IND d   1      -2.064   0.639   0.467  0.00  0.00    -0.031 A 
ATOM      6  C6  IND d   1      -1.718   0.927   1.771  0.00  0.00     0.015 A 
ATOM      7  C7  IND d   1      -0.479   0.626   2.262  0.00  0.00    -0.016 A 
ATOM      8  C8  IND d   1       0.404   0.002   1.393  0.00  0.00    -0.047 A 
ATOM      9  C9  IND d   1       0.044  -0.331   0.081  0.00  0.00    -0.096 A 
ATOM     10  HN1 IND d   1       2.146  -0.364   2.317  0.00  0.00     0.298 HD
ENDROOT
TORSDOF 0
ENDMDL
