MODEL 1
REMARK minimizedAffinity -3.22342539
REMARK minimizedRMSD -1
REMARK  1 active torsions:
REMARK  status: ('A' for Active; 'I' for Inactive)
REMARK    1  A    between atoms: C1_2  and  C2_3 
ROOT
ATOM      1  C2  UNL d   1       1.257  -1.395   1.018  0.00  0.00    -0.077 A 
ATOM      2  C3  UNL d   1       1.567  -0.306   0.191  0.00  0.00     0.002 A 
ATOM      3  C4  UNL d   1       0.592   0.643  -0.120  0.00  0.00     0.002 A 
ATOM      4  C5  UNL d   1      -0.697   0.516   0.394  0.00  0.00    -0.004 A 
ATOM      5  C6  UNL d   1      -1.015  -0.565   1.215  0.00  0.00     0.002 A 
ATOM      6  C7  UNL d   1      -0.042  -1.516   1.527  0.00  0.00     0.002 A 
ENDROOT
BRANCH   1   7
ATOM      7  C1  UNL d   1       2.320  -2.394   1.395  0.00  0.00     0.055 C 
ATOM      8  C   UNL d   1       1.706  -3.697   1.887  0.00  0.00     0.019 C 
ENDBRANCH   1   7
TORSDOF 1
ENDMDL
