MODEL 1
REMARK minimizedAffinity -2.06164861
REMARK minimizedRMSD -1
REMARK  1 active torsions:
REMARK  status: ('A' for Active; 'I' for Inactive)
REMARK    1  A    between atoms: C1_2  and  C2_3 
ROOT
ATOM      1  C2  UNL d   1       0.438  -1.104   0.919  0.00  0.00    -0.077 A 
ATOM      2  C3  UNL d   1       1.656  -1.543   1.455  0.00  0.00     0.002 A 
ATOM      3  C4  UNL d   1       2.858  -0.960   1.049  0.00  0.00     0.002 A 
ATOM      4  C5  UNL d   1       2.853   0.067   0.108  0.00  0.00    -0.004 A 
ATOM      5  C6  UNL d   1       1.646   0.510  -0.433  0.00  0.00     0.002 A 
ATOM      6  C7  UNL d   1       0.444  -0.072  -0.029  0.00  0.00     0.002 A 
ENDROOT
BRANCH   1   7
ATOM      7  C1  UNL d   1      -0.864  -1.697   1.392  0.00  0.00     0.055 C 
ATOM      8  C   UNL d   1      -1.761  -0.637   2.015  0.00  0.00     0.019 C 
ENDBRANCH   1   7
TORSDOF 1
ENDMDL
