MODEL 1
REMARK minimizedAffinity -5.26711559
REMARK minimizedRMSD -1
REMARK  1 active torsions:
REMARK  status: ('A' for Active; 'I' for Inactive)
REMARK    1  A    between atoms: C1_2  and  C2_3 
ROOT
ATOM      1  C2  UNL d   1       0.032   0.978   0.371  0.00  0.00    -0.077 A 
ATOM      2  C3  UNL d   1      -0.513  -0.126   1.041  0.00  0.00     0.002 A 
ATOM      3  C4  UNL d   1       0.268  -1.256   1.291  0.00  0.00     0.002 A 
ATOM      4  C5  UNL d   1       1.598  -1.292   0.878  0.00  0.00    -0.004 A 
ATOM      5  C6  UNL d   1       2.148  -0.199   0.208  0.00  0.00     0.002 A 
ATOM      6  C7  UNL d   1       1.369   0.931  -0.043  0.00  0.00     0.002 A 
ENDROOT
BRANCH   1   7
ATOM      7  C1  UNL d   1      -0.794   2.217   0.144  0.00  0.00     0.055 C 
ATOM      8  C   UNL d   1      -0.286   3.010  -1.051  0.00  0.00     0.019 C 
ENDBRANCH   1   7
TORSDOF 1
ENDMDL
