MODEL 1
REMARK minimizedAffinity -4.25842094
REMARK minimizedRMSD -1
REMARK  1 active torsions:
REMARK  status: ('A' for Active; 'I' for Inactive)
REMARK    1  A    between atoms: C1_2  and  C2_3 
ROOT
ATOM      1  C2  UNL d   1       0.151   1.459  -0.170  0.00  0.00    -0.077 A 
ATOM      2  C3  UNL d   1       1.437   0.907  -0.247  0.00  0.00     0.002 A 
ATOM      3  C4  UNL d   1       1.718  -0.318   0.362  0.00  0.00     0.002 A 
ATOM      4  C5  UNL d   1       0.717  -1.002   1.049  0.00  0.00    -0.004 A 
ATOM      5  C6  UNL d   1      -0.565  -0.460   1.133  0.00  0.00     0.002 A 
ATOM      6  C7  UNL d   1      -0.847   0.764   0.525  0.00  0.00     0.002 A 
ENDROOT
BRANCH   1   7
ATOM      7  C1  UNL d   1      -0.167   2.755  -0.869  0.00  0.00     0.055 C 
ATOM      8  C   UNL d   1      -1.370   2.608  -1.789  0.00  0.00     0.019 C 
ENDBRANCH   1   7
TORSDOF 1
ENDMDL
