MODEL 1
REMARK minimizedAffinity -5.50804853
REMARK minimizedRMSD -1
REMARK  1 active torsions:
REMARK  status: ('A' for Active; 'I' for Inactive)
REMARK    1  A    between atoms: C1_2  and  C2_3 
ROOT
ATOM      1  C2  UNL d   1       0.394  -1.076   0.687  0.00  0.00    -0.077 A 
ATOM      2  C3  UNL d   1       0.757  -0.015  -0.153  0.00  0.00     0.002 A 
ATOM      3  C4  UNL d   1      -0.017   1.146  -0.201  0.00  0.00     0.002 A 
ATOM      4  C5  UNL d   1      -1.157   1.258   0.592  0.00  0.00    -0.004 A 
ATOM      5  C6  UNL d   1      -1.529   0.207   1.430  0.00  0.00     0.002 A 
ATOM      6  C7  UNL d   1      -0.756  -0.954   1.478  0.00  0.00     0.002 A 
ENDROOT
BRANCH   1   7
ATOM      7  C1  UNL d   1       1.255  -2.309   0.777  0.00  0.00     0.055 C 
ATOM      8  C   UNL d   1       2.624  -1.986   1.358  0.00  0.00     0.019 C 
ENDBRANCH   1   7
TORSDOF 1
ENDMDL
