MODEL 1
REMARK minimizedAffinity 0.0458500497
REMARK minimizedRMSD -1
REMARK  1 active torsions:
REMARK  status: ('A' for Active; 'I' for Inactive)
REMARK    1  A    between atoms: C1_2  and  C2_3 
ROOT
ATOM      1  C2  UNL d   1      -0.423  -0.051   0.289  0.00  0.00    -0.077 A 
ATOM      2  C3  UNL d   1      -1.393   0.215   1.266  0.00  0.00     0.002 A 
ATOM      3  C4  UNL d   1      -1.813  -0.793   2.135  0.00  0.00     0.002 A 
ATOM      4  C5  UNL d   1      -1.267  -2.071   2.040  0.00  0.00    -0.004 A 
ATOM      5  C6  UNL d   1      -0.303  -2.346   1.070  0.00  0.00     0.002 A 
ATOM      6  C7  UNL d   1       0.118  -1.340   0.199  0.00  0.00     0.002 A 
ENDROOT
BRANCH   1   7
ATOM      7  C1  UNL d   1       0.068   1.048  -0.618  0.00  0.00     0.055 C 
ATOM      8  C   UNL d   1       1.574   1.232  -0.499  0.00  0.00     0.019 C 
ENDBRANCH   1   7
TORSDOF 1
ENDMDL
