MODEL 1
REMARK minimizedAffinity -5.62817907
REMARK minimizedRMSD -1
REMARK  1 active torsions:
REMARK  status: ('A' for Active; 'I' for Inactive)
REMARK    1  A    between atoms: C1_2  and  C2_3 
ROOT
ATOM      1  C2  UNL d   1       0.320  -0.453  -0.057  0.00  0.00    -0.077 A 
ATOM      2  C3  UNL d   1      -0.212  -1.529   0.667  0.00  0.00     0.002 A 
ATOM      3  C4  UNL d   1       0.625  -2.360   1.415  0.00  0.00     0.002 A 
ATOM      4  C5  UNL d   1       1.997  -2.121   1.449  0.00  0.00    -0.004 A 
ATOM      5  C6  UNL d   1       2.536  -1.055   0.731  0.00  0.00     0.002 A 
ATOM      6  C7  UNL d   1       1.702  -0.224  -0.018  0.00  0.00     0.002 A 
ENDROOT
BRANCH   1   7
ATOM      7  C1  UNL d   1      -0.586   0.473  -0.825  0.00  0.00     0.055 C 
ATOM      8  C   UNL d   1      -1.369   1.383   0.111  0.00  0.00     0.019 C 
ENDBRANCH   1   7
TORSDOF 1
ENDMDL
