MODEL 1
REMARK minimizedAffinity -4.31619835
REMARK minimizedRMSD -1
REMARK  1 active torsions:
REMARK  status: ('A' for Active; 'I' for Inactive)
REMARK    1  A    between atoms: C1_2  and  C2_3 
ROOT
ATOM      1  C2  UNL d   1      -0.821   0.699  -0.044  0.00  0.00    -0.077 A 
ATOM      2  C3  UNL d   1      -0.151  -0.504  -0.309  0.00  0.00     0.002 A 
ATOM      3  C4  UNL d   1      -0.259  -1.582   0.571  0.00  0.00     0.002 A 
ATOM      4  C5  UNL d   1      -1.040  -1.470   1.720  0.00  0.00    -0.004 A 
ATOM      5  C6  UNL d   1      -1.708  -0.278   1.994  0.00  0.00     0.002 A 
ATOM      6  C7  UNL d   1      -1.600   0.802   1.116  0.00  0.00     0.002 A 
ENDROOT
BRANCH   1   7
ATOM      7  C1  UNL d   1      -0.744   1.846  -1.017  0.00  0.00     0.055 C 
ATOM      8  C   UNL d   1      -2.006   1.939  -1.862  0.00  0.00     0.019 C 
ENDBRANCH   1   7
TORSDOF 1
ENDMDL
