MODEL 1
REMARK minimizedAffinity -5.71241951
REMARK minimizedRMSD -1
REMARK  1 active torsions:
REMARK  status: ('A' for Active; 'I' for Inactive)
REMARK    1  A    between atoms: C1_2  and  C2_3 
ROOT
ATOM      1  C2  UNL d   1       0.493  -0.654   0.305  0.00  0.00    -0.077 A 
ATOM      2  C3  UNL d   1      -0.747  -0.158   0.731  0.00  0.00     0.002 A 
ATOM      3  C4  UNL d   1      -1.339  -0.643   1.899  0.00  0.00     0.002 A 
ATOM      4  C5  UNL d   1      -0.696  -1.624   2.652  0.00  0.00    -0.004 A 
ATOM      5  C6  UNL d   1       0.536  -2.125   2.235  0.00  0.00     0.002 A 
ATOM      6  C7  UNL d   1       1.129  -1.642   1.068  0.00  0.00     0.002 A 
ENDROOT
BRANCH   1   7
ATOM      7  C1  UNL d   1       1.156  -0.096  -0.927  0.00  0.00     0.055 C 
ATOM      8  C   UNL d   1       2.512   0.511  -0.599  0.00  0.00     0.019 C 
ENDBRANCH   1   7
TORSDOF 1
ENDMDL
