MODEL 1
REMARK minimizedAffinity -3.33472204
REMARK minimizedRMSD -1
REMARK  1 active torsions:
REMARK  status: ('A' for Active; 'I' for Inactive)
REMARK    1  A    between atoms: C1_2  and  C2_3 
ROOT
ATOM      1  C2  UNL d   1      -0.065   0.480   0.219  0.00  0.00    -0.077 A 
ATOM      2  C3  UNL d   1      -0.487  -0.748   0.747  0.00  0.00     0.002 A 
ATOM      3  C4  UNL d   1       0.428  -1.784   0.943  0.00  0.00     0.002 A 
ATOM      4  C5  UNL d   1       1.771  -1.601   0.619  0.00  0.00    -0.004 A 
ATOM      5  C6  UNL d   1       2.200  -0.384   0.092  0.00  0.00     0.002 A 
ATOM      6  C7  UNL d   1       1.287   0.652  -0.107  0.00  0.00     0.002 A 
ENDROOT
BRANCH   1   7
ATOM      7  C1  UNL d   1      -1.041   1.615   0.052  0.00  0.00     0.055 C 
ATOM      8  C   UNL d   1      -1.187   2.009  -1.411  0.00  0.00     0.019 C 
ENDBRANCH   1   7
TORSDOF 1
ENDMDL
