MODEL 1
REMARK minimizedAffinity -4.83790302
REMARK minimizedRMSD -1
REMARK  1 active torsions:
REMARK  status: ('A' for Active; 'I' for Inactive)
REMARK    1  A    between atoms: C1_2  and  C2_3 
ROOT
ATOM      1  C2  UNL d   1      -0.300   0.580  -0.232  0.00  0.00    -0.077 A 
ATOM      2  C3  UNL d   1       0.886   0.876  -0.919  0.00  0.00     0.002 A 
ATOM      3  C4  UNL d   1       1.973   0.002  -0.860  0.00  0.00     0.002 A 
ATOM      4  C5  UNL d   1       1.884  -1.174  -0.120  0.00  0.00    -0.004 A 
ATOM      5  C6  UNL d   1       0.710  -1.477   0.569  0.00  0.00     0.002 A 
ATOM      6  C7  UNL d   1      -0.377  -0.604   0.512  0.00  0.00     0.002 A 
ENDROOT
BRANCH   1   7
ATOM      7  C1  UNL d   1      -1.491   1.497  -0.334  0.00  0.00     0.055 C 
ATOM      8  C   UNL d   1      -1.782   1.867  -1.781  0.00  0.00     0.019 C 
ENDBRANCH   1   7
TORSDOF 1
ENDMDL
