MODEL 1
REMARK minimizedAffinity -5.33132124
REMARK minimizedRMSD -1
REMARK  1 active torsions:
REMARK  status: ('A' for Active; 'I' for Inactive)
REMARK    1  A    between atoms: C1_2  and  C2_3 
ROOT
ATOM      1  C2  UNL d   1      -1.225   2.996  -3.715  0.00  0.00    -0.077 A 
ATOM      2  C3  UNL d   1      -0.883   3.779  -4.827  0.00  0.00     0.002 A 
ATOM      3  C4  UNL d   1      -0.322   5.046  -4.652  0.00  0.00     0.002 A 
ATOM      4  C5  UNL d   1      -0.094   5.538  -3.369  0.00  0.00    -0.004 A 
ATOM      5  C6  UNL d   1      -0.432   4.768  -2.257  0.00  0.00     0.002 A 
ATOM      6  C7  UNL d   1      -0.995   3.502  -2.429  0.00  0.00     0.002 A 
ENDROOT
BRANCH   1   7
ATOM      7  C1  UNL d   1      -1.785   1.610  -3.901  0.00  0.00     0.055 C 
ATOM      8  C   UNL d   1      -2.999   1.380  -3.012  0.00  0.00     0.019 C 
ENDBRANCH   1   7
TORSDOF 1
ENDMDL
