MODEL 1
REMARK minimizedAffinity -5.68199587
REMARK minimizedRMSD -1
REMARK  0 active torsions:
REMARK  status: ('A' for Active; 'I' for Inactive)
ROOT
ATOM      1  C   UNL d   1      -0.653   0.858  -0.461  0.00  0.00     0.078 C 
ATOM      2  C1  UNL d   1       0.573   0.141   0.017  0.00  0.00    -0.077 A 
ATOM      3  C2  UNL d   1       1.595   0.827   0.686  0.00  0.00    -0.001 A 
ATOM      4  C3  UNL d   1       2.736   0.148   1.117  0.00  0.00     0.003 A 
ATOM      5  C4  UNL d   1       2.866  -1.220   0.884  0.00  0.00    -0.005 A 
ATOM      6  C5  UNL d   1       1.856  -1.910   0.219  0.00  0.00     0.003 A 
ATOM      7  C6  UNL d   1       0.714  -1.233  -0.214  0.00  0.00    -0.001 A 
ENDROOT
TORSDOF 0
ENDMDL
