MODEL 1
REMARK minimizedAffinity -5.03175735
REMARK minimizedRMSD -1
REMARK  0 active torsions:
REMARK  status: ('A' for Active; 'I' for Inactive)
ROOT
ATOM      1  C   UNL d   1       3.056  -1.550   0.058  0.00  0.00     0.078 C 
ATOM      2  C1  UNL d   1       1.898  -0.610  -0.103  0.00  0.00    -0.077 A 
ATOM      3  C2  UNL d   1       2.064   0.772   0.050  0.00  0.00    -0.001 A 
ATOM      4  C3  UNL d   1       0.976   1.634  -0.093  0.00  0.00     0.003 A 
ATOM      5  C4  UNL d   1      -0.287   1.124  -0.388  0.00  0.00    -0.005 A 
ATOM      6  C5  UNL d   1      -0.462  -0.250  -0.541  0.00  0.00     0.003 A 
ATOM      7  C6  UNL d   1       0.625  -1.114  -0.398  0.00  0.00    -0.001 A 
ENDROOT
TORSDOF 0
ENDMDL
