MODEL 1
REMARK minimizedAffinity -4.81829691
REMARK minimizedRMSD -1
REMARK  0 active torsions:
REMARK  status: ('A' for Active; 'I' for Inactive)
ROOT
ATOM      1  C   UNL d   1       2.677  -1.860   0.802  0.00  0.00     0.078 C 
ATOM      2  C1  UNL d   1       1.471  -1.065   0.398  0.00  0.00    -0.077 A 
ATOM      3  C2  UNL d   1       0.437  -1.650  -0.343  0.00  0.00    -0.001 A 
ATOM      4  C3  UNL d   1      -0.675  -0.896  -0.720  0.00  0.00     0.003 A 
ATOM      5  C4  UNL d   1      -0.762   0.448  -0.363  0.00  0.00    -0.005 A 
ATOM      6  C5  UNL d   1       0.263   1.040   0.372  0.00  0.00     0.003 A 
ATOM      7  C6  UNL d   1       1.376   0.287   0.751  0.00  0.00    -0.001 A 
ENDROOT
TORSDOF 0
ENDMDL
