MODEL 1
REMARK minimizedAffinity -2.51257086
REMARK minimizedRMSD -1
REMARK  1 active torsions:
REMARK  status: ('A' for Active; 'I' for Inactive)
REMARK    1  A    between atoms: N_2  and  C1_3 
ROOT
ATOM      1  C1  UNL d   1      -0.903   0.065  -1.143  0.00  0.00     0.143 A 
ATOM      2  C2  UNL d   1      -1.059   0.412   0.203  0.00  0.00    -0.057 A 
ATOM      3  C3  UNL d   1      -0.087   1.158   0.879  0.00  0.00     0.033 A 
ATOM      4  C4  UNL d   1       1.078   1.548   0.225  0.00  0.00    -0.042 A 
ATOM      5  C5  UNL d   1       1.267   1.193  -1.106  0.00  0.00     0.033 A 
ATOM      6  C6  UNL d   1       0.288   0.453  -1.777  0.00  0.00    -0.057 A 
ENDROOT
BRANCH   1   7
ATOM      7  N   UNL d   1      -1.788  -0.759  -1.842  0.00  0.00    -0.732 N 
ATOM      8  C   UNL d   1      -2.518  -0.255  -2.985  0.00  0.00     0.284 C 
ATOM      9  H3  UNL d   1      -1.427  -1.703  -1.962  0.00  0.00     0.395 HD
ENDBRANCH   1   7
TORSDOF 1
ENDMDL
