MODEL 1
REMARK minimizedAffinity -1.84116328
REMARK minimizedRMSD -1
REMARK  1 active torsions:
REMARK  status: ('A' for Active; 'I' for Inactive)
REMARK    1  A    between atoms: N_2  and  C1_3 
ROOT
ATOM      1  C1  UNL d   1      -2.759   1.689  -1.898  0.00  0.00     0.143 A 
ATOM      2  C2  UNL d   1      -2.607   1.770  -3.287  0.00  0.00    -0.057 A 
ATOM      3  C3  UNL d   1      -2.934   2.938  -3.986  0.00  0.00     0.033 A 
ATOM      4  C4  UNL d   1      -3.448   4.040  -3.310  0.00  0.00    -0.042 A 
ATOM      5  C5  UNL d   1      -3.631   3.973  -1.933  0.00  0.00     0.033 A 
ATOM      6  C6  UNL d   1      -3.296   2.806  -1.240  0.00  0.00    -0.057 A 
ENDROOT
BRANCH   1   7
ATOM      7  N   UNL d   1      -2.545   0.523  -1.159  0.00  0.00    -0.732 N 
ATOM      8  C   UNL d   1      -1.479   0.455  -0.183  0.00  0.00     0.284 C 
ATOM      9  H3  UNL d   1      -3.414   0.090  -0.856  0.00  0.00     0.395 HD
ENDBRANCH   1   7
TORSDOF 1
ENDMDL
