MODEL 1
REMARK minimizedAffinity 5.03958607
REMARK minimizedRMSD -1
REMARK  1 active torsions:
REMARK  status: ('A' for Active; 'I' for Inactive)
REMARK    1  A    between atoms: N_2  and  C1_3 
ROOT
ATOM      1  C1  UNL d   1      -3.286   1.909   0.765  0.00  0.00     0.143 A 
ATOM      2  C2  UNL d   1      -4.186   2.212   1.793  0.00  0.00    -0.057 A 
ATOM      3  C3  UNL d   1      -5.396   2.865   1.529  0.00  0.00     0.033 A 
ATOM      4  C4  UNL d   1      -5.715   3.253   0.232  0.00  0.00    -0.042 A 
ATOM      5  C5  UNL d   1      -4.825   2.985  -0.801  0.00  0.00     0.033 A 
ATOM      6  C6  UNL d   1      -3.621   2.326  -0.532  0.00  0.00    -0.057 A 
ENDROOT
BRANCH   1   7
ATOM      7  N   UNL d   1      -2.023   1.350   0.977  0.00  0.00    -0.732 N 
ATOM      8  C   UNL d   1      -1.821  -0.078   0.865  0.00  0.00     0.284 C 
ATOM      9  H3  UNL d   1      -1.278   1.909   0.568  0.00  0.00     0.395 HD
ENDBRANCH   1   7
TORSDOF 1
ENDMDL
