MODEL 1
REMARK minimizedAffinity -5.57330942
REMARK minimizedRMSD -1
REMARK  1 active torsions:
REMARK  status: ('A' for Active; 'I' for Inactive)
REMARK    1  A    between atoms: N_2  and  C1_3 
ROOT
ATOM      1  C1  UNL d   1       0.045  -0.060   0.473  0.00  0.00     0.143 A 
ATOM      2  C2  UNL d   1       1.206   0.709   0.605  0.00  0.00    -0.057 A 
ATOM      3  C3  UNL d   1       2.402   0.146   1.067  0.00  0.00     0.033 A 
ATOM      4  C4  UNL d   1       2.450  -1.195   1.433  0.00  0.00    -0.042 A 
ATOM      5  C5  UNL d   1       1.301  -1.973   1.334  0.00  0.00     0.033 A 
ATOM      6  C6  UNL d   1       0.112  -1.406   0.865  0.00  0.00    -0.057 A 
ENDROOT
BRANCH   1   7
ATOM      7  N   UNL d   1      -1.198   0.465   0.113  0.00  0.00    -0.732 N 
ATOM      8  C   UNL d   1      -1.792   0.144  -1.167  0.00  0.00     0.284 C 
ATOM      9  H3  UNL d   1      -1.858   0.467   0.888  0.00  0.00     0.395 HD
ENDBRANCH   1   7
TORSDOF 1
ENDMDL
