MODEL 1
REMARK minimizedAffinity -3.08590102
REMARK minimizedRMSD -1
REMARK  1 active torsions:
REMARK  status: ('A' for Active; 'I' for Inactive)
REMARK    1  A    between atoms: N_2  and  C1_3 
ROOT
ATOM      1  C1  UNL d   1      -0.297  -0.162   0.462  0.00  0.00     0.143 A 
ATOM      2  C2  UNL d   1       0.595   0.916   0.459  0.00  0.00    -0.057 A 
ATOM      3  C3  UNL d   1       1.792   0.870   1.183  0.00  0.00     0.033 A 
ATOM      4  C4  UNL d   1       2.106  -0.248   1.949  0.00  0.00    -0.042 A 
ATOM      5  C5  UNL d   1       1.223  -1.321   1.987  0.00  0.00     0.033 A 
ATOM      6  C6  UNL d   1       0.032  -1.272   1.256  0.00  0.00    -0.057 A 
ENDROOT
BRANCH   1   7
ATOM      7  N   UNL d   1      -1.548  -0.138  -0.159  0.00  0.00    -0.732 N 
ATOM      8  C   UNL d   1      -1.662  -0.266  -1.596  0.00  0.00     0.284 C 
ATOM      9  H3  UNL d   1      -2.250  -0.660   0.362  0.00  0.00     0.395 HD
ENDBRANCH   1   7
TORSDOF 1
ENDMDL
