MODEL 1
REMARK minimizedAffinity -4.59314728
REMARK minimizedRMSD -1
REMARK  1 active torsions:
REMARK  status: ('A' for Active; 'I' for Inactive)
REMARK    1  A    between atoms: N_2  and  C1_3 
ROOT
ATOM      1  C1  UNL d   1       0.181  -0.459   0.431  0.00  0.00     0.143 A 
ATOM      2  C2  UNL d   1       0.772   0.808   0.405  0.00  0.00    -0.057 A 
ATOM      3  C3  UNL d   1       2.115   0.990   0.753  0.00  0.00     0.033 A 
ATOM      4  C4  UNL d   1       2.887  -0.092   1.162  0.00  0.00    -0.042 A 
ATOM      5  C5  UNL d   1       2.314  -1.358   1.220  0.00  0.00     0.033 A 
ATOM      6  C6  UNL d   1       0.973  -1.534   0.865  0.00  0.00    -0.057 A 
ENDROOT
BRANCH   1   7
ATOM      7  N   UNL d   1      -1.176  -0.690   0.191  0.00  0.00    -0.732 N 
ATOM      8  C   UNL d   1      -1.764  -0.366  -1.091  0.00  0.00     0.284 C 
ATOM      9  H3  UNL d   1      -1.495  -1.573   0.583  0.00  0.00     0.395 HD
ENDBRANCH   1   7
TORSDOF 1
ENDMDL
