MODEL 1
REMARK minimizedAffinity -4.4523325
REMARK minimizedRMSD -1
REMARK  1 active torsions:
REMARK  status: ('A' for Active; 'I' for Inactive)
REMARK    1  A    between atoms: N_2  and  C1_3 
ROOT
ATOM      1  C1  UNL d   1       0.665   0.104   0.626  0.00  0.00     0.143 A 
ATOM      2  C2  UNL d   1       0.655  -1.054   1.410  0.00  0.00    -0.057 A 
ATOM      3  C3  UNL d   1       1.836  -1.753   1.688  0.00  0.00     0.033 A 
ATOM      4  C4  UNL d   1       3.048  -1.320   1.161  0.00  0.00    -0.042 A 
ATOM      5  C5  UNL d   1       3.078  -0.185   0.359  0.00  0.00     0.033 A 
ATOM      6  C6  UNL d   1       1.897   0.512   0.090  0.00  0.00    -0.057 A 
ENDROOT
BRANCH   1   7
ATOM      7  N   UNL d   1      -0.488   0.787   0.232  0.00  0.00    -0.732 N 
ATOM      8  C   UNL d   1      -1.433   0.176  -0.679  0.00  0.00     0.284 C 
ATOM      9  H3  UNL d   1      -0.921   1.295   1.000  0.00  0.00     0.395 HD
ENDBRANCH   1   7
TORSDOF 1
ENDMDL
