MODEL 1
REMARK minimizedAffinity -1.97624075
REMARK minimizedRMSD -1
REMARK  0 active torsions:
REMARK  status: ('A' for Active; 'I' for Inactive)
ROOT
ATOM      1  C   UNL d   1       5.998   2.476  -4.427  0.00  0.00     0.172 C 
ATOM      2  N   UNL d   1       5.998   1.039  -4.573  0.00  0.00    -0.070 N 
ATOM      3  C1  UNL d   1       6.000   0.133  -3.546  0.00  0.00    -0.004 A 
ATOM      4  C2  UNL d   1       5.999  -1.130  -4.098  0.00  0.00    -0.047 A 
ATOM      5  C3  UNL d   1       5.998  -0.977  -5.505  0.00  0.00    -0.047 A 
ATOM      6  C4  UNL d   1       5.998   0.376  -5.771  0.00  0.00    -0.004 A 
ENDROOT
TORSDOF 0
ENDMDL
