MODEL 1
REMARK minimizedAffinity 0.485821187
REMARK minimizedRMSD -1
REMARK  0 active torsions:
REMARK  status: ('A' for Active; 'I' for Inactive)
ROOT
ATOM      1  C   UNL d   1       5.977   2.786  -3.720  0.00  0.00     0.172 C 
ATOM      2  N   UNL d   1       5.920   1.418  -4.179  0.00  0.00    -0.070 N 
ATOM      3  C1  UNL d   1       5.781   1.018  -5.481  0.00  0.00    -0.004 A 
ATOM      4  C2  UNL d   1       5.771  -0.360  -5.501  0.00  0.00    -0.047 A 
ATOM      5  C3  UNL d   1       5.909  -0.803  -4.164  0.00  0.00    -0.047 A 
ATOM      6  C4  UNL d   1       5.999   0.318  -3.366  0.00  0.00    -0.004 A 
ENDROOT
TORSDOF 0
ENDMDL
