MODEL 1
REMARK minimizedAffinity 4.79785633
REMARK minimizedRMSD -1
REMARK  0 active torsions:
REMARK  status: ('A' for Active; 'I' for Inactive)
ROOT
ATOM      1  C   UNL d   1       0.850   4.892  -3.418  0.00  0.00     0.172 C 
ATOM      2  N   UNL d   1      -0.450   4.328  -3.141  0.00  0.00    -0.070 N 
ATOM      3  C1  UNL d   1      -0.688   3.068  -2.659  0.00  0.00    -0.004 A 
ATOM      4  C2  UNL d   1      -2.052   2.916  -2.532  0.00  0.00    -0.047 A 
ATOM      5  C3  UNL d   1      -2.655   4.125  -2.953  0.00  0.00    -0.047 A 
ATOM      6  C4  UNL d   1      -1.640   4.982  -3.324  0.00  0.00    -0.004 A 
ENDROOT
TORSDOF 0
ENDMDL
