MODEL 1
REMARK minimizedAffinity 0.532179773
REMARK minimizedRMSD -1
REMARK  0 active torsions:
REMARK  status: ('A' for Active; 'I' for Inactive)
ROOT
ATOM      1  C   UNL d   1       0.322  -1.871   2.995  0.00  0.00     0.172 C 
ATOM      2  N   UNL d   1       1.215  -2.466   2.028  0.00  0.00    -0.070 N 
ATOM      3  C1  UNL d   1       1.753  -1.830   0.942  0.00  0.00    -0.004 A 
ATOM      4  C2  UNL d   1       2.548  -2.736   0.273  0.00  0.00    -0.047 A 
ATOM      5  C3  UNL d   1       2.484  -3.959   0.982  0.00  0.00    -0.047 A 
ATOM      6  C4  UNL d   1       1.652  -3.764   2.064  0.00  0.00    -0.004 A 
ENDROOT
TORSDOF 0
ENDMDL
