MODEL 1
REMARK minimizedAffinity 3.22784567
REMARK minimizedRMSD -1
REMARK  0 active torsions:
REMARK  status: ('A' for Active; 'I' for Inactive)
ROOT
ATOM      1  C   UNL d   1       5.994   2.117  -4.424  0.00  0.00     0.172 C 
ATOM      2  N   UNL d   1       5.994   0.673  -4.407  0.00  0.00    -0.070 N 
ATOM      3  C1  UNL d   1       5.987  -0.138  -5.510  0.00  0.00    -0.004 A 
ATOM      4  C2  UNL d   1       5.990  -1.445  -5.072  0.00  0.00    -0.047 A 
ATOM      5  C3  UNL d   1       5.998  -1.418  -3.657  0.00  0.00    -0.047 A 
ATOM      6  C4  UNL d   1       6.000  -0.094  -3.272  0.00  0.00    -0.004 A 
ENDROOT
TORSDOF 0
ENDMDL
