MODEL 1
REMARK minimizedAffinity 1.46017706
REMARK minimizedRMSD -1
REMARK  0 active torsions:
REMARK  status: ('A' for Active; 'I' for Inactive)
ROOT
ATOM      1  C   UNL d   1       5.998   2.324  -4.132  0.00  0.00     0.172 C 
ATOM      2  N   UNL d   1       5.985   0.888  -4.285  0.00  0.00    -0.070 N 
ATOM      3  C1  UNL d   1       5.970   0.212  -5.476  0.00  0.00    -0.004 A 
ATOM      4  C2  UNL d   1       5.962  -1.137  -5.196  0.00  0.00    -0.047 A 
ATOM      5  C3  UNL d   1       5.972  -1.277  -3.788  0.00  0.00    -0.047 A 
ATOM      6  C4  UNL d   1       5.986  -0.008  -3.249  0.00  0.00    -0.004 A 
ENDROOT
TORSDOF 0
ENDMDL
