MODEL 1
REMARK minimizedAffinity 3.27802539
REMARK minimizedRMSD -1
REMARK  0 active torsions:
REMARK  status: ('A' for Active; 'I' for Inactive)
ROOT
ATOM      1  C   UNL d   1      -0.418   2.817  -2.956  0.00  0.00     0.172 C 
ATOM      2  N   UNL d   1       0.615   1.930  -2.473  0.00  0.00    -0.070 N 
ATOM      3  C1  UNL d   1       1.496   2.206  -1.462  0.00  0.00    -0.004 A 
ATOM      4  C2  UNL d   1       2.316   1.110  -1.306  0.00  0.00    -0.047 A 
ATOM      5  C3  UNL d   1       1.914   0.141  -2.256  0.00  0.00    -0.047 A 
ATOM      6  C4  UNL d   1       0.859   0.675  -2.966  0.00  0.00    -0.004 A 
ENDROOT
TORSDOF 0
ENDMDL
