MODEL 1
REMARK minimizedAffinity 11.1636801
REMARK minimizedRMSD -1
REMARK  1 active torsions:
REMARK  status: ('A' for Active; 'I' for Inactive)
REMARK    1  A    between atoms: C1_2  and  C2_3 
ROOT
ATOM      1  C2  UNL d   1      -3.439   2.187  -3.958  0.00  0.00    -0.081 A 
ATOM      2  C3  UNL d   1      -3.671   1.578  -5.197  0.00  0.00     0.006 A 
ATOM      3  C4  UNL d   1      -4.008   0.224  -5.269  0.00  0.00     0.002 A 
ATOM      4  C5  UNL d   1      -4.126  -0.540  -4.103  0.00  0.00    -0.080 A 
ATOM      5  C6  UNL d   1      -4.517  -1.987  -4.164  0.00  0.00     0.076 C 
ATOM      6  C7  UNL d   1      -3.877   0.064  -2.866  0.00  0.00     0.002 A 
ATOM      7  C8  UNL d   1      -3.539   1.417  -2.794  0.00  0.00     0.006 A 
ENDROOT
BRANCH   1   8
ATOM      8  C1  UNL d   1      -3.138   3.662  -3.873  0.00  0.00     0.054 C 
ATOM      9  C   UNL d   1      -1.954   3.934  -2.956  0.00  0.00     0.018 C 
ENDBRANCH   1   8
TORSDOF 1
ENDMDL
