MODEL 1
REMARK minimizedAffinity 6.24838209
REMARK minimizedRMSD -1
REMARK  1 active torsions:
REMARK  status: ('A' for Active; 'I' for Inactive)
REMARK    1  A    between atoms: C1_2  and  C2_3 
ROOT
ATOM      1  C2  UNL d   1       1.760  -2.340   1.204  0.00  0.00    -0.081 A 
ATOM      2  C3  UNL d   1       2.558  -3.405   1.640  0.00  0.00     0.006 A 
ATOM      3  C4  UNL d   1       3.920  -3.441   1.334  0.00  0.00     0.002 A 
ATOM      4  C5  UNL d   1       4.509  -2.409   0.595  0.00  0.00    -0.080 A 
ATOM      5  C6  UNL d   1       5.976  -2.420   0.285  0.00  0.00     0.076 C 
ATOM      6  C7  UNL d   1       3.709  -1.354   0.145  0.00  0.00     0.002 A 
ATOM      7  C8  UNL d   1       2.346  -1.318   0.450  0.00  0.00     0.006 A 
ENDROOT
BRANCH   1   8
ATOM      8  C1  UNL d   1       0.304  -2.266   1.588  0.00  0.00     0.054 C 
ATOM      9  C   UNL d   1       0.129  -1.708   2.993  0.00  0.00     0.018 C 
ENDBRANCH   1   8
TORSDOF 1
ENDMDL
