MODEL 1
REMARK minimizedAffinity 2.7141223
REMARK minimizedRMSD -1
REMARK  1 active torsions:
REMARK  status: ('A' for Active; 'I' for Inactive)
REMARK    1  A    between atoms: C1_2  and  C2_3 
ROOT
ATOM      1  C2  UNL d   1      -3.078   0.874  -4.871  0.00  0.00    -0.081 A 
ATOM      2  C3  UNL d   1      -4.314   0.572  -5.456  0.00  0.00     0.006 A 
ATOM      3  C4  UNL d   1      -5.041  -0.545  -5.039  0.00  0.00     0.002 A 
ATOM      4  C5  UNL d   1      -4.550  -1.373  -4.024  0.00  0.00    -0.080 A 
ATOM      5  C6  UNL d   1      -5.335  -2.559  -3.546  0.00  0.00     0.076 C 
ATOM      6  C7  UNL d   1      -3.307  -1.081  -3.451  0.00  0.00     0.002 A 
ATOM      7  C8  UNL d   1      -2.579   0.035  -3.869  0.00  0.00     0.006 A 
ENDROOT
BRANCH   1   8
ATOM      8  C1  UNL d   1      -2.322   2.115  -5.273  0.00  0.00     0.054 C 
ATOM      9  C   UNL d   1      -2.380   3.176  -4.184  0.00  0.00     0.018 C 
ENDBRANCH   1   8
TORSDOF 1
ENDMDL
