MODEL 1
REMARK minimizedAffinity 0.873132288
REMARK minimizedRMSD -1
REMARK  1 active torsions:
REMARK  status: ('A' for Active; 'I' for Inactive)
REMARK    1  A    between atoms: C1_2  and  C2_3 
ROOT
ATOM      1  C2  UNL d   1      -4.340   0.130  -3.784  0.00  0.00    -0.081 A 
ATOM      2  C3  UNL d   1      -4.194   1.019  -2.712  0.00  0.00     0.006 A 
ATOM      3  C4  UNL d   1      -3.627   0.591  -1.510  0.00  0.00     0.002 A 
ATOM      4  C5  UNL d   1      -3.191  -0.730  -1.361  0.00  0.00    -0.080 A 
ATOM      5  C6  UNL d   1      -2.553  -1.195  -0.086  0.00  0.00     0.076 C 
ATOM      6  C7  UNL d   1      -3.353  -1.623  -2.426  0.00  0.00     0.002 A 
ATOM      7  C8  UNL d   1      -3.920  -1.195  -3.629  0.00  0.00     0.006 A 
ENDROOT
BRANCH   1   8
ATOM      8  C1  UNL d   1      -4.891   0.605  -5.104  0.00  0.00     0.054 C 
ATOM      9  C   UNL d   1      -3.789   1.152  -6.000  0.00  0.00     0.018 C 
ENDBRANCH   1   8
TORSDOF 1
ENDMDL
