MODEL 1
REMARK minimizedAffinity 6.75227451
REMARK minimizedRMSD -1
REMARK  1 active torsions:
REMARK  status: ('A' for Active; 'I' for Inactive)
REMARK    1  A    between atoms: C1_2  and  C2_3 
ROOT
ATOM      1  C2  UNL d   1      -2.615  -1.031  -4.580  0.00  0.00    -0.081 A 
ATOM      2  C3  UNL d   1      -3.653  -1.073  -3.641  0.00  0.00     0.006 A 
ATOM      3  C4  UNL d   1      -4.744  -0.209  -3.753  0.00  0.00     0.002 A 
ATOM      4  C5  UNL d   1      -4.820   0.707  -4.808  0.00  0.00    -0.080 A 
ATOM      5  C6  UNL d   1      -6.000   1.620  -4.956  0.00  0.00     0.076 C 
ATOM      6  C7  UNL d   1      -3.774   0.761  -5.736  0.00  0.00     0.002 A 
ATOM      7  C8  UNL d   1      -2.683  -0.103  -5.625  0.00  0.00     0.006 A 
ENDROOT
BRANCH   1   8
ATOM      8  C1  UNL d   1      -1.468  -2.007  -4.499  0.00  0.00     0.054 C 
ATOM      9  C   UNL d   1      -1.504  -2.999  -5.653  0.00  0.00     0.018 C 
ENDBRANCH   1   8
TORSDOF 1
ENDMDL
