MODEL 1
REMARK minimizedAffinity 14.0394249
REMARK minimizedRMSD -1
REMARK  0 active torsions:
REMARK  status: ('A' for Active; 'I' for Inactive)
ROOT
ATOM      1  O1  BZF d   1       4.496  -0.764   1.566  0.00  0.00    -0.204 OA
ATOM      2  C2  BZF d   1       3.658   0.177   0.998  0.00  0.00     0.174 A 
ATOM      3  C3  BZF d   1       2.476   0.218   1.646  0.00  0.00    -0.012 A 
ATOM      4  C3A BZF d   1       2.615  -0.692   2.741  0.00  0.00    -0.107 A 
ATOM      5  C4  BZF d   1       1.784  -1.075   3.755  0.00  0.00     0.055 A 
ATOM      6  C5  BZF d   1       2.197  -2.040   4.618  0.00  0.00    -0.016 A 
ATOM      7  C6  BZF d   1       3.430  -2.646   4.495  0.00  0.00     0.022 A 
ATOM      8  C7  BZF d   1       4.291  -2.296   3.508  0.00  0.00     0.029 A 
ATOM      9  C7A BZF d   1       3.890  -1.298   2.654  0.00  0.00     0.058 A 
ENDROOT
TORSDOF 0
ENDMDL
