MODEL 1
REMARK minimizedAffinity 12.9901237
REMARK minimizedRMSD -1
REMARK  0 active torsions:
REMARK  status: ('A' for Active; 'I' for Inactive)
ROOT
ATOM      1  O1  BZF d   1       2.261  -5.800   4.189  0.00  0.00    -0.204 OA
ATOM      2  C2  BZF d   1       1.410  -6.000   5.259  0.00  0.00     0.174 A 
ATOM      3  C3  BZF d   1       1.019  -4.822   5.786  0.00  0.00    -0.012 A 
ATOM      4  C3A BZF d   1       1.591  -3.821   4.938  0.00  0.00    -0.107 A 
ATOM      5  C4  BZF d   1       1.548  -2.457   4.934  0.00  0.00     0.055 A 
ATOM      6  C5  BZF d   1       2.276  -1.775   4.011  0.00  0.00    -0.016 A 
ATOM      7  C6  BZF d   1       3.062  -2.425   3.082  0.00  0.00     0.022 A 
ATOM      8  C7  BZF d   1       3.133  -3.778   3.043  0.00  0.00     0.029 A 
ATOM      9  C7A BZF d   1       2.372  -4.470   3.953  0.00  0.00     0.058 A 
ENDROOT
TORSDOF 0
ENDMDL
