MODEL 1
REMARK minimizedAffinity 8.80280685
REMARK minimizedRMSD -1
REMARK  0 active torsions:
REMARK  status: ('A' for Active; 'I' for Inactive)
ROOT
ATOM      1  O1  BZF d   1       1.186  -0.408   2.342  0.00  0.00    -0.204 OA
ATOM      2  C2  BZF d   1       2.045   0.565   1.869  0.00  0.00     0.174 A 
ATOM      3  C3  BZF d   1       3.258   0.453   2.447  0.00  0.00    -0.012 A 
ATOM      4  C3A BZF d   1       3.179  -0.716   3.266  0.00  0.00    -0.107 A 
ATOM      5  C4  BZF d   1       4.071  -1.357   4.078  0.00  0.00     0.055 A 
ATOM      6  C5  BZF d   1       3.656  -2.433   4.797  0.00  0.00    -0.016 A 
ATOM      7  C6  BZF d   1       2.357  -2.892   4.732  0.00  0.00     0.022 A 
ATOM      8  C7  BZF d   1       1.437  -2.293   3.937  0.00  0.00     0.029 A 
ATOM      9  C7A BZF d   1       1.862  -1.225   3.184  0.00  0.00     0.058 A 
ENDROOT
TORSDOF 0
ENDMDL
