MODEL 1
REMARK minimizedAffinity 5.70503664
REMARK minimizedRMSD -1
REMARK  0 active torsions:
REMARK  status: ('A' for Active; 'I' for Inactive)
ROOT
ATOM      1  O1  BZF d   1       4.794  -2.600   5.999  0.00  0.00    -0.204 OA
ATOM      2  C2  BZF d   1       5.998  -2.433   5.342  0.00  0.00     0.174 A 
ATOM      3  C3  BZF d   1       5.796  -2.067   4.060  0.00  0.00    -0.012 A 
ATOM      4  C3A BZF d   1       4.379  -1.912   3.932  0.00  0.00    -0.107 A 
ATOM      5  C4  BZF d   1       3.564  -1.546   2.898  0.00  0.00     0.055 A 
ATOM      6  C5  BZF d   1       2.218  -1.564   3.081  0.00  0.00    -0.016 A 
ATOM      7  C6  BZF d   1       1.653  -1.946   4.279  0.00  0.00     0.022 A 
ATOM      8  C7  BZF d   1       2.420  -2.312   5.335  0.00  0.00     0.029 A 
ATOM      9  C7A BZF d   1       3.782  -2.264   5.164  0.00  0.00     0.058 A 
ENDROOT
TORSDOF 0
ENDMDL
