MODEL 1
REMARK minimizedAffinity 5.99924517
REMARK minimizedRMSD -1
REMARK  0 active torsions:
REMARK  status: ('A' for Active; 'I' for Inactive)
ROOT
ATOM      1  O1  BZF d   1       1.906  -1.163   4.496  0.00  0.00    -0.204 OA
ATOM      2  C2  BZF d   1       1.799  -0.966   3.133  0.00  0.00     0.174 A 
ATOM      3  C3  BZF d   1       2.992  -1.138   2.529  0.00  0.00    -0.012 A 
ATOM      4  C3A BZF d   1       3.884  -1.553   3.569  0.00  0.00    -0.107 A 
ATOM      5  C4  BZF d   1       5.206  -1.893   3.592  0.00  0.00     0.055 A 
ATOM      6  C5  BZF d   1       5.794  -2.180   4.783  0.00  0.00    -0.016 A 
ATOM      7  C6  BZF d   1       5.091  -2.133   5.969  0.00  0.00     0.022 A 
ATOM      8  C7  BZF d   1       3.776  -1.807   5.996  0.00  0.00     0.029 A 
ATOM      9  C7A BZF d   1       3.171  -1.548   4.791  0.00  0.00     0.058 A 
ENDROOT
TORSDOF 0
ENDMDL
