MODEL 1
REMARK minimizedAffinity 4.20952225
REMARK minimizedRMSD -1
REMARK  0 active torsions:
REMARK  status: ('A' for Active; 'I' for Inactive)
ROOT
ATOM      1  O1  BZF d   1       2.170  -1.714   5.060  0.00  0.00    -0.204 OA
ATOM      2  C2  BZF d   1       1.706  -1.488   3.779  0.00  0.00     0.174 A 
ATOM      3  C3  BZF d   1       2.697  -1.638   2.877  0.00  0.00    -0.012 A 
ATOM      4  C3A BZF d   1       3.832  -2.070   3.634  0.00  0.00    -0.107 A 
ATOM      5  C4  BZF d   1       5.114  -2.401   3.299  0.00  0.00     0.055 A 
ATOM      6  C5  BZF d   1       5.996  -2.711   4.285  0.00  0.00    -0.016 A 
ATOM      7  C6  BZF d   1       5.632  -2.695   5.615  0.00  0.00     0.022 A 
ATOM      8  C7  BZF d   1       4.371  -2.379   5.997  0.00  0.00     0.029 A 
ATOM      9  C7A BZF d   1       3.468  -2.097   5.000  0.00  0.00     0.058 A 
ENDROOT
TORSDOF 0
ENDMDL
