MODEL 1
REMARK minimizedAffinity 17.4949207
REMARK minimizedRMSD -1
REMARK  0 active torsions:
REMARK  status: ('A' for Active; 'I' for Inactive)
ROOT
ATOM      1  O1  BZF d   1       0.958  -1.990   4.757  0.00  0.00    -0.204 OA
ATOM      2  C2  BZF d   1       1.877  -1.882   3.732  0.00  0.00     0.174 A 
ATOM      3  C3  BZF d   1       2.293  -3.101   3.332  0.00  0.00    -0.012 A 
ATOM      4  C3A BZF d   1       1.522  -4.032   4.097  0.00  0.00    -0.107 A 
ATOM      5  C4  BZF d   1       1.468  -5.396   4.140  0.00  0.00     0.055 A 
ATOM      6  C5  BZF d   1       0.659  -5.997   5.051  0.00  0.00    -0.016 A 
ATOM      7  C6  BZF d   1      -0.105  -5.266   5.937  0.00  0.00     0.022 A 
ATOM      8  C7  BZF d   1      -0.089  -3.911   5.930  0.00  0.00     0.029 A 
ATOM      9  C7A BZF d   1       0.702  -3.300   4.988  0.00  0.00     0.058 A 
ENDROOT
TORSDOF 0
ENDMDL
