MODEL 1
REMARK minimizedAffinity 1.3032614
REMARK minimizedRMSD -1
REMARK  0 active torsions:
REMARK  status: ('A' for Active; 'I' for Inactive)
ROOT
ATOM      1  O1  BZF d   1       3.189  -1.498   2.905  0.00  0.00    -0.204 OA
ATOM      2  C2  BZF d   1       1.895  -1.641   3.367  0.00  0.00     0.174 A 
ATOM      3  C3  BZF d   1       1.881  -2.257   4.566  0.00  0.00    -0.012 A 
ATOM      4  C3A BZF d   1       3.257  -2.433   4.916  0.00  0.00    -0.107 A 
ATOM      5  C4  BZF d   1       3.889  -2.972   6.000  0.00  0.00     0.055 A 
ATOM      6  C5  BZF d   1       5.245  -3.057   5.999  0.00  0.00    -0.016 A 
ATOM      7  C6  BZF d   1       5.999  -2.618   4.931  0.00  0.00     0.022 A 
ATOM      8  C7  BZF d   1       5.418  -2.072   3.835  0.00  0.00     0.029 A 
ATOM      9  C7A BZF d   1       4.049  -1.955   3.847  0.00  0.00     0.058 A 
ENDROOT
TORSDOF 0
ENDMDL
