MODEL 1
REMARK minimizedAffinity -0.143350527
REMARK minimizedRMSD -1
REMARK  0 active torsions:
REMARK  status: ('A' for Active; 'I' for Inactive)
ROOT
ATOM      1  O1  BZF d   1       3.546  -1.135   2.121  0.00  0.00    -0.204 OA
ATOM      2  C2  BZF d   1       2.203  -1.389   2.321  0.00  0.00     0.174 A 
ATOM      3  C3  BZF d   1       2.008  -2.043   3.484  0.00  0.00    -0.012 A 
ATOM      4  C3A BZF d   1       3.301  -2.126   4.091  0.00  0.00    -0.107 A 
ATOM      5  C4  BZF d   1       3.754  -2.650   5.268  0.00  0.00     0.055 A 
ATOM      6  C5  BZF d   1       5.087  -2.633   5.528  0.00  0.00    -0.016 A 
ATOM      7  C6  BZF d   1       5.995  -2.106   4.634  0.00  0.00     0.022 A 
ATOM      8  C7  BZF d   1       5.593  -1.570   3.456  0.00  0.00     0.029 A 
ATOM      9  C7A BZF d   1       4.243  -1.555   3.204  0.00  0.00     0.058 A 
ENDROOT
TORSDOF 0
ENDMDL
