MODEL 1
REMARK minimizedAffinity 18.1318493
REMARK minimizedRMSD -1
REMARK  0 active torsions:
REMARK  status: ('A' for Active; 'I' for Inactive)
ROOT
ATOM      1  O1  BZF d   1       1.257   0.965   2.044  0.00  0.00    -0.204 OA
ATOM      2  C2  BZF d   1       2.574   0.558   2.124  0.00  0.00     0.174 A 
ATOM      3  C3  BZF d   1       2.831  -0.411   1.222  0.00  0.00    -0.012 A 
ATOM      4  C3A BZF d   1       1.622  -0.558   0.472  0.00  0.00    -0.107 A 
ATOM      5  C4  BZF d   1       1.257  -1.354  -0.575  0.00  0.00     0.055 A 
ATOM      6  C5  BZF d   1      -0.023  -1.305  -1.029  0.00  0.00    -0.016 A 
ATOM      7  C6  BZF d   1      -0.965  -0.475  -0.455  0.00  0.00     0.022 A 
ATOM      8  C7  BZF d   1      -0.649   0.337   0.582  0.00  0.00     0.029 A 
ATOM      9  C7A BZF d   1       0.652   0.313   1.021  0.00  0.00     0.058 A 
ENDROOT
TORSDOF 0
ENDMDL
