MODEL 1
REMARK minimizedAffinity 4.38845301
REMARK minimizedRMSD -1
REMARK  0 active torsions:
REMARK  status: ('A' for Active; 'I' for Inactive)
ROOT
ATOM      1  O1  BZF d   1       4.719  -4.364   3.343  0.00  0.00    -0.204 OA
ATOM      2  C2  BZF d   1       6.000  -4.029   3.739  0.00  0.00     0.174 A 
ATOM      3  C3  BZF d   1       5.971  -3.109   4.724  0.00  0.00    -0.012 A 
ATOM      4  C3A BZF d   1       4.585  -2.920   5.022  0.00  0.00    -0.107 A 
ATOM      5  C4  BZF d   1       3.916  -2.140   5.922  0.00  0.00     0.055 A 
ATOM      6  C5  BZF d   1       2.557  -2.133   5.908  0.00  0.00    -0.016 A 
ATOM      7  C6  BZF d   1       1.836  -2.887   5.005  0.00  0.00     0.022 A 
ATOM      8  C7  BZF d   1       2.455  -3.679   4.097  0.00  0.00     0.029 A 
ATOM      9  C7A BZF d   1       3.828  -3.714   4.131  0.00  0.00     0.058 A 
ENDROOT
TORSDOF 0
ENDMDL
