MODEL 1
REMARK minimizedAffinity 1.54561412
REMARK minimizedRMSD -1
REMARK  0 active torsions:
REMARK  status: ('A' for Active; 'I' for Inactive)
ROOT
ATOM      1  O1  BZF d   1       5.488  -1.873   4.066  0.00  0.00    -0.204 OA
ATOM      2  C2  BZF d   1       6.000  -2.509   5.181  0.00  0.00     0.174 A 
ATOM      3  C3  BZF d   1       5.007  -2.916   5.997  0.00  0.00    -0.012 A 
ATOM      4  C3A BZF d   1       3.796  -2.592   5.308  0.00  0.00    -0.107 A 
ATOM      5  C4  BZF d   1       2.473  -2.764   5.602  0.00  0.00     0.055 A 
ATOM      6  C5  BZF d   1       1.537  -2.268   4.750  0.00  0.00    -0.016 A 
ATOM      7  C6  BZF d   1       1.888  -1.593   3.600  0.00  0.00     0.022 A 
ATOM      8  C7  BZF d   1       3.187  -1.402   3.263  0.00  0.00     0.029 A 
ATOM      9  C7A BZF d   1       4.135  -1.930   4.105  0.00  0.00     0.058 A 
ENDROOT
TORSDOF 0
ENDMDL
