MODEL 1
REMARK minimizedAffinity 7.56441116
REMARK minimizedRMSD -1
REMARK  0 active torsions:
REMARK  status: ('A' for Active; 'I' for Inactive)
ROOT
ATOM      1  O1  BZF d   1       2.962  -5.976  -5.471  0.00  0.00    -0.204 OA
ATOM      2  C2  BZF d   1       4.238  -5.995  -6.000  0.00  0.00     0.174 A 
ATOM      3  C3  BZF d   1       5.163  -5.952  -5.019  0.00  0.00    -0.012 A 
ATOM      4  C3A BZF d   1       4.419  -5.996  -3.798  0.00  0.00    -0.107 A 
ATOM      5  C4  BZF d   1       4.777  -5.998  -2.480  0.00  0.00     0.055 A 
ATOM      6  C5  BZF d   1       3.804  -5.973  -1.531  0.00  0.00    -0.016 A 
ATOM      7  C6  BZF d   1       2.466  -5.939  -1.864  0.00  0.00     0.022 A 
ATOM      8  C7  BZF d   1       2.062  -5.941  -3.158  0.00  0.00     0.029 A 
ATOM      9  C7A BZF d   1       3.041  -6.000  -4.119  0.00  0.00     0.058 A 
ENDROOT
TORSDOF 0
ENDMDL
