MODEL 1
REMARK minimizedAffinity 3.40346003
REMARK minimizedRMSD -1
REMARK  0 active torsions:
REMARK  status: ('A' for Active; 'I' for Inactive)
ROOT
ATOM      1  O1  BZF d   1       1.737  -1.096   3.947  0.00  0.00    -0.204 OA
ATOM      2  C2  BZF d   1       1.984  -0.316   2.834  0.00  0.00     0.174 A 
ATOM      3  C3  BZF d   1       2.553  -1.047   1.854  0.00  0.00    -0.012 A 
ATOM      4  C3A BZF d   1       2.583  -2.387   2.353  0.00  0.00    -0.107 A 
ATOM      5  C4  BZF d   1       3.017  -3.573   1.833  0.00  0.00     0.055 A 
ATOM      6  C5  BZF d   1       2.973  -4.689   2.607  0.00  0.00    -0.016 A 
ATOM      7  C6  BZF d   1       2.506  -4.655   3.905  0.00  0.00     0.022 A 
ATOM      8  C7  BZF d   1       2.060  -3.503   4.463  0.00  0.00     0.029 A 
ATOM      9  C7A BZF d   1       2.073  -2.380   3.672  0.00  0.00     0.058 A 
ENDROOT
TORSDOF 0
ENDMDL
