MODEL 1
REMARK minimizedAffinity -2.91718173
REMARK minimizedRMSD -1
REMARK  0 active torsions:
REMARK  status: ('A' for Active; 'I' for Inactive)
ROOT
ATOM      1  C   UNL d   1       1.040   0.210  -0.247  0.00  0.00     0.020 A 
ATOM      2  C1  UNL d   1       1.553   0.341  -1.537  0.00  0.00     0.020 A 
ATOM      3  C2  UNL d   1       1.870   1.606  -2.037  0.00  0.00     0.034 A 
ATOM      4  C3  UNL d   1       1.673   2.745  -1.247  0.00  0.00     0.017 A 
ATOM      5  C4  UNL d   1       1.158   2.612   0.047  0.00  0.00     0.017 A 
ATOM      6  C5  UNL d   1       0.843   1.343   0.543  0.00  0.00     0.034 A 
ATOM      7 Cl   UNL d   1       0.888   3.970   1.082  0.00  0.00    -0.070 Cl
ATOM      8 Cl1  UNL d   1       2.087   4.277  -1.929  0.00  0.00    -0.070 Cl
ENDROOT
TORSDOF 0
ENDMDL
