MODEL 1
REMARK minimizedAffinity -1.89113903
REMARK minimizedRMSD -1
REMARK  0 active torsions:
REMARK  status: ('A' for Active; 'I' for Inactive)
ROOT
ATOM      1  C   UNL d   1       0.960  -0.107  -0.909  0.00  0.00     0.020 A 
ATOM      2  C1  UNL d   1       1.177   0.517  -2.137  0.00  0.00     0.020 A 
ATOM      3  C2  UNL d   1       1.518   1.871  -2.182  0.00  0.00     0.034 A 
ATOM      4  C3  UNL d   1       1.644   2.604  -0.997  0.00  0.00     0.017 A 
ATOM      5  C4  UNL d   1       1.426   1.977   0.235  0.00  0.00     0.017 A 
ATOM      6  C5  UNL d   1       1.084   0.622   0.274  0.00  0.00     0.034 A 
ATOM      7 Cl   UNL d   1       1.562   2.817   1.740  0.00  0.00    -0.070 Cl
ATOM      8 Cl1  UNL d   1       2.069   4.274  -1.127  0.00  0.00    -0.070 Cl
ENDROOT
TORSDOF 0
ENDMDL
