MODEL 1
REMARK minimizedAffinity -2.48266459
REMARK minimizedRMSD -1
REMARK  0 active torsions:
REMARK  status: ('A' for Active; 'I' for Inactive)
ROOT
ATOM      1  C   UNL d   1       1.606   4.256  -0.697  0.00  0.00     0.020 A 
ATOM      2  C1  UNL d   1       1.397   3.571  -1.894  0.00  0.00     0.020 A 
ATOM      3  C2  UNL d   1       1.197   2.189  -1.881  0.00  0.00     0.034 A 
ATOM      4  C3  UNL d   1       1.206   1.487  -0.670  0.00  0.00     0.017 A 
ATOM      5  C4  UNL d   1       1.415   2.176   0.531  0.00  0.00     0.017 A 
ATOM      6  C5  UNL d   1       1.615   3.560   0.512  0.00  0.00     0.034 A 
ATOM      7 Cl   UNL d   1       1.439   1.379   2.064  0.00  0.00    -0.070 Cl
ATOM      8 Cl1  UNL d   1       0.951  -0.221  -0.729  0.00  0.00    -0.070 Cl
ENDROOT
TORSDOF 0
ENDMDL
