MODEL 1
REMARK minimizedAffinity -0.234716162
REMARK minimizedRMSD -1
REMARK  0 active torsions:
REMARK  status: ('A' for Active; 'I' for Inactive)
ROOT
ATOM      1  C   UNL d   1       1.074  -0.185  -0.989  0.00  0.00     0.020 A 
ATOM      2  C1  UNL d   1       1.165   0.477  -2.212  0.00  0.00     0.020 A 
ATOM      3  C2  UNL d   1       1.458   1.842  -2.246  0.00  0.00     0.034 A 
ATOM      4  C3  UNL d   1       1.661   2.549  -1.056  0.00  0.00     0.017 A 
ATOM      5  C4  UNL d   1       1.569   1.883   0.172  0.00  0.00     0.017 A 
ATOM      6  C5  UNL d   1       1.276   0.516   0.201  0.00  0.00     0.034 A 
ATOM      7 Cl   UNL d   1       1.807   2.687   1.683  0.00  0.00    -0.070 Cl
ATOM      8 Cl1  UNL d   1       2.019   4.235  -1.173  0.00  0.00    -0.070 Cl
ENDROOT
TORSDOF 0
ENDMDL
