MODEL 1
REMARK minimizedAffinity 9.76127815
REMARK minimizedRMSD -1
REMARK  0 active torsions:
REMARK  status: ('A' for Active; 'I' for Inactive)
ROOT
ATOM      1  C   UNL d   1      -2.458   3.649   1.679  0.00  0.00     0.020 A 
ATOM      2  C1  UNL d   1      -3.593   3.398   0.910  0.00  0.00     0.020 A 
ATOM      3  C2  UNL d   1      -4.640   2.640   1.439  0.00  0.00     0.034 A 
ATOM      4  C3  UNL d   1      -4.553   2.130   2.740  0.00  0.00     0.017 A 
ATOM      5  C4  UNL d   1      -3.413   2.384   3.510  0.00  0.00     0.017 A 
ATOM      6  C5  UNL d   1      -2.368   3.144   2.976  0.00  0.00     0.034 A 
ATOM      7 Cl   UNL d   1      -3.233   1.789   5.123  0.00  0.00    -0.070 Cl
ATOM      8 Cl1  UNL d   1      -5.885   1.201   3.329  0.00  0.00    -0.070 Cl
ENDROOT
TORSDOF 0
ENDMDL
