MODEL 1
REMARK minimizedAffinity 1.77612364
REMARK minimizedRMSD -1
REMARK  0 active torsions:
REMARK  status: ('A' for Active; 'I' for Inactive)
ROOT
ATOM      1  C   UNL d   1      -0.463  -3.687  -1.469  0.00  0.00     0.020 A 
ATOM      2  C1  UNL d   1       0.175  -4.029  -0.278  0.00  0.00     0.020 A 
ATOM      3  C2  UNL d   1       1.137  -3.177   0.268  0.00  0.00     0.034 A 
ATOM      4  C3  UNL d   1       1.464  -1.979  -0.377  0.00  0.00     0.017 A 
ATOM      5  C4  UNL d   1       0.823  -1.637  -1.573  0.00  0.00     0.017 A 
ATOM      6  C5  UNL d   1      -0.140  -2.493  -2.115  0.00  0.00     0.034 A 
ATOM      7 Cl   UNL d   1       1.173  -0.175  -2.427  0.00  0.00    -0.070 Cl
ATOM      8 Cl1  UNL d   1       2.664  -0.974   0.355  0.00  0.00    -0.070 Cl
ENDROOT
TORSDOF 0
ENDMDL
