MODEL 1
REMARK minimizedAffinity -3.30105257
REMARK minimizedRMSD -1
REMARK  0 active torsions:
REMARK  status: ('A' for Active; 'I' for Inactive)
ROOT
ATOM      1  C   UNL d   1       0.940  -0.256  -0.590  0.00  0.00     0.020 A 
ATOM      2  C1  UNL d   1       0.858  -0.114   0.795  0.00  0.00     0.020 A 
ATOM      3  C2  UNL d   1       0.885   1.159   1.368  0.00  0.00     0.034 A 
ATOM      4  C3  UNL d   1       0.996   2.294   0.558  0.00  0.00     0.017 A 
ATOM      5  C4  UNL d   1       1.079   2.150  -0.832  0.00  0.00     0.017 A 
ATOM      6  C5  UNL d   1       1.051   0.873  -1.401  0.00  0.00     0.034 A 
ATOM      7 Cl   UNL d   1       1.217   3.504  -1.898  0.00  0.00    -0.070 Cl
ATOM      8 Cl1  UNL d   1       1.024   3.837   1.335  0.00  0.00    -0.070 Cl
ENDROOT
TORSDOF 0
ENDMDL
