MODEL 1
REMARK minimizedAffinity -5.52817631
REMARK minimizedRMSD -1
REMARK  0 active torsions:
REMARK  status: ('A' for Active; 'I' for Inactive)
ROOT
ATOM      1  C   UNL d   1       0.752   0.354   0.004  0.00  0.00     0.020 A 
ATOM      2  C1  UNL d   1       0.943   0.828  -1.294  0.00  0.00     0.020 A 
ATOM      3  C2  UNL d   1       1.300   2.162  -1.504  0.00  0.00     0.034 A 
ATOM      4  C3  UNL d   1       1.467   3.026  -0.416  0.00  0.00     0.017 A 
ATOM      5  C4  UNL d   1       1.275   2.549   0.886  0.00  0.00     0.017 A 
ATOM      6  C5  UNL d   1       0.918   1.212   1.091  0.00  0.00     0.034 A 
ATOM      7 Cl   UNL d   1       1.464   3.555   2.279  0.00  0.00    -0.070 Cl
ATOM      8 Cl1  UNL d   1       1.909   4.662  -0.750  0.00  0.00    -0.070 Cl
ENDROOT
TORSDOF 0
ENDMDL
