MODEL 1
REMARK minimizedAffinity 1.64605689
REMARK minimizedRMSD -1
REMARK  0 active torsions:
REMARK  status: ('A' for Active; 'I' for Inactive)
ROOT
ATOM      1  C   UNL d   1       1.304   0.562  -1.444  0.00  0.00     0.020 A 
ATOM      2  C1  UNL d   1       1.165   0.339  -0.074  0.00  0.00     0.020 A 
ATOM      3  C2  UNL d   1       1.199   1.415   0.815  0.00  0.00     0.034 A 
ATOM      4  C3  UNL d   1       1.372   2.719   0.337  0.00  0.00     0.017 A 
ATOM      5  C4  UNL d   1       1.512   2.941  -1.038  0.00  0.00     0.017 A 
ATOM      6  C5  UNL d   1       1.477   1.860  -1.924  0.00  0.00     0.034 A 
ATOM      7 Cl   UNL d   1       1.729   4.521  -1.704  0.00  0.00    -0.070 Cl
ATOM      8 Cl1  UNL d   1       1.404   4.002   1.493  0.00  0.00    -0.070 Cl
ENDROOT
TORSDOF 0
ENDMDL
