MODEL 1
REMARK minimizedAffinity 6.89656305
REMARK minimizedRMSD -1
REMARK  0 active torsions:
REMARK  status: ('A' for Active; 'I' for Inactive)
ROOT
ATOM      1  C   UNL d   1       0.829  -0.839  -1.379  0.00  0.00     0.020 A 
ATOM      2  C1  UNL d   1       0.853  -1.093  -0.008  0.00  0.00     0.020 A 
ATOM      3  C2  UNL d   1       1.234  -0.086   0.882  0.00  0.00     0.034 A 
ATOM      4  C3  UNL d   1       1.593   1.179   0.402  0.00  0.00     0.017 A 
ATOM      5  C4  UNL d   1       1.569   1.432  -0.974  0.00  0.00     0.017 A 
ATOM      6  C5  UNL d   1       1.186   0.421  -1.860  0.00  0.00     0.034 A 
ATOM      7 Cl   UNL d   1       1.999   2.968  -1.641  0.00  0.00    -0.070 Cl
ATOM      8 Cl1  UNL d   1       2.054   2.376   1.560  0.00  0.00    -0.070 Cl
ENDROOT
TORSDOF 0
ENDMDL
