MODEL 1
REMARK minimizedAffinity -1.49431765
REMARK minimizedRMSD -1
REMARK  0 active torsions:
REMARK  status: ('A' for Active; 'I' for Inactive)
ROOT
ATOM      1  C   UNL d   1       0.943  -0.631  -1.466  0.00  0.00     0.020 A 
ATOM      2  C1  UNL d   1       1.099   0.110  -2.637  0.00  0.00     0.020 A 
ATOM      3  C2  UNL d   1       1.258   1.495  -2.570  0.00  0.00     0.034 A 
ATOM      4  C3  UNL d   1       1.261   2.145  -1.330  0.00  0.00     0.017 A 
ATOM      5  C4  UNL d   1       1.104   1.400  -0.156  0.00  0.00     0.017 A 
ATOM      6  C5  UNL d   1       0.945   0.013  -0.228  0.00  0.00     0.034 A 
ATOM      7 Cl   UNL d   1       1.097   2.130   1.411  0.00  0.00    -0.070 Cl
ATOM      8 Cl1  UNL d   1       1.463   3.861  -1.322  0.00  0.00    -0.070 Cl
ENDROOT
TORSDOF 0
ENDMDL
