MODEL 1
REMARK minimizedAffinity -1.70456707
REMARK minimizedRMSD -1
REMARK  0 active torsions:
REMARK  status: ('A' for Active; 'I' for Inactive)
ROOT
ATOM      1  C   UNL d   1       1.244  -0.267  -0.916  0.00  0.00     0.020 A 
ATOM      2  C1  UNL d   1       1.820   0.413  -1.988  0.00  0.00     0.020 A 
ATOM      3  C2  UNL d   1       1.882   1.808  -1.977  0.00  0.00     0.034 A 
ATOM      4  C3  UNL d   1       1.368   2.527  -0.892  0.00  0.00     0.017 A 
ATOM      5  C4  UNL d   1       0.790   1.844   0.183  0.00  0.00     0.017 A 
ATOM      6  C5  UNL d   1       0.730   0.447   0.167  0.00  0.00     0.034 A 
ATOM      7 Cl   UNL d   1       0.134   2.662   1.557  0.00  0.00    -0.070 Cl
ATOM      8 Cl1  UNL d   1       1.479   4.251  -0.945  0.00  0.00    -0.070 Cl
ENDROOT
TORSDOF 0
ENDMDL
