MODEL 1
REMARK minimizedAffinity -2.32441449
REMARK minimizedRMSD -1
REMARK  0 active torsions:
REMARK  status: ('A' for Active; 'I' for Inactive)
ROOT
ATOM      1  C   UNL d   1       0.848  -0.022   0.001  0.00  0.00     0.020 A 
ATOM      2  C1  UNL d   1       1.070   0.239  -1.351  0.00  0.00     0.020 A 
ATOM      3  C2  UNL d   1       1.392   1.533  -1.767  0.00  0.00     0.034 A 
ATOM      4  C3  UNL d   1       1.494   2.569  -0.832  0.00  0.00     0.017 A 
ATOM      5  C4  UNL d   1       1.272   2.305   0.524  0.00  0.00     0.017 A 
ATOM      6  C5  UNL d   1       0.949   1.008   0.936  0.00  0.00     0.034 A 
ATOM      7 Cl   UNL d   1       1.379   3.532   1.737  0.00  0.00    -0.070 Cl
ATOM      8 Cl1  UNL d   1       1.898   4.143  -1.418  0.00  0.00    -0.070 Cl
ENDROOT
TORSDOF 0
ENDMDL
