MODEL 1
REMARK minimizedAffinity 1.79621756
REMARK minimizedRMSD -1
REMARK  0 active torsions:
REMARK  status: ('A' for Active; 'I' for Inactive)
ROOT
ATOM      1  C   UNL d   1      -5.409   1.932   3.687  0.00  0.00     0.020 A 
ATOM      2  C1  UNL d   1      -4.237   2.380   4.294  0.00  0.00     0.020 A 
ATOM      3  C2  UNL d   1      -3.182   1.492   4.516  0.00  0.00     0.034 A 
ATOM      4  C3  UNL d   1      -3.297   0.152   4.130  0.00  0.00     0.017 A 
ATOM      5  C4  UNL d   1      -4.474  -0.297   3.521  0.00  0.00     0.017 A 
ATOM      6  C5  UNL d   1      -5.527   0.596   3.301  0.00  0.00     0.034 A 
ATOM      7 Cl   UNL d   1      -4.690  -1.937   3.017  0.00  0.00    -0.070 Cl
ATOM      8 Cl1  UNL d   1      -1.953  -0.891   4.435  0.00  0.00    -0.070 Cl
ENDROOT
TORSDOF 0
ENDMDL
