MODEL 1
REMARK minimizedAffinity -1.88678503
REMARK minimizedRMSD -1
REMARK  0 active torsions:
REMARK  status: ('A' for Active; 'I' for Inactive)
ROOT
ATOM      1  C   UNL d   1       1.126   0.432  -0.309  0.00  0.00     0.020 A 
ATOM      2  C1  UNL d   1       1.807   1.265   0.578  0.00  0.00     0.020 A 
ATOM      3  C2  UNL d   1       1.916   2.631   0.309  0.00  0.00     0.034 A 
ATOM      4  C3  UNL d   1       1.343   3.168  -0.849  0.00  0.00     0.017 A 
ATOM      5  C4  UNL d   1       0.659   2.331  -1.738  0.00  0.00     0.017 A 
ATOM      6  C5  UNL d   1       0.553   0.964  -1.464  0.00  0.00     0.034 A 
ATOM      7 Cl   UNL d   1      -0.074   2.921  -3.188  0.00  0.00    -0.070 Cl
ATOM      8 Cl1  UNL d   1       1.516   4.866  -1.118  0.00  0.00    -0.070 Cl
ENDROOT
TORSDOF 0
ENDMDL
