MODEL 1
REMARK minimizedAffinity -2.29378557
REMARK minimizedRMSD -1
REMARK  0 active torsions:
REMARK  status: ('A' for Active; 'I' for Inactive)
ROOT
ATOM      1  C   UNL d   1       1.306  -0.517  -1.128  0.00  0.00     0.020 A 
ATOM      2  C1  UNL d   1       1.695   0.185  -2.268  0.00  0.00     0.020 A 
ATOM      3  C2  UNL d   1       1.762   1.579  -2.241  0.00  0.00     0.034 A 
ATOM      4  C3  UNL d   1       1.440   2.276  -1.071  0.00  0.00     0.017 A 
ATOM      5  C4  UNL d   1       1.050   1.571   0.074  0.00  0.00     0.017 A 
ATOM      6  C5  UNL d   1       0.984   0.175   0.040  0.00  0.00     0.034 A 
ATOM      7 Cl   UNL d   1       0.638   2.361   1.554  0.00  0.00    -0.070 Cl
ATOM      8 Cl1  UNL d   1       1.546   4.001  -1.108  0.00  0.00    -0.070 Cl
ENDROOT
TORSDOF 0
ENDMDL
