MODEL 1
REMARK minimizedAffinity 4.74616861
REMARK minimizedRMSD -1
REMARK  1 active torsions:
REMARK  status: ('A' for Active; 'I' for Inactive)
REMARK    1  A    between atoms: C1_2  and  C2_3 
ROOT
ATOM      1  C2  UNL d   1      -3.825   5.998   3.435  0.00  0.00    -0.077 A 
ATOM      2  C3  UNL d   1      -2.431   5.998   3.579  0.00  0.00     0.002 A 
ATOM      3  C4  UNL d   1      -1.851   5.997   4.849  0.00  0.00     0.002 A 
ATOM      4  C5  UNL d   1      -2.658   5.992   5.985  0.00  0.00    -0.004 A 
ATOM      5  C6  UNL d   1      -4.046   5.994   5.852  0.00  0.00     0.002 A 
ATOM      6  C7  UNL d   1      -4.627   5.996   4.584  0.00  0.00     0.002 A 
ENDROOT
BRANCH   1   7
ATOM      7  C1  UNL d   1      -4.452   5.949   2.066  0.00  0.00     0.055 C 
ATOM      8  C   UNL d   1      -5.971   5.969   2.152  0.00  0.00     0.019 C 
ENDBRANCH   1   7
TORSDOF 1
ENDMDL
