MODEL 1
REMARK minimizedAffinity -0.453626692
REMARK minimizedRMSD -1
REMARK  1 active torsions:
REMARK  status: ('A' for Active; 'I' for Inactive)
REMARK    1  A    between atoms: C1_2  and  C2_3 
ROOT
ATOM      1  C2  UNL d   1      -3.931   6.000   3.854  0.00  0.00    -0.077 A 
ATOM      2  C3  UNL d   1      -5.100   5.998   3.080  0.00  0.00     0.002 A 
ATOM      3  C4  UNL d   1      -5.023   5.978   1.686  0.00  0.00     0.002 A 
ATOM      4  C5  UNL d   1      -3.781   5.956   1.055  0.00  0.00    -0.004 A 
ATOM      5  C6  UNL d   1      -2.613   5.960   1.816  0.00  0.00     0.002 A 
ATOM      6  C7  UNL d   1      -2.688   5.981   3.209  0.00  0.00     0.002 A 
ENDROOT
BRANCH   1   7
ATOM      7  C1  UNL d   1      -4.011   5.971   5.358  0.00  0.00     0.055 C 
ATOM      8  C   UNL d   1      -2.626   5.999   5.987  0.00  0.00     0.019 C 
ENDBRANCH   1   7
TORSDOF 1
ENDMDL
