MODEL 1
REMARK minimizedAffinity 1.07162356
REMARK minimizedRMSD -1
REMARK  1 active torsions:
REMARK  status: ('A' for Active; 'I' for Inactive)
REMARK    1  A    between atoms: C1_2  and  C2_3 
ROOT
ATOM      1  C2  UNL d   1      -4.117   5.961   3.941  0.00  0.00    -0.077 A 
ATOM      2  C3  UNL d   1      -2.911   5.990   3.228  0.00  0.00     0.002 A 
ATOM      3  C4  UNL d   1      -2.916   6.000   1.832  0.00  0.00     0.002 A 
ATOM      4  C5  UNL d   1      -4.124   5.985   1.138  0.00  0.00    -0.004 A 
ATOM      5  C6  UNL d   1      -5.329   5.954   1.838  0.00  0.00     0.002 A 
ATOM      6  C7  UNL d   1      -5.326   5.943   3.234  0.00  0.00     0.002 A 
ENDROOT
BRANCH   1   7
ATOM      7  C1  UNL d   1      -4.115   6.000   5.447  0.00  0.00     0.055 C 
ATOM      8  C   UNL d   1      -2.696   5.999   5.999  0.00  0.00     0.019 C 
ENDBRANCH   1   7
TORSDOF 1
ENDMDL
