MODEL 1
REMARK minimizedAffinity 2.6398375
REMARK minimizedRMSD -1
REMARK  1 active torsions:
REMARK  status: ('A' for Active; 'I' for Inactive)
REMARK    1  A    between atoms: C1_2  and  C2_3 
ROOT
ATOM      1  C2  UNL d   1      -3.528   5.903   2.982  0.00  0.00    -0.077 A 
ATOM      2  C3  UNL d   1      -2.417   5.924   3.836  0.00  0.00     0.002 A 
ATOM      3  C4  UNL d   1      -2.591   5.974   5.221  0.00  0.00     0.002 A 
ATOM      4  C5  UNL d   1      -3.874   6.000   5.763  0.00  0.00    -0.004 A 
ATOM      5  C6  UNL d   1      -4.986   5.982   4.922  0.00  0.00     0.002 A 
ATOM      6  C7  UNL d   1      -4.814   5.933   3.538  0.00  0.00     0.002 A 
ENDROOT
BRANCH   1   7
ATOM      7  C1  UNL d   1      -3.343   5.800   1.491  0.00  0.00     0.055 C 
ATOM      8  C   UNL d   1      -1.887   6.000   1.098  0.00  0.00     0.019 C 
ENDBRANCH   1   7
TORSDOF 1
ENDMDL
