MODEL 1
REMARK minimizedAffinity 7.1667366
REMARK minimizedRMSD -1
REMARK  1 active torsions:
REMARK  status: ('A' for Active; 'I' for Inactive)
REMARK    1  A    between atoms: C1_2  and  C2_3 
ROOT
ATOM      1  C2  UNL d   1      -3.772   5.417   3.588  0.00  0.00    -0.077 A 
ATOM      2  C3  UNL d   1      -5.038   6.000   3.440  0.00  0.00     0.002 A 
ATOM      3  C4  UNL d   1      -5.981   5.432   2.580  0.00  0.00     0.002 A 
ATOM      4  C5  UNL d   1      -5.668   4.278   1.865  0.00  0.00    -0.004 A 
ATOM      5  C6  UNL d   1      -4.410   3.692   2.004  0.00  0.00     0.002 A 
ATOM      6  C7  UNL d   1      -3.467   4.258   2.862  0.00  0.00     0.002 A 
ENDROOT
BRANCH   1   7
ATOM      7  C1  UNL d   1      -2.771   6.000   4.551  0.00  0.00     0.055 C 
ATOM      8  C   UNL d   1      -3.304   5.988   5.977  0.00  0.00     0.019 C 
ENDBRANCH   1   7
TORSDOF 1
ENDMDL
