MODEL 1
REMARK minimizedAffinity 0.639173985
REMARK minimizedRMSD -1
REMARK  1 active torsions:
REMARK  status: ('A' for Active; 'I' for Inactive)
REMARK    1  A    between atoms: C1_2  and  C2_3 
ROOT
ATOM      1  C2  UNL d   1      -3.244   5.997   3.513  0.00  0.00    -0.077 A 
ATOM      2  C3  UNL d   1      -4.620   5.999   3.778  0.00  0.00     0.002 A 
ATOM      3  C4  UNL d   1      -5.542   5.985   2.729  0.00  0.00     0.002 A 
ATOM      4  C5  UNL d   1      -5.097   5.964   1.409  0.00  0.00    -0.004 A 
ATOM      5  C6  UNL d   1      -3.729   5.963   1.135  0.00  0.00     0.002 A 
ATOM      6  C7  UNL d   1      -2.807   5.979   2.182  0.00  0.00     0.002 A 
ENDROOT
BRANCH   1   7
ATOM      7  C1  UNL d   1      -2.249   5.962   4.644  0.00  0.00     0.055 C 
ATOM      8  C   UNL d   1      -2.947   5.914   5.995  0.00  0.00     0.019 C 
ENDBRANCH   1   7
TORSDOF 1
ENDMDL
