MODEL 1
REMARK minimizedAffinity 6.54682541
REMARK minimizedRMSD -1
REMARK  1 active torsions:
REMARK  status: ('A' for Active; 'I' for Inactive)
REMARK    1  A    between atoms: C1_2  and  C2_3 
ROOT
ATOM      1  C2  UNL d   1      -3.629  -0.484   3.656  0.00  0.00    -0.077 A 
ATOM      2  C3  UNL d   1      -3.532  -1.663   2.905  0.00  0.00     0.002 A 
ATOM      3  C4  UNL d   1      -2.802  -1.685   1.715  0.00  0.00     0.002 A 
ATOM      4  C5  UNL d   1      -2.159  -0.532   1.269  0.00  0.00    -0.004 A 
ATOM      5  C6  UNL d   1      -2.252   0.647   2.008  0.00  0.00     0.002 A 
ATOM      6  C7  UNL d   1      -2.983   0.671   3.197  0.00  0.00     0.002 A 
ENDROOT
BRANCH   1   7
ATOM      7  C1  UNL d   1      -4.376  -0.471   4.964  0.00  0.00     0.055 C 
ATOM      8  C   UNL d   1      -5.771  -1.059   4.811  0.00  0.00     0.019 C 
ENDBRANCH   1   7
TORSDOF 1
ENDMDL
