MODEL 1
REMARK minimizedAffinity -1.13460517
REMARK minimizedRMSD -1
REMARK  1 active torsions:
REMARK  status: ('A' for Active; 'I' for Inactive)
REMARK    1  A    between atoms: C1_2  and  C2_3 
ROOT
ATOM      1  C2  UNL d   1      -3.078   5.995   3.360  0.00  0.00    -0.077 A 
ATOM      2  C3  UNL d   1      -2.237   5.995   4.482  0.00  0.00     0.002 A 
ATOM      3  C4  UNL d   1      -2.777   5.997   5.770  0.00  0.00     0.002 A 
ATOM      4  C5  UNL d   1      -4.159   5.994   5.947  0.00  0.00    -0.004 A 
ATOM      5  C6  UNL d   1      -5.004   5.996   4.838  0.00  0.00     0.002 A 
ATOM      6  C7  UNL d   1      -4.466   5.995   3.550  0.00  0.00     0.002 A 
ENDROOT
BRANCH   1   7
ATOM      7  C1  UNL d   1      -2.498   5.943   1.971  0.00  0.00     0.055 C 
ATOM      8  C   UNL d   1      -2.641   4.555   1.363  0.00  0.00     0.019 C 
ENDBRANCH   1   7
TORSDOF 1
ENDMDL
