MODEL 1
REMARK minimizedAffinity 0.0769384801
REMARK minimizedRMSD -1
REMARK  1 active torsions:
REMARK  status: ('A' for Active; 'I' for Inactive)
REMARK    1  A    between atoms: C1_2  and  C2_3 
ROOT
ATOM      1  C2  UNL d   1      -3.664   5.798   3.574  0.00  0.00    -0.077 A 
ATOM      2  C3  UNL d   1      -2.975   5.805   4.796  0.00  0.00     0.002 A 
ATOM      3  C4  UNL d   1      -3.674   5.907   6.000  0.00  0.00     0.002 A 
ATOM      4  C5  UNL d   1      -5.065   5.998   5.995  0.00  0.00    -0.004 A 
ATOM      5  C6  UNL d   1      -5.758   5.994   4.785  0.00  0.00     0.002 A 
ATOM      6  C7  UNL d   1      -5.061   5.893   3.580  0.00  0.00     0.002 A 
ENDROOT
BRANCH   1   7
ATOM      7  C1  UNL d   1      -2.915   5.639   2.277  0.00  0.00     0.055 C 
ATOM      8  C   UNL d   1      -2.931   4.193   1.802  0.00  0.00     0.019 C 
ENDBRANCH   1   7
TORSDOF 1
ENDMDL
