MODEL 1
REMARK minimizedAffinity 5.68447685
REMARK minimizedRMSD -1
REMARK  1 active torsions:
REMARK  status: ('A' for Active; 'I' for Inactive)
REMARK    1  A    between atoms: C1_2  and  C2_3 
ROOT
ATOM      1  C2  UNL d   1      -2.568   5.284   3.594  0.00  0.00    -0.077 A 
ATOM      2  C3  UNL d   1      -2.457   5.999   2.393  0.00  0.00     0.002 A 
ATOM      3  C4  UNL d   1      -2.589   5.344   1.166  0.00  0.00     0.002 A 
ATOM      4  C5  UNL d   1      -2.836   3.974   1.130  0.00  0.00    -0.004 A 
ATOM      5  C6  UNL d   1      -2.946   3.254   2.319  0.00  0.00     0.002 A 
ATOM      6  C7  UNL d   1      -2.813   3.906   3.545  0.00  0.00     0.002 A 
ENDROOT
BRANCH   1   7
ATOM      7  C1  UNL d   1      -2.475   5.997   4.917  0.00  0.00     0.055 C 
ATOM      8  C   UNL d   1      -3.778   5.892   5.696  0.00  0.00     0.019 C 
ENDBRANCH   1   7
TORSDOF 1
ENDMDL
