MODEL 1
REMARK minimizedAffinity -0.0454627573
REMARK minimizedRMSD -1
REMARK  1 active torsions:
REMARK  status: ('A' for Active; 'I' for Inactive)
REMARK    1  A    between atoms: C1_2  and  C2_3 
ROOT
ATOM      1  C2  UNL d   1      -4.244   5.985   3.118  0.00  0.00    -0.077 A 
ATOM      2  C3  UNL d   1      -3.210   5.975   2.171  0.00  0.00     0.002 A 
ATOM      3  C4  UNL d   1      -1.876   5.978   2.582  0.00  0.00     0.002 A 
ATOM      4  C5  UNL d   1      -1.563   5.986   3.939  0.00  0.00    -0.004 A 
ATOM      5  C6  UNL d   1      -2.584   5.998   4.889  0.00  0.00     0.002 A 
ATOM      6  C7  UNL d   1      -3.918   5.997   4.480  0.00  0.00     0.002 A 
ENDROOT
BRANCH   1   7
ATOM      7  C1  UNL d   1      -5.683   5.933   2.678  0.00  0.00     0.055 C 
ATOM      8  C   UNL d   1      -5.971   4.673   1.874  0.00  0.00     0.019 C 
ENDBRANCH   1   7
TORSDOF 1
ENDMDL
