MODEL 1
REMARK minimizedAffinity -6.16811228
REMARK minimizedRMSD -1
REMARK  1 active torsions:
REMARK  status: ('A' for Active; 'I' for Inactive)
REMARK    1  A    between atoms: C1_2  and  C2_3 
ROOT
ATOM      1  C2  UNL d   1       0.035  -0.363   0.716  0.00  0.00    -0.073 A 
ATOM      2  C3  UNL d   1       0.155  -1.382   1.668  0.00  0.00    -0.002 A 
ATOM      3  C4  UNL d   1      -0.902  -2.264   1.894  0.00  0.00     0.004 A 
ATOM      4  C5  UNL d   1      -2.086  -2.142   1.167  0.00  0.00    -0.004 A 
ATOM      5  C6  UNL d   1      -2.221  -1.138   0.203  0.00  0.00    -0.075 A 
ATOM      6  C7  UNL d   1      -3.488  -0.991  -0.587  0.00  0.00     0.076 C 
ATOM      7  C8  UNL d   1      -1.155  -0.254  -0.016  0.00  0.00     0.001 A 
ENDROOT
BRANCH   1   8
ATOM      8  C1  UNL d   1       1.177   0.588   0.465  0.00  0.00     0.053 C 
ATOM      9  C   UNL d   1       1.737   1.161   1.757  0.00  0.00     0.018 C 
ENDBRANCH   1   8
TORSDOF 1
ENDMDL
