MODEL 1
REMARK minimizedAffinity 3.16659665
REMARK minimizedRMSD -1
REMARK  1 active torsions:
REMARK  status: ('A' for Active; 'I' for Inactive)
REMARK    1  A    between atoms: C1_2  and  C2_3 
ROOT
ATOM      1  C2  UNL d   1       0.252   0.098  -1.308  0.00  0.00    -0.073 A 
ATOM      2  C3  UNL d   1       1.533  -0.350  -0.964  0.00  0.00    -0.002 A 
ATOM      3  C4  UNL d   1       1.758  -0.960   0.271  0.00  0.00     0.004 A 
ATOM      4  C5  UNL d   1       0.706  -1.133   1.171  0.00  0.00    -0.004 A 
ATOM      5  C6  UNL d   1      -0.583  -0.702   0.841  0.00  0.00    -0.075 A 
ATOM      6  C7  UNL d   1      -1.724  -0.879   1.798  0.00  0.00     0.076 C 
ATOM      7  C8  UNL d   1      -0.801  -0.089  -0.400  0.00  0.00     0.001 A 
ENDROOT
BRANCH   1   8
ATOM      8  C1  UNL d   1       0.003   0.751  -2.643  0.00  0.00     0.053 C 
ATOM      9  C   UNL d   1      -0.744   2.068  -2.503  0.00  0.00     0.018 C 
ENDBRANCH   1   8
TORSDOF 1
ENDMDL
