MODEL 1
REMARK minimizedAffinity -4.44390774
REMARK minimizedRMSD -1
REMARK  1 active torsions:
REMARK  status: ('A' for Active; 'I' for Inactive)
REMARK    1  A    between atoms: C1_2  and  C2_3 
ROOT
ATOM      1  C2  UNL d   1       0.782   0.458   0.376  0.00  0.00    -0.073 A 
ATOM      2  C3  UNL d   1       0.465  -0.037   1.646  0.00  0.00    -0.002 A 
ATOM      3  C4  UNL d   1       0.768   0.706   2.788  0.00  0.00     0.004 A 
ATOM      4  C5  UNL d   1       1.384   1.952   2.672  0.00  0.00    -0.004 A 
ATOM      5  C6  UNL d   1       1.699   2.468   1.411  0.00  0.00    -0.075 A 
ATOM      6  C7  UNL d   1       2.364   3.806   1.269  0.00  0.00     0.076 C 
ATOM      7  C8  UNL d   1       1.394   1.715   0.269  0.00  0.00     0.001 A 
ENDROOT
BRANCH   1   8
ATOM      8  C1  UNL d   1       0.451  -0.338  -0.860  0.00  0.00     0.053 C 
ATOM      9  C   UNL d   1      -0.304   0.492  -1.886  0.00  0.00     0.018 C 
ENDBRANCH   1   8
TORSDOF 1
ENDMDL
