MODEL 1
REMARK minimizedAffinity -4.84758949
REMARK minimizedRMSD -1
REMARK  1 active torsions:
REMARK  status: ('A' for Active; 'I' for Inactive)
REMARK    1  A    between atoms: C1_2  and  C2_3 
ROOT
ATOM      1  C2  UNL d   1       1.342   1.032   1.914  0.00  0.00    -0.073 A 
ATOM      2  C3  UNL d   1       1.309  -0.145   2.671  0.00  0.00    -0.002 A 
ATOM      3  C4  UNL d   1       0.600  -1.257   2.214  0.00  0.00     0.004 A 
ATOM      4  C5  UNL d   1      -0.076  -1.207   0.995  0.00  0.00    -0.004 A 
ATOM      5  C6  UNL d   1      -0.045  -0.044   0.219  0.00  0.00    -0.075 A 
ATOM      6  C7  UNL d   1      -0.769   0.027  -1.093  0.00  0.00     0.076 C 
ATOM      7  C8  UNL d   1       0.667   1.070   0.685  0.00  0.00     0.001 A 
ENDROOT
BRANCH   1   8
ATOM      8  C1  UNL d   1       2.111   2.233   2.399  0.00  0.00     0.053 C 
ATOM      9  C   UNL d   1       2.346   3.246   1.290  0.00  0.00     0.018 C 
ENDBRANCH   1   8
TORSDOF 1
ENDMDL
