MODEL 1
REMARK minimizedAffinity -6.10309792
REMARK minimizedRMSD -1
REMARK  1 active torsions:
REMARK  status: ('A' for Active; 'I' for Inactive)
REMARK    1  A    between atoms: C1_2  and  C2_3 
ROOT
ATOM      1  C2  UNL d   1      -0.909  -0.652   0.503  0.00  0.00    -0.073 A 
ATOM      2  C3  UNL d   1      -0.602  -1.679   1.402  0.00  0.00    -0.002 A 
ATOM      3  C4  UNL d   1       0.668  -1.758   1.974  0.00  0.00     0.004 A 
ATOM      4  C5  UNL d   1       1.641  -0.810   1.659  0.00  0.00    -0.004 A 
ATOM      5  C6  UNL d   1       1.349   0.231   0.771  0.00  0.00    -0.075 A 
ATOM      6  C7  UNL d   1       2.385   1.258   0.420  0.00  0.00     0.076 C 
ATOM      7  C8  UNL d   1       0.072   0.303   0.199  0.00  0.00     0.001 A 
ENDROOT
BRANCH   1   8
ATOM      8  C1  UNL d   1      -2.282  -0.558  -0.112  0.00  0.00     0.053 C 
ATOM      9  C   UNL d   1      -2.960  -1.915  -0.201  0.00  0.00     0.018 C 
ENDBRANCH   1   8
TORSDOF 1
ENDMDL
