MODEL 1
REMARK minimizedAffinity -5.07419729
REMARK minimizedRMSD -1
REMARK  1 active torsions:
REMARK  status: ('A' for Active; 'I' for Inactive)
REMARK    1  A    between atoms: C1_2  and  C2_3 
ROOT
ATOM      1  C2  UNL d   1      -1.426  -0.358  -0.702  0.00  0.00    -0.073 A 
ATOM      2  C3  UNL d   1      -0.809   0.427  -1.683  0.00  0.00    -0.002 A 
ATOM      3  C4  UNL d   1       0.539   0.768  -1.568  0.00  0.00     0.004 A 
ATOM      4  C5  UNL d   1       1.285   0.323  -0.477  0.00  0.00    -0.004 A 
ATOM      5  C6  UNL d   1       0.690  -0.472   0.508  0.00  0.00    -0.075 A 
ATOM      6  C7  UNL d   1       1.478  -0.957   1.689  0.00  0.00     0.076 C 
ATOM      7  C8  UNL d   1      -0.666  -0.808   0.387  0.00  0.00     0.001 A 
ENDROOT
BRANCH   1   8
ATOM      8  C1  UNL d   1      -2.880  -0.734  -0.825  0.00  0.00     0.053 C 
ATOM      9  C   UNL d   1      -3.168  -2.100  -0.223  0.00  0.00     0.018 C 
ENDBRANCH   1   8
TORSDOF 1
ENDMDL
