MODEL 1
REMARK minimizedAffinity -6.0897336
REMARK minimizedRMSD -1
REMARK  1 active torsions:
REMARK  status: ('A' for Active; 'I' for Inactive)
REMARK    1  A    between atoms: C1_2  and  C2_3 
ROOT
ATOM      1  C2  UNL d   1       0.223  -0.092   0.110  0.00  0.00    -0.073 A 
ATOM      2  C3  UNL d   1      -0.567   0.470  -0.899  0.00  0.00    -0.002 A 
ATOM      3  C4  UNL d   1      -1.771  -0.131  -1.269  0.00  0.00     0.004 A 
ATOM      4  C5  UNL d   1      -2.199  -1.295  -0.631  0.00  0.00    -0.004 A 
ATOM      5  C6  UNL d   1      -1.429  -1.866   0.387  0.00  0.00    -0.075 A 
ATOM      6  C7  UNL d   1      -1.875  -3.119   1.082  0.00  0.00     0.076 C 
ATOM      7  C8  UNL d   1      -0.221  -1.257   0.752  0.00  0.00     0.001 A 
ENDROOT
BRANCH   1   8
ATOM      8  C1  UNL d   1       1.520   0.558   0.518  0.00  0.00     0.053 C 
ATOM      9  C   UNL d   1       1.416   1.233   1.877  0.00  0.00     0.018 C 
ENDBRANCH   1   8
TORSDOF 1
ENDMDL
