MODEL 1
REMARK minimizedAffinity -3.52572894
REMARK minimizedRMSD -1
REMARK  1 active torsions:
REMARK  status: ('A' for Active; 'I' for Inactive)
REMARK    1  A    between atoms: C1_2  and  C2_3 
ROOT
ATOM      1  C2  UNL d   1       1.534   0.539   0.433  0.00  0.00    -0.073 A 
ATOM      2  C3  UNL d   1       1.476  -0.352   1.510  0.00  0.00    -0.002 A 
ATOM      3  C4  UNL d   1       0.407  -1.241   1.634  0.00  0.00     0.004 A 
ATOM      4  C5  UNL d   1      -0.610  -1.252   0.680  0.00  0.00    -0.004 A 
ATOM      5  C6  UNL d   1      -0.564  -0.377  -0.411  0.00  0.00    -0.075 A 
ATOM      6  C7  UNL d   1      -1.652  -0.375  -1.444  0.00  0.00     0.076 C 
ATOM      7  C8  UNL d   1       0.511   0.514  -0.526  0.00  0.00     0.001 A 
ENDROOT
BRANCH   1   8
ATOM      8  C1  UNL d   1       2.690   1.495   0.292  0.00  0.00     0.053 C 
ATOM      9  C   UNL d   1       2.365   2.870   0.855  0.00  0.00     0.018 C 
ENDBRANCH   1   8
TORSDOF 1
ENDMDL
