MODEL 1
REMARK minimizedAffinity -1.22123289
REMARK minimizedRMSD -1
REMARK  1 active torsions:
REMARK  status: ('A' for Active; 'I' for Inactive)
REMARK    1  A    between atoms: C1_2  and  C2_3 
ROOT
ATOM      1  C2  UNL d   1      -3.332   2.608  -5.967  0.00  0.00    -0.073 A 
ATOM      2  C3  UNL d   1      -4.387   1.688  -5.992  0.00  0.00    -0.002 A 
ATOM      3  C4  UNL d   1      -5.710   2.132  -5.990  0.00  0.00     0.004 A 
ATOM      4  C5  UNL d   1      -5.991   3.498  -5.971  0.00  0.00    -0.004 A 
ATOM      5  C6  UNL d   1      -4.951   4.433  -5.958  0.00  0.00    -0.075 A 
ATOM      6  C7  UNL d   1      -5.237   5.906  -5.935  0.00  0.00     0.076 C 
ATOM      7  C8  UNL d   1      -3.625   3.979  -5.957  0.00  0.00     0.001 A 
ENDROOT
BRANCH   1   8
ATOM      8  C1  UNL d   1      -1.902   2.133  -5.976  0.00  0.00     0.053 C 
ATOM      9  C   UNL d   1      -1.785   0.671  -5.574  0.00  0.00     0.018 C 
ENDBRANCH   1   8
TORSDOF 1
ENDMDL
