MODEL 1
REMARK minimizedAffinity 0.0336786024
REMARK minimizedRMSD -1
REMARK  1 active torsions:
REMARK  status: ('A' for Active; 'I' for Inactive)
REMARK    1  A    between atoms: C1_2  and  C2_3 
ROOT
ATOM      1  C2  UNL d   1      -3.174   0.477  -5.999  0.00  0.00    -0.073 A 
ATOM      2  C3  UNL d   1      -1.863   0.967  -5.982  0.00  0.00    -0.002 A 
ATOM      3  C4  UNL d   1      -1.625   2.342  -5.975  0.00  0.00     0.004 A 
ATOM      4  C5  UNL d   1      -2.693   3.240  -5.979  0.00  0.00    -0.004 A 
ATOM      5  C6  UNL d   1      -4.010   2.769  -5.984  0.00  0.00    -0.075 A 
ATOM      6  C7  UNL d   1      -5.170   3.721  -5.990  0.00  0.00     0.076 C 
ATOM      7  C8  UNL d   1      -4.241   1.387  -5.993  0.00  0.00     0.001 A 
ENDROOT
BRANCH   1   8
ATOM      8  C1  UNL d   1      -3.436  -1.007  -5.999  0.00  0.00     0.053 C 
ATOM      9  C   UNL d   1      -4.913  -1.325  -5.829  0.00  0.00     0.018 C 
ENDBRANCH   1   8
TORSDOF 1
ENDMDL
