MODEL 1
REMARK minimizedAffinity 1.65038621
REMARK minimizedRMSD -1
REMARK  1 active torsions:
REMARK  status: ('A' for Active; 'I' for Inactive)
REMARK    1  A    between atoms: C1_2  and  C2_3 
ROOT
ATOM      1  C2  UNL d   1       1.377   1.311  -0.686  0.00  0.00    -0.073 A 
ATOM      2  C3  UNL d   1       1.026   0.484  -1.759  0.00  0.00    -0.002 A 
ATOM      3  C4  UNL d   1       0.125  -0.566  -1.574  0.00  0.00     0.004 A 
ATOM      4  C5  UNL d   1      -0.438  -0.796  -0.318  0.00  0.00    -0.004 A 
ATOM      5  C6  UNL d   1      -0.108   0.027   0.763  0.00  0.00    -0.075 A 
ATOM      6  C7  UNL d   1      -0.703  -0.208   2.121  0.00  0.00     0.076 C 
ATOM      7  C8  UNL d   1       0.799   1.078   0.571  0.00  0.00     0.001 A 
ENDROOT
BRANCH   1   8
ATOM      8  C1  UNL d   1       2.344   2.450  -0.882  0.00  0.00     0.053 C 
ATOM      9  C   UNL d   1       3.723   2.128  -0.329  0.00  0.00     0.018 C 
ENDBRANCH   1   8
TORSDOF 1
ENDMDL
