MODEL 1
REMARK minimizedAffinity -1.49533629
REMARK minimizedRMSD -1
REMARK  1 active torsions:
REMARK  status: ('A' for Active; 'I' for Inactive)
REMARK    1  A    between atoms: C1_2  and  C2_3 
ROOT
ATOM      1  C2  UNL d   1      -3.341   2.112  -5.989  0.00  0.00    -0.073 A 
ATOM      2  C3  UNL d   1      -4.631   1.570  -5.997  0.00  0.00    -0.002 A 
ATOM      3  C4  UNL d   1      -5.748   2.407  -5.995  0.00  0.00     0.004 A 
ATOM      4  C5  UNL d   1      -5.586   3.792  -5.991  0.00  0.00    -0.004 A 
ATOM      5  C6  UNL d   1      -4.305   4.353  -5.995  0.00  0.00    -0.075 A 
ATOM      6  C7  UNL d   1      -4.115   5.842  -5.988  0.00  0.00     0.076 C 
ATOM      7  C8  UNL d   1      -3.189   3.506  -5.995  0.00  0.00     0.001 A 
ENDROOT
BRANCH   1   8
ATOM      8  C1  UNL d   1      -2.132   1.212  -5.999  0.00  0.00     0.053 C 
ATOM      9  C   UNL d   1      -2.517  -0.259  -6.000  0.00  0.00     0.018 C 
ENDBRANCH   1   8
TORSDOF 1
ENDMDL
