MODEL 1
REMARK minimizedAffinity -1.28637886
REMARK minimizedRMSD -1
REMARK  1 active torsions:
REMARK  status: ('A' for Active; 'I' for Inactive)
REMARK    1  A    between atoms: C1_2  and  C2_3 
ROOT
ATOM      1  C2  UNL d   1      -3.600  -3.708  -5.397  0.00  0.00    -0.073 A 
ATOM      2  C3  UNL d   1      -4.796  -4.416  -5.559  0.00  0.00    -0.002 A 
ATOM      3  C4  UNL d   1      -5.981  -3.740  -5.853  0.00  0.00     0.004 A 
ATOM      4  C5  UNL d   1      -5.981  -2.353  -5.996  0.00  0.00    -0.004 A 
ATOM      5  C6  UNL d   1      -4.793  -1.629  -5.850  0.00  0.00    -0.075 A 
ATOM      6  C7  UNL d   1      -4.777  -0.136  -5.999  0.00  0.00     0.076 C 
ATOM      7  C8  UNL d   1      -3.608  -2.314  -5.552  0.00  0.00     0.001 A 
ENDROOT
BRANCH   1   8
ATOM      8  C1  UNL d   1      -2.317  -4.434  -5.085  0.00  0.00     0.053 C 
ATOM      9  C   UNL d   1      -2.053  -4.509  -3.590  0.00  0.00     0.018 C 
ENDBRANCH   1   8
TORSDOF 1
ENDMDL
