MODEL 1
REMARK minimizedAffinity 1.29602504
REMARK minimizedRMSD -1
REMARK  1 active torsions:
REMARK  status: ('A' for Active; 'I' for Inactive)
REMARK    1  A    between atoms: C1_2  and  C2_3 
ROOT
ATOM      1  C2  UNL d   1      -3.594   1.302  -5.988  0.00  0.00    -0.073 A 
ATOM      2  C3  UNL d   1      -4.937   1.697  -5.968  0.00  0.00    -0.002 A 
ATOM      3  C4  UNL d   1      -5.953   0.740  -5.960  0.00  0.00     0.004 A 
ATOM      4  C5  UNL d   1      -5.637  -0.619  -5.965  0.00  0.00    -0.004 A 
ATOM      5  C6  UNL d   1      -4.302  -1.033  -5.972  0.00  0.00    -0.075 A 
ATOM      6  C7  UNL d   1      -3.946  -2.490  -5.979  0.00  0.00     0.076 C 
ATOM      7  C8  UNL d   1      -3.287  -0.066  -5.983  0.00  0.00     0.001 A 
ENDROOT
BRANCH   1   8
ATOM      8  C1  UNL d   1      -2.494   2.332  -5.990  0.00  0.00     0.053 C 
ATOM      9  C   UNL d   1      -3.013   3.721  -5.655  0.00  0.00     0.018 C 
ENDBRANCH   1   8
TORSDOF 1
ENDMDL
