MODEL 1
REMARK minimizedAffinity -2.33072114
REMARK minimizedRMSD -1
REMARK  1 active torsions:
REMARK  status: ('A' for Active; 'I' for Inactive)
REMARK    1  A    between atoms: C1_2  and  C2_3 
ROOT
ATOM      1  C2  UNL d   1      -4.407   1.224  -5.983  0.00  0.00    -0.073 A 
ATOM      2  C3  UNL d   1      -3.014   1.093  -5.995  0.00  0.00    -0.002 A 
ATOM      3  C4  UNL d   1      -2.425  -0.173  -6.000  0.00  0.00     0.004 A 
ATOM      4  C5  UNL d   1      -3.222  -1.318  -6.000  0.00  0.00    -0.004 A 
ATOM      5  C6  UNL d   1      -4.616  -1.207  -6.000  0.00  0.00    -0.075 A 
ATOM      6  C7  UNL d   1      -5.487  -2.428  -5.997  0.00  0.00     0.076 C 
ATOM      7  C8  UNL d   1      -5.200   0.067  -5.992  0.00  0.00     0.001 A 
ENDROOT
BRANCH   1   8
ATOM      8  C1  UNL d   1      -5.047   2.588  -5.983  0.00  0.00     0.053 C 
ATOM      9  C   UNL d   1      -4.037   3.692  -5.711  0.00  0.00     0.018 C 
ENDBRANCH   1   8
TORSDOF 1
ENDMDL
