MODEL 1
REMARK minimizedAffinity -3.50211763
REMARK minimizedRMSD -1
REMARK  1 active torsions:
REMARK  status: ('A' for Active; 'I' for Inactive)
REMARK    1  A    between atoms: C1_2  and  C2_3 
ROOT
ATOM      1  C2  UNL d   1      -4.880   2.777  -5.965  0.00  0.00    -0.073 A 
ATOM      2  C3  UNL d   1      -3.544   3.192  -6.000  0.00  0.00    -0.002 A 
ATOM      3  C4  UNL d   1      -2.514   2.251  -5.993  0.00  0.00     0.004 A 
ATOM      4  C5  UNL d   1      -2.807   0.888  -5.959  0.00  0.00    -0.004 A 
ATOM      5  C6  UNL d   1      -4.137   0.453  -5.935  0.00  0.00    -0.075 A 
ATOM      6  C7  UNL d   1      -4.469  -1.009  -5.895  0.00  0.00     0.076 C 
ATOM      7  C8  UNL d   1      -5.166   1.404  -5.939  0.00  0.00     0.001 A 
ENDROOT
BRANCH   1   8
ATOM      8  C1  UNL d   1      -5.997   3.789  -5.978  0.00  0.00     0.053 C 
ATOM      9  C   UNL d   1      -5.475   5.214  -5.891  0.00  0.00     0.018 C 
ENDBRANCH   1   8
TORSDOF 1
ENDMDL
