MODEL 1
REMARK minimizedAffinity 0.586157978
REMARK minimizedRMSD -1
REMARK  1 active torsions:
REMARK  status: ('A' for Active; 'I' for Inactive)
REMARK    1  A    between atoms: C1_2  and  C2_3 
ROOT
ATOM      1  C2  UNL d   1      -3.076   4.736  -5.928  0.00  0.00    -0.073 A 
ATOM      2  C3  UNL d   1      -3.752   5.953  -5.788  0.00  0.00    -0.002 A 
ATOM      3  C4  UNL d   1      -5.145   5.983  -5.723  0.00  0.00     0.004 A 
ATOM      4  C5  UNL d   1      -5.877   4.797  -5.791  0.00  0.00    -0.004 A 
ATOM      5  C6  UNL d   1      -5.219   3.569  -5.920  0.00  0.00    -0.075 A 
ATOM      6  C7  UNL d   1      -5.992   2.285  -5.997  0.00  0.00     0.076 C 
ATOM      7  C8  UNL d   1      -3.820   3.548  -5.987  0.00  0.00     0.001 A 
ENDROOT
BRANCH   1   8
ATOM      8  C1  UNL d   1      -1.571   4.698  -5.992  0.00  0.00     0.053 C 
ATOM      9  C   UNL d   1      -1.034   3.277  -5.931  0.00  0.00     0.018 C 
ENDBRANCH   1   8
TORSDOF 1
ENDMDL
