MODEL 1
REMARK minimizedAffinity 3.31785536
REMARK minimizedRMSD -1
REMARK  1 active torsions:
REMARK  status: ('A' for Active; 'I' for Inactive)
REMARK    1  A    between atoms: C1_2  and  C2_3 
ROOT
ATOM      1  C2  UNL d   1       0.665   0.650   0.260  0.00  0.00    -0.073 A 
ATOM      2  C3  UNL d   1       1.579   0.592  -0.798  0.00  0.00    -0.002 A 
ATOM      3  C4  UNL d   1       1.622  -0.527  -1.631  0.00  0.00     0.004 A 
ATOM      4  C5  UNL d   1       0.750  -1.595  -1.419  0.00  0.00    -0.004 A 
ATOM      5  C6  UNL d   1      -0.178  -1.550  -0.373  0.00  0.00    -0.075 A 
ATOM      6  C7  UNL d   1      -1.122  -2.691  -0.130  0.00  0.00     0.076 C 
ATOM      7  C8  UNL d   1      -0.214  -0.424   0.460  0.00  0.00     0.001 A 
ENDROOT
BRANCH   1   8
ATOM      8  C1  UNL d   1       0.610   1.859   1.158  0.00  0.00     0.053 C 
ATOM      9  C   UNL d   1      -0.046   3.048   0.473  0.00  0.00     0.018 C 
ENDBRANCH   1   8
TORSDOF 1
ENDMDL
