MODEL 1
REMARK minimizedAffinity 0.147444397
REMARK minimizedRMSD -1
REMARK  1 active torsions:
REMARK  status: ('A' for Active; 'I' for Inactive)
REMARK    1  A    between atoms: C1_2  and  C2_3 
ROOT
ATOM      1  C2  UNL d   1       1.141   1.091   0.156  0.00  0.00    -0.073 A 
ATOM      2  C3  UNL d   1       2.312   1.107  -0.610  0.00  0.00    -0.002 A 
ATOM      3  C4  UNL d   1       2.405   0.342  -1.773  0.00  0.00     0.004 A 
ATOM      4  C5  UNL d   1       1.327  -0.440  -2.186  0.00  0.00    -0.004 A 
ATOM      5  C6  UNL d   1       0.143  -0.460  -1.441  0.00  0.00    -0.075 A 
ATOM      6  C7  UNL d   1      -1.025  -1.298  -1.871  0.00  0.00     0.076 C 
ATOM      7  C8  UNL d   1       0.059   0.309  -0.273  0.00  0.00     0.001 A 
ENDROOT
BRANCH   1   8
ATOM      8  C1  UNL d   1       1.033   1.921   1.409  0.00  0.00     0.053 C 
ATOM      9  C   UNL d   1       1.792   3.233   1.290  0.00  0.00     0.018 C 
ENDBRANCH   1   8
TORSDOF 1
ENDMDL
