MODEL 1
REMARK minimizedAffinity -2.4556849
REMARK minimizedRMSD -1
REMARK  1 active torsions:
REMARK  status: ('A' for Active; 'I' for Inactive)
REMARK    1  A    between atoms: C1_2  and  C2_3 
ROOT
ATOM      1  C2  UNL d   1      -2.721   4.114  -5.930  0.00  0.00    -0.073 A 
ATOM      2  C3  UNL d   1      -3.607   5.197  -5.934  0.00  0.00    -0.002 A 
ATOM      3  C4  UNL d   1      -4.985   4.980  -5.954  0.00  0.00     0.004 A 
ATOM      4  C5  UNL d   1      -5.491   3.681  -5.963  0.00  0.00    -0.004 A 
ATOM      5  C6  UNL d   1      -4.622   2.585  -5.948  0.00  0.00    -0.075 A 
ATOM      6  C7  UNL d   1      -5.151   1.181  -5.960  0.00  0.00     0.076 C 
ATOM      7  C8  UNL d   1      -3.239   2.811  -5.931  0.00  0.00     0.001 A 
ENDROOT
BRANCH   1   8
ATOM      8  C1  UNL d   1      -1.232   4.343  -5.903  0.00  0.00     0.053 C 
ATOM      9  C   UNL d   1      -0.462   3.058  -5.640  0.00  0.00     0.018 C 
ENDBRANCH   1   8
TORSDOF 1
ENDMDL
