MODEL 1
REMARK minimizedAffinity 1.29077196
REMARK minimizedRMSD -1
REMARK  1 active torsions:
REMARK  status: ('A' for Active; 'I' for Inactive)
REMARK    1  A    between atoms: C1_2  and  C2_3 
ROOT
ATOM      1  C2  UNL d   1      -3.768   2.736  -5.981  0.00  0.00    -0.073 A 
ATOM      2  C3  UNL d   1      -2.386   2.512  -5.979  0.00  0.00    -0.002 A 
ATOM      3  C4  UNL d   1      -1.884   1.210  -5.970  0.00  0.00     0.004 A 
ATOM      4  C5  UNL d   1      -2.755   0.121  -5.971  0.00  0.00    -0.004 A 
ATOM      5  C6  UNL d   1      -4.139   0.325  -5.986  0.00  0.00    -0.075 A 
ATOM      6  C7  UNL d   1      -5.090  -0.836  -5.985  0.00  0.00     0.076 C 
ATOM      7  C8  UNL d   1      -4.636   1.635  -5.992  0.00  0.00     0.001 A 
ENDROOT
BRANCH   1   8
ATOM      8  C1  UNL d   1      -4.315   4.140  -5.997  0.00  0.00     0.053 C 
ATOM      9  C   UNL d   1      -3.298   5.154  -5.499  0.00  0.00     0.018 C 
ENDBRANCH   1   8
TORSDOF 1
ENDMDL
