MODEL 1
REMARK minimizedAffinity -5.01434946
REMARK minimizedRMSD -1
REMARK  1 active torsions:
REMARK  status: ('A' for Active; 'I' for Inactive)
REMARK    1  A    between atoms: C1_2  and  C2_3 
ROOT
ATOM      1  C2  UNL d   1       0.049  -0.080   0.464  0.00  0.00    -0.077 A 
ATOM      2  C3  UNL d   1      -0.790  -0.406   1.540  0.00  0.00     0.002 A 
ATOM      3  C4  UNL d   1      -0.252  -0.657   2.804  0.00  0.00     0.002 A 
ATOM      4  C5  UNL d   1       1.124  -0.582   3.005  0.00  0.00    -0.004 A 
ATOM      5  C6  UNL d   1       1.967  -0.260   1.941  0.00  0.00     0.002 A 
ATOM      6  C7  UNL d   1       1.431  -0.010   0.677  0.00  0.00     0.002 A 
ENDROOT
BRANCH   1   7
ATOM      7  C1  UNL d   1      -0.533   0.240  -0.888  0.00  0.00     0.055 C 
ATOM      8  C   UNL d   1       0.066   1.515  -1.461  0.00  0.00     0.019 C 
ENDBRANCH   1   7
TORSDOF 1
ENDMDL
