MODEL 1
REMARK minimizedAffinity -6.19199944
REMARK minimizedRMSD -1
REMARK  1 active torsions:
REMARK  status: ('A' for Active; 'I' for Inactive)
REMARK    1  A    between atoms: C1_2  and  C2_3 
ROOT
ATOM      1  C2  UNL d   1       0.558  -0.737  -0.041  0.00  0.00    -0.077 A 
ATOM      2  C3  UNL d   1       1.758  -1.345   0.353  0.00  0.00     0.002 A 
ATOM      3  C4  UNL d   1       2.085  -1.453   1.706  0.00  0.00     0.002 A 
ATOM      4  C5  UNL d   1       1.215  -0.959   2.676  0.00  0.00    -0.004 A 
ATOM      5  C6  UNL d   1       0.020  -0.351   2.295  0.00  0.00     0.002 A 
ATOM      6  C7  UNL d   1      -0.308  -0.242   0.943  0.00  0.00     0.002 A 
ENDROOT
BRANCH   1   7
ATOM      7  C1  UNL d   1       0.180  -0.664  -1.497  0.00  0.00     0.055 C 
ATOM      8  C   UNL d   1      -0.836   0.439  -1.751  0.00  0.00     0.019 C 
ENDBRANCH   1   7
TORSDOF 1
ENDMDL
