MODEL 1
REMARK minimizedAffinity -5.50741959
REMARK minimizedRMSD -1
REMARK  1 active torsions:
REMARK  status: ('A' for Active; 'I' for Inactive)
REMARK    1  A    between atoms: C1_2  and  C2_3 
ROOT
ATOM      1  C2  UNL d   1       0.428  -0.817  -0.164  0.00  0.00    -0.077 A 
ATOM      2  C3  UNL d   1      -0.402  -0.813   0.966  0.00  0.00     0.002 A 
ATOM      3  C4  UNL d   1       0.127  -1.075   2.231  0.00  0.00     0.002 A 
ATOM      4  C5  UNL d   1       1.487  -1.339   2.379  0.00  0.00    -0.004 A 
ATOM      5  C6  UNL d   1       2.321  -1.346   1.261  0.00  0.00     0.002 A 
ATOM      6  C7  UNL d   1       1.794  -1.086  -0.005  0.00  0.00     0.002 A 
ENDROOT
BRANCH   1   7
ATOM      7  C1  UNL d   1      -0.131  -0.486  -1.523  0.00  0.00     0.055 C 
ATOM      8  C   UNL d   1      -0.434   1.000  -1.650  0.00  0.00     0.019 C 
ENDBRANCH   1   7
TORSDOF 1
ENDMDL
