MODEL 1
REMARK minimizedAffinity 9.33224392
REMARK minimizedRMSD -1
REMARK  0 active torsions:
REMARK  status: ('A' for Active; 'I' for Inactive)
ROOT
ATOM      1  C1  DEN d   1      -5.407  -0.203   3.102  0.00  0.00     0.130 A 
ATOM      2  C2  DEN d   1      -4.129  -0.282   3.804  0.00  0.00    -0.031 A 
ATOM      3  C3  DEN d   1      -3.059   0.059   2.845  0.00  0.00     0.027 A 
ATOM      4  C4  DEN d   1      -3.256   0.703   0.356  0.00  0.00     0.027 A 
ATOM      5  C5  DEN d   1      -4.135   0.895  -0.688  0.00  0.00    -0.003 A 
ATOM      6  C6  DEN d   1      -5.484   0.702  -0.552  0.00  0.00     0.001 A 
ATOM      7  C7  DEN d   1      -5.999   0.350   0.667  0.00  0.00     0.017 A 
ATOM      8  C8  DEN d   1      -5.120   0.148   1.723  0.00  0.00    -0.094 A 
ATOM      9  C9  DEN d   1      -3.760   0.360   1.568  0.00  0.00    -0.072 A 
ENDROOT
TORSDOF 0
ENDMDL
