MODEL 1
REMARK minimizedAffinity -3.18215084
REMARK minimizedRMSD -1
REMARK  0 active torsions:
REMARK  status: ('A' for Active; 'I' for Inactive)
ROOT
ATOM      1  C1  DEN d   1      -1.964   1.908  -0.839  0.00  0.00     0.130 A 
ATOM      2  C2  DEN d   1      -2.249   3.247  -0.330  0.00  0.00    -0.031 A 
ATOM      3  C3  DEN d   1      -2.584   3.129   1.103  0.00  0.00     0.027 A 
ATOM      4  C4  DEN d   1      -2.685   1.015   2.577  0.00  0.00     0.027 A 
ATOM      5  C5  DEN d   1      -2.534  -0.354   2.589  0.00  0.00    -0.003 A 
ATOM      6  C6  DEN d   1      -2.219  -1.063   1.460  0.00  0.00     0.001 A 
ATOM      7  C7  DEN d   1      -1.999  -0.400   0.281  0.00  0.00     0.017 A 
ATOM      8  C8  DEN d   1      -2.156   0.979   0.260  0.00  0.00    -0.094 A 
ATOM      9  C9  DEN d   1      -2.464   1.680   1.415  0.00  0.00    -0.072 A 
ENDROOT
TORSDOF 0
ENDMDL
