MODEL 1
REMARK minimizedAffinity -3.77491999
REMARK minimizedRMSD -1
REMARK  0 active torsions:
REMARK  status: ('A' for Active; 'I' for Inactive)
ROOT
ATOM      1  C1  DEN d   1       3.378   2.162  -5.971  0.00  0.00     0.130 A 
ATOM      2  C2  DEN d   1       4.697   1.553  -5.823  0.00  0.00    -0.031 A 
ATOM      3  C3  DEN d   1       4.682   0.722  -4.602  0.00  0.00     0.027 A 
ATOM      4  C4  DEN d   1       2.753   0.318  -2.938  0.00  0.00     0.027 A 
ATOM      5  C5  DEN d   1       1.445   0.629  -2.639  0.00  0.00    -0.003 A 
ATOM      6  C6  DEN d   1       0.707   1.493  -3.404  0.00  0.00     0.001 A 
ATOM      7  C7  DEN d   1       1.257   2.040  -4.532  0.00  0.00     0.017 A 
ATOM      8  C8  DEN d   1       2.577   1.737  -4.837  0.00  0.00    -0.094 A 
ATOM      9  C9  DEN d   1       3.303   0.852  -4.058  0.00  0.00    -0.072 A 
ENDROOT
TORSDOF 0
ENDMDL
