MODEL 1
REMARK minimizedAffinity -1.26253235
REMARK minimizedRMSD -1
REMARK  0 active torsions:
REMARK  status: ('A' for Active; 'I' for Inactive)
ROOT
ATOM      1  C1  DEN d   1       3.000   1.877  -6.000  0.00  0.00     0.130 A 
ATOM      2  C2  DEN d   1       4.259   1.142  -5.906  0.00  0.00    -0.031 A 
ATOM      3  C3  DEN d   1       4.300   0.476  -4.589  0.00  0.00     0.027 A 
ATOM      4  C4  DEN d   1       2.546   0.506  -2.698  0.00  0.00     0.027 A 
ATOM      5  C5  DEN d   1       1.321   1.003  -2.312  0.00  0.00    -0.003 A 
ATOM      6  C6  DEN d   1       0.591   1.845  -3.107  0.00  0.00     0.001 A 
ATOM      7  C7  DEN d   1       1.059   2.182  -4.350  0.00  0.00     0.017 A 
ATOM      8  C8  DEN d   1       2.297   1.692  -4.743  0.00  0.00    -0.094 A 
ATOM      9  C9  DEN d   1       3.015   0.831  -3.930  0.00  0.00    -0.072 A 
ENDROOT
TORSDOF 0
ENDMDL
