MODEL 1
REMARK minimizedAffinity 4.02700233
REMARK minimizedRMSD -1
REMARK  0 active torsions:
REMARK  status: ('A' for Active; 'I' for Inactive)
ROOT
ATOM      1  C1  DEN d   1      -2.925   4.457  -0.124  0.00  0.00     0.130 A 
ATOM      2  C2  DEN d   1      -4.229   4.786   0.444  0.00  0.00    -0.031 A 
ATOM      3  C3  DEN d   1      -4.914   3.522   0.778  0.00  0.00     0.027 A 
ATOM      4  C4  DEN d   1      -4.084   1.098   0.479  0.00  0.00     0.027 A 
ATOM      5  C5  DEN d   1      -3.045   0.315   0.027  0.00  0.00    -0.003 A 
ATOM      6  C6  DEN d   1      -1.916   0.852  -0.533  0.00  0.00     0.001 A 
ATOM      7  C7  DEN d   1      -1.781   2.213  -0.615  0.00  0.00     0.017 A 
ATOM      8  C8  DEN d   1      -2.828   3.009  -0.169  0.00  0.00    -0.094 A 
ATOM      9  C9  DEN d   1      -3.955   2.447   0.406  0.00  0.00    -0.072 A 
ENDROOT
TORSDOF 0
ENDMDL
