MODEL 1
REMARK minimizedAffinity 4.77489996
REMARK minimizedRMSD -1
REMARK  0 active torsions:
REMARK  status: ('A' for Active; 'I' for Inactive)
ROOT
ATOM      1  C1  DEN d   1       3.580   1.956   2.005  0.00  0.00     0.130 A 
ATOM      2  C2  DEN d   1       4.071   3.331   1.967  0.00  0.00    -0.031 A 
ATOM      3  C3  DEN d   1       5.054   3.495   3.056  0.00  0.00     0.027 A 
ATOM      4  C4  DEN d   1       5.864   1.762   4.787  0.00  0.00     0.027 A 
ATOM      5  C5  DEN d   1       5.724   0.463   5.225  0.00  0.00    -0.003 A 
ATOM      6  C6  DEN d   1       4.843  -0.412   4.647  0.00  0.00     0.001 A 
ATOM      7  C7  DEN d   1       4.099  -0.012   3.568  0.00  0.00     0.017 A 
ATOM      8  C8  DEN d   1       4.229   1.298   3.125  0.00  0.00    -0.094 A 
ATOM      9  C9  DEN d   1       5.134   2.163   3.715  0.00  0.00    -0.072 A 
ENDROOT
TORSDOF 0
ENDMDL
