MODEL 1
REMARK minimizedAffinity -3.83782697
REMARK minimizedRMSD -1
REMARK  0 active torsions:
REMARK  status: ('A' for Active; 'I' for Inactive)
ROOT
ATOM      1  C1  DEN d   1      -2.881   3.067   1.749  0.00  0.00     0.130 A 
ATOM      2  C2  DEN d   1      -3.111   3.304   0.326  0.00  0.00    -0.031 A 
ATOM      3  C3  DEN d   1      -3.265   1.993  -0.337  0.00  0.00     0.027 A 
ATOM      4  C4  DEN d   1      -3.173  -0.368   0.697  0.00  0.00     0.027 A 
ATOM      5  C5  DEN d   1      -2.990  -1.076   1.864  0.00  0.00    -0.003 A 
ATOM      6  C6  DEN d   1      -2.726  -0.460   3.058  0.00  0.00     0.001 A 
ATOM      7  C7  DEN d   1      -2.682   0.908   3.121  0.00  0.00     0.017 A 
ATOM      8  C8  DEN d   1      -2.859   1.629   1.947  0.00  0.00    -0.094 A 
ATOM      9  C9  DEN d   1      -3.137   0.988   0.752  0.00  0.00    -0.072 A 
ENDROOT
TORSDOF 0
ENDMDL
