MODEL 1
REMARK minimizedAffinity -2.18207741
REMARK minimizedRMSD -1
REMARK  0 active torsions:
REMARK  status: ('A' for Active; 'I' for Inactive)
ROOT
ATOM      1  C1  DEN d   1      -3.094   3.054   3.114  0.00  0.00     0.130 A 
ATOM      2  C2  DEN d   1      -4.061   3.502   4.112  0.00  0.00    -0.031 A 
ATOM      3  C3  DEN d   1      -4.702   2.307   4.696  0.00  0.00     0.027 A 
ATOM      4  C4  DEN d   1      -4.288  -0.182   4.159  0.00  0.00     0.027 A 
ATOM      5  C5  DEN d   1      -3.570  -1.056   3.374  0.00  0.00    -0.003 A 
ATOM      6  C6  DEN d   1      -2.674  -0.625   2.432  0.00  0.00     0.001 A 
ATOM      7  C7  DEN d   1      -2.440   0.716   2.282  0.00  0.00     0.017 A 
ATOM      8  C8  DEN d   1      -3.167   1.605   3.064  0.00  0.00    -0.094 A 
ATOM      9  C9  DEN d   1      -4.059   1.148   4.020  0.00  0.00    -0.072 A 
ENDROOT
TORSDOF 0
ENDMDL
