MODEL 1
REMARK minimizedAffinity -1.39909136
REMARK minimizedRMSD -1
REMARK  0 active torsions:
REMARK  status: ('A' for Active; 'I' for Inactive)
ROOT
ATOM      1  C1  DEN d   1      -3.305   2.507  -0.640  0.00  0.00     0.130 A 
ATOM      2  C2  DEN d   1      -3.084   3.741   0.108  0.00  0.00    -0.031 A 
ATOM      3  C3  DEN d   1      -2.593   3.379   1.452  0.00  0.00     0.027 A 
ATOM      4  C4  DEN d   1      -2.151   1.038   2.442  0.00  0.00     0.027 A 
ATOM      5  C5  DEN d   1      -2.203  -0.315   2.190  0.00  0.00    -0.003 A 
ATOM      6  C6  DEN d   1      -2.655  -0.820   0.999  0.00  0.00     0.001 A 
ATOM      7  C7  DEN d   1      -3.030   0.037  -0.002  0.00  0.00     0.017 A 
ATOM      8  C8  DEN d   1      -2.987   1.402   0.247  0.00  0.00    -0.094 A 
ATOM      9  C9  DEN d   1      -2.516   1.893   1.453  0.00  0.00    -0.072 A 
ENDROOT
TORSDOF 0
ENDMDL
