MODEL 1
REMARK minimizedAffinity 15.691926
REMARK minimizedRMSD -1
REMARK  0 active torsions:
REMARK  status: ('A' for Active; 'I' for Inactive)
ROOT
ATOM      1  C1  DEN d   1      -5.255  -1.344   2.629  0.00  0.00     0.130 A 
ATOM      2  C2  DEN d   1      -5.600  -1.713   3.999  0.00  0.00    -0.031 A 
ATOM      3  C3  DEN d   1      -4.551  -1.182   4.892  0.00  0.00     0.027 A 
ATOM      4  C4  DEN d   1      -2.441   0.174   4.291  0.00  0.00     0.027 A 
ATOM      5  C5  DEN d   1      -1.716   0.722   3.257  0.00  0.00    -0.003 A 
ATOM      6  C6  DEN d   1      -2.099   0.593   1.948  0.00  0.00     0.001 A 
ATOM      7  C7  DEN d   1      -3.262  -0.064   1.643  0.00  0.00     0.017 A 
ATOM      8  C8  DEN d   1      -3.994  -0.626   2.680  0.00  0.00    -0.094 A 
ATOM      9  C9  DEN d   1      -3.597  -0.473   3.998  0.00  0.00    -0.072 A 
ENDROOT
TORSDOF 0
ENDMDL
