MODEL 1
REMARK minimizedAffinity 8.3175993
REMARK minimizedRMSD -1
REMARK  0 active torsions:
REMARK  status: ('A' for Active; 'I' for Inactive)
ROOT
ATOM      1  C1  DEN d   1      -5.228  -0.082   0.663  0.00  0.00     0.130 A 
ATOM      2  C2  DEN d   1      -4.383   0.392  -0.429  0.00  0.00    -0.031 A 
ATOM      3  C3  DEN d   1      -3.012   0.561   0.095  0.00  0.00     0.027 A 
ATOM      4  C4  DEN d   1      -2.121   0.130   2.476  0.00  0.00     0.027 A 
ATOM      5  C5  DEN d   1      -2.466  -0.269   3.749  0.00  0.00    -0.003 A 
ATOM      6  C6  DEN d   1      -3.751  -0.598   4.088  0.00  0.00     0.001 A 
ATOM      7  C7  DEN d   1      -4.732  -0.578   3.131  0.00  0.00     0.017 A 
ATOM      8  C8  DEN d   1      -4.393  -0.170   1.848  0.00  0.00    -0.094 A 
ATOM      9  C9  DEN d   1      -3.086   0.147   1.522  0.00  0.00    -0.072 A 
ENDROOT
TORSDOF 0
ENDMDL
