MODEL 1
REMARK minimizedAffinity 1.52437055
REMARK minimizedRMSD -1
REMARK  0 active torsions:
REMARK  status: ('A' for Active; 'I' for Inactive)
ROOT
ATOM      1  C1  DEN d   1      -2.645   1.344   3.434  0.00  0.00     0.130 A 
ATOM      2  C2  DEN d   1      -3.042  -0.062   3.432  0.00  0.00    -0.031 A 
ATOM      3  C3  DEN d   1      -3.443  -0.421   2.057  0.00  0.00     0.027 A 
ATOM      4  C4  DEN d   1      -3.482   1.053  -0.059  0.00  0.00     0.027 A 
ATOM      5  C5  DEN d   1      -3.244   2.317  -0.551  0.00  0.00    -0.003 A 
ATOM      6  C6  DEN d   1      -2.825   3.346   0.251  0.00  0.00     0.001 A 
ATOM      7  C7  DEN d   1      -2.589   3.117   1.580  0.00  0.00     0.017 A 
ATOM      8  C8  DEN d   1      -2.834   1.847   2.085  0.00  0.00    -0.094 A 
ATOM      9  C9  DEN d   1      -3.245   0.817   1.256  0.00  0.00    -0.072 A 
ENDROOT
TORSDOF 0
ENDMDL
