MODEL 1
REMARK minimizedAffinity 0.449793965
REMARK minimizedRMSD -1
REMARK  0 active torsions:
REMARK  status: ('A' for Active; 'I' for Inactive)
ROOT
ATOM      1  C1  DEN d   1      -2.707   0.860   3.861  0.00  0.00     0.130 A 
ATOM      2  C2  DEN d   1      -3.128  -0.442   4.371  0.00  0.00    -0.031 A 
ATOM      3  C3  DEN d   1      -3.521  -1.278   3.219  0.00  0.00     0.027 A 
ATOM      4  C4  DEN d   1      -3.513  -0.688   0.709  0.00  0.00     0.027 A 
ATOM      5  C5  DEN d   1      -3.248   0.302  -0.211  0.00  0.00    -0.003 A 
ATOM      6  C6  DEN d   1      -2.819   1.549   0.162  0.00  0.00     0.001 A 
ATOM      7  C7  DEN d   1      -2.600   1.823   1.486  0.00  0.00     0.017 A 
ATOM      8  C8  DEN d   1      -2.873   0.832   2.419  0.00  0.00    -0.094 A 
ATOM      9  C9  DEN d   1      -3.293  -0.426   2.022  0.00  0.00    -0.072 A 
ENDROOT
TORSDOF 0
ENDMDL
