MODEL 1
REMARK minimizedAffinity -4.74341345
REMARK minimizedRMSD -1
REMARK  0 active torsions:
REMARK  status: ('A' for Active; 'I' for Inactive)
ROOT
ATOM      1  O1  BZF d   1       1.393  -1.096   0.168  0.00  0.00    -0.204 OA
ATOM      2  C2  BZF d   1       0.587  -1.227  -0.947  0.00  0.00     0.174 A 
ATOM      3  C3  BZF d   1      -0.640  -0.720  -0.711  0.00  0.00    -0.012 A 
ATOM      4  C3A BZF d   1      -0.571  -0.160   0.604  0.00  0.00    -0.107 A 
ATOM      5  C4  BZF d   1      -1.469   0.500   1.392  0.00  0.00     0.055 A 
ATOM      6  C5  BZF d   1      -1.109   0.851   2.654  0.00  0.00    -0.016 A 
ATOM      7  C6  BZF d   1       0.139   0.552   3.162  0.00  0.00     0.022 A 
ATOM      8  C7  BZF d   1       1.066  -0.097   2.416  0.00  0.00     0.029 A 
ATOM      9  C7A BZF d   1       0.716  -0.423   1.129  0.00  0.00     0.058 A 
ENDROOT
TORSDOF 0
ENDMDL
