MODEL 1
REMARK minimizedAffinity -6.08309746
REMARK minimizedRMSD -1
REMARK  0 active torsions:
REMARK  status: ('A' for Active; 'I' for Inactive)
ROOT
ATOM      1  O1  BZF d   1       1.857  -0.758   0.640  0.00  0.00    -0.204 OA
ATOM      2  C2  BZF d   1       1.118  -0.598  -0.517  0.00  0.00     0.174 A 
ATOM      3  C3  BZF d   1      -0.041   0.041  -0.260  0.00  0.00    -0.012 A 
ATOM      4  C3A BZF d   1       0.016   0.379   1.130  0.00  0.00    -0.107 A 
ATOM      5  C4  BZF d   1      -0.834   1.038   1.971  0.00  0.00     0.055 A 
ATOM      6  C5  BZF d   1      -0.515   1.136   3.289  0.00  0.00    -0.016 A 
ATOM      7  C6  BZF d   1       0.642   0.584   3.798  0.00  0.00     0.022 A 
ATOM      8  C7  BZF d   1       1.519  -0.074   3.002  0.00  0.00     0.029 A 
ATOM      9  C7A BZF d   1       1.215  -0.146   1.664  0.00  0.00     0.058 A 
ENDROOT
TORSDOF 0
ENDMDL
