MODEL 1
REMARK minimizedAffinity -5.19205952
REMARK minimizedRMSD -1
REMARK  0 active torsions:
REMARK  status: ('A' for Active; 'I' for Inactive)
ROOT
ATOM      1  O1  BZF d   1       0.806  -0.395   0.154  0.00  0.00    -0.204 OA
ATOM      2  C2  BZF d   1      -0.281  -0.617  -0.669  0.00  0.00     0.174 A 
ATOM      3  C3  BZF d   1      -1.426  -0.256  -0.056  0.00  0.00    -0.012 A 
ATOM      4  C3A BZF d   1      -1.022   0.308   1.195  0.00  0.00    -0.107 A 
ATOM      5  C4  BZF d   1      -1.705   0.861   2.241  0.00  0.00     0.055 A 
ATOM      6  C5  BZF d   1      -1.018   1.250   3.347  0.00  0.00    -0.016 A 
ATOM      7  C6  BZF d   1       0.350   1.097   3.443  0.00  0.00     0.022 A 
ATOM      8  C7  BZF d   1       1.071   0.559   2.430  0.00  0.00     0.029 A 
ATOM      9  C7A BZF d   1       0.384   0.195   1.298  0.00  0.00     0.058 A 
ENDROOT
TORSDOF 0
ENDMDL
