MODEL 1
REMARK minimizedAffinity -5.73341465
REMARK minimizedRMSD -1
REMARK  0 active torsions:
REMARK  status: ('A' for Active; 'I' for Inactive)
ROOT
ATOM      1  O1  BZF d   1      -0.944   1.464   3.220  0.00  0.00    -0.204 OA
ATOM      2  C2  BZF d   1       0.388   1.594   3.565  0.00  0.00     0.174 A 
ATOM      3  C3  BZF d   1       1.176   0.946   2.683  0.00  0.00    -0.012 A 
ATOM      4  C3A BZF d   1       0.287   0.452   1.676  0.00  0.00    -0.107 A 
ATOM      5  C4  BZF d   1       0.475  -0.259   0.525  0.00  0.00     0.055 A 
ATOM      6  C5  BZF d   1      -0.610  -0.645  -0.197  0.00  0.00    -0.016 A 
ATOM      7  C6  BZF d   1      -1.895  -0.341   0.204  0.00  0.00     0.022 A 
ATOM      8  C7  BZF d   1      -2.130   0.367   1.336  0.00  0.00     0.029 A 
ATOM      9  C7A BZF d   1      -1.035   0.787   2.050  0.00  0.00     0.058 A 
ENDROOT
TORSDOF 0
ENDMDL
