MODEL 1
REMARK minimizedAffinity -5.98008871
REMARK minimizedRMSD -1
REMARK  0 active torsions:
REMARK  status: ('A' for Active; 'I' for Inactive)
ROOT
ATOM      1  O1  BZF d   1       0.989  -1.055   0.136  0.00  0.00    -0.204 OA
ATOM      2  C2  BZF d   1       0.073  -0.733  -0.847  0.00  0.00     0.174 A 
ATOM      3  C3  BZF d   1      -0.880   0.089  -0.362  0.00  0.00    -0.012 A 
ATOM      4  C3A BZF d   1      -0.487   0.368   0.985  0.00  0.00    -0.107 A 
ATOM      5  C4  BZF d   1      -1.022   1.137   1.979  0.00  0.00     0.055 A 
ATOM      6  C5  BZF d   1      -0.433   1.137   3.204  0.00  0.00    -0.016 A 
ATOM      7  C6  BZF d   1       0.688   0.377   3.470  0.00  0.00     0.022 A 
ATOM      8  C7  BZF d   1       1.257  -0.397   2.515  0.00  0.00     0.029 A 
ATOM      9  C7A BZF d   1       0.683  -0.374   1.267  0.00  0.00     0.058 A 
ENDROOT
TORSDOF 0
ENDMDL
