MODEL 1
REMARK minimizedAffinity -6.55937719
REMARK minimizedRMSD -1
REMARK  0 active torsions:
REMARK  status: ('A' for Active; 'I' for Inactive)
ROOT
ATOM      1  O1  BZF d   1       0.687  -0.480  -0.327  0.00  0.00    -0.204 OA
ATOM      2  C2  BZF d   1      -0.487  -0.416  -1.053  0.00  0.00     0.174 A 
ATOM      3  C3  BZF d   1      -1.496   0.055  -0.291  0.00  0.00    -0.012 A 
ATOM      4  C3A BZF d   1      -0.895   0.388   0.964  0.00  0.00    -0.107 A 
ATOM      5  C4  BZF d   1      -1.380   0.917   2.126  0.00  0.00     0.055 A 
ATOM      6  C5  BZF d   1      -0.545   1.049   3.191  0.00  0.00    -0.016 A 
ATOM      7  C6  BZF d   1       0.777   0.660   3.130  0.00  0.00     0.022 A 
ATOM      8  C7  BZF d   1       1.304   0.135   1.997  0.00  0.00     0.029 A 
ATOM      9  C7A BZF d   1       0.472   0.030   0.910  0.00  0.00     0.058 A 
ENDROOT
TORSDOF 0
ENDMDL
