MODEL 1
REMARK minimizedAffinity -5.82884455
REMARK minimizedRMSD -1
REMARK  0 active torsions:
REMARK  status: ('A' for Active; 'I' for Inactive)
ROOT
ATOM      1  O1  BZF d   1       1.275  -0.770   0.144  0.00  0.00    -0.204 OA
ATOM      2  C2  BZF d   1       0.388  -1.206  -0.821  0.00  0.00     0.174 A 
ATOM      3  C3  BZF d   1      -0.866  -0.795  -0.538  0.00  0.00    -0.012 A 
ATOM      4  C3A BZF d   1      -0.740   0.021   0.630  0.00  0.00    -0.107 A 
ATOM      5  C4  BZF d   1      -1.634   0.727   1.383  0.00  0.00     0.055 A 
ATOM      6  C5  BZF d   1      -1.199   1.360   2.504  0.00  0.00    -0.016 A 
ATOM      7  C6  BZF d   1       0.120   1.304   2.904  0.00  0.00     0.022 A 
ATOM      8  C7  BZF d   1       1.045   0.620   2.187  0.00  0.00     0.029 A 
ATOM      9  C7A BZF d   1       0.615   0.007   1.036  0.00  0.00     0.058 A 
ENDROOT
TORSDOF 0
ENDMDL
