MODEL 1
REMARK minimizedAffinity -6.15137625
REMARK minimizedRMSD -1
REMARK  0 active torsions:
REMARK  status: ('A' for Active; 'I' for Inactive)
ROOT
ATOM      1  O1  BZF d   1       0.701  -0.430  -0.097  0.00  0.00    -0.204 OA
ATOM      2  C2  BZF d   1      -0.408  -0.201  -0.888  0.00  0.00     0.174 A 
ATOM      3  C3  BZF d   1      -1.411   0.333  -0.162  0.00  0.00    -0.012 A 
ATOM      4  C3A BZF d   1      -0.865   0.531   1.146  0.00  0.00    -0.107 A 
ATOM      5  C4  BZF d   1      -1.369   1.045   2.306  0.00  0.00     0.055 A 
ATOM      6  C5  BZF d   1      -0.599   1.029   3.425  0.00  0.00    -0.016 A 
ATOM      7  C6  BZF d   1       0.677   0.504   3.421  0.00  0.00     0.022 A 
ATOM      8  C7  BZF d   1       1.222  -0.012   2.293  0.00  0.00     0.029 A 
ATOM      9  C7A BZF d   1       0.458   0.032   1.153  0.00  0.00     0.058 A 
ENDROOT
TORSDOF 0
ENDMDL
