MODEL 1
REMARK minimizedAffinity -4.66083717
REMARK minimizedRMSD -1
REMARK  0 active torsions:
REMARK  status: ('A' for Active; 'I' for Inactive)
ROOT
ATOM      1  O1  BZF d   1       1.724  -0.504   1.547  0.00  0.00    -0.204 OA
ATOM      2  C2  BZF d   1       2.088  -0.363   2.872  0.00  0.00     0.174 A 
ATOM      3  C3  BZF d   1       1.158   0.336   3.552  0.00  0.00    -0.012 A 
ATOM      4  C3A BZF d   1       0.104   0.573   2.613  0.00  0.00    -0.107 A 
ATOM      5  C4  BZF d   1      -1.104   1.205   2.697  0.00  0.00     0.055 A 
ATOM      6  C5  BZF d   1      -1.865   1.326   1.578  0.00  0.00    -0.016 A 
ATOM      7  C6  BZF d   1      -1.447   0.833   0.359  0.00  0.00     0.022 A 
ATOM      8  C7  BZF d   1      -0.259   0.195   0.227  0.00  0.00     0.029 A 
ATOM      9  C7A BZF d   1       0.498   0.042   1.364  0.00  0.00     0.058 A 
ENDROOT
TORSDOF 0
ENDMDL
