MODEL 1
REMARK minimizedAffinity -0.278314769
REMARK minimizedRMSD -1
REMARK  0 active torsions:
REMARK  status: ('A' for Active; 'I' for Inactive)
ROOT
ATOM      1  O1  BZF d   1      -1.109   0.350   2.040  0.00  0.00    -0.204 OA
ATOM      2  C2  BZF d   1      -2.190   0.558   1.206  0.00  0.00     0.174 A 
ATOM      3  C3  BZF d   1      -1.879   0.241  -0.068  0.00  0.00    -0.012 A 
ATOM      4  C3A BZF d   1      -0.548  -0.279  -0.012  0.00  0.00    -0.107 A 
ATOM      5  C4  BZF d   1       0.306  -0.777  -0.954  0.00  0.00     0.055 A 
ATOM      6  C5  BZF d   1       1.564  -1.133  -0.584  0.00  0.00    -0.016 A 
ATOM      7  C6  BZF d   1       2.003  -1.000   0.718  0.00  0.00     0.022 A 
ATOM      8  C7  BZF d   1       1.190  -0.516   1.688  0.00  0.00     0.029 A 
ATOM      9  C7A BZF d   1      -0.092  -0.186   1.323  0.00  0.00     0.058 A 
ENDROOT
TORSDOF 0
ENDMDL
