MODEL 1
REMARK minimizedAffinity -4.68474817
REMARK minimizedRMSD -1
REMARK  0 active torsions:
REMARK  status: ('A' for Active; 'I' for Inactive)
ROOT
ATOM      1  O1  BZF d   1       1.939  -0.591   1.746  0.00  0.00    -0.204 OA
ATOM      2  C2  BZF d   1       1.933  -0.794   0.380  0.00  0.00     0.174 A 
ATOM      3  C3  BZF d   1       0.763  -0.392  -0.158  0.00  0.00    -0.012 A 
ATOM      4  C3A BZF d   1       0.026   0.177   0.928  0.00  0.00    -0.107 A 
ATOM      5  C4  BZF d   1      -1.205   0.763   1.022  0.00  0.00     0.055 A 
ATOM      6  C5  BZF d   1      -1.661   1.148   2.243  0.00  0.00    -0.016 A 
ATOM      7  C6  BZF d   1      -0.916   0.959   3.389  0.00  0.00     0.022 A 
ATOM      8  C7  BZF d   1       0.312   0.387   3.345  0.00  0.00     0.029 A 
ATOM      9  C7A BZF d   1       0.789   0.027   2.108  0.00  0.00     0.058 A 
ENDROOT
TORSDOF 0
ENDMDL
