MODEL 1
REMARK minimizedAffinity -5.39409447
REMARK minimizedRMSD -1
REMARK  0 active torsions:
REMARK  status: ('A' for Active; 'I' for Inactive)
ROOT
ATOM      1  O1  BZF d   1       1.737  -0.459   1.740  0.00  0.00    -0.204 OA
ATOM      2  C2  BZF d   1       1.852  -0.030   3.049  0.00  0.00     0.174 A 
ATOM      3  C3  BZF d   1       0.715   0.571   3.457  0.00  0.00    -0.012 A 
ATOM      4  C3A BZF d   1      -0.197   0.432   2.364  0.00  0.00    -0.107 A 
ATOM      5  C4  BZF d   1      -1.494   0.812   2.169  0.00  0.00     0.055 A 
ATOM      6  C5  BZF d   1      -2.074   0.591   0.960  0.00  0.00    -0.016 A 
ATOM      7  C6  BZF d   1      -1.385  -0.003  -0.077  0.00  0.00     0.022 A 
ATOM      8  C7  BZF d   1      -0.098  -0.402   0.070  0.00  0.00     0.029 A 
ATOM      9  C7A BZF d   1       0.480  -0.209   1.301  0.00  0.00     0.058 A 
ENDROOT
TORSDOF 0
ENDMDL
