MODEL 1
REMARK minimizedAffinity -0.123239405
REMARK minimizedRMSD -1
REMARK  3 active torsions:
REMARK  status: ('A' for Active; 'I' for Inactive)
REMARK    1  A    between atoms: C3'_2  and  C2'_3 
REMARK    2  A    between atoms: C2'_3  and  C1'_4 
REMARK    3  A    between atoms: C1'_4  and  C1_5 
ROOT
ATOM      1  C1  N4B d   1       0.248  -1.198  -2.656  0.00  0.00    -0.075 A 
ATOM      2  C2  N4B d   1      -0.608  -1.705  -3.659  0.00  0.00     0.002 A 
ATOM      3  C3  N4B d   1      -1.024  -3.013  -3.609  0.00  0.00     0.002 A 
ATOM      4  C4  N4B d   1      -0.584  -3.835  -2.582  0.00  0.00    -0.004 A 
ATOM      5  C5  N4B d   1       0.222  -3.330  -1.603  0.00  0.00     0.002 A 
ATOM      6  C6  N4B d   1       0.644  -2.017  -1.638  0.00  0.00     0.002 A 
ENDROOT
BRANCH   1   7
ATOM      7  C1' N4B d   1       0.798   0.200  -2.715  0.00  0.00     0.057 C 
BRANCH   7   8
ATOM      8  C2' N4B d   1       1.203   0.639  -1.310  0.00  0.00     0.009 C 
BRANCH   8   9
ATOM      9  C3' N4B d   1       0.873   2.099  -1.054  0.00  0.00     0.004 C 
ATOM     10  C4' N4B d   1       0.912   2.456   0.402  0.00  0.00     0.003 C 
ENDBRANCH   8   9
ENDBRANCH   7   8
ENDBRANCH   1   7
TORSDOF 3
ENDMDL
