MODEL 1
REMARK minimizedAffinity 8.93351269
REMARK minimizedRMSD -1
REMARK  3 active torsions:
REMARK  status: ('A' for Active; 'I' for Inactive)
REMARK    1  A    between atoms: C3'_2  and  C2'_3 
REMARK    2  A    between atoms: C2'_3  and  C1'_4 
REMARK    3  A    between atoms: C1'_4  and  C1_5 
ROOT
ATOM      1  C1  N4B d   1       0.265   2.814  -1.083  0.00  0.00    -0.075 A 
ATOM      2  C2  N4B d   1       0.978   3.986  -1.418  0.00  0.00     0.002 A 
ATOM      3  C3  N4B d   1       1.757   4.609  -0.475  0.00  0.00     0.002 A 
ATOM      4  C4  N4B d   1       1.822   4.093   0.811  0.00  0.00    -0.004 A 
ATOM      5  C5  N4B d   1       1.150   2.947   1.120  0.00  0.00     0.002 A 
ATOM      6  C6  N4B d   1       0.367   2.307   0.180  0.00  0.00     0.002 A 
ENDROOT
BRANCH   1   7
ATOM      7  C1' N4B d   1      -0.667   2.145  -2.056  0.00  0.00     0.057 C 
BRANCH   7   8
ATOM      8  C2' N4B d   1       0.097   1.067  -2.820  0.00  0.00     0.009 C 
BRANCH   8   9
ATOM      9  C3' N4B d   1      -0.576   0.720  -4.137  0.00  0.00     0.004 C 
ATOM     10  C4' N4B d   1      -0.332  -0.699  -4.557  0.00  0.00     0.003 C 
ENDBRANCH   8   9
ENDBRANCH   7   8
ENDBRANCH   1   7
TORSDOF 3
ENDMDL
