MODEL 1
REMARK minimizedAffinity 9.07989693
REMARK minimizedRMSD -1
REMARK  3 active torsions:
REMARK  status: ('A' for Active; 'I' for Inactive)
REMARK    1  A    between atoms: C3'_2  and  C2'_3 
REMARK    2  A    between atoms: C2'_3  and  C1'_4 
REMARK    3  A    between atoms: C1'_4  and  C1_5 
ROOT
ATOM      1  C1  N4B d   1       4.902  -4.776  -1.399  0.00  0.00    -0.075 A 
ATOM      2  C2  N4B d   1       5.101  -3.486  -0.859  0.00  0.00     0.002 A 
ATOM      3  C3  N4B d   1       5.558  -2.469  -1.662  0.00  0.00     0.002 A 
ATOM      4  C4  N4B d   1       5.838  -2.722  -2.996  0.00  0.00    -0.004 A 
ATOM      5  C5  N4B d   1       5.619  -3.964  -3.516  0.00  0.00     0.002 A 
ATOM      6  C6  N4B d   1       5.156  -4.995  -2.722  0.00  0.00     0.002 A 
ENDROOT
BRANCH   1   7
ATOM      7  C1' N4B d   1       4.486  -5.939  -0.541  0.00  0.00     0.057 C 
BRANCH   7   8
ATOM      8  C2' N4B d   1       5.354  -5.972   0.714  0.00  0.00     0.009 C 
BRANCH   8   9
ATOM      9  C3' N4B d   1       4.532  -5.784   1.978  0.00  0.00     0.004 C 
ATOM     10  C4' N4B d   1       5.331  -6.000   3.228  0.00  0.00     0.003 C 
ENDBRANCH   8   9
ENDBRANCH   7   8
ENDBRANCH   1   7
TORSDOF 3
ENDMDL
