MODEL 1
REMARK minimizedAffinity 2.02916861
REMARK minimizedRMSD -1
REMARK  3 active torsions:
REMARK  status: ('A' for Active; 'I' for Inactive)
REMARK    1  A    between atoms: C3'_2  and  C2'_3 
REMARK    2  A    between atoms: C2'_3  and  C1'_4 
REMARK    3  A    between atoms: C1'_4  and  C1_5 
ROOT
ATOM      1  C1  N4B d   1       0.961  -0.758  -1.318  0.00  0.00    -0.075 A 
ATOM      2  C2  N4B d   1       0.912  -2.168  -1.388  0.00  0.00     0.002 A 
ATOM      3  C3  N4B d   1       0.479  -2.783  -2.537  0.00  0.00     0.002 A 
ATOM      4  C4  N4B d   1       0.075  -2.013  -3.617  0.00  0.00    -0.004 A 
ATOM      5  C5  N4B d   1       0.150  -0.653  -3.550  0.00  0.00     0.002 A 
ATOM      6  C6  N4B d   1       0.587  -0.021  -2.404  0.00  0.00     0.002 A 
ENDROOT
BRANCH   1   7
ATOM      7  C1' N4B d   1       1.346  -0.039  -0.054  0.00  0.00     0.057 C 
BRANCH   7   8
ATOM      8  C2' N4B d   1       0.374   1.114   0.181  0.00  0.00     0.009 C 
BRANCH   8   9
ATOM      9  C3' N4B d   1       1.087   2.370   0.654  0.00  0.00     0.004 C 
ATOM     10  C4' N4B d   1       0.765   3.570  -0.186  0.00  0.00     0.003 C 
ENDBRANCH   8   9
ENDBRANCH   7   8
ENDBRANCH   1   7
TORSDOF 3
ENDMDL
