MODEL 1
REMARK minimizedAffinity 8.28227329
REMARK minimizedRMSD -1
REMARK  3 active torsions:
REMARK  status: ('A' for Active; 'I' for Inactive)
REMARK    1  A    between atoms: C3'_2  and  C2'_3 
REMARK    2  A    between atoms: C2'_3  and  C1'_4 
REMARK    3  A    between atoms: C1'_4  and  C1_5 
ROOT
ATOM      1  C1  N4B d   1       1.118   3.563   0.012  0.00  0.00    -0.075 A 
ATOM      2  C2  N4B d   1       1.017   4.443  -1.089  0.00  0.00     0.002 A 
ATOM      3  C3  N4B d   1       1.678   5.646  -1.069  0.00  0.00     0.002 A 
ATOM      4  C4  N4B d   1       2.427   5.999   0.044  0.00  0.00    -0.004 A 
ATOM      5  C5  N4B d   1       2.540   5.133   1.092  0.00  0.00     0.002 A 
ATOM      6  C6  N4B d   1       1.884   3.918   1.084  0.00  0.00     0.002 A 
ENDROOT
BRANCH   1   7
ATOM      7  C1' N4B d   1       0.345   2.275   0.072  0.00  0.00     0.057 C 
BRANCH   7   8
ATOM      8  C2' N4B d   1      -0.101   1.892  -1.336  0.00  0.00     0.009 C 
BRANCH   8   9
ATOM      9  C3' N4B d   1       0.703   0.728  -1.890  0.00  0.00     0.004 C 
ATOM     10  C4' N4B d   1      -0.044  -0.051  -2.931  0.00  0.00     0.003 C 
ENDBRANCH   8   9
ENDBRANCH   7   8
ENDBRANCH   1   7
TORSDOF 3
ENDMDL
