MODEL 1
REMARK minimizedAffinity 5.16483879
REMARK minimizedRMSD -1
REMARK  3 active torsions:
REMARK  status: ('A' for Active; 'I' for Inactive)
REMARK    1  A    between atoms: C3'_2  and  C2'_3 
REMARK    2  A    between atoms: C2'_3  and  C1'_4 
REMARK    3  A    between atoms: C1'_4  and  C1_5 
ROOT
ATOM      1  C1  N4B d   1       0.943   0.606  -1.426  0.00  0.00    -0.075 A 
ATOM      2  C2  N4B d   1       0.018   0.868  -2.460  0.00  0.00     0.002 A 
ATOM      3  C3  N4B d   1      -0.876   1.903  -2.336  0.00  0.00     0.002 A 
ATOM      4  C4  N4B d   1      -0.876   2.674  -1.183  0.00  0.00    -0.004 A 
ATOM      5  C5  N4B d   1       0.037   2.430  -0.199  0.00  0.00     0.002 A 
ATOM      6  C6  N4B d   1       0.944   1.395  -0.313  0.00  0.00     0.002 A 
ENDROOT
BRANCH   1   7
ATOM      7  C1' N4B d   1       1.882  -0.568  -1.479  0.00  0.00     0.057 C 
BRANCH   7   8
ATOM      8  C2' N4B d   1       1.147  -1.820  -1.010  0.00  0.00     0.009 C 
BRANCH   8   9
ATOM      9  C3' N4B d   1       0.824  -2.755  -2.162  0.00  0.00     0.004 C 
ATOM     10  C4' N4B d   1      -0.251  -3.744  -1.824  0.00  0.00     0.003 C 
ENDBRANCH   8   9
ENDBRANCH   7   8
ENDBRANCH   1   7
TORSDOF 3
ENDMDL
