MODEL 1
REMARK minimizedAffinity 21.9921284
REMARK minimizedRMSD -1
REMARK  0 active torsions:
REMARK  status: ('A' for Active; 'I' for Inactive)
ROOT
ATOM      1  C   UNL d   1      -0.031  -2.873   2.147  0.00  0.00     0.124 A 
ATOM      2  C1  UNL d   1      -0.836  -3.479   3.102  0.00  0.00     0.062 A 
ATOM      3  C2  UNL d   1      -1.302  -2.748   4.190  0.00  0.00     0.162 A 
ATOM      4  C3  UNL d   1      -0.966  -1.401   4.329  0.00  0.00    -0.034 A 
ATOM      5  C4  UNL d   1      -0.155  -0.799   3.365  0.00  0.00     0.162 A 
ATOM      6  C5  UNL d   1       0.308  -1.534   2.279  0.00  0.00     0.062 A 
ATOM      7  F   UNL d   1       1.086  -0.947   1.358  0.00  0.00    -0.097 F 
ATOM      8  F1  UNL d   1       0.187   0.494   3.469  0.00  0.00    -0.096 F 
ATOM      9  I   UNL d   1      -1.661  -0.304   5.956  0.00  0.00    -0.060 I 
ATOM     10  F2  UNL d   1      -2.078  -3.359   5.098  0.00  0.00    -0.096 F 
ATOM     11  F3  UNL d   1      -1.164  -4.773   2.976  0.00  0.00    -0.097 F 
ATOM     12  F4  UNL d   1       0.417  -3.579   1.101  0.00  0.00    -0.092 F 
ENDROOT
TORSDOF 0
ENDMDL
