MODEL 1
REMARK minimizedAffinity 10.4342165
REMARK minimizedRMSD -1
REMARK  0 active torsions:
REMARK  status: ('A' for Active; 'I' for Inactive)
ROOT
ATOM      1  C   UNL d   1       0.402  -0.651   4.090  0.00  0.00     0.124 A 
ATOM      2  C1  UNL d   1      -0.667  -1.066   4.872  0.00  0.00     0.062 A 
ATOM      3  C2  UNL d   1      -1.419  -2.176   4.498  0.00  0.00     0.162 A 
ATOM      4  C3  UNL d   1      -1.104  -2.880   3.335  0.00  0.00    -0.034 A 
ATOM      5  C4  UNL d   1      -0.028  -2.455   2.553  0.00  0.00     0.162 A 
ATOM      6  C5  UNL d   1       0.720  -1.346   2.932  0.00  0.00     0.062 A 
ATOM      7  F   UNL d   1       1.753  -0.946   2.175  0.00  0.00    -0.097 F 
ATOM      8  F1  UNL d   1       0.302  -3.109   1.429  0.00  0.00    -0.096 F 
ATOM      9  I   UNL d   1      -2.226  -4.539   2.772  0.00  0.00    -0.060 I 
ATOM     10  F2  UNL d   1      -2.446  -2.554   5.273  0.00  0.00    -0.096 F 
ATOM     11  F3  UNL d   1      -0.977  -0.396   5.991  0.00  0.00    -0.097 F 
ATOM     12  F4  UNL d   1       1.123   0.418   4.452  0.00  0.00    -0.092 F 
ENDROOT
TORSDOF 0
ENDMDL
