MODEL 1
REMARK minimizedAffinity 14.7864342
REMARK minimizedRMSD -1
REMARK  0 active torsions:
REMARK  status: ('A' for Active; 'I' for Inactive)
ROOT
ATOM      1  C   UNL d   1      -0.516   2.232  -1.079  0.00  0.00     0.124 A 
ATOM      2  C1  UNL d   1      -1.693   2.258  -1.814  0.00  0.00     0.062 A 
ATOM      3  C2  UNL d   1      -1.917   3.272  -2.741  0.00  0.00     0.162 A 
ATOM      4  C3  UNL d   1      -0.961   4.269  -2.939  0.00  0.00    -0.034 A 
ATOM      5  C4  UNL d   1       0.220   4.236  -2.195  0.00  0.00     0.162 A 
ATOM      6  C5  UNL d   1       0.439   3.220  -1.270  0.00  0.00     0.062 A 
ATOM      7  F   UNL d   1       1.577   3.197  -0.561  0.00  0.00    -0.097 F 
ATOM      8  F1  UNL d   1       1.160   5.178  -2.360  0.00  0.00    -0.096 F 
ATOM      9  I   UNL d   1      -1.292   5.787  -4.323  0.00  0.00    -0.060 I 
ATOM     10  F2  UNL d   1      -3.064   3.273  -3.437  0.00  0.00    -0.096 F 
ATOM     11  F3  UNL d   1      -2.618   1.305  -1.631  0.00  0.00    -0.097 F 
ATOM     12  F4  UNL d   1      -0.304   1.256  -0.187  0.00  0.00    -0.092 F 
ENDROOT
TORSDOF 0
ENDMDL
