MODEL 1
REMARK minimizedAffinity 10.5665274
REMARK minimizedRMSD -1
REMARK  0 active torsions:
REMARK  status: ('A' for Active; 'I' for Inactive)
ROOT
ATOM      1  C   UNL d   1       0.404  -0.613   3.775  0.00  0.00     0.124 A 
ATOM      2  C1  UNL d   1      -0.378  -0.841   4.899  0.00  0.00     0.062 A 
ATOM      3  C2  UNL d   1      -1.345  -1.842   4.887  0.00  0.00     0.162 A 
ATOM      4  C3  UNL d   1      -1.537  -2.622   3.747  0.00  0.00    -0.034 A 
ATOM      5  C4  UNL d   1      -0.748  -2.386   2.620  0.00  0.00     0.162 A 
ATOM      6  C5  UNL d   1       0.218  -1.385   2.637  0.00  0.00     0.062 A 
ATOM      7  F   UNL d   1       0.972  -1.165   1.550  0.00  0.00    -0.097 F 
ATOM      8  F1  UNL d   1      -0.905  -3.118   1.507  0.00  0.00    -0.096 F 
ATOM      9  I   UNL d   1      -2.983  -4.119   3.725  0.00  0.00    -0.060 I 
ATOM     10  F2  UNL d   1      -2.086  -2.041   5.988  0.00  0.00    -0.096 F 
ATOM     11  F3  UNL d   1      -0.201  -0.096   6.000  0.00  0.00    -0.097 F 
ATOM     12  F4  UNL d   1       1.333   0.351   3.789  0.00  0.00    -0.092 F 
ENDROOT
TORSDOF 0
ENDMDL
