MODEL 1
REMARK minimizedAffinity 21.6342869
REMARK minimizedRMSD -1
REMARK  0 active torsions:
REMARK  status: ('A' for Active; 'I' for Inactive)
ROOT
ATOM      1  C   UNL d   1       2.603   0.106   3.314  0.00  0.00     0.124 A 
ATOM      2  C1  UNL d   1       2.203  -0.811   2.352  0.00  0.00     0.062 A 
ATOM      3  C2  UNL d   1       0.997  -1.491   2.492  0.00  0.00     0.162 A 
ATOM      4  C3  UNL d   1       0.181  -1.257   3.599  0.00  0.00    -0.034 A 
ATOM      5  C4  UNL d   1       0.591  -0.335   4.563  0.00  0.00     0.162 A 
ATOM      6  C5  UNL d   1       1.797   0.343   4.419  0.00  0.00     0.062 A 
ATOM      7  F   UNL d   1       2.183   1.228   5.350  0.00  0.00    -0.097 F 
ATOM      8  F1  UNL d   1      -0.169  -0.086   5.640  0.00  0.00    -0.096 F 
ATOM      9  I   UNL d   1      -1.623  -2.272   3.812  0.00  0.00    -0.060 I 
ATOM     10  F2  UNL d   1       0.635  -2.371   1.546  0.00  0.00    -0.096 F 
ATOM     11  F3  UNL d   1       2.980  -1.042   1.284  0.00  0.00    -0.097 F 
ATOM     12  F4  UNL d   1       3.765   0.758   3.177  0.00  0.00    -0.092 F 
ENDROOT
TORSDOF 0
ENDMDL
