MODEL 1
REMARK minimizedAffinity 25.1421947
REMARK minimizedRMSD -1
REMARK  0 active torsions:
REMARK  status: ('A' for Active; 'I' for Inactive)
ROOT
ATOM      1  C   UNL d   1      -1.054  -1.900   4.145  0.00  0.00     0.124 A 
ATOM      2  C1  UNL d   1      -0.666  -2.596   3.008  0.00  0.00     0.062 A 
ATOM      3  C2  UNL d   1       0.454  -2.192   2.287  0.00  0.00     0.162 A 
ATOM      4  C3  UNL d   1       1.195  -1.085   2.701  0.00  0.00    -0.034 A 
ATOM      5  C4  UNL d   1       0.799  -0.390   3.845  0.00  0.00     0.162 A 
ATOM      6  C5  UNL d   1      -0.321  -0.798   4.562  0.00  0.00     0.062 A 
ATOM      7  F   UNL d   1      -0.694  -0.124   5.660  0.00  0.00    -0.097 F 
ATOM      8  F1  UNL d   1       1.490   0.678   4.271  0.00  0.00    -0.096 F 
ATOM      9  I   UNL d   1       2.870  -0.478   1.626  0.00  0.00    -0.060 I 
ATOM     10  F2  UNL d   1       0.805  -2.883   1.193  0.00  0.00    -0.096 F 
ATOM     11  F3  UNL d   1      -1.373  -3.661   2.602  0.00  0.00    -0.097 F 
ATOM     12  F4  UNL d   1      -2.132  -2.291   4.836  0.00  0.00    -0.092 F 
ENDROOT
TORSDOF 0
ENDMDL
