MODEL 1
REMARK minimizedAffinity 27.2339611
REMARK minimizedRMSD -1
REMARK  0 active torsions:
REMARK  status: ('A' for Active; 'I' for Inactive)
ROOT
ATOM      1  C   UNL d   1       2.070  -0.602   2.732  0.00  0.00     0.124 A 
ATOM      2  C1  UNL d   1       3.159  -1.019   1.978  0.00  0.00     0.062 A 
ATOM      3  C2  UNL d   1       2.975  -1.872   0.894  0.00  0.00     0.162 A 
ATOM      4  C3  UNL d   1       1.696  -2.314   0.556  0.00  0.00    -0.034 A 
ATOM      5  C4  UNL d   1       0.605  -1.892   1.319  0.00  0.00     0.162 A 
ATOM      6  C5  UNL d   1       0.795  -1.039   2.401  0.00  0.00     0.062 A 
ATOM      7  F   UNL d   1      -0.259  -0.637   3.127  0.00  0.00    -0.097 F 
ATOM      8  F1  UNL d   1      -0.638  -2.297   1.021  0.00  0.00    -0.096 F 
ATOM      9  I   UNL d   1       1.416  -3.590  -1.064  0.00  0.00    -0.060 I 
ATOM     10  F2  UNL d   1       4.045  -2.259   0.184  0.00  0.00    -0.096 F 
ATOM     11  F3  UNL d   1       4.392  -0.599   2.296  0.00  0.00    -0.097 F 
ATOM     12  F4  UNL d   1       2.250   0.218   3.775  0.00  0.00    -0.092 F 
ENDROOT
TORSDOF 0
ENDMDL
