MODEL 1
REMARK minimizedAffinity 19.161829
REMARK minimizedRMSD -1
REMARK  0 active torsions:
REMARK  status: ('A' for Active; 'I' for Inactive)
ROOT
ATOM      1  C   UNL d   1      -3.421  -3.675   2.898  0.00  0.00     0.124 A 
ATOM      2  C1  UNL d   1      -2.739  -3.489   1.703  0.00  0.00     0.062 A 
ATOM      3  C2  UNL d   1      -3.152  -4.150   0.550  0.00  0.00     0.162 A 
ATOM      4  C3  UNL d   1      -4.255  -5.003   0.586  0.00  0.00    -0.034 A 
ATOM      5  C4  UNL d   1      -4.936  -5.186   1.791  0.00  0.00     0.162 A 
ATOM      6  C5  UNL d   1      -4.519  -4.523   2.940  0.00  0.00     0.062 A 
ATOM      7  F   UNL d   1      -5.179  -4.704   4.093  0.00  0.00    -0.097 F 
ATOM      8  F1  UNL d   1      -6.000  -6.000   1.860  0.00  0.00    -0.096 F 
ATOM      9  I   UNL d   1      -4.876  -5.994  -1.136  0.00  0.00    -0.060 I 
ATOM     10  F2  UNL d   1      -2.474  -3.951  -0.590  0.00  0.00    -0.096 F 
ATOM     11  F3  UNL d   1      -1.678  -2.670   1.660  0.00  0.00    -0.097 F 
ATOM     12  F4  UNL d   1      -3.021  -3.038   4.006  0.00  0.00    -0.092 F 
ENDROOT
TORSDOF 0
ENDMDL
