MODEL 1
REMARK minimizedAffinity 20.081419
REMARK minimizedRMSD -1
REMARK  0 active torsions:
REMARK  status: ('A' for Active; 'I' for Inactive)
ROOT
ATOM      1  C   UNL d   1      -0.537  -3.400   1.763  0.00  0.00     0.124 A 
ATOM      2  C1  UNL d   1      -0.860  -2.059   1.921  0.00  0.00     0.062 A 
ATOM      3  C2  UNL d   1       0.144  -1.095   1.934  0.00  0.00     0.162 A 
ATOM      4  C3  UNL d   1       1.480  -1.468   1.788  0.00  0.00    -0.034 A 
ATOM      5  C4  UNL d   1       1.797  -2.818   1.630  0.00  0.00     0.162 A 
ATOM      6  C5  UNL d   1       0.790  -3.778   1.618  0.00  0.00     0.062 A 
ATOM      7  F   UNL d   1       1.103  -5.073   1.465  0.00  0.00    -0.097 F 
ATOM      8  F1  UNL d   1       3.071  -3.212   1.487  0.00  0.00    -0.096 F 
ATOM      9  I   UNL d   1       2.984  -0.029   1.807  0.00  0.00    -0.060 I 
ATOM     10  F2  UNL d   1      -0.196   0.193   2.089  0.00  0.00    -0.096 F 
ATOM     11  F3  UNL d   1      -2.141  -1.691   2.063  0.00  0.00    -0.097 F 
ATOM     12  F4  UNL d   1      -1.505  -4.326   1.752  0.00  0.00    -0.092 F 
ENDROOT
TORSDOF 0
ENDMDL
