MODEL 1
REMARK minimizedAffinity 33.5397568
REMARK minimizedRMSD -1
REMARK  0 active torsions:
REMARK  status: ('A' for Active; 'I' for Inactive)
ROOT
ATOM      1  C   UNL d   1      -1.890   3.806  -4.189  0.00  0.00     0.124 A 
ATOM      2  C1  UNL d   1      -1.918   2.693  -3.359  0.00  0.00     0.062 A 
ATOM      3  C2  UNL d   1      -1.194   2.687  -2.171  0.00  0.00     0.162 A 
ATOM      4  C3  UNL d   1      -0.436   3.799  -1.803  0.00  0.00    -0.034 A 
ATOM      5  C4  UNL d   1      -0.412   4.914  -2.643  0.00  0.00     0.162 A 
ATOM      6  C5  UNL d   1      -1.137   4.915  -3.830  0.00  0.00     0.062 A 
ATOM      7  F   UNL d   1      -1.109   5.991  -4.629  0.00  0.00    -0.097 F 
ATOM      8  F1  UNL d   1       0.307   6.000  -2.320  0.00  0.00    -0.096 F 
ATOM      9  I   UNL d   1       0.649   3.794  -0.027  0.00  0.00    -0.060 I 
ATOM     10  F2  UNL d   1      -1.240   1.598  -1.389  0.00  0.00    -0.096 F 
ATOM     11  F3  UNL d   1      -2.644   1.620  -3.704  0.00  0.00    -0.097 F 
ATOM     12  F4  UNL d   1      -2.587   3.808  -5.332  0.00  0.00    -0.092 F 
ENDROOT
TORSDOF 0
ENDMDL
