MODEL 1
REMARK minimizedAffinity 21.0400963
REMARK minimizedRMSD -1
REMARK  0 active torsions:
REMARK  status: ('A' for Active; 'I' for Inactive)
ROOT
ATOM      1  C   UNL d   1       1.862   0.018   3.321  0.00  0.00     0.124 A 
ATOM      2  C1  UNL d   1       0.696  -0.687   3.054  0.00  0.00     0.062 A 
ATOM      3  C2  UNL d   1       0.647  -1.581   1.989  0.00  0.00     0.162 A 
ATOM      4  C3  UNL d   1       1.767  -1.776   1.181  0.00  0.00    -0.034 A 
ATOM      5  C4  UNL d   1       2.936  -1.063   1.455  0.00  0.00     0.162 A 
ATOM      6  C5  UNL d   1       2.980  -0.171   2.521  0.00  0.00     0.062 A 
ATOM      7  F   UNL d   1       4.107   0.509   2.777  0.00  0.00    -0.097 F 
ATOM      8  F1  UNL d   1       4.031  -1.227   0.698  0.00  0.00    -0.096 F 
ATOM      9  I   UNL d   1       1.697  -3.112  -0.413  0.00  0.00    -0.060 I 
ATOM     10  F2  UNL d   1      -0.493  -2.249   1.755  0.00  0.00    -0.096 F 
ATOM     11  F3  UNL d   1      -0.386  -0.506   3.825  0.00  0.00    -0.097 F 
ATOM     12  F4  UNL d   1       1.907   0.878   4.346  0.00  0.00    -0.092 F 
ENDROOT
TORSDOF 0
ENDMDL
