MODEL 1
REMARK minimizedAffinity 31.3135586
REMARK minimizedRMSD -1
REMARK  0 active torsions:
REMARK  status: ('A' for Active; 'I' for Inactive)
ROOT
ATOM      1  C   UNL d   1       2.337  -0.347   2.989  0.00  0.00     0.124 A 
ATOM      2  C1  UNL d   1       1.475  -0.195   4.066  0.00  0.00     0.062 A 
ATOM      3  C2  UNL d   1       0.198  -0.747   4.024  0.00  0.00     0.162 A 
ATOM      4  C3  UNL d   1      -0.225  -1.457   2.900  0.00  0.00    -0.034 A 
ATOM      5  C4  UNL d   1       0.647  -1.605   1.820  0.00  0.00     0.162 A 
ATOM      6  C5  UNL d   1       1.923  -1.051   1.867  0.00  0.00     0.062 A 
ATOM      7  F   UNL d   1       2.754  -1.199   0.826  0.00  0.00    -0.097 F 
ATOM      8  F1  UNL d   1       0.273  -2.282   0.725  0.00  0.00    -0.096 F 
ATOM      9  I   UNL d   1      -2.134  -2.283   2.834  0.00  0.00    -0.060 I 
ATOM     10  F2  UNL d   1      -0.614  -0.584   5.079  0.00  0.00    -0.096 F 
ATOM     11  F3  UNL d   1       1.873   0.486   5.150  0.00  0.00    -0.097 F 
ATOM     12  F4  UNL d   1       3.565   0.186   3.032  0.00  0.00    -0.092 F 
ENDROOT
TORSDOF 0
ENDMDL
