MODEL 1
REMARK minimizedAffinity 16.2110672
REMARK minimizedRMSD -1
REMARK  0 active torsions:
REMARK  status: ('A' for Active; 'I' for Inactive)
ROOT
ATOM      1  C   UNL d   1      -2.991  -3.117   2.124  0.00  0.00     0.124 A 
ATOM      2  C1  UNL d   1      -4.252  -3.678   2.266  0.00  0.00     0.062 A 
ATOM      3  C2  UNL d   1      -4.769  -4.500   1.269  0.00  0.00     0.162 A 
ATOM      4  C3  UNL d   1      -4.025  -4.767   0.120  0.00  0.00    -0.034 A 
ATOM      5  C4  UNL d   1      -2.757  -4.198  -0.017  0.00  0.00     0.162 A 
ATOM      6  C5  UNL d   1      -2.244  -3.377   0.983  0.00  0.00     0.062 A 
ATOM      7  F   UNL d   1      -1.026  -2.836   0.843  0.00  0.00    -0.097 F 
ATOM      8  F1  UNL d   1      -2.014  -4.433  -1.108  0.00  0.00    -0.096 F 
ATOM      9  I   UNL d   1      -4.795  -5.995  -1.373  0.00  0.00    -0.060 I 
ATOM     10  F2  UNL d   1      -5.991  -5.028   1.433  0.00  0.00    -0.096 F 
ATOM     11  F3  UNL d   1      -4.975  -3.427   3.367  0.00  0.00    -0.097 F 
ATOM     12  F4  UNL d   1      -2.496  -2.326   3.084  0.00  0.00    -0.092 F 
ENDROOT
TORSDOF 0
ENDMDL
