MODEL 1
REMARK minimizedAffinity 28.9906311
REMARK minimizedRMSD -1
REMARK  0 active torsions:
REMARK  status: ('A' for Active; 'I' for Inactive)
ROOT
ATOM      1  C   UNL d   1      -2.196   3.479  -4.259  0.00  0.00     0.124 A 
ATOM      2  C1  UNL d   1      -3.251   3.677  -5.140  0.00  0.00     0.062 A 
ATOM      3  C2  UNL d   1      -4.337   2.807  -5.137  0.00  0.00     0.162 A 
ATOM      4  C3  UNL d   1      -4.375   1.731  -4.250  0.00  0.00    -0.034 A 
ATOM      5  C4  UNL d   1      -3.311   1.539  -3.368  0.00  0.00     0.162 A 
ATOM      6  C5  UNL d   1      -2.227   2.411  -3.375  0.00  0.00     0.062 A 
ATOM      7  F   UNL d   1      -1.209   2.218  -2.523  0.00  0.00    -0.097 F 
ATOM      8  F1  UNL d   1      -3.315   0.515  -2.501  0.00  0.00    -0.096 F 
ATOM      9  I   UNL d   1      -5.998   0.429  -4.242  0.00  0.00    -0.060 I 
ATOM     10  F2  UNL d   1      -5.342   3.022  -5.999  0.00  0.00    -0.096 F 
ATOM     11  F3  UNL d   1      -3.223   4.708  -5.997  0.00  0.00    -0.097 F 
ATOM     12  F4  UNL d   1      -1.151   4.317  -4.265  0.00  0.00    -0.092 F 
ENDROOT
TORSDOF 0
ENDMDL
