MODEL 1
REMARK minimizedAffinity 11.093833
REMARK minimizedRMSD -1
REMARK  0 active torsions:
REMARK  status: ('A' for Active; 'I' for Inactive)
ROOT
ATOM      1  C   UNL d   1       3.470  -2.103  -0.187  0.00  0.00     0.124 A 
ATOM      2  C1  UNL d   1       3.287  -0.742   0.014  0.00  0.00     0.062 A 
ATOM      3  C2  UNL d   1       2.353  -0.291   0.943  0.00  0.00     0.162 A 
ATOM      4  C3  UNL d   1       1.596  -1.203   1.679  0.00  0.00    -0.034 A 
ATOM      5  C4  UNL d   1       1.785  -2.570   1.470  0.00  0.00     0.162 A 
ATOM      6  C5  UNL d   1       2.720  -3.015   0.540  0.00  0.00     0.062 A 
ATOM      7  F   UNL d   1       2.896  -4.331   0.347  0.00  0.00    -0.097 F 
ATOM      8  F1  UNL d   1       1.074  -3.474   2.160  0.00  0.00    -0.096 F 
ATOM      9  I   UNL d   1       0.199  -0.534   3.068  0.00  0.00    -0.060 I 
ATOM     10  F2  UNL d   1       2.196   1.030   1.117  0.00  0.00    -0.096 F 
ATOM     11  F3  UNL d   1       4.010   0.142  -0.688  0.00  0.00    -0.097 F 
ATOM     12  F4  UNL d   1       4.369  -2.533  -1.082  0.00  0.00    -0.092 F 
ENDROOT
TORSDOF 0
ENDMDL
