MODEL 1
REMARK minimizedAffinity 28.9986496
REMARK minimizedRMSD -1
REMARK  0 active torsions:
REMARK  status: ('A' for Active; 'I' for Inactive)
ROOT
ATOM      1  C   UNL d   1      -2.221   4.243  -2.468  0.00  0.00     0.124 A 
ATOM      2  C1  UNL d   1      -2.013   2.903  -2.765  0.00  0.00     0.062 A 
ATOM      3  C2  UNL d   1      -3.090   2.023  -2.820  0.00  0.00     0.162 A 
ATOM      4  C3  UNL d   1      -4.386   2.481  -2.581  0.00  0.00    -0.034 A 
ATOM      5  C4  UNL d   1      -4.587   3.830  -2.282  0.00  0.00     0.162 A 
ATOM      6  C5  UNL d   1      -3.507   4.705  -2.228  0.00  0.00     0.062 A 
ATOM      7  F   UNL d   1      -3.710   5.999  -1.941  0.00  0.00    -0.097 F 
ATOM      8  F1  UNL d   1      -5.820   4.303  -2.046  0.00  0.00    -0.096 F 
ATOM      9  I   UNL d   1      -5.999   1.169  -2.663  0.00  0.00    -0.060 I 
ATOM     10  F2  UNL d   1      -2.860   0.734  -3.109  0.00  0.00    -0.096 F 
ATOM     11  F3  UNL d   1      -0.771   2.454  -2.997  0.00  0.00    -0.097 F 
ATOM     12  F4  UNL d   1      -1.183   5.087  -2.414  0.00  0.00    -0.092 F 
ENDROOT
TORSDOF 0
ENDMDL
