MODEL 1
REMARK minimizedAffinity 14.1382494
REMARK minimizedRMSD -1
REMARK  0 active torsions:
REMARK  status: ('A' for Active; 'I' for Inactive)
ROOT
ATOM      1  O1  BZF d   1       4.967   3.994  -2.532  0.00  0.00    -0.204 OA
ATOM      2  C2  BZF d   1       5.239   5.170  -1.859  0.00  0.00     0.174 A 
ATOM      3  C3  BZF d   1       4.177   6.000  -1.897  0.00  0.00    -0.012 A 
ATOM      4  C3A BZF d   1       3.146   5.262  -2.559  0.00  0.00    -0.107 A 
ATOM      5  C4  BZF d   1       1.850   5.544  -2.884  0.00  0.00     0.055 A 
ATOM      6  C5  BZF d   1       1.134   4.635  -3.596  0.00  0.00    -0.016 A 
ATOM      7  C6  BZF d   1       1.683   3.437  -4.003  0.00  0.00     0.022 A 
ATOM      8  C7  BZF d   1       2.963   3.110  -3.700  0.00  0.00     0.029 A 
ATOM      9  C7A BZF d   1       3.679   4.013  -2.953  0.00  0.00     0.058 A 
ENDROOT
TORSDOF 0
ENDMDL
