MODEL 1
REMARK minimizedAffinity 6.03033543
REMARK minimizedRMSD -1
REMARK  0 active torsions:
REMARK  status: ('A' for Active; 'I' for Inactive)
ROOT
ATOM      1  O1  BZF d   1      -4.421  -4.617   2.206  0.00  0.00    -0.204 OA
ATOM      2  C2  BZF d   1      -3.892  -3.341   2.209  0.00  0.00     0.174 A 
ATOM      3  C3  BZF d   1      -4.099  -2.740   3.399  0.00  0.00    -0.012 A 
ATOM      4  C3A BZF d   1      -4.721  -3.734   4.219  0.00  0.00    -0.107 A 
ATOM      5  C4  BZF d   1      -5.156  -3.746   5.513  0.00  0.00     0.055 A 
ATOM      6  C5  BZF d   1      -5.785  -4.852   5.989  0.00  0.00    -0.016 A 
ATOM      7  C6  BZF d   1      -6.000  -5.962   5.198  0.00  0.00     0.022 A 
ATOM      8  C7  BZF d   1      -5.582  -5.999   3.909  0.00  0.00     0.029 A 
ATOM      9  C7A BZF d   1      -4.917  -4.895   3.435  0.00  0.00     0.058 A 
ENDROOT
TORSDOF 0
ENDMDL
