MODEL 1
REMARK minimizedAffinity 13.6076908
REMARK minimizedRMSD -1
REMARK  0 active torsions:
REMARK  status: ('A' for Active; 'I' for Inactive)
ROOT
ATOM      1  O1  BZF d   1      -2.676  -3.572   1.245  0.00  0.00    -0.204 OA
ATOM      2  C2  BZF d   1      -3.899  -3.729   1.867  0.00  0.00     0.174 A 
ATOM      3  C3  BZF d   1      -4.242  -2.610   2.538  0.00  0.00    -0.012 A 
ATOM      4  C3A BZF d   1      -3.208  -1.665   2.247  0.00  0.00    -0.107 A 
ATOM      5  C4  BZF d   1      -2.993  -0.366   2.610  0.00  0.00     0.055 A 
ATOM      6  C5  BZF d   1      -1.849   0.250   2.214  0.00  0.00    -0.016 A 
ATOM      7  C6  BZF d   1      -0.896  -0.403   1.460  0.00  0.00     0.022 A 
ATOM      8  C7  BZF d   1      -1.067  -1.690   1.071  0.00  0.00     0.029 A 
ATOM      9  C7A BZF d   1      -2.238  -2.305   1.441  0.00  0.00     0.058 A 
ENDROOT
TORSDOF 0
ENDMDL
