MODEL 1
REMARK minimizedAffinity 11.8785
REMARK minimizedRMSD -1
REMARK  0 active torsions:
REMARK  status: ('A' for Active; 'I' for Inactive)
ROOT
ATOM      1  O1  BZF d   1       4.234   4.846  -1.448  0.00  0.00    -0.204 OA
ATOM      2  C2  BZF d   1       5.141   5.857  -1.194  0.00  0.00     0.174 A 
ATOM      3  C3  BZF d   1       6.000   5.999  -2.224  0.00  0.00    -0.012 A 
ATOM      4  C3A BZF d   1       5.548   5.077  -3.221  0.00  0.00    -0.107 A 
ATOM      5  C4  BZF d   1       5.984   4.766  -4.477  0.00  0.00     0.055 A 
ATOM      6  C5  BZF d   1       5.366   3.767  -5.161  0.00  0.00    -0.016 A 
ATOM      7  C6  BZF d   1       4.315   3.057  -4.618  0.00  0.00     0.022 A 
ATOM      8  C7  BZF d   1       3.844   3.334  -3.378  0.00  0.00     0.029 A 
ATOM      9  C7A BZF d   1       4.445   4.364  -2.697  0.00  0.00     0.058 A 
ENDROOT
TORSDOF 0
ENDMDL
