MODEL 1
REMARK minimizedAffinity 13.743042
REMARK minimizedRMSD -1
REMARK  0 active torsions:
REMARK  status: ('A' for Active; 'I' for Inactive)
ROOT
ATOM      1  O1  BZF d   1      -4.751  -4.727   2.062  0.00  0.00    -0.204 OA
ATOM      2  C2  BZF d   1      -4.134  -3.495   1.967  0.00  0.00     0.174 A 
ATOM      3  C3  BZF d   1      -4.131  -2.868   3.161  0.00  0.00    -0.012 A 
ATOM      4  C3A BZF d   1      -4.706  -3.803   4.079  0.00  0.00    -0.107 A 
ATOM      5  C4  BZF d   1      -4.959  -3.768   5.420  0.00  0.00     0.055 A 
ATOM      6  C5  BZF d   1      -5.596  -4.818   6.000  0.00  0.00    -0.016 A 
ATOM      7  C6  BZF d   1      -5.999  -5.916   5.269  0.00  0.00     0.022 A 
ATOM      8  C7  BZF d   1      -5.766  -5.999   3.936  0.00  0.00     0.029 A 
ATOM      9  C7A BZF d   1      -5.092  -4.954   3.353  0.00  0.00     0.058 A 
ENDROOT
TORSDOF 0
ENDMDL
