MODEL 1
REMARK minimizedAffinity 13.2408943
REMARK minimizedRMSD -1
REMARK  0 active torsions:
REMARK  status: ('A' for Active; 'I' for Inactive)
ROOT
ATOM      1  O1  BZF d   1       3.119   1.517  -2.614  0.00  0.00    -0.204 OA
ATOM      2  C2  BZF d   1       3.492   1.121  -1.344  0.00  0.00     0.174 A 
ATOM      3  C3  BZF d   1       4.453   1.931  -0.854  0.00  0.00    -0.012 A 
ATOM      4  C3A BZF d   1       4.631   2.947  -1.845  0.00  0.00    -0.107 A 
ATOM      5  C4  BZF d   1       5.436   4.047  -1.928  0.00  0.00     0.055 A 
ATOM      6  C5  BZF d   1       5.419   4.794  -3.064  0.00  0.00    -0.016 A 
ATOM      7  C6  BZF d   1       4.615   4.467  -4.136  0.00  0.00     0.022 A 
ATOM      8  C7  BZF d   1       3.795   3.388  -4.098  0.00  0.00     0.029 A 
ATOM      9  C7A BZF d   1       3.786   2.650  -2.939  0.00  0.00     0.058 A 
ENDROOT
TORSDOF 0
ENDMDL
