MODEL 1
REMARK minimizedAffinity 13.7418613
REMARK minimizedRMSD -1
REMARK  0 active torsions:
REMARK  status: ('A' for Active; 'I' for Inactive)
ROOT
ATOM      1  O1  BZF d   1       4.988   3.375  -5.219  0.00  0.00    -0.204 OA
ATOM      2  C2  BZF d   1       5.982   4.285  -4.918  0.00  0.00     0.174 A 
ATOM      3  C3  BZF d   1       5.663   4.994  -3.815  0.00  0.00    -0.012 A 
ATOM      4  C3A BZF d   1       4.433   4.432  -3.349  0.00  0.00    -0.107 A 
ATOM      5  C4  BZF d   1       3.623   4.699  -2.283  0.00  0.00     0.055 A 
ATOM      6  C5  BZF d   1       2.455   4.016  -2.152  0.00  0.00    -0.016 A 
ATOM      7  C6  BZF d   1       2.065   3.064  -3.071  0.00  0.00     0.022 A 
ATOM      8  C7  BZF d   1       2.837   2.760  -4.142  0.00  0.00     0.029 A 
ATOM      9  C7A BZF d   1       4.033   3.425  -4.259  0.00  0.00     0.058 A 
ENDROOT
TORSDOF 0
ENDMDL
