MODEL 1
REMARK minimizedAffinity 9.60674953
REMARK minimizedRMSD -1
REMARK  0 active torsions:
REMARK  status: ('A' for Active; 'I' for Inactive)
ROOT
ATOM      1  O1  BZF d   1      -4.492   5.286   4.337  0.00  0.00    -0.204 OA
ATOM      2  C2  BZF d   1      -5.254   5.998   5.243  0.00  0.00     0.174 A 
ATOM      3  C3  BZF d   1      -6.000   5.167   5.999  0.00  0.00    -0.012 A 
ATOM      4  C3A BZF d   1      -5.615   3.848   5.599  0.00  0.00    -0.107 A 
ATOM      5  C4  BZF d   1      -5.993   2.598   5.999  0.00  0.00     0.055 A 
ATOM      6  C5  BZF d   1      -5.481   1.516   5.356  0.00  0.00    -0.016 A 
ATOM      7  C6  BZF d   1      -4.593   1.647   4.308  0.00  0.00     0.022 A 
ATOM      8  C7  BZF d   1      -4.185   2.866   3.879  0.00  0.00     0.029 A 
ATOM      9  C7A BZF d   1      -4.676   3.961   4.548  0.00  0.00     0.058 A 
ENDROOT
TORSDOF 0
ENDMDL
