MODEL 1
REMARK minimizedAffinity 18.7209568
REMARK minimizedRMSD -1
REMARK  0 active torsions:
REMARK  status: ('A' for Active; 'I' for Inactive)
ROOT
ATOM      1  O1  BZF d   1      -3.194  -5.223  -3.789  0.00  0.00    -0.204 OA
ATOM      2  C2  BZF d   1      -3.946  -5.672  -4.857  0.00  0.00     0.174 A 
ATOM      3  C3  BZF d   1      -3.152  -5.993  -5.900  0.00  0.00    -0.012 A 
ATOM      4  C3A BZF d   1      -1.815  -5.816  -5.423  0.00  0.00    -0.107 A 
ATOM      5  C4  BZF d   1      -0.585  -5.991  -5.991  0.00  0.00     0.055 A 
ATOM      6  C5  BZF d   1       0.524  -5.658  -5.279  0.00  0.00    -0.016 A 
ATOM      7  C6  BZF d   1       0.440  -5.143  -4.002  0.00  0.00     0.022 A 
ATOM      8  C7  BZF d   1      -0.758  -4.956  -3.396  0.00  0.00     0.029 A 
ATOM      9  C7A BZF d   1      -1.879  -5.322  -4.100  0.00  0.00     0.058 A 
ENDROOT
TORSDOF 0
ENDMDL
