MODEL 1
REMARK minimizedAffinity 11.7122717
REMARK minimizedRMSD -1
REMARK  0 active torsions:
REMARK  status: ('A' for Active; 'I' for Inactive)
ROOT
ATOM      1  O1  BZF d   1       0.685  -2.768   1.868  0.00  0.00    -0.204 OA
ATOM      2  C2  BZF d   1       1.502  -2.513   2.952  0.00  0.00     0.174 A 
ATOM      3  C3  BZF d   1       1.053  -1.450   3.650  0.00  0.00    -0.012 A 
ATOM      4  C3A BZF d   1      -0.170  -1.070   3.012  0.00  0.00    -0.107 A 
ATOM      5  C4  BZF d   1      -1.091  -0.092   3.255  0.00  0.00     0.055 A 
ATOM      6  C5  BZF d   1      -2.138   0.057   2.401  0.00  0.00    -0.016 A 
ATOM      7  C6  BZF d   1      -2.290  -0.749   1.292  0.00  0.00     0.022 A 
ATOM      8  C7  BZF d   1      -1.405  -1.737   1.013  0.00  0.00     0.029 A 
ATOM      9  C7A BZF d   1      -0.365  -1.911   1.893  0.00  0.00     0.058 A 
ENDROOT
TORSDOF 0
ENDMDL
