MODEL 1
REMARK minimizedAffinity 13.9206772
REMARK minimizedRMSD -1
REMARK  0 active torsions:
REMARK  status: ('A' for Active; 'I' for Inactive)
ROOT
ATOM      1  O1  BZF d   1       3.227   1.469  -3.021  0.00  0.00    -0.204 OA
ATOM      2  C2  BZF d   1       2.590   2.652  -3.342  0.00  0.00     0.174 A 
ATOM      3  C3  BZF d   1       2.013   3.196  -2.251  0.00  0.00    -0.012 A 
ATOM      4  C3A BZF d   1       2.387   2.345  -1.163  0.00  0.00    -0.107 A 
ATOM      5  C4  BZF d   1       2.134   2.371   0.178  0.00  0.00     0.055 A 
ATOM      6  C5  BZF d   1       2.584   1.350   0.955  0.00  0.00    -0.016 A 
ATOM      7  C6  BZF d   1       3.285   0.287   0.423  0.00  0.00     0.022 A 
ATOM      8  C7  BZF d   1       3.564   0.220  -0.902  0.00  0.00     0.029 A 
ATOM      9  C7A BZF d   1       3.139   1.267  -1.684  0.00  0.00     0.058 A 
ENDROOT
TORSDOF 0
ENDMDL
