MODEL 1
REMARK minimizedAffinity 11.3065863
REMARK minimizedRMSD -1
REMARK  0 active torsions:
REMARK  status: ('A' for Active; 'I' for Inactive)
ROOT
ATOM      1  O1  BZF d   1      -0.036  -5.325  -5.495  0.00  0.00    -0.204 OA
ATOM      2  C2  BZF d   1      -1.131  -6.000  -5.999  0.00  0.00     0.174 A 
ATOM      3  C3  BZF d   1      -2.144  -6.000  -5.109  0.00  0.00    -0.012 A 
ATOM      4  C3A BZF d   1      -1.684  -5.201  -4.015  0.00  0.00    -0.107 A 
ATOM      5  C4  BZF d   1      -2.247  -4.815  -2.832  0.00  0.00     0.055 A 
ATOM      6  C5  BZF d   1      -1.505  -4.095  -1.951  0.00  0.00    -0.016 A 
ATOM      7  C6  BZF d   1      -0.197  -3.747  -2.218  0.00  0.00     0.022 A 
ATOM      8  C7  BZF d   1       0.403  -4.102  -3.380  0.00  0.00     0.029 A 
ATOM      9  C7A BZF d   1      -0.355  -4.802  -4.287  0.00  0.00     0.058 A 
ENDROOT
TORSDOF 0
ENDMDL
