MODEL 1
REMARK minimizedAffinity 14.6897383
REMARK minimizedRMSD -1
REMARK  0 active torsions:
REMARK  status: ('A' for Active; 'I' for Inactive)
ROOT
ATOM      1  O1  BZF d   1      -3.240  -4.370   1.281  0.00  0.00    -0.204 OA
ATOM      2  C2  BZF d   1      -4.354  -4.356   2.098  0.00  0.00     0.174 A 
ATOM      3  C3  BZF d   1      -4.434  -3.194   2.778  0.00  0.00    -0.012 A 
ATOM      4  C3A BZF d   1      -3.350  -2.397   2.290  0.00  0.00    -0.107 A 
ATOM      5  C4  BZF d   1      -2.913  -1.134   2.570  0.00  0.00     0.055 A 
ATOM      6  C5  BZF d   1      -1.780  -0.679   1.973  0.00  0.00    -0.016 A 
ATOM      7  C6  BZF d   1      -1.057  -1.462   1.096  0.00  0.00     0.022 A 
ATOM      8  C7  BZF d   1      -1.454  -2.720   0.784  0.00  0.00     0.029 A 
ATOM      9  C7A BZF d   1      -2.616  -3.170   1.361  0.00  0.00     0.058 A 
ENDROOT
TORSDOF 0
ENDMDL
