MODEL 1
REMARK minimizedAffinity 11.318181
REMARK minimizedRMSD -1
REMARK  0 active torsions:
REMARK  status: ('A' for Active; 'I' for Inactive)
ROOT
ATOM      1  O1  BZF d   1       4.992   2.690   2.197  0.00  0.00    -0.204 OA
ATOM      2  C2  BZF d   1       5.998   3.315   1.486  0.00  0.00     0.174 A 
ATOM      3  C3  BZF d   1       5.977   2.936   0.192  0.00  0.00    -0.012 A 
ATOM      4  C3A BZF d   1       4.832   2.087   0.068  0.00  0.00    -0.107 A 
ATOM      5  C4  BZF d   1       4.272   1.413  -0.980  0.00  0.00     0.055 A 
ATOM      6  C5  BZF d   1       3.197   0.613  -0.752  0.00  0.00    -0.016 A 
ATOM      7  C6  BZF d   1       2.661   0.460   0.510  0.00  0.00     0.022 A 
ATOM      8  C7  BZF d   1       3.179   1.112   1.579  0.00  0.00     0.029 A 
ATOM      9  C7A BZF d   1       4.244   1.947   1.346  0.00  0.00     0.058 A 
ENDROOT
TORSDOF 0
ENDMDL
