MODEL 1
REMARK minimizedAffinity 0.91013068
REMARK minimizedRMSD -1
REMARK  0 active torsions:
REMARK  status: ('A' for Active; 'I' for Inactive)
ROOT
ATOM      1  O1  BZF d   1      -5.611  -1.776  -2.994  0.00  0.00    -0.204 OA
ATOM      2  C2  BZF d   1      -5.351  -0.723  -2.139  0.00  0.00     0.174 A 
ATOM      3  C3  BZF d   1      -4.024  -0.574  -1.953  0.00  0.00    -0.012 A 
ATOM      4  C3A BZF d   1      -3.413  -1.540  -2.815  0.00  0.00    -0.107 A 
ATOM      5  C4  BZF d   1      -2.115  -1.867  -3.086  0.00  0.00     0.055 A 
ATOM      6  C5  BZF d   1      -1.858  -2.908  -3.922  0.00  0.00    -0.016 A 
ATOM      7  C6  BZF d   1      -2.872  -3.644  -4.498  0.00  0.00     0.022 A 
ATOM      8  C7  BZF d   1      -4.175  -3.354  -4.262  0.00  0.00     0.029 A 
ATOM      9  C7A BZF d   1      -4.438  -2.282  -3.444  0.00  0.00     0.058 A 
ENDROOT
TORSDOF 0
ENDMDL
