MODEL 1
REMARK minimizedAffinity 3.72226572
REMARK minimizedRMSD -1
REMARK  0 active torsions:
REMARK  status: ('A' for Active; 'I' for Inactive)
ROOT
ATOM      1  O1  BZF d   1      -4.420  -2.671   2.907  0.00  0.00    -0.204 OA
ATOM      2  C2  BZF d   1      -3.764  -2.029   1.874  0.00  0.00     0.174 A 
ATOM      3  C3  BZF d   1      -3.782  -2.781   0.755  0.00  0.00    -0.012 A 
ATOM      4  C3A BZF d   1      -4.573  -3.927   1.084  0.00  0.00    -0.107 A 
ATOM      5  C4  BZF d   1      -4.968  -5.029   0.381  0.00  0.00     0.055 A 
ATOM      6  C5  BZF d   1      -5.675  -6.000   1.017  0.00  0.00    -0.016 A 
ATOM      7  C6  BZF d   1      -5.999  -5.904   2.354  0.00  0.00     0.022 A 
ATOM      8  C7  BZF d   1      -5.634  -4.828   3.092  0.00  0.00     0.029 A 
ATOM      9  C7A BZF d   1      -4.947  -3.830   2.444  0.00  0.00     0.058 A 
ENDROOT
TORSDOF 0
ENDMDL
