MODEL 1
REMARK minimizedAffinity 3.9688189
REMARK minimizedRMSD -1
REMARK  0 active torsions:
REMARK  status: ('A' for Active; 'I' for Inactive)
ROOT
ATOM      1  O1  BZF d   1       0.715  -4.184   0.148  0.00  0.00    -0.204 OA
ATOM      2  C2  BZF d   1      -0.154  -3.217   0.616  0.00  0.00     0.174 A 
ATOM      3  C3  BZF d   1       0.508  -2.078   0.905  0.00  0.00    -0.012 A 
ATOM      4  C3A BZF d   1       1.862  -2.320   0.512  0.00  0.00    -0.107 A 
ATOM      5  C4  BZF d   1       2.996  -1.560   0.535  0.00  0.00     0.055 A 
ATOM      6  C5  BZF d   1       4.173  -2.118   0.148  0.00  0.00    -0.016 A 
ATOM      7  C6  BZF d   1       4.253  -3.432  -0.263  0.00  0.00     0.022 A 
ATOM      8  C7  BZF d   1       3.154  -4.224  -0.308  0.00  0.00     0.029 A 
ATOM      9  C7A BZF d   1       1.958  -3.653   0.052  0.00  0.00     0.058 A 
ENDROOT
TORSDOF 0
ENDMDL
