MODEL 1
REMARK minimizedAffinity 3.21559
REMARK minimizedRMSD -1
REMARK  0 active torsions:
REMARK  status: ('A' for Active; 'I' for Inactive)
ROOT
ATOM      1  O1  BZF d   1       0.793  -4.670   0.414  0.00  0.00    -0.204 OA
ATOM      2  C2  BZF d   1      -0.056  -3.632   0.743  0.00  0.00     0.174 A 
ATOM      3  C3  BZF d   1       0.634  -2.487   0.920  0.00  0.00    -0.012 A 
ATOM      4  C3A BZF d   1       1.990  -2.811   0.596  0.00  0.00    -0.107 A 
ATOM      5  C4  BZF d   1       3.147  -2.086   0.565  0.00  0.00     0.055 A 
ATOM      6  C5  BZF d   1       4.315  -2.719   0.278  0.00  0.00    -0.016 A 
ATOM      7  C6  BZF d   1       4.363  -4.073   0.021  0.00  0.00     0.022 A 
ATOM      8  C7  BZF d   1       3.241  -4.833   0.035  0.00  0.00     0.029 A 
ATOM      9  C7A BZF d   1       2.054  -4.191   0.293  0.00  0.00     0.058 A 
ENDROOT
TORSDOF 0
ENDMDL
