MODEL 1
REMARK minimizedAffinity -0.617246389
REMARK minimizedRMSD -1
REMARK  0 active torsions:
REMARK  status: ('A' for Active; 'I' for Inactive)
ROOT
ATOM      1  O1  BZF d   1      -5.075  -4.894   2.949  0.00  0.00    -0.204 OA
ATOM      2  C2  BZF d   1      -5.592  -6.000   3.596  0.00  0.00     0.174 A 
ATOM      3  C3  BZF d   1      -5.954  -5.689   4.858  0.00  0.00    -0.012 A 
ATOM      4  C3A BZF d   1      -5.731  -4.281   4.978  0.00  0.00    -0.107 A 
ATOM      5  C4  BZF d   1      -5.916  -3.384   5.991  0.00  0.00     0.055 A 
ATOM      6  C5  BZF d   1      -5.529  -2.094   5.810  0.00  0.00    -0.016 A 
ATOM      7  C6  BZF d   1      -4.949  -1.669   4.633  0.00  0.00     0.022 A 
ATOM      8  C7  BZF d   1      -4.749  -2.521   3.598  0.00  0.00     0.029 A 
ATOM      9  C7A BZF d   1      -5.170  -3.817   3.766  0.00  0.00     0.058 A 
ENDROOT
TORSDOF 0
ENDMDL
