MODEL 1
REMARK minimizedAffinity 8.13218117
REMARK minimizedRMSD -1
REMARK  0 active torsions:
REMARK  status: ('A' for Active; 'I' for Inactive)
ROOT
ATOM      1  C   UNL d   1       0.274  -1.727   1.204  0.00  0.00     0.023 A 
ATOM      2  C1  UNL d   1       1.583  -1.250   1.154  0.00  0.00     0.003 A 
ATOM      3  C2  UNL d   1       2.070  -0.664  -0.016  0.00  0.00     0.048 A 
ATOM      4  C3  UNL d   1       1.242  -0.558  -1.133  0.00  0.00     0.023 A 
ATOM      5  C4  UNL d   1      -0.070  -1.034  -1.087  0.00  0.00     0.048 A 
ATOM      6  C5  UNL d   1      -0.552  -1.620   0.085  0.00  0.00     0.003 A 
ATOM      7  I   UNL d   1       1.964   0.313  -2.876  0.00  0.00    -0.146 I 
ENDROOT
TORSDOF 0
ENDMDL
