MODEL 1
REMARK minimizedAffinity 14.0940208
REMARK minimizedRMSD -1
REMARK  0 active torsions:
REMARK  status: ('A' for Active; 'I' for Inactive)
ROOT
ATOM      1  C   UNL d   1       1.413   1.085  -1.417  0.00  0.00     0.023 A 
ATOM      2  C1  UNL d   1       0.638  -0.054  -1.635  0.00  0.00     0.003 A 
ATOM      3  C2  UNL d   1       0.528  -1.026  -0.638  0.00  0.00     0.048 A 
ATOM      4  C3  UNL d   1       1.194  -0.852   0.574  0.00  0.00     0.023 A 
ATOM      5  C4  UNL d   1       1.970   0.287   0.797  0.00  0.00     0.048 A 
ATOM      6  C5  UNL d   1       2.078   1.255  -0.203  0.00  0.00     0.003 A 
ATOM      7  I   UNL d   1       1.032  -2.297   2.059  0.00  0.00    -0.146 I 
ENDROOT
TORSDOF 0
ENDMDL
