MODEL 1
REMARK minimizedAffinity 13.790204
REMARK minimizedRMSD -1
REMARK  0 active torsions:
REMARK  status: ('A' for Active; 'I' for Inactive)
ROOT
ATOM      1  C   UNL d   1       1.358   1.145  -1.630  0.00  0.00     0.023 A 
ATOM      2  C1  UNL d   1       0.493   0.059  -1.761  0.00  0.00     0.003 A 
ATOM      3  C2  UNL d   1       0.471  -0.939  -0.785  0.00  0.00     0.048 A 
ATOM      4  C3  UNL d   1       1.316  -0.844   0.321  0.00  0.00     0.023 A 
ATOM      5  C4  UNL d   1       2.182   0.242   0.457  0.00  0.00     0.048 A 
ATOM      6  C5  UNL d   1       2.201   1.237  -0.523  0.00  0.00     0.003 A 
ATOM      7  I   UNL d   1       1.284  -2.327   1.776  0.00  0.00    -0.146 I 
ENDROOT
TORSDOF 0
ENDMDL
