MODEL 1
REMARK minimizedAffinity 5.92341709
REMARK minimizedRMSD -1
REMARK  0 active torsions:
REMARK  status: ('A' for Active; 'I' for Inactive)
ROOT
ATOM      1  C   UNL d   1       0.828   4.656   4.559  0.00  0.00     0.023 A 
ATOM      2  C1  UNL d   1       1.955   4.093   3.960  0.00  0.00     0.003 A 
ATOM      3  C2  UNL d   1       3.233   4.477   4.372  0.00  0.00     0.048 A 
ATOM      4  C3  UNL d   1       3.376   5.426   5.384  0.00  0.00     0.023 A 
ATOM      5  C4  UNL d   1       2.252   5.992   5.987  0.00  0.00     0.048 A 
ATOM      6  C5  UNL d   1       0.976   5.605   5.571  0.00  0.00     0.003 A 
ATOM      7  I   UNL d   1       5.277   6.000   6.000  0.00  0.00    -0.146 I 
ENDROOT
TORSDOF 0
ENDMDL
