MODEL 1
REMARK minimizedAffinity 9.78577995
REMARK minimizedRMSD -1
REMARK  0 active torsions:
REMARK  status: ('A' for Active; 'I' for Inactive)
ROOT
ATOM      1  C   UNL d   1      -4.406  -2.466  -1.966  0.00  0.00     0.023 A 
ATOM      2  C1  UNL d   1      -5.048  -2.814  -3.155  0.00  0.00     0.003 A 
ATOM      3  C2  UNL d   1      -4.827  -2.066  -4.313  0.00  0.00     0.048 A 
ATOM      4  C3  UNL d   1      -3.962  -0.973  -4.276  0.00  0.00     0.023 A 
ATOM      5  C4  UNL d   1      -3.317  -0.622  -3.089  0.00  0.00     0.048 A 
ATOM      6  C5  UNL d   1      -3.542  -1.372  -1.933  0.00  0.00     0.003 A 
ATOM      7  I   UNL d   1      -3.632   0.141  -5.999  0.00  0.00    -0.146 I 
ENDROOT
TORSDOF 0
ENDMDL
