MODEL 1
REMARK minimizedAffinity 14.2945271
REMARK minimizedRMSD -1
REMARK  0 active torsions:
REMARK  status: ('A' for Active; 'I' for Inactive)
ROOT
ATOM      1  C   UNL d   1      -5.634  -1.200  -4.100  0.00  0.00     0.023 A 
ATOM      2  C1  UNL d   1      -4.904  -2.376  -3.928  0.00  0.00     0.003 A 
ATOM      3  C2  UNL d   1      -3.874  -2.428  -2.986  0.00  0.00     0.048 A 
ATOM      4  C3  UNL d   1      -3.581  -1.302  -2.218  0.00  0.00     0.023 A 
ATOM      5  C4  UNL d   1      -4.310  -0.123  -2.386  0.00  0.00     0.048 A 
ATOM      6  C5  UNL d   1      -5.338  -0.075  -3.330  0.00  0.00     0.003 A 
ATOM      7  I   UNL d   1      -2.050  -1.377  -0.816  0.00  0.00    -0.146 I 
ENDROOT
TORSDOF 0
ENDMDL
