MODEL 1
REMARK minimizedAffinity 8.68924618
REMARK minimizedRMSD -1
REMARK  0 active torsions:
REMARK  status: ('A' for Active; 'I' for Inactive)
ROOT
ATOM      1  C   UNL d   1       1.452   1.016  -1.784  0.00  0.00     0.023 A 
ATOM      2  C1  UNL d   1       2.174   1.224  -0.609  0.00  0.00     0.003 A 
ATOM      3  C2  UNL d   1       2.012   0.358   0.474  0.00  0.00     0.048 A 
ATOM      4  C3  UNL d   1       1.129  -0.717   0.374  0.00  0.00     0.023 A 
ATOM      5  C4  UNL d   1       0.406  -0.930  -0.801  0.00  0.00     0.048 A 
ATOM      6  C5  UNL d   1       0.569  -0.060  -1.880  0.00  0.00     0.003 A 
ATOM      7  I   UNL d   1       0.887  -2.008   1.984  0.00  0.00    -0.146 I 
ENDROOT
TORSDOF 0
ENDMDL
