MODEL 1
REMARK minimizedAffinity 8.87709332
REMARK minimizedRMSD -1
REMARK  0 active torsions:
REMARK  status: ('A' for Active; 'I' for Inactive)
ROOT
ATOM      1  C   UNL d   1       5.391  -5.763   5.965  0.00  0.00     0.023 A 
ATOM      2  C1  UNL d   1       5.877  -4.455   5.988  0.00  0.00     0.003 A 
ATOM      3  C2  UNL d   1       5.001  -3.381   5.824  0.00  0.00     0.048 A 
ATOM      4  C3  UNL d   1       3.640  -3.620   5.638  0.00  0.00     0.023 A 
ATOM      5  C4  UNL d   1       3.149  -4.927   5.616  0.00  0.00     0.048 A 
ATOM      6  C5  UNL d   1       4.029  -5.998   5.779  0.00  0.00     0.003 A 
ATOM      7  I   UNL d   1       2.333  -2.022   5.394  0.00  0.00    -0.146 I 
ENDROOT
TORSDOF 0
ENDMDL
