MODEL 1
REMARK minimizedAffinity 14.5142727
REMARK minimizedRMSD -1
REMARK  2 active torsions:
REMARK  status: ('A' for Active; 'I' for Inactive)
REMARK    1  A    between atoms: C1_2  and  C2_3 
REMARK    2  A    between atoms: C2_3  and  C3_4 
ROOT
ATOM      1  C3  UNL d   1      -3.082   4.946  -3.261  0.00  0.00    -0.075 A 
ATOM      2  C4  UNL d   1      -4.101   5.012  -4.222  0.00  0.00     0.002 A 
ATOM      3  C5  UNL d   1      -3.793   5.004  -5.583  0.00  0.00     0.002 A 
ATOM      4  C6  UNL d   1      -2.465   4.939  -5.999  0.00  0.00    -0.004 A 
ATOM      5  C7  UNL d   1      -1.444   4.889  -5.053  0.00  0.00     0.002 A 
ATOM      6  C8  UNL d   1      -1.750   4.893  -3.691  0.00  0.00     0.002 A 
ENDROOT
BRANCH   1   7
ATOM      7  C2  UNL d   1      -3.411   4.925  -1.787  0.00  0.00     0.056 C 
BRANCH   7   8
ATOM      8  C1  UNL d   1      -4.865   4.556  -1.477  0.00  0.00     0.007 C 
ATOM      9  C   UNL d   1      -5.710   5.750  -1.053  0.00  0.00     0.009 C 
ENDBRANCH   7   8
ENDBRANCH   1   7
TORSDOF 2
ENDMDL
