MODEL 1
REMARK minimizedAffinity 16.4519825
REMARK minimizedRMSD -1
REMARK  2 active torsions:
REMARK  status: ('A' for Active; 'I' for Inactive)
REMARK    1  A    between atoms: C1_2  and  C2_3 
REMARK    2  A    between atoms: C2_3  and  C3_4 
ROOT
ATOM      1  C3  UNL d   1       3.710   3.238  -3.490  0.00  0.00    -0.075 A 
ATOM      2  C4  UNL d   1       4.719   3.898  -2.772  0.00  0.00     0.002 A 
ATOM      3  C5  UNL d   1       5.852   4.383  -3.426  0.00  0.00     0.002 A 
ATOM      4  C6  UNL d   1       5.996   4.206  -4.800  0.00  0.00    -0.004 A 
ATOM      5  C7  UNL d   1       5.009   3.538  -5.521  0.00  0.00     0.002 A 
ATOM      6  C8  UNL d   1       3.872   3.056  -4.870  0.00  0.00     0.002 A 
ENDROOT
BRANCH   1   7
ATOM      7  C2  UNL d   1       2.468   2.737  -2.794  0.00  0.00     0.056 C 
BRANCH   7   8
ATOM      8  C1  UNL d   1       1.199   3.522  -3.141  0.00  0.00     0.007 C 
ATOM      9  C   UNL d   1       1.064   4.822  -2.359  0.00  0.00     0.009 C 
ENDBRANCH   7   8
ENDBRANCH   1   7
TORSDOF 2
ENDMDL
