MODEL 1
REMARK minimizedAffinity 2.76296496
REMARK minimizedRMSD -1
REMARK  2 active torsions:
REMARK  status: ('A' for Active; 'I' for Inactive)
REMARK    1  A    between atoms: C1_2  and  C2_3 
REMARK    2  A    between atoms: C2_3  and  C3_4 
ROOT
ATOM      1  C3  UNL d   1      -2.437   0.516   3.422  0.00  0.00    -0.075 A 
ATOM      2  C4  UNL d   1      -3.221   0.386   2.266  0.00  0.00     0.002 A 
ATOM      3  C5  UNL d   1      -2.889  -0.550   1.287  0.00  0.00     0.002 A 
ATOM      4  C6  UNL d   1      -1.766  -1.359   1.444  0.00  0.00    -0.004 A 
ATOM      5  C7  UNL d   1      -0.971  -1.227   2.580  0.00  0.00     0.002 A 
ATOM      6  C8  UNL d   1      -1.303  -0.295   3.564  0.00  0.00     0.002 A 
ENDROOT
BRANCH   1   7
ATOM      7  C2  UNL d   1      -2.808   1.506   4.500  0.00  0.00     0.056 C 
BRANCH   7   8
ATOM      8  C1  UNL d   1      -4.318   1.678   4.697  0.00  0.00     0.007 C 
ATOM      9  C   UNL d   1      -4.677   2.390   5.994  0.00  0.00     0.009 C 
ENDBRANCH   7   8
ENDBRANCH   1   7
TORSDOF 2
ENDMDL
