MODEL 1
REMARK minimizedAffinity 9.52946758
REMARK minimizedRMSD -1
REMARK  2 active torsions:
REMARK  status: ('A' for Active; 'I' for Inactive)
REMARK    1  A    between atoms: C1_2  and  C2_3 
REMARK    2  A    between atoms: C2_3  and  C3_4 
ROOT
ATOM      1  C3  UNL d   1      -4.970   1.896   4.505  0.00  0.00    -0.075 A 
ATOM      2  C4  UNL d   1      -3.595   1.668   4.358  0.00  0.00     0.002 A 
ATOM      3  C5  UNL d   1      -3.096   1.062   3.205  0.00  0.00     0.002 A 
ATOM      4  C6  UNL d   1      -3.965   0.668   2.190  0.00  0.00    -0.004 A 
ATOM      5  C7  UNL d   1      -5.335   0.875   2.332  0.00  0.00     0.002 A 
ATOM      6  C8  UNL d   1      -5.837   1.485   3.483  0.00  0.00     0.002 A 
ENDROOT
BRANCH   1   7
ATOM      7  C2  UNL d   1      -5.514   2.578   5.738  0.00  0.00     0.056 C 
BRANCH   7   8
ATOM      8  C1  UNL d   1      -4.917   3.965   5.997  0.00  0.00     0.007 C 
ATOM      9  C   UNL d   1      -5.958   5.077   5.994  0.00  0.00     0.009 C 
ENDBRANCH   7   8
ENDBRANCH   1   7
TORSDOF 2
ENDMDL
