MODEL 1
REMARK minimizedAffinity 6.62185192
REMARK minimizedRMSD -1
REMARK  2 active torsions:
REMARK  status: ('A' for Active; 'I' for Inactive)
REMARK    1  A    between atoms: C1_2  and  C2_3 
REMARK    2  A    between atoms: C2_3  and  C3_4 
ROOT
ATOM      1  C3  UNL d   1      -4.146  -4.262   3.414  0.00  0.00    -0.075 A 
ATOM      2  C4  UNL d   1      -4.209  -3.331   4.461  0.00  0.00     0.002 A 
ATOM      3  C5  UNL d   1      -4.570  -3.734   5.747  0.00  0.00     0.002 A 
ATOM      4  C6  UNL d   1      -4.881  -5.068   6.000  0.00  0.00    -0.004 A 
ATOM      5  C7  UNL d   1      -4.838  -5.999   4.964  0.00  0.00     0.002 A 
ATOM      6  C8  UNL d   1      -4.473  -5.599   3.677  0.00  0.00     0.002 A 
ENDROOT
BRANCH   1   7
ATOM      7  C2  UNL d   1      -3.727  -3.838   2.027  0.00  0.00     0.056 C 
BRANCH   7   8
ATOM      8  C1  UNL d   1      -3.431  -2.340   1.896  0.00  0.00     0.007 C 
ATOM      9  C   UNL d   1      -2.010  -2.048   1.432  0.00  0.00     0.009 C 
ENDBRANCH   7   8
ENDBRANCH   1   7
TORSDOF 2
ENDMDL
