MODEL 1
REMARK minimizedAffinity 14.4352398
REMARK minimizedRMSD -1
REMARK  2 active torsions:
REMARK  status: ('A' for Active; 'I' for Inactive)
REMARK    1  A    between atoms: C1_2  and  C2_3 
REMARK    2  A    between atoms: C2_3  and  C3_4 
ROOT
ATOM      1  C3  UNL d   1      -2.073   5.471  -2.897  0.00  0.00    -0.075 A 
ATOM      2  C4  UNL d   1      -2.019   5.447  -1.496  0.00  0.00     0.002 A 
ATOM      3  C5  UNL d   1      -3.190   5.530  -0.741  0.00  0.00     0.002 A 
ATOM      4  C6  UNL d   1      -4.424   5.648  -1.375  0.00  0.00    -0.004 A 
ATOM      5  C7  UNL d   1      -4.488   5.690  -2.767  0.00  0.00     0.002 A 
ATOM      6  C8  UNL d   1      -3.319   5.603  -3.525  0.00  0.00     0.002 A 
ENDROOT
BRANCH   1   7
ATOM      7  C2  UNL d   1      -0.812   5.353  -3.721  0.00  0.00     0.056 C 
BRANCH   7   8
ATOM      8  C1  UNL d   1      -0.961   5.846  -5.164  0.00  0.00     0.007 C 
ATOM      9  C   UNL d   1      -1.906   4.990  -5.997  0.00  0.00     0.009 C 
ENDBRANCH   7   8
ENDBRANCH   1   7
TORSDOF 2
ENDMDL
