MODEL 1
REMARK minimizedAffinity 3.45455503
REMARK minimizedRMSD -1
REMARK  2 active torsions:
REMARK  status: ('A' for Active; 'I' for Inactive)
REMARK    1  A    between atoms: C1_2  and  C2_3 
REMARK    2  A    between atoms: C2_3  and  C3_4 
ROOT
ATOM      1  C3  UNL d   1      -3.669  -0.371   0.622  0.00  0.00    -0.075 A 
ATOM      2  C4  UNL d   1      -4.628   0.546   1.077  0.00  0.00     0.002 A 
ATOM      3  C5  UNL d   1      -5.535   1.122   0.186  0.00  0.00     0.002 A 
ATOM      4  C6  UNL d   1      -5.488   0.797  -1.168  0.00  0.00    -0.004 A 
ATOM      5  C7  UNL d   1      -4.529  -0.100  -1.633  0.00  0.00     0.002 A 
ATOM      6  C8  UNL d   1      -3.623  -0.681  -0.743  0.00  0.00     0.002 A 
ENDROOT
BRANCH   1   7
ATOM      7  C2  UNL d   1      -2.704  -1.020   1.585  0.00  0.00     0.056 C 
BRANCH   7   8
ATOM      8  C1  UNL d   1      -1.704  -0.047   2.218  0.00  0.00     0.007 C 
ATOM      9  C   UNL d   1      -2.159   0.486   3.571  0.00  0.00     0.009 C 
ENDBRANCH   7   8
ENDBRANCH   1   7
TORSDOF 2
ENDMDL
