MODEL 1
REMARK minimizedAffinity 9.36545277
REMARK minimizedRMSD -1
REMARK  2 active torsions:
REMARK  status: ('A' for Active; 'I' for Inactive)
REMARK    1  A    between atoms: C1_2  and  C2_3 
REMARK    2  A    between atoms: C2_3  and  C3_4 
ROOT
ATOM      1  C3  UNL d   1      -0.568  -0.893   2.671  0.00  0.00    -0.075 A 
ATOM      2  C4  UNL d   1      -0.273  -0.870   4.042  0.00  0.00     0.002 A 
ATOM      3  C5  UNL d   1      -1.045  -0.110   4.920  0.00  0.00     0.002 A 
ATOM      4  C6  UNL d   1      -2.114   0.644   4.440  0.00  0.00    -0.004 A 
ATOM      5  C7  UNL d   1      -2.406   0.641   3.078  0.00  0.00     0.002 A 
ATOM      6  C8  UNL d   1      -1.638  -0.122   2.197  0.00  0.00     0.002 A 
ENDROOT
BRANCH   1   7
ATOM      7  C2  UNL d   1       0.245  -1.737   1.719  0.00  0.00     0.056 C 
BRANCH   7   8
ATOM      8  C1  UNL d   1       1.748  -1.436   1.747  0.00  0.00     0.007 C 
ATOM      9  C   UNL d   1       2.109  -0.121   1.068  0.00  0.00     0.009 C 
ENDBRANCH   7   8
ENDBRANCH   1   7
TORSDOF 2
ENDMDL
