MODEL 1
REMARK minimizedAffinity 13.2811499
REMARK minimizedRMSD -1
REMARK  2 active torsions:
REMARK  status: ('A' for Active; 'I' for Inactive)
REMARK    1  A    between atoms: C1_2  and  C2_3 
REMARK    2  A    between atoms: C2_3  and  C3_4 
ROOT
ATOM      1  C3  UNL d   1      -0.632  -0.982   2.239  0.00  0.00    -0.075 A 
ATOM      2  C4  UNL d   1      -0.851  -0.122   3.326  0.00  0.00     0.002 A 
ATOM      3  C5  UNL d   1      -2.013   0.647   3.398  0.00  0.00     0.002 A 
ATOM      4  C6  UNL d   1      -2.964   0.575   2.382  0.00  0.00    -0.004 A 
ATOM      5  C7  UNL d   1      -2.749  -0.263   1.289  0.00  0.00     0.002 A 
ATOM      6  C8  UNL d   1      -1.589  -1.037   1.217  0.00  0.00     0.002 A 
ENDROOT
BRANCH   1   7
ATOM      7  C2  UNL d   1       0.609  -1.839   2.170  0.00  0.00     0.056 C 
BRANCH   7   8
ATOM      8  C1  UNL d   1       1.616  -1.569   3.293  0.00  0.00     0.007 C 
ATOM      9  C   UNL d   1       2.109  -2.838   3.975  0.00  0.00     0.009 C 
ENDBRANCH   7   8
ENDBRANCH   1   7
TORSDOF 2
ENDMDL
