MODEL 1
REMARK minimizedAffinity 10.4625397
REMARK minimizedRMSD -1
REMARK  2 active torsions:
REMARK  status: ('A' for Active; 'I' for Inactive)
REMARK    1  A    between atoms: C1_2  and  C2_3 
REMARK    2  A    between atoms: C2_3  and  C3_4 
ROOT
ATOM      1  C3  UNL d   1       5.773   4.434  -2.284  0.00  0.00    -0.075 A 
ATOM      2  C4  UNL d   1       5.770   5.749  -1.797  0.00  0.00     0.002 A 
ATOM      3  C5  UNL d   1       5.887   5.998  -0.429  0.00  0.00     0.002 A 
ATOM      4  C6  UNL d   1       5.998   4.938   0.468  0.00  0.00    -0.004 A 
ATOM      5  C7  UNL d   1       5.985   3.627  -0.003  0.00  0.00     0.002 A 
ATOM      6  C8  UNL d   1       5.873   3.375  -1.371  0.00  0.00     0.002 A 
ENDROOT
BRANCH   1   7
ATOM      7  C2  UNL d   1       5.676   4.158  -3.765  0.00  0.00     0.056 C 
BRANCH   7   8
ATOM      8  C1  UNL d   1       4.690   3.043  -4.129  0.00  0.00     0.007 C 
ATOM      9  C   UNL d   1       3.545   2.906  -3.135  0.00  0.00     0.009 C 
ENDBRANCH   7   8
ENDBRANCH   1   7
TORSDOF 2
ENDMDL
