MODEL 1
REMARK minimizedAffinity 16.5855541
REMARK minimizedRMSD -1
REMARK  2 active torsions:
REMARK  status: ('A' for Active; 'I' for Inactive)
REMARK    1  A    between atoms: C1_2  and  C2_3 
REMARK    2  A    between atoms: C2_3  and  C3_4 
ROOT
ATOM      1  C3  UNL d   1       4.784   4.003  -2.899  0.00  0.00    -0.075 A 
ATOM      2  C4  UNL d   1       3.749   3.655  -2.019  0.00  0.00     0.002 A 
ATOM      3  C5  UNL d   1       2.660   2.907  -2.468  0.00  0.00     0.002 A 
ATOM      4  C6  UNL d   1       2.587   2.508  -3.800  0.00  0.00    -0.004 A 
ATOM      5  C7  UNL d   1       3.601   2.862  -4.687  0.00  0.00     0.002 A 
ATOM      6  C8  UNL d   1       4.694   3.606  -4.240  0.00  0.00     0.002 A 
ENDROOT
BRANCH   1   7
ATOM      7  C2  UNL d   1       5.980   4.787  -2.413  0.00  0.00     0.056 C 
BRANCH   7   8
ATOM      8  C1  UNL d   1       5.622   5.986  -1.528  0.00  0.00     0.007 C 
ATOM      9  C   UNL d   1       5.942   5.763  -0.056  0.00  0.00     0.009 C 
ENDBRANCH   7   8
ENDBRANCH   1   7
TORSDOF 2
ENDMDL
