MODEL 1
REMARK minimizedAffinity 12.045804
REMARK minimizedRMSD -1
REMARK  2 active torsions:
REMARK  status: ('A' for Active; 'I' for Inactive)
REMARK    1  A    between atoms: C1_2  and  C2_3 
REMARK    2  A    between atoms: C2_3  and  C3_4 
ROOT
ATOM      1  C3  UNL d   1      -3.282  -5.507  -4.893  0.00  0.00    -0.075 A 
ATOM      2  C4  UNL d   1      -4.092  -5.999  -5.927  0.00  0.00     0.002 A 
ATOM      3  C5  UNL d   1      -5.441  -5.651  -5.998  0.00  0.00     0.002 A 
ATOM      4  C6  UNL d   1      -5.999  -4.816  -5.032  0.00  0.00    -0.004 A 
ATOM      5  C7  UNL d   1      -5.209  -4.335  -3.991  0.00  0.00     0.002 A 
ATOM      6  C8  UNL d   1      -3.857  -4.678  -3.921  0.00  0.00     0.002 A 
ENDROOT
BRANCH   1   7
ATOM      7  C2  UNL d   1      -1.815  -5.856  -4.828  0.00  0.00     0.056 C 
BRANCH   7   8
ATOM      8  C1  UNL d   1      -0.897  -4.653  -4.585  0.00  0.00     0.007 C 
ATOM      9  C   UNL d   1      -0.833  -4.233  -3.123  0.00  0.00     0.009 C 
ENDBRANCH   7   8
ENDBRANCH   1   7
TORSDOF 2
ENDMDL
