MODEL 1
REMARK minimizedAffinity -1.03619504
REMARK minimizedRMSD -1
REMARK  3 active torsions:
REMARK  status: ('A' for Active; 'I' for Inactive)
REMARK    1  A    between atoms: C3'_2  and  C2'_3 
REMARK    2  A    between atoms: C2'_3  and  C1'_4 
REMARK    3  A    between atoms: C1'_4  and  C1_5 
ROOT
ATOM      1  C1  N4B d   1       2.892   1.008  -0.747  0.00  0.00    -0.075 A 
ATOM      2  C2  N4B d   1       3.002  -0.214  -1.447  0.00  0.00     0.002 A 
ATOM      3  C3  N4B d   1       2.186  -1.269  -1.120  0.00  0.00     0.002 A 
ATOM      4  C4  N4B d   1       1.269  -1.133  -0.089  0.00  0.00    -0.004 A 
ATOM      5  C5  N4B d   1       1.152   0.058   0.566  0.00  0.00     0.002 A 
ATOM      6  C6  N4B d   1       1.962   1.128   0.246  0.00  0.00     0.002 A 
ENDROOT
BRANCH   1   7
ATOM      7  C1' N4B d   1       3.821   2.161  -1.010  0.00  0.00     0.057 C 
BRANCH   7   8
ATOM      8  C2' N4B d   1       5.237   1.767  -0.604  0.00  0.00     0.009 C 
BRANCH   8   9
ATOM      9  C3' N4B d   1       5.999   2.932   0.003  0.00  0.00     0.004 C 
ATOM     10  C4' N4B d   1       5.998   4.147  -0.874  0.00  0.00     0.003 C 
ENDBRANCH   8   9
ENDBRANCH   7   8
ENDBRANCH   1   7
TORSDOF 3
ENDMDL
