MODEL 1
REMARK minimizedAffinity 14.4159765
REMARK minimizedRMSD -1
REMARK  3 active torsions:
REMARK  status: ('A' for Active; 'I' for Inactive)
REMARK    1  A    between atoms: C3'_2  and  C2'_3 
REMARK    2  A    between atoms: C2'_3  and  C1'_4 
REMARK    3  A    between atoms: C1'_4  and  C1_5 
ROOT
ATOM      1  C1  N4B d   1       3.580   2.192  -0.817  0.00  0.00    -0.075 A 
ATOM      2  C2  N4B d   1       4.017   2.914  -1.949  0.00  0.00     0.002 A 
ATOM      3  C3  N4B d   1       5.224   3.568  -1.923  0.00  0.00     0.002 A 
ATOM      4  C4  N4B d   1       5.999   3.530  -0.774  0.00  0.00    -0.004 A 
ATOM      5  C5  N4B d   1       5.582   2.810   0.307  0.00  0.00     0.002 A 
ATOM      6  C6  N4B d   1       4.372   2.144   0.293  0.00  0.00     0.002 A 
ENDROOT
BRANCH   1   7
ATOM      7  C1' N4B d   1       2.229   1.532  -0.769  0.00  0.00     0.057 C 
BRANCH   7   8
ATOM      8  C2' N4B d   1       2.008   0.943   0.622  0.00  0.00     0.009 C 
BRANCH   8   9
ATOM      9  C3' N4B d   1       1.693  -0.542   0.566  0.00  0.00     0.004 C 
ATOM     10  C4' N4B d   1       1.425  -1.129   1.919  0.00  0.00     0.003 C 
ENDBRANCH   8   9
ENDBRANCH   7   8
ENDBRANCH   1   7
TORSDOF 3
ENDMDL
