MODEL 1
REMARK minimizedAffinity 7.43983078
REMARK minimizedRMSD -1
REMARK  1 active torsions:
REMARK  status: ('A' for Active; 'I' for Inactive)
REMARK    1  A    between atoms: C1_2  and  C2_3 
ROOT
ATOM      1  C2  UNL d   1       0.519   2.345   0.044  0.00  0.00    -0.076 A 
ATOM      2  C3  UNL d   1      -0.855   2.210  -0.223  0.00  0.00     0.004 A 
ATOM      3  C4  UNL d   1      -1.465   0.957  -0.225  0.00  0.00    -0.003 A 
ATOM      4  C5  UNL d   1      -0.713  -0.181   0.042  0.00  0.00     0.000 A 
ATOM      5  C6  UNL d   1       0.647  -0.064   0.327  0.00  0.00     0.000 A 
ATOM      6  C7  UNL d   1       1.275   1.194   0.348  0.00  0.00    -0.073 A 
ATOM      7  C8  UNL d   1       2.746   1.261   0.656  0.00  0.00     0.078 C 
ENDROOT
BRANCH   1   8
ATOM      8  C1  UNL d   1       1.131   3.727   0.005  0.00  0.00     0.053 C 
ATOM      9  C   UNL d   1       1.066   4.355  -1.378  0.00  0.00     0.018 C 
ENDBRANCH   1   8
TORSDOF 1
ENDMDL
