MODEL 1
REMARK minimizedAffinity 5.9731698
REMARK minimizedRMSD -1
REMARK  1 active torsions:
REMARK  status: ('A' for Active; 'I' for Inactive)
REMARK    1  A    between atoms: C1_2  and  C2_3 
ROOT
ATOM      1  C2  UNL d   1       3.739  -4.462  -1.225  0.00  0.00    -0.076 A 
ATOM      2  C3  UNL d   1       3.345  -3.186  -0.787  0.00  0.00     0.004 A 
ATOM      3  C4  UNL d   1       3.265  -2.115  -1.676  0.00  0.00    -0.003 A 
ATOM      4  C5  UNL d   1       3.578  -2.304  -3.017  0.00  0.00     0.000 A 
ATOM      5  C6  UNL d   1       3.954  -3.567  -3.473  0.00  0.00     0.000 A 
ATOM      6  C7  UNL d   1       4.023  -4.661  -2.593  0.00  0.00    -0.073 A 
ATOM      7  C8  UNL d   1       4.440  -6.000  -3.137  0.00  0.00     0.078 C 
ENDROOT
BRANCH   1   8
ATOM      8  C1  UNL d   1       3.833  -5.579  -0.210  0.00  0.00     0.053 C 
ATOM      9  C   UNL d   1       3.122  -5.245   1.092  0.00  0.00     0.018 C 
ENDBRANCH   1   8
TORSDOF 1
ENDMDL
