MODEL 1
REMARK minimizedAffinity 7.29036999
REMARK minimizedRMSD -1
REMARK  1 active torsions:
REMARK  status: ('A' for Active; 'I' for Inactive)
REMARK    1  A    between atoms: C1_2  and  C2_3 
ROOT
ATOM      1  C2  UNL d   1       3.585  -5.969   0.230  0.00  0.00    -0.076 A 
ATOM      2  C3  UNL d   1       2.849  -5.977  -0.968  0.00  0.00     0.004 A 
ATOM      3  C4  UNL d   1       3.491  -5.976  -2.205  0.00  0.00    -0.003 A 
ATOM      4  C5  UNL d   1       4.881  -5.968  -2.265  0.00  0.00     0.000 A 
ATOM      5  C6  UNL d   1       5.627  -5.978  -1.087  0.00  0.00     0.000 A 
ATOM      6  C7  UNL d   1       4.995  -5.995   0.169  0.00  0.00    -0.073 A 
ATOM      7  C8  UNL d   1       5.849  -5.999   1.407  0.00  0.00     0.078 C 
ENDROOT
BRANCH   1   8
ATOM      8  C1  UNL d   1       2.834  -5.943   1.541  0.00  0.00     0.053 C 
ATOM      9  C   UNL d   1       2.301  -4.559   1.880  0.00  0.00     0.018 C 
ENDBRANCH   1   8
TORSDOF 1
ENDMDL
