MODEL 1
REMARK minimizedAffinity 2.3633585
REMARK minimizedRMSD -1
REMARK  1 active torsions:
REMARK  status: ('A' for Active; 'I' for Inactive)
REMARK    1  A    between atoms: C1_2  and  C2_3 
ROOT
ATOM      1  C2  UNL d   1       3.635  -5.938  -3.467  0.00  0.00    -0.076 A 
ATOM      2  C3  UNL d   1       5.033  -5.873  -3.596  0.00  0.00     0.004 A 
ATOM      3  C4  UNL d   1       5.637  -5.841  -4.852  0.00  0.00    -0.003 A 
ATOM      4  C5  UNL d   1       4.852  -5.872  -6.000  0.00  0.00     0.000 A 
ATOM      5  C6  UNL d   1       3.463  -5.919  -5.890  0.00  0.00     0.000 A 
ATOM      6  C7  UNL d   1       2.837  -5.935  -4.632  0.00  0.00    -0.073 A 
ATOM      7  C8  UNL d   1       1.336  -5.992  -4.573  0.00  0.00     0.078 C 
ENDROOT
BRANCH   1   8
ATOM      8  C1  UNL d   1       3.037  -5.998  -2.080  0.00  0.00     0.053 C 
ATOM      9  C   UNL d   1       4.052  -5.675  -0.994  0.00  0.00     0.018 C 
ENDBRANCH   1   8
TORSDOF 1
ENDMDL
