MODEL 1
REMARK minimizedAffinity 9.87719345
REMARK minimizedRMSD -1
REMARK  1 active torsions:
REMARK  status: ('A' for Active; 'I' for Inactive)
REMARK    1  A    between atoms: C1_2  and  C2_3 
ROOT
ATOM      1  C2  UNL d   1       3.448  -3.449   4.143  0.00  0.00    -0.076 A 
ATOM      2  C3  UNL d   1       3.287  -4.837   3.989  0.00  0.00     0.004 A 
ATOM      3  C4  UNL d   1       2.220  -5.359   3.261  0.00  0.00    -0.003 A 
ATOM      4  C5  UNL d   1       1.296  -4.501   2.674  0.00  0.00     0.000 A 
ATOM      5  C6  UNL d   1       1.450  -3.121   2.801  0.00  0.00     0.000 A 
ATOM      6  C7  UNL d   1       2.530  -2.578   3.519  0.00  0.00    -0.073 A 
ATOM      7  C8  UNL d   1       2.644  -1.082   3.629  0.00  0.00     0.078 C 
ENDROOT
BRANCH   1   8
ATOM      8  C1  UNL d   1       4.610  -2.942   4.967  0.00  0.00     0.053 C 
ATOM      9  C   UNL d   1       5.941  -3.076   4.243  0.00  0.00     0.018 C 
ENDBRANCH   1   8
TORSDOF 1
ENDMDL
