MODEL 1
REMARK minimizedAffinity 6.97321749
REMARK minimizedRMSD -1
REMARK  1 active torsions:
REMARK  status: ('A' for Active; 'I' for Inactive)
REMARK    1  A    between atoms: C1_2  and  C2_3 
ROOT
ATOM      1  C2  UNL d   1       2.291  -0.558   2.485  0.00  0.00    -0.076 A 
ATOM      2  C3  UNL d   1       3.493  -1.029   3.042  0.00  0.00     0.004 A 
ATOM      3  C4  UNL d   1       3.742  -2.396   3.158  0.00  0.00    -0.003 A 
ATOM      4  C5  UNL d   1       2.795  -3.313   2.718  0.00  0.00     0.000 A 
ATOM      5  C6  UNL d   1       1.605  -2.863   2.147  0.00  0.00     0.000 A 
ATOM      6  C7  UNL d   1       1.344  -1.489   2.008  0.00  0.00    -0.073 A 
ATOM      7  C8  UNL d   1       0.042  -1.060   1.390  0.00  0.00     0.078 C 
ENDROOT
BRANCH   1   8
ATOM      8  C1  UNL d   1       2.064   0.935   2.410  0.00  0.00     0.053 C 
ATOM      9  C   UNL d   1       2.978   1.613   1.401  0.00  0.00     0.018 C 
ENDBRANCH   1   8
TORSDOF 1
ENDMDL
