MODEL 1
REMARK minimizedAffinity 2.34163117
REMARK minimizedRMSD -1
REMARK  0 active torsions:
REMARK  status: ('A' for Active; 'I' for Inactive)
ROOT
ATOM      1  C   UNL d   1       1.270   4.105  -1.984  0.00  0.00    -0.002 A 
ATOM      2  C1  UNL d   1       1.511   4.391  -0.647  0.00  0.00     0.010 A 
ATOM      3  C2  UNL d   1       1.476   3.379   0.313  0.00  0.00     0.041 A 
ATOM      4  C3  UNL d   1       1.194   2.061  -0.096  0.00  0.00    -0.075 A 
ATOM      5  S   UNL d   1       1.100   0.660   0.905  0.00  0.00     0.015 SA
ATOM      6  C4  UNL d   1       0.739  -0.352  -0.418  0.00  0.00     0.022 A 
ATOM      7  C5  UNL d   1       0.687   0.345  -1.602  0.00  0.00     0.026 A 
ATOM      8  C6  UNL d   1       0.949   1.747  -1.436  0.00  0.00    -0.082 A 
ATOM      9  C7  UNL d   1       0.991   2.796  -2.386  0.00  0.00     0.045 A 
ENDROOT
TORSDOF 0
ENDMDL
