MODEL 1
REMARK minimizedAffinity -3.97271395
REMARK minimizedRMSD -1
REMARK  0 active torsions:
REMARK  status: ('A' for Active; 'I' for Inactive)
ROOT
ATOM      1  C   UNL d   1       1.712   4.505  -1.587  0.00  0.00    -0.002 A 
ATOM      2  C1  UNL d   1       1.536   4.733  -0.230  0.00  0.00     0.010 A 
ATOM      3  C2  UNL d   1       1.380   3.664   0.655  0.00  0.00     0.041 A 
ATOM      4  C3  UNL d   1       1.406   2.350   0.148  0.00  0.00    -0.075 A 
ATOM      5  S   UNL d   1       1.237   0.886   1.044  0.00  0.00     0.015 SA
ATOM      6  C4  UNL d   1       1.394  -0.075  -0.355  0.00  0.00     0.022 A 
ATOM      7  C5  UNL d   1       1.572   0.685  -1.486  0.00  0.00     0.026 A 
ATOM      8  C6  UNL d   1       1.582   2.095  -1.215  0.00  0.00    -0.082 A 
ATOM      9  C7  UNL d   1       1.737   3.200  -2.087  0.00  0.00     0.045 A 
ENDROOT
TORSDOF 0
ENDMDL
