MODEL 1
REMARK minimizedAffinity -0.139212206
REMARK minimizedRMSD -1
REMARK  0 active torsions:
REMARK  status: ('A' for Active; 'I' for Inactive)
ROOT
ATOM      1  C   UNL d   1       0.927  -1.570   0.045  0.00  0.00    -0.002 A 
ATOM      2  C1  UNL d   1       0.815  -1.481  -1.335  0.00  0.00     0.010 A 
ATOM      3  C2  UNL d   1       0.797  -0.236  -1.967  0.00  0.00     0.041 A 
ATOM      4  C3  UNL d   1       0.896   0.929  -1.181  0.00  0.00    -0.075 A 
ATOM      5  S   UNL d   1       0.897   2.561  -1.737  0.00  0.00     0.015 SA
ATOM      6  C4  UNL d   1       1.046   3.178  -0.155  0.00  0.00     0.022 A 
ATOM      7  C5  UNL d   1       1.096   2.177   0.786  0.00  0.00     0.026 A 
ATOM      8  C6  UNL d   1       1.011   0.864   0.211  0.00  0.00    -0.082 A 
ATOM      9  C7  UNL d   1       1.025  -0.413   0.821  0.00  0.00     0.045 A 
ENDROOT
TORSDOF 0
ENDMDL
