MODEL 1
REMARK minimizedAffinity -1.28784835
REMARK minimizedRMSD -1
REMARK  0 active torsions:
REMARK  status: ('A' for Active; 'I' for Inactive)
ROOT
ATOM      1  C   UNL d   1       1.426   3.078  -0.906  0.00  0.00    -0.002 A 
ATOM      2  C1  UNL d   1       1.859   2.712   0.360  0.00  0.00     0.010 A 
ATOM      3  C2  UNL d   1       2.117   1.374   0.663  0.00  0.00     0.041 A 
ATOM      4  C3  UNL d   1       1.933   0.401  -0.338  0.00  0.00    -0.075 A 
ATOM      5  S   UNL d   1       2.187  -1.299  -0.196  0.00  0.00     0.015 SA
ATOM      6  C4  UNL d   1       1.729  -1.578  -1.814  0.00  0.00     0.022 A 
ATOM      7  C5  UNL d   1       1.386  -0.415  -2.461  0.00  0.00     0.026 A 
ATOM      8  C6  UNL d   1       1.499   0.745  -1.622  0.00  0.00    -0.082 A 
ATOM      9  C7  UNL d   1       1.244   2.110  -1.897  0.00  0.00     0.045 A 
ENDROOT
TORSDOF 0
ENDMDL
