MODEL 1
REMARK minimizedAffinity -0.145978317
REMARK minimizedRMSD -1
REMARK  0 active torsions:
REMARK  status: ('A' for Active; 'I' for Inactive)
ROOT
ATOM      1  C   UNL d   1       0.239  -3.508  -1.124  0.00  0.00    -0.002 A 
ATOM      2  C1  UNL d   1       1.062  -3.652  -0.016  0.00  0.00     0.010 A 
ATOM      3  C2  UNL d   1       1.723  -2.548   0.527  0.00  0.00     0.041 A 
ATOM      4  C3  UNL d   1       1.539  -1.284  -0.068  0.00  0.00    -0.075 A 
ATOM      5  S   UNL d   1       2.246   0.209   0.426  0.00  0.00     0.015 SA
ATOM      6  C4  UNL d   1       1.472   1.074  -0.822  0.00  0.00     0.022 A 
ATOM      7  C5  UNL d   1       0.689   0.259  -1.606  0.00  0.00     0.026 A 
ATOM      8  C6  UNL d   1       0.715  -1.114  -1.183  0.00  0.00    -0.082 A 
ATOM      9  C7  UNL d   1       0.059  -2.252  -1.711  0.00  0.00     0.045 A 
ENDROOT
TORSDOF 0
ENDMDL
