MODEL 1
REMARK minimizedAffinity 0.353420585
REMARK minimizedRMSD -1
REMARK  0 active torsions:
REMARK  status: ('A' for Active; 'I' for Inactive)
ROOT
ATOM      1  C   UNL d   1       0.966   0.583  -1.382  0.00  0.00    -0.002 A 
ATOM      2  C1  UNL d   1       0.746   0.482  -0.015  0.00  0.00     0.010 A 
ATOM      3  C2  UNL d   1       0.879   1.601   0.810  0.00  0.00     0.041 A 
ATOM      4  C3  UNL d   1       1.239   2.835   0.233  0.00  0.00    -0.075 A 
ATOM      5  S   UNL d   1       1.459   4.338   1.047  0.00  0.00     0.015 SA
ATOM      6  C4  UNL d   1       1.849   5.150  -0.400  0.00  0.00     0.022 A 
ATOM      7  C5  UNL d   1       1.817   4.310  -1.487  0.00  0.00     0.026 A 
ATOM      8  C6  UNL d   1       1.464   2.961  -1.141  0.00  0.00    -0.082 A 
ATOM      9  C7  UNL d   1       1.322   1.809  -1.950  0.00  0.00     0.045 A 
ENDROOT
TORSDOF 0
ENDMDL
