MODEL 1
REMARK minimizedAffinity -1.13363791
REMARK minimizedRMSD -1
REMARK  0 active torsions:
REMARK  status: ('A' for Active; 'I' for Inactive)
ROOT
ATOM      1  C   UNL d   1       1.119   0.017  -1.718  0.00  0.00    -0.002 A 
ATOM      2  C1  UNL d   1       0.800  -0.096  -0.372  0.00  0.00     0.010 A 
ATOM      3  C2  UNL d   1       0.767   1.035   0.447  0.00  0.00     0.041 A 
ATOM      4  C3  UNL d   1       1.060   2.292  -0.115  0.00  0.00    -0.075 A 
ATOM      5  S   UNL d   1       1.080   3.814   0.695  0.00  0.00     0.015 SA
ATOM      6  C4  UNL d   1       1.511   4.650  -0.726  0.00  0.00     0.022 A 
ATOM      7  C5  UNL d   1       1.641   3.804  -1.802  0.00  0.00     0.026 A 
ATOM      8  C6  UNL d   1       1.383   2.432  -1.468  0.00  0.00    -0.082 A 
ATOM      9  C7  UNL d   1       1.409   1.267  -2.272  0.00  0.00     0.045 A 
ENDROOT
TORSDOF 0
ENDMDL
