MODEL 1
REMARK minimizedAffinity 5.8614459
REMARK minimizedRMSD -1
REMARK  0 active torsions:
REMARK  status: ('A' for Active; 'I' for Inactive)
ROOT
ATOM      1  C   UNL d   1       1.505  -0.023   0.436  0.00  0.00    -0.002 A 
ATOM      2  C1  UNL d   1       0.845  -0.578  -0.651  0.00  0.00     0.010 A 
ATOM      3  C2  UNL d   1       0.559   0.195  -1.778  0.00  0.00     0.041 A 
ATOM      4  C3  UNL d   1       0.953   1.547  -1.796  0.00  0.00    -0.075 A 
ATOM      5  S   UNL d   1       0.710   2.685  -3.068  0.00  0.00     0.015 SA
ATOM      6  C4  UNL d   1       1.478   3.934  -2.199  0.00  0.00     0.022 A 
ATOM      7  C5  UNL d   1       1.915   3.511  -0.966  0.00  0.00     0.026 A 
ATOM      8  C6  UNL d   1       1.620   2.128  -0.714  0.00  0.00    -0.082 A 
ATOM      9  C7  UNL d   1       1.895   1.319   0.415  0.00  0.00     0.045 A 
ENDROOT
TORSDOF 0
ENDMDL
