MODEL 1
REMARK minimizedAffinity 11.0527067
REMARK minimizedRMSD -1
REMARK  1 active torsions:
REMARK  status: ('A' for Active; 'I' for Inactive)
REMARK    1  A    between atoms: C3_4  and  O_7 
ROOT
ATOM      1  C   UNL d   1      -5.998  -1.566  -2.170  0.00  0.00    -0.033 A 
ATOM      2  C1  UNL d   1      -6.000  -1.893  -0.813  0.00  0.00     0.039 A 
ATOM      3  C2  UNL d   1      -5.394  -1.041   0.113  0.00  0.00    -0.080 A 
ATOM      4  C3  UNL d   1      -4.792   0.133  -0.331  0.00  0.00     0.150 A 
ATOM      5  C4  UNL d   1      -4.790   0.466  -1.681  0.00  0.00    -0.007 A 
ATOM      6  C5  UNL d   1      -5.394  -0.386  -2.604  0.00  0.00     0.039 A 
ENDROOT
BRANCH   4   7
ATOM      7  O   UNL d   1      -4.184   0.993   0.534  0.00  0.00    -0.526 OA
ATOM      8  H5  UNL d   1      -4.238   0.619   1.430  0.00  0.00     0.418 HD
ENDBRANCH   4   7
TORSDOF 1
ENDMDL
