MODEL 1
REMARK minimizedAffinity 8.72952938
REMARK minimizedRMSD -1
REMARK  1 active torsions:
REMARK  status: ('A' for Active; 'I' for Inactive)
REMARK    1  A    between atoms: C3_4  and  O_7 
ROOT
ATOM      1  C   UNL d   1      -0.924  -2.934  -2.247  0.00  0.00    -0.033 A 
ATOM      2  C1  UNL d   1      -1.322  -1.719  -2.809  0.00  0.00     0.039 A 
ATOM      3  C2  UNL d   1      -2.304  -1.695  -3.802  0.00  0.00    -0.080 A 
ATOM      4  C3  UNL d   1      -2.879  -2.891  -4.223  0.00  0.00     0.150 A 
ATOM      5  C4  UNL d   1      -2.490  -4.104  -3.665  0.00  0.00    -0.007 A 
ATOM      6  C5  UNL d   1      -1.509  -4.126  -2.675  0.00  0.00     0.039 A 
ENDROOT
BRANCH   4   7
ATOM      7  O   UNL d   1      -3.837  -2.918  -5.193  0.00  0.00    -0.526 OA
ATOM      8  H5  UNL d   1      -3.984  -2.010  -5.506  0.00  0.00     0.418 HD
ENDBRANCH   4   7
TORSDOF 1
ENDMDL
