MODEL 1
REMARK minimizedAffinity 12.7408895
REMARK minimizedRMSD -1
REMARK  1 active torsions:
REMARK  status: ('A' for Active; 'I' for Inactive)
REMARK    1  A    between atoms: C3_4  and  O_7 
ROOT
ATOM      1  C   UNL d   1      -1.107   4.092   0.850  0.00  0.00    -0.033 A 
ATOM      2  C1  UNL d   1      -0.046   4.758   1.465  0.00  0.00     0.039 A 
ATOM      3  C2  UNL d   1       0.460   4.296   2.682  0.00  0.00    -0.080 A 
ATOM      4  C3  UNL d   1      -0.104   3.167   3.272  0.00  0.00     0.150 A 
ATOM      5  C4  UNL d   1      -1.159   2.497   2.662  0.00  0.00    -0.007 A 
ATOM      6  C5  UNL d   1      -1.663   2.960   1.448  0.00  0.00     0.039 A 
ENDROOT
BRANCH   4   7
ATOM      7  O   UNL d   1       0.352   2.682   4.461  0.00  0.00    -0.526 OA
ATOM      8  H5  UNL d   1       1.064   3.263   4.778  0.00  0.00     0.418 HD
ENDBRANCH   4   7
TORSDOF 1
ENDMDL
