MODEL 1
REMARK minimizedAffinity 4.01022816
REMARK minimizedRMSD -1
REMARK  1 active torsions:
REMARK  status: ('A' for Active; 'I' for Inactive)
REMARK    1  A    between atoms: C3_4  and  O_7 
ROOT
ATOM      1  C   UNL d   1       2.936   0.869   0.642  0.00  0.00    -0.033 A 
ATOM      2  C1  UNL d   1       3.944   1.725   1.092  0.00  0.00     0.039 A 
ATOM      3  C2  UNL d   1       4.846   2.283   0.184  0.00  0.00    -0.080 A 
ATOM      4  C3  UNL d   1       4.729   1.979  -1.169  0.00  0.00     0.150 A 
ATOM      5  C4  UNL d   1       3.726   1.130  -1.625  0.00  0.00    -0.007 A 
ATOM      6  C5  UNL d   1       2.826   0.573  -0.717  0.00  0.00     0.039 A 
ENDROOT
BRANCH   4   7
ATOM      7  O   UNL d   1       5.589   2.495  -2.092  0.00  0.00    -0.526 OA
ATOM      8  H5  UNL d   1       6.247   3.040  -1.629  0.00  0.00     0.418 HD
ENDBRANCH   4   7
TORSDOF 1
ENDMDL
