MODEL 1
REMARK minimizedAffinity 18.0130939
REMARK minimizedRMSD -1
REMARK  1 active torsions:
REMARK  status: ('A' for Active; 'I' for Inactive)
REMARK    1  A    between atoms: C3_4  and  O_7 
ROOT
ATOM      1  C   UNL d   1      -1.170  -1.904  -0.709  0.00  0.00    -0.033 A 
ATOM      2  C1  UNL d   1      -1.011  -3.209  -0.239  0.00  0.00     0.039 A 
ATOM      3  C2  UNL d   1      -1.009  -4.280  -1.134  0.00  0.00    -0.080 A 
ATOM      4  C3  UNL d   1      -1.166  -4.033  -2.495  0.00  0.00     0.150 A 
ATOM      5  C4  UNL d   1      -1.321  -2.735  -2.971  0.00  0.00    -0.007 A 
ATOM      6  C5  UNL d   1      -1.324  -1.667  -2.075  0.00  0.00     0.039 A 
ENDROOT
BRANCH   4   7
ATOM      7  O   UNL d   1      -1.176  -5.047  -3.407  0.00  0.00    -0.526 OA
ATOM      8  H5  UNL d   1      -1.087  -5.889  -2.931  0.00  0.00     0.418 HD
ENDBRANCH   4   7
TORSDOF 1
ENDMDL
