MODEL 1
REMARK minimizedAffinity 4.12108612
REMARK minimizedRMSD -1
REMARK  1 active torsions:
REMARK  status: ('A' for Active; 'I' for Inactive)
REMARK    1  A    between atoms: C3_4  and  O_7 
ROOT
ATOM      1  C   UNL d   1       2.257   0.008   1.536  0.00  0.00    -0.033 A 
ATOM      2  C1  UNL d   1       3.432   0.762   1.527  0.00  0.00     0.039 A 
ATOM      3  C2  UNL d   1       4.015   1.135   0.314  0.00  0.00    -0.080 A 
ATOM      4  C3  UNL d   1       3.413   0.749  -0.881  0.00  0.00     0.150 A 
ATOM      5  C4  UNL d   1       2.240   0.001  -0.879  0.00  0.00    -0.007 A 
ATOM      6  C5  UNL d   1       1.661  -0.371   0.334  0.00  0.00     0.039 A 
ENDROOT
BRANCH   4   7
ATOM      7  O   UNL d   1       3.947   1.086  -2.089  0.00  0.00    -0.526 OA
ATOM      8  H5  UNL d   1       4.771   1.577  -1.935  0.00  0.00     0.418 HD
ENDBRANCH   4   7
TORSDOF 1
ENDMDL
