MODEL 1
REMARK minimizedAffinity 11.5477762
REMARK minimizedRMSD -1
REMARK  1 active torsions:
REMARK  status: ('A' for Active; 'I' for Inactive)
REMARK    1  A    between atoms: C3_4  and  O_7 
ROOT
ATOM      1  C   UNL d   1       3.109   1.115   0.561  0.00  0.00    -0.033 A 
ATOM      2  C1  UNL d   1       3.004   1.059  -0.830  0.00  0.00     0.039 A 
ATOM      3  C2  UNL d   1       3.954   1.697  -1.630  0.00  0.00    -0.080 A 
ATOM      4  C3  UNL d   1       5.004   2.385  -1.027  0.00  0.00     0.150 A 
ATOM      5  C4  UNL d   1       5.117   2.441   0.358  0.00  0.00    -0.007 A 
ATOM      6  C5  UNL d   1       4.166   1.805   1.155  0.00  0.00     0.039 A 
ENDROOT
BRANCH   4   7
ATOM      7  O   UNL d   1       5.953   3.027  -1.766  0.00  0.00    -0.526 OA
ATOM      8  H5  UNL d   1       5.730   2.926  -2.707  0.00  0.00     0.418 HD
ENDBRANCH   4   7
TORSDOF 1
ENDMDL
