MODEL 1
REMARK minimizedAffinity 10.1243811
REMARK minimizedRMSD -1
REMARK  1 active torsions:
REMARK  status: ('A' for Active; 'I' for Inactive)
REMARK    1  A    between atoms: C3_4  and  O_7 
ROOT
ATOM      1  C   UNL d   1       1.745   2.297   3.859  0.00  0.00    -0.033 A 
ATOM      2  C1  UNL d   1       0.453   2.667   4.234  0.00  0.00     0.039 A 
ATOM      3  C2  UNL d   1      -0.264   3.586   3.465  0.00  0.00    -0.080 A 
ATOM      4  C3  UNL d   1       0.322   4.125   2.323  0.00  0.00     0.150 A 
ATOM      5  C4  UNL d   1       1.608   3.759   1.941  0.00  0.00    -0.007 A 
ATOM      6  C5  UNL d   1       2.323   2.842   2.711  0.00  0.00     0.039 A 
ENDROOT
BRANCH   4   7
ATOM      7  O   UNL d   1      -0.336   5.029   1.543  0.00  0.00    -0.526 OA
ATOM      8  H5  UNL d   1      -1.203   5.209   1.945  0.00  0.00     0.418 HD
ENDBRANCH   4   7
TORSDOF 1
ENDMDL
