MODEL 1
REMARK minimizedAffinity 6.05205345
REMARK minimizedRMSD -1
REMARK  1 active torsions:
REMARK  status: ('A' for Active; 'I' for Inactive)
REMARK    1  A    between atoms: C3_4  and  O_7 
ROOT
ATOM      1  C   UNL d   1       3.114   0.751   0.611  0.00  0.00    -0.033 A 
ATOM      2  C1  UNL d   1       4.110   1.537   1.194  0.00  0.00     0.039 A 
ATOM      3  C2  UNL d   1       5.084   2.139   0.395  0.00  0.00    -0.080 A 
ATOM      4  C3  UNL d   1       5.049   1.949  -0.984  0.00  0.00     0.150 A 
ATOM      5  C4  UNL d   1       4.058   1.171  -1.571  0.00  0.00    -0.007 A 
ATOM      6  C5  UNL d   1       3.087   0.569  -0.772  0.00  0.00     0.039 A 
ENDROOT
BRANCH   4   7
ATOM      7  O   UNL d   1       5.981   2.513  -1.804  0.00  0.00    -0.526 OA
ATOM      8  H5  UNL d   1       6.620   2.999  -1.256  0.00  0.00     0.418 HD
ENDBRANCH   4   7
TORSDOF 1
ENDMDL
