MODEL 1
REMARK minimizedAffinity 10.558671
REMARK minimizedRMSD -1
REMARK  1 active torsions:
REMARK  status: ('A' for Active; 'I' for Inactive)
REMARK    1  A    between atoms: C1_2  and  C2_3 
ROOT
ATOM      1  C2  UNL d   1       1.089  -3.272   0.362  0.00  0.00    -0.076 A 
ATOM      2  C3  UNL d   1       0.888  -3.321   1.753  0.00  0.00     0.004 A 
ATOM      3  C4  UNL d   1       0.967  -2.167   2.530  0.00  0.00    -0.003 A 
ATOM      4  C5  UNL d   1       1.249  -0.945   1.930  0.00  0.00     0.000 A 
ATOM      5  C6  UNL d   1       1.434  -0.875   0.550  0.00  0.00     0.000 A 
ATOM      6  C7  UNL d   1       1.341  -2.026  -0.251  0.00  0.00    -0.073 A 
ATOM      7  C8  UNL d   1       1.556  -1.893  -1.734  0.00  0.00     0.078 C 
ENDROOT
BRANCH   1   8
ATOM      8  C1  UNL d   1       1.018  -4.560  -0.426  0.00  0.00     0.053 C 
ATOM      9  C   UNL d   1       1.380  -5.777   0.412  0.00  0.00     0.018 C 
ENDBRANCH   1   8
TORSDOF 1
ENDMDL
