MODEL 1
REMARK minimizedAffinity 11.2422304
REMARK minimizedRMSD -1
REMARK  1 active torsions:
REMARK  status: ('A' for Active; 'I' for Inactive)
REMARK    1  A    between atoms: C1_2  and  C2_3 
ROOT
ATOM      1  C2  UNL d   1      -3.027   1.137  -1.825  0.00  0.00    -0.076 A 
ATOM      2  C3  UNL d   1      -2.272   1.071  -0.641  0.00  0.00     0.004 A 
ATOM      3  C4  UNL d   1      -2.440   2.014   0.371  0.00  0.00    -0.003 A 
ATOM      4  C5  UNL d   1      -3.367   3.039   0.216  0.00  0.00     0.000 A 
ATOM      5  C6  UNL d   1      -4.137   3.110  -0.944  0.00  0.00     0.000 A 
ATOM      6  C7  UNL d   1      -3.991   2.158  -1.968  0.00  0.00    -0.073 A 
ATOM      7  C8  UNL d   1      -4.844   2.286  -3.200  0.00  0.00     0.078 C 
ENDROOT
BRANCH   1   8
ATOM      8  C1  UNL d   1      -2.782   0.102  -2.900  0.00  0.00     0.053 C 
ATOM      9  C   UNL d   1      -4.000  -0.772  -3.155  0.00  0.00     0.018 C 
ENDBRANCH   1   8
TORSDOF 1
ENDMDL
