MODEL 1
REMARK minimizedAffinity 7.20173931
REMARK minimizedRMSD -1
REMARK  1 active torsions:
REMARK  status: ('A' for Active; 'I' for Inactive)
REMARK    1  A    between atoms: C1_2  and  C2_3 
ROOT
ATOM      1  C2  UNL d   1       2.300  -2.813   3.381  0.00  0.00    -0.076 A 
ATOM      2  C3  UNL d   1       2.223  -3.859   2.446  0.00  0.00     0.004 A 
ATOM      3  C4  UNL d   1       2.382  -5.187   2.840  0.00  0.00    -0.003 A 
ATOM      4  C5  UNL d   1       2.620  -5.489   4.176  0.00  0.00     0.000 A 
ATOM      5  C6  UNL d   1       2.681  -4.465   5.120  0.00  0.00     0.000 A 
ATOM      6  C7  UNL d   1       2.507  -3.123   4.742  0.00  0.00    -0.073 A 
ATOM      7  C8  UNL d   1       2.589  -2.058   5.801  0.00  0.00     0.078 C 
ENDROOT
BRANCH   1   8
ATOM      8  C1  UNL d   1       2.146  -1.390   2.891  0.00  0.00     0.053 C 
ATOM      9  C   UNL d   1       1.164  -1.275   1.736  0.00  0.00     0.018 C 
ENDBRANCH   1   8
TORSDOF 1
ENDMDL
