MODEL 1
REMARK minimizedAffinity 5.69205284
REMARK minimizedRMSD -1
REMARK  1 active torsions:
REMARK  status: ('A' for Active; 'I' for Inactive)
REMARK    1  A    between atoms: C1_2  and  C2_3 
ROOT
ATOM      1  C2  UNL d   1       4.092  -3.187   3.368  0.00  0.00    -0.076 A 
ATOM      2  C3  UNL d   1       3.127  -3.152   2.346  0.00  0.00     0.004 A 
ATOM      3  C4  UNL d   1       1.777  -2.967   2.640  0.00  0.00    -0.003 A 
ATOM      4  C5  UNL d   1       1.370  -2.812   3.961  0.00  0.00     0.000 A 
ATOM      5  C6  UNL d   1       2.316  -2.825   4.985  0.00  0.00     0.000 A 
ATOM      6  C7  UNL d   1       3.682  -2.995   4.705  0.00  0.00    -0.073 A 
ATOM      7  C8  UNL d   1       4.658  -3.008   5.850  0.00  0.00     0.078 C 
ENDROOT
BRANCH   1   8
ATOM      8  C1  UNL d   1       5.537  -3.419   2.991  0.00  0.00     0.053 C 
ATOM      9  C   UNL d   1       5.996  -2.515   1.857  0.00  0.00     0.018 C 
ENDBRANCH   1   8
TORSDOF 1
ENDMDL
