MODEL 1
REMARK minimizedAffinity 10.7041683
REMARK minimizedRMSD -1
REMARK  1 active torsions:
REMARK  status: ('A' for Active; 'I' for Inactive)
REMARK    1  A    between atoms: C1_2  and  C2_3 
ROOT
ATOM      1  C2  UNL d   1       0.921  -0.477   2.817  0.00  0.00    -0.076 A 
ATOM      2  C3  UNL d   1       0.691  -0.683   4.188  0.00  0.00     0.004 A 
ATOM      3  C4  UNL d   1       0.857  -1.942   4.762  0.00  0.00    -0.003 A 
ATOM      4  C5  UNL d   1       1.258  -3.015   3.975  0.00  0.00     0.000 A 
ATOM      5  C6  UNL d   1       1.508  -2.825   2.616  0.00  0.00     0.000 A 
ATOM      6  C7  UNL d   1       1.361  -1.559   2.025  0.00  0.00    -0.073 A 
ATOM      7  C8  UNL d   1       1.638  -1.413   0.554  0.00  0.00     0.078 C 
ENDROOT
BRANCH   1   8
ATOM      8  C1  UNL d   1       0.698   0.905   2.244  0.00  0.00     0.053 C 
ATOM      9  C   UNL d   1       1.322   1.997   3.098  0.00  0.00     0.018 C 
ENDBRANCH   1   8
TORSDOF 1
ENDMDL
