MODEL 1
REMARK minimizedAffinity 5.64568996
REMARK minimizedRMSD -1
REMARK  1 active torsions:
REMARK  status: ('A' for Active; 'I' for Inactive)
REMARK    1  A    between atoms: C1_2  and  C2_3 
ROOT
ATOM      1  C2  UNL d   1       3.268  -2.975   3.153  0.00  0.00    -0.076 A 
ATOM      2  C3  UNL d   1       3.836  -4.154   2.639  0.00  0.00     0.004 A 
ATOM      3  C4  UNL d   1       3.145  -4.942   1.719  0.00  0.00    -0.003 A 
ATOM      4  C5  UNL d   1       1.876  -4.563   1.298  0.00  0.00     0.000 A 
ATOM      5  C6  UNL d   1       1.304  -3.387   1.784  0.00  0.00     0.000 A 
ATOM      6  C7  UNL d   1       1.994  -2.573   2.699  0.00  0.00    -0.073 A 
ATOM      7  C8  UNL d   1       1.327  -1.320   3.195  0.00  0.00     0.078 C 
ENDROOT
BRANCH   1   8
ATOM      8  C1  UNL d   1       4.053  -2.176   4.168  0.00  0.00     0.053 C 
ATOM      9  C   UNL d   1       5.535  -2.521   4.162  0.00  0.00     0.018 C 
ENDBRANCH   1   8
TORSDOF 1
ENDMDL
