MODEL 1
REMARK minimizedAffinity 3.80866766
REMARK minimizedRMSD -1
REMARK  1 active torsions:
REMARK  status: ('A' for Active; 'I' for Inactive)
REMARK    1  A    between atoms: C1_2  and  C2_3 
ROOT
ATOM      1  C2  UNL d   1       3.794  -1.916   3.305  0.00  0.00    -0.076 A 
ATOM      2  C3  UNL d   1       3.029  -1.520   2.195  0.00  0.00     0.004 A 
ATOM      3  C4  UNL d   1       1.670  -1.239   2.323  0.00  0.00    -0.003 A 
ATOM      4  C5  UNL d   1       1.054  -1.350   3.565  0.00  0.00     0.000 A 
ATOM      5  C6  UNL d   1       1.801  -1.724   4.681  0.00  0.00     0.000 A 
ATOM      6  C7  UNL d   1       3.176  -1.994   4.572  0.00  0.00    -0.073 A 
ATOM      7  C8  UNL d   1       3.932  -2.400   5.807  0.00  0.00     0.078 C 
ENDROOT
BRANCH   1   8
ATOM      8  C1  UNL d   1       5.258  -2.233   3.100  0.00  0.00     0.053 C 
ATOM      9  C   UNL d   1       5.765  -1.793   1.736  0.00  0.00     0.018 C 
ENDBRANCH   1   8
TORSDOF 1
ENDMDL
