MODEL 1
REMARK minimizedAffinity 13.0758896
REMARK minimizedRMSD -1
REMARK  1 active torsions:
REMARK  status: ('A' for Active; 'I' for Inactive)
REMARK    1  A    between atoms: C1_2  and  C2_3 
ROOT
ATOM      1  C2  UNL d   1       2.909  -5.790  -3.612  0.00  0.00    -0.076 A 
ATOM      2  C3  UNL d   1       2.477  -5.961  -4.938  0.00  0.00     0.004 A 
ATOM      3  C4  UNL d   1       3.389  -5.993  -5.992  0.00  0.00    -0.003 A 
ATOM      4  C5  UNL d   1       4.749  -5.855  -5.735  0.00  0.00     0.000 A 
ATOM      5  C6  UNL d   1       5.197  -5.703  -4.423  0.00  0.00     0.000 A 
ATOM      6  C7  UNL d   1       4.292  -5.685  -3.349  0.00  0.00    -0.073 A 
ATOM      7  C8  UNL d   1       4.829  -5.511  -1.955  0.00  0.00     0.078 C 
ENDROOT
BRANCH   1   8
ATOM      8  C1  UNL d   1       1.871  -5.736  -2.513  0.00  0.00     0.053 C 
ATOM      9  C   UNL d   1       2.159  -4.645  -1.494  0.00  0.00     0.018 C 
ENDBRANCH   1   8
TORSDOF 1
ENDMDL
