MODEL 1
REMARK minimizedAffinity -1.66444862
REMARK minimizedRMSD -1
REMARK  1 active torsions:
REMARK  status: ('A' for Active; 'I' for Inactive)
REMARK    1  A    between atoms: C1_2  and  C2_3 
ROOT
ATOM      1  C2  UNL d   1       1.991  -3.741   4.129  0.00  0.00    -0.076 A 
ATOM      2  C3  UNL d   1       0.651  -3.467   3.804  0.00  0.00     0.004 A 
ATOM      3  C4  UNL d   1       0.325  -2.460   2.897  0.00  0.00    -0.003 A 
ATOM      4  C5  UNL d   1       1.333  -1.712   2.299  0.00  0.00     0.000 A 
ATOM      5  C6  UNL d   1       2.669  -1.983   2.597  0.00  0.00     0.000 A 
ATOM      6  C7  UNL d   1       3.015  -3.005   3.497  0.00  0.00    -0.073 A 
ATOM      7  C8  UNL d   1       4.471  -3.250   3.786  0.00  0.00     0.078 C 
ENDROOT
BRANCH   1   8
ATOM      8  C1  UNL d   1       2.282  -4.827   5.140  0.00  0.00     0.053 C 
ATOM      9  C   UNL d   1       1.077  -5.717   5.404  0.00  0.00     0.018 C 
ENDBRANCH   1   8
TORSDOF 1
ENDMDL
