MODEL 1
REMARK minimizedAffinity -1.23116553
REMARK minimizedRMSD -1
REMARK  1 active torsions:
REMARK  status: ('A' for Active; 'I' for Inactive)
REMARK    1  A    between atoms: C1_2  and  C2_3 
ROOT
ATOM      1  C2  UNL d   1      -4.967  -4.675  -3.222  0.00  0.00    -0.076 A 
ATOM      2  C3  UNL d   1      -5.319  -5.898  -3.818  0.00  0.00     0.004 A 
ATOM      3  C4  UNL d   1      -5.522  -5.994  -5.193  0.00  0.00    -0.003 A 
ATOM      4  C5  UNL d   1      -5.375  -4.868  -5.996  0.00  0.00     0.000 A 
ATOM      5  C6  UNL d   1      -5.008  -3.650  -5.424  0.00  0.00     0.000 A 
ATOM      6  C7  UNL d   1      -4.784  -3.540  -4.041  0.00  0.00    -0.073 A 
ATOM      7  C8  UNL d   1      -4.396  -2.201  -3.477  0.00  0.00     0.078 C 
ENDROOT
BRANCH   1   8
ATOM      8  C1  UNL d   1      -4.786  -4.626  -1.721  0.00  0.00     0.053 C 
ATOM      9  C   UNL d   1      -4.524  -5.998  -1.121  0.00  0.00     0.018 C 
ENDBRANCH   1   8
TORSDOF 1
ENDMDL
