MODEL 1
REMARK minimizedAffinity 4.98287725
REMARK minimizedRMSD -1
REMARK  1 active torsions:
REMARK  status: ('A' for Active; 'I' for Inactive)
REMARK    1  A    between atoms: C1_2  and  C2_3 
ROOT
ATOM      1  C2  UNL d   1       3.547  -2.697   3.201  0.00  0.00    -0.076 A 
ATOM      2  C3  UNL d   1       3.197  -1.849   2.136  0.00  0.00     0.004 A 
ATOM      3  C4  UNL d   1       1.866  -1.508   1.899  0.00  0.00    -0.003 A 
ATOM      4  C5  UNL d   1       0.864  -2.010   2.722  0.00  0.00     0.000 A 
ATOM      5  C6  UNL d   1       1.196  -2.838   3.794  0.00  0.00     0.000 A 
ATOM      6  C7  UNL d   1       2.534  -3.178   4.057  0.00  0.00    -0.073 A 
ATOM      7  C8  UNL d   1       2.833  -4.080   5.223  0.00  0.00     0.078 C 
ENDROOT
BRANCH   1   8
ATOM      8  C1  UNL d   1       5.004  -3.053   3.394  0.00  0.00     0.053 C 
ATOM      9  C   UNL d   1       5.821  -2.871   2.124  0.00  0.00     0.018 C 
ENDBRANCH   1   8
TORSDOF 1
ENDMDL
