MODEL 1
REMARK minimizedAffinity -1.48345053
REMARK minimizedRMSD -1
REMARK  1 active torsions:
REMARK  status: ('A' for Active; 'I' for Inactive)
REMARK    1  A    between atoms: C1_2  and  C2_3 
ROOT
ATOM      1  C2  UNL d   1      -3.703   0.265  -0.096  0.00  0.00    -0.081 A 
ATOM      2  C3  UNL d   1      -2.704  -0.701  -0.267  0.00  0.00     0.006 A 
ATOM      3  C4  UNL d   1      -1.691  -0.847   0.683  0.00  0.00     0.002 A 
ATOM      4  C5  UNL d   1      -1.664  -0.037   1.823  0.00  0.00    -0.080 A 
ATOM      5  C6  UNL d   1      -0.599  -0.205   2.866  0.00  0.00     0.076 C 
ATOM      6  C7  UNL d   1      -2.653   0.939   1.986  0.00  0.00     0.002 A 
ATOM      7  C8  UNL d   1      -3.666   1.087   1.035  0.00  0.00     0.006 A 
ENDROOT
BRANCH   1   8
ATOM      8  C1  UNL d   1      -4.834   0.382  -1.087  0.00  0.00     0.054 C 
ATOM      9  C   UNL d   1      -5.977   1.216  -0.526  0.00  0.00     0.018 C 
ENDBRANCH   1   8
TORSDOF 1
ENDMDL
