MODEL 1
REMARK minimizedAffinity 3.30915761
REMARK minimizedRMSD -1
REMARK  1 active torsions:
REMARK  status: ('A' for Active; 'I' for Inactive)
REMARK    1  A    between atoms: C1_2  and  C2_3 
ROOT
ATOM      1  C2  UNL d   1      -0.430  -0.796  -4.747  0.00  0.00    -0.081 A 
ATOM      2  C3  UNL d   1      -0.233  -2.179  -4.835  0.00  0.00     0.006 A 
ATOM      3  C4  UNL d   1      -0.259  -2.973  -3.686  0.00  0.00     0.002 A 
ATOM      4  C5  UNL d   1      -0.491  -2.398  -2.432  0.00  0.00    -0.080 A 
ATOM      5  C6  UNL d   1      -0.552  -3.243  -1.194  0.00  0.00     0.076 C 
ATOM      6  C7  UNL d   1      -0.671  -1.014  -2.342  0.00  0.00     0.002 A 
ATOM      7  C8  UNL d   1      -0.644  -0.220  -3.490  0.00  0.00     0.006 A 
ENDROOT
BRANCH   1   8
ATOM      8  C1  UNL d   1      -0.466   0.054  -5.992  0.00  0.00     0.054 C 
ATOM      9  C   UNL d   1      -1.671   0.984  -5.992  0.00  0.00     0.018 C 
ENDBRANCH   1   8
TORSDOF 1
ENDMDL
