MODEL 1
REMARK minimizedAffinity -2.57808018
REMARK minimizedRMSD -1
REMARK  1 active torsions:
REMARK  status: ('A' for Active; 'I' for Inactive)
REMARK    1  A    between atoms: C1_2  and  C2_3 
ROOT
ATOM      1  C2  UNL d   1       1.651  -2.957  -1.819  0.00  0.00    -0.081 A 
ATOM      2  C3  UNL d   1       2.052  -2.853  -3.157  0.00  0.00     0.006 A 
ATOM      3  C4  UNL d   1       1.124  -2.533  -4.151  0.00  0.00     0.002 A 
ATOM      4  C5  UNL d   1      -0.216  -2.303  -3.824  0.00  0.00    -0.080 A 
ATOM      5  C6  UNL d   1      -1.216  -1.929  -4.878  0.00  0.00     0.076 C 
ATOM      6  C7  UNL d   1      -0.620  -2.424  -2.490  0.00  0.00     0.002 A 
ATOM      7  C8  UNL d   1       0.306  -2.745  -1.496  0.00  0.00     0.006 A 
ENDROOT
BRANCH   1   8
ATOM      8  C1  UNL d   1       2.661  -3.238  -0.736  0.00  0.00     0.054 C 
ATOM      9  C   UNL d   1       4.011  -2.617  -1.064  0.00  0.00     0.018 C 
ENDBRANCH   1   8
TORSDOF 1
ENDMDL
