MODEL 1
REMARK minimizedAffinity 6.26271963
REMARK minimizedRMSD -1
REMARK  1 active torsions:
REMARK  status: ('A' for Active; 'I' for Inactive)
REMARK    1  A    between atoms: C1_2  and  C2_3 
ROOT
ATOM      1  C2  UNL d   1      -1.767  -0.157  -4.949  0.00  0.00    -0.081 A 
ATOM      2  C3  UNL d   1      -0.928  -0.972  -5.719  0.00  0.00     0.006 A 
ATOM      3  C4  UNL d   1      -0.005  -1.821  -5.103  0.00  0.00     0.002 A 
ATOM      4  C5  UNL d   1       0.090  -1.874  -3.709  0.00  0.00    -0.080 A 
ATOM      5  C6  UNL d   1       1.056  -2.802  -3.035  0.00  0.00     0.076 C 
ATOM      6  C7  UNL d   1      -0.735  -1.047  -2.940  0.00  0.00     0.002 A 
ATOM      7  C8  UNL d   1      -1.658  -0.198  -3.554  0.00  0.00     0.006 A 
ENDROOT
BRANCH   1   8
ATOM      8  C1  UNL d   1      -2.808   0.711  -5.608  0.00  0.00     0.054 C 
ATOM      9  C   UNL d   1      -4.172   0.036  -5.607  0.00  0.00     0.018 C 
ENDBRANCH   1   8
TORSDOF 1
ENDMDL
