MODEL 1
REMARK minimizedAffinity -1.96763933
REMARK minimizedRMSD -1
REMARK  1 active torsions:
REMARK  status: ('A' for Active; 'I' for Inactive)
REMARK    1  A    between atoms: C1_2  and  C2_3 
ROOT
ATOM      1  C2  UNL d   1      -1.127  -0.166  -4.763  0.00  0.00    -0.081 A 
ATOM      2  C3  UNL d   1      -0.295  -1.201  -5.209  0.00  0.00     0.006 A 
ATOM      3  C4  UNL d   1       0.399  -1.995  -4.293  0.00  0.00     0.002 A 
ATOM      4  C5  UNL d   1       0.267  -1.774  -2.918  0.00  0.00    -0.080 A 
ATOM      5  C6  UNL d   1       0.983  -2.639  -1.924  0.00  0.00     0.076 C 
ATOM      6  C7  UNL d   1      -0.550  -0.729  -2.474  0.00  0.00     0.002 A 
ATOM      7  C8  UNL d   1      -1.243   0.067  -3.389  0.00  0.00     0.006 A 
ENDROOT
BRANCH   1   8
ATOM      8  C1  UNL d   1      -1.927   0.651  -5.746  0.00  0.00     0.054 C 
ATOM      9  C   UNL d   1      -3.402   0.281  -5.701  0.00  0.00     0.018 C 
ENDBRANCH   1   8
TORSDOF 1
ENDMDL
