MODEL 1
REMARK minimizedAffinity -0.77966398
REMARK minimizedRMSD -1
REMARK  0 active torsions:
REMARK  status: ('A' for Active; 'I' for Inactive)
ROOT
ATOM      1  C   UNL d   1      -0.159   0.018  -4.244  0.00  0.00     0.124 A 
ATOM      2  C1  UNL d   1       1.015   0.696  -3.946  0.00  0.00     0.062 A 
ATOM      3  C2  UNL d   1       1.548   0.640  -2.662  0.00  0.00     0.162 A 
ATOM      4  C3  UNL d   1       0.909  -0.098  -1.665  0.00  0.00    -0.034 A 
ATOM      5  C4  UNL d   1      -0.272  -0.776  -1.973  0.00  0.00     0.162 A 
ATOM      6  C5  UNL d   1      -0.801  -0.717  -3.258  0.00  0.00     0.062 A 
ATOM      7  F   UNL d   1      -1.935  -1.373  -3.544  0.00  0.00    -0.097 F 
ATOM      8  F1  UNL d   1      -0.912  -1.495  -1.039  0.00  0.00    -0.096 F 
ATOM      9  I   UNL d   1       1.703  -0.184   0.256  0.00  0.00    -0.060 I 
ATOM     10  F2  UNL d   1       2.684   1.305  -2.402  0.00  0.00    -0.096 F 
ATOM     11  F3  UNL d   1       1.636   1.408  -4.897  0.00  0.00    -0.097 F 
ATOM     12  F4  UNL d   1      -0.671   0.074  -5.480  0.00  0.00    -0.092 F 
ENDROOT
TORSDOF 0
ENDMDL
