MODEL 1
REMARK minimizedAffinity -1.62128949
REMARK minimizedRMSD -1
REMARK  0 active torsions:
REMARK  status: ('A' for Active; 'I' for Inactive)
ROOT
ATOM      1  C   UNL d   1      -0.703   0.274   1.936  0.00  0.00     0.124 A 
ATOM      2  C1  UNL d   1       0.484  -0.150   1.354  0.00  0.00     0.062 A 
ATOM      3  C2  UNL d   1       0.610  -0.190  -0.032  0.00  0.00     0.162 A 
ATOM      4  C3  UNL d   1      -0.455   0.196  -0.846  0.00  0.00    -0.034 A 
ATOM      5  C4  UNL d   1      -1.646   0.619  -0.254  0.00  0.00     0.162 A 
ATOM      6  C5  UNL d   1      -1.766   0.657   1.131  0.00  0.00     0.062 A 
ATOM      7  F   UNL d   1      -2.914   1.067   1.691  0.00  0.00    -0.097 F 
ATOM      8  F1  UNL d   1      -2.690   0.996  -1.007  0.00  0.00    -0.096 F 
ATOM      9  I   UNL d   1      -0.272   0.137  -2.918  0.00  0.00    -0.060 I 
ATOM     10  F2  UNL d   1       1.769  -0.603  -0.566  0.00  0.00    -0.096 F 
ATOM     11  F3  UNL d   1       1.514  -0.522   2.129  0.00  0.00    -0.097 F 
ATOM     12  F4  UNL d   1      -0.821   0.310   3.269  0.00  0.00    -0.092 F 
ENDROOT
TORSDOF 0
ENDMDL
