MODEL 1
REMARK minimizedAffinity -2.5598166
REMARK minimizedRMSD -1
REMARK  0 active torsions:
REMARK  status: ('A' for Active; 'I' for Inactive)
ROOT
ATOM      1  C   UNL d   1       0.432   1.218   2.662  0.00  0.00     0.124 A 
ATOM      2  C1  UNL d   1       1.471   0.455   2.148  0.00  0.00     0.062 A 
ATOM      3  C2  UNL d   1       1.310  -0.229   0.947  0.00  0.00     0.162 A 
ATOM      4  C3  UNL d   1       0.104  -0.154   0.251  0.00  0.00    -0.034 A 
ATOM      5  C4  UNL d   1      -0.937   0.614   0.774  0.00  0.00     0.162 A 
ATOM      6  C5  UNL d   1      -0.771   1.296   1.975  0.00  0.00     0.062 A 
ATOM      7  F   UNL d   1      -1.777   2.032   2.470  0.00  0.00    -0.097 F 
ATOM      8  F1  UNL d   1      -2.110   0.708   0.130  0.00  0.00    -0.096 F 
ATOM      9  I   UNL d   1      -0.140  -1.176  -1.546  0.00  0.00    -0.060 I 
ATOM     10  F2  UNL d   1       2.332  -0.958   0.474  0.00  0.00    -0.096 F 
ATOM     11  F3  UNL d   1       2.635   0.377   2.811  0.00  0.00    -0.097 F 
ATOM     12  F4  UNL d   1       0.589   1.874   3.819  0.00  0.00    -0.092 F 
ENDROOT
TORSDOF 0
ENDMDL
