MODEL 1
REMARK minimizedAffinity -1.06691229
REMARK minimizedRMSD -1
REMARK  0 active torsions:
REMARK  status: ('A' for Active; 'I' for Inactive)
ROOT
ATOM      1  C   UNL d   1      -1.001   0.819   3.038  0.00  0.00     0.124 A 
ATOM      2  C1  UNL d   1      -1.940   0.146   2.269  0.00  0.00     0.062 A 
ATOM      3  C2  UNL d   1      -1.592  -0.353   1.018  0.00  0.00     0.162 A 
ATOM      4  C3  UNL d   1      -0.297  -0.183   0.527  0.00  0.00    -0.034 A 
ATOM      5  C4  UNL d   1       0.641   0.496   1.306  0.00  0.00     0.162 A 
ATOM      6  C5  UNL d   1       0.288   0.994   2.556  0.00  0.00     0.062 A 
ATOM      7  F   UNL d   1       1.197   1.644   3.298  0.00  0.00    -0.097 F 
ATOM      8  F1  UNL d   1       1.895   0.678   0.865  0.00  0.00    -0.096 F 
ATOM      9  I   UNL d   1       0.228  -0.928  -1.343  0.00  0.00    -0.060 I 
ATOM     10  F2  UNL d   1      -2.520  -1.000   0.296  0.00  0.00    -0.096 F 
ATOM     11  F3  UNL d   1      -3.187  -0.023   2.732  0.00  0.00    -0.097 F 
ATOM     12  F4  UNL d   1      -1.340   1.300   4.242  0.00  0.00    -0.092 F 
ENDROOT
TORSDOF 0
ENDMDL
