MODEL 1
REMARK minimizedAffinity -0.525899231
REMARK minimizedRMSD -1
REMARK  0 active torsions:
REMARK  status: ('A' for Active; 'I' for Inactive)
ROOT
ATOM      1  C   UNL d   1      -0.675   1.325   3.092  0.00  0.00     0.124 A 
ATOM      2  C1  UNL d   1       0.634   1.110   2.686  0.00  0.00     0.062 A 
ATOM      3  C2  UNL d   1       0.896   0.527   1.449  0.00  0.00     0.162 A 
ATOM      4  C3  UNL d   1      -0.154   0.156   0.609  0.00  0.00    -0.034 A 
ATOM      5  C4  UNL d   1      -1.468   0.375   1.026  0.00  0.00     0.162 A 
ATOM      6  C5  UNL d   1      -1.725   0.958   2.262  0.00  0.00     0.062 A 
ATOM      7  F   UNL d   1      -2.990   1.166   2.654  0.00  0.00    -0.097 F 
ATOM      8  F1  UNL d   1      -2.502   0.031   0.243  0.00  0.00    -0.096 F 
ATOM      9  I   UNL d   1       0.233  -0.716  -1.240  0.00  0.00    -0.060 I 
ATOM     10  F2  UNL d   1       2.171   0.330   1.082  0.00  0.00    -0.096 F 
ATOM     11  F3  UNL d   1       1.650   1.463   3.486  0.00  0.00    -0.097 F 
ATOM     12  F4  UNL d   1      -0.924   1.886   4.283  0.00  0.00    -0.092 F 
ENDROOT
TORSDOF 0
ENDMDL
