MODEL 1
REMARK minimizedAffinity -2.71951962
REMARK minimizedRMSD -1
REMARK  0 active torsions:
REMARK  status: ('A' for Active; 'I' for Inactive)
ROOT
ATOM      1  C   UNL d   1       0.104   0.644   3.328  0.00  0.00     0.124 A 
ATOM      2  C1  UNL d   1      -1.026   0.680   2.522  0.00  0.00     0.062 A 
ATOM      3  C2  UNL d   1      -0.945   0.301   1.185  0.00  0.00     0.162 A 
ATOM      4  C3  UNL d   1       0.271  -0.119   0.645  0.00  0.00    -0.034 A 
ATOM      5  C4  UNL d   1       1.403  -0.151   1.461  0.00  0.00     0.162 A 
ATOM      6  C5  UNL d   1       1.317   0.229   2.796  0.00  0.00     0.062 A 
ATOM      7  F   UNL d   1       2.410   0.195   3.573  0.00  0.00    -0.097 F 
ATOM      8  F1  UNL d   1       2.588  -0.548   0.974  0.00  0.00    -0.096 F 
ATOM      9  I   UNL d   1       0.396  -0.686  -1.353  0.00  0.00    -0.060 I 
ATOM     10  F2  UNL d   1      -2.053   0.345   0.431  0.00  0.00    -0.096 F 
ATOM     11  F3  UNL d   1      -2.199   1.081   3.033  0.00  0.00    -0.097 F 
ATOM     12  F4  UNL d   1       0.024   1.011   4.613  0.00  0.00    -0.092 F 
ENDROOT
TORSDOF 0
ENDMDL
