MODEL 1
REMARK minimizedAffinity -2.15009356
REMARK minimizedRMSD -1
REMARK  0 active torsions:
REMARK  status: ('A' for Active; 'I' for Inactive)
ROOT
ATOM      1  C   UNL d   1       0.136   0.298  -4.667  0.00  0.00     0.124 A 
ATOM      2  C1  UNL d   1      -0.503  -0.721  -3.974  0.00  0.00     0.062 A 
ATOM      3  C2  UNL d   1      -0.398  -0.798  -2.588  0.00  0.00     0.162 A 
ATOM      4  C3  UNL d   1       0.349   0.147  -1.885  0.00  0.00    -0.034 A 
ATOM      5  C4  UNL d   1       0.990   1.169  -2.589  0.00  0.00     0.162 A 
ATOM      6  C5  UNL d   1       0.881   1.241  -3.974  0.00  0.00     0.062 A 
ATOM      7  F   UNL d   1       1.499   2.227  -4.642  0.00  0.00    -0.097 F 
ATOM      8  F1  UNL d   1       1.716   2.094  -1.945  0.00  0.00    -0.096 F 
ATOM      9  I   UNL d   1       0.509   0.035   0.187  0.00  0.00    -0.060 I 
ATOM     10  F2  UNL d   1      -1.026  -1.794  -1.944  0.00  0.00    -0.096 F 
ATOM     11  F3  UNL d   1      -1.223  -1.634  -4.641  0.00  0.00    -0.097 F 
ATOM     12  F4  UNL d   1       0.034   0.369  -6.000  0.00  0.00    -0.092 F 
ENDROOT
TORSDOF 0
ENDMDL
