MODEL 1
REMARK minimizedAffinity 1.12911153
REMARK minimizedRMSD -1
REMARK  0 active torsions:
REMARK  status: ('A' for Active; 'I' for Inactive)
ROOT
ATOM      1  C   UNL d   1      -0.844   1.490   2.503  0.00  0.00     0.124 A 
ATOM      2  C1  UNL d   1      -1.931   0.759   2.045  0.00  0.00     0.062 A 
ATOM      3  C2  UNL d   1      -1.780  -0.130   0.985  0.00  0.00     0.162 A 
ATOM      4  C3  UNL d   1      -0.536  -0.295   0.376  0.00  0.00    -0.034 A 
ATOM      5  C4  UNL d   1       0.553   0.445   0.841  0.00  0.00     0.162 A 
ATOM      6  C5  UNL d   1       0.397   1.333   1.901  0.00  0.00     0.062 A 
ATOM      7  F   UNL d   1       1.448   2.038   2.342  0.00  0.00    -0.097 F 
ATOM      8  F1  UNL d   1       1.763   0.311   0.279  0.00  0.00    -0.096 F 
ATOM      9  I   UNL d   1      -0.306  -1.624  -1.209  0.00  0.00    -0.060 I 
ATOM     10  F2  UNL d   1      -2.848  -0.824   0.563  0.00  0.00    -0.096 F 
ATOM     11  F3  UNL d   1      -3.131   0.910   2.624  0.00  0.00    -0.097 F 
ATOM     12  F4  UNL d   1      -0.992   2.346   3.522  0.00  0.00    -0.092 F 
ENDROOT
TORSDOF 0
ENDMDL
