MODEL 1
REMARK minimizedAffinity 4.89145613
REMARK minimizedRMSD -1
REMARK  0 active torsions:
REMARK  status: ('A' for Active; 'I' for Inactive)
ROOT
ATOM      1  C   UNL d   1       2.293   1.288  -0.104  0.00  0.00     0.077 C 
ATOM      2  C1  UNL d   1       2.378   0.674   1.262  0.00  0.00    -0.074 A 
ATOM      3  C2  UNL d   1       2.856   1.408   2.352  0.00  0.00    -0.005 A 
ATOM      4  C3  UNL d   1       2.920   0.827   3.618  0.00  0.00     0.006 A 
ATOM      5  C4  UNL d   1       2.506  -0.492   3.807  0.00  0.00    -0.005 A 
ATOM      6  C5  UNL d   1       2.024  -1.242   2.729  0.00  0.00    -0.074 A 
ATOM      7  C6  UNL d   1       1.566  -2.657   2.917  0.00  0.00     0.077 C 
ATOM      8  C7  UNL d   1       1.956  -0.648   1.461  0.00  0.00    -0.001 A 
ENDROOT
TORSDOF 0
ENDMDL
