MODEL 1
REMARK minimizedAffinity 2.82388353
REMARK minimizedRMSD -1
REMARK  0 active torsions:
REMARK  status: ('A' for Active; 'I' for Inactive)
ROOT
ATOM      1  C   UNL d   1       2.647   1.396   0.792  0.00  0.00     0.077 C 
ATOM      2  C1  UNL d   1       2.017   0.118   1.262  0.00  0.00    -0.074 A 
ATOM      3  C2  UNL d   1       0.885  -0.401   0.627  0.00  0.00    -0.005 A 
ATOM      4  C3  UNL d   1       0.316  -1.596   1.070  0.00  0.00     0.006 A 
ATOM      5  C4  UNL d   1       0.873  -2.281   2.150  0.00  0.00    -0.005 A 
ATOM      6  C5  UNL d   1       2.007  -1.777   2.797  0.00  0.00    -0.074 A 
ATOM      7  C6  UNL d   1       2.624  -2.507   3.953  0.00  0.00     0.077 C 
ATOM      8  C7  UNL d   1       2.576  -0.580   2.341  0.00  0.00    -0.001 A 
ENDROOT
TORSDOF 0
ENDMDL
