MODEL 1
REMARK minimizedAffinity 6.16061354
REMARK minimizedRMSD -1
REMARK  0 active torsions:
REMARK  status: ('A' for Active; 'I' for Inactive)
ROOT
ATOM      1  C   UNL d   1       1.119  -1.489   1.759  0.00  0.00     0.077 C 
ATOM      2  C1  UNL d   1       0.599  -1.761   0.379  0.00  0.00    -0.074 A 
ATOM      3  C2  UNL d   1      -0.556  -1.129  -0.092  0.00  0.00    -0.005 A 
ATOM      4  C3  UNL d   1      -1.022  -1.384  -1.381  0.00  0.00     0.006 A 
ATOM      5  C4  UNL d   1      -0.339  -2.274  -2.212  0.00  0.00    -0.005 A 
ATOM      6  C5  UNL d   1       0.818  -2.915  -1.759  0.00  0.00    -0.074 A 
ATOM      7  C6  UNL d   1       1.569  -3.866  -2.642  0.00  0.00     0.077 C 
ATOM      8  C7  UNL d   1       1.284  -2.648  -0.464  0.00  0.00    -0.001 A 
ENDROOT
TORSDOF 0
ENDMDL
