MODEL 1
REMARK minimizedAffinity 11.9029789
REMARK minimizedRMSD -1
REMARK  0 active torsions:
REMARK  status: ('A' for Active; 'I' for Inactive)
ROOT
ATOM      1  C   UNL d   1      -5.998   3.006  -5.602  0.00  0.00     0.077 C 
ATOM      2  C1  UNL d   1      -5.086   2.923  -4.414  0.00  0.00    -0.074 A 
ATOM      3  C2  UNL d   1      -3.716   2.690  -4.574  0.00  0.00    -0.005 A 
ATOM      4  C3  UNL d   1      -2.879   2.625  -3.460  0.00  0.00     0.006 A 
ATOM      5  C4  UNL d   1      -3.402   2.792  -2.177  0.00  0.00    -0.005 A 
ATOM      6  C5  UNL d   1      -4.769   3.027  -1.998  0.00  0.00    -0.074 A 
ATOM      7  C6  UNL d   1      -5.345   3.219  -0.626  0.00  0.00     0.077 C 
ATOM      8  C7  UNL d   1      -5.603   3.098  -3.122  0.00  0.00    -0.001 A 
ENDROOT
TORSDOF 0
ENDMDL
