MODEL 1
REMARK minimizedAffinity 6.17380095
REMARK minimizedRMSD -1
REMARK  0 active torsions:
REMARK  status: ('A' for Active; 'I' for Inactive)
ROOT
ATOM      1  C   UNL d   1       1.875  -0.892   2.379  0.00  0.00     0.077 C 
ATOM      2  C1  UNL d   1       2.509  -1.984   3.188  0.00  0.00    -0.074 A 
ATOM      3  C2  UNL d   1       1.735  -3.008   3.744  0.00  0.00    -0.005 A 
ATOM      4  C3  UNL d   1       2.340  -4.023   4.486  0.00  0.00     0.006 A 
ATOM      5  C4  UNL d   1       3.722  -4.024   4.679  0.00  0.00    -0.005 A 
ATOM      6  C5  UNL d   1       4.512  -3.008   4.130  0.00  0.00    -0.074 A 
ATOM      7  C6  UNL d   1       6.000  -3.000   4.320  0.00  0.00     0.077 C 
ATOM      8  C7  UNL d   1       3.898  -1.996   3.380  0.00  0.00    -0.001 A 
ENDROOT
TORSDOF 0
ENDMDL
