MODEL 1
REMARK minimizedAffinity 0.00118224986
REMARK minimizedRMSD -1
REMARK  0 active torsions:
REMARK  status: ('A' for Active; 'I' for Inactive)
ROOT
ATOM      1  C   UNL d   1       0.692  -2.631   0.165  0.00  0.00     0.077 C 
ATOM      2  C1  UNL d   1       1.440  -2.153   1.374  0.00  0.00    -0.074 A 
ATOM      3  C2  UNL d   1       1.535  -2.948   2.521  0.00  0.00    -0.005 A 
ATOM      4  C3  UNL d   1       2.242  -2.494   3.635  0.00  0.00     0.006 A 
ATOM      5  C4  UNL d   1       2.860  -1.243   3.613  0.00  0.00    -0.005 A 
ATOM      6  C5  UNL d   1       2.776  -0.435   2.474  0.00  0.00    -0.074 A 
ATOM      7  C6  UNL d   1       3.443   0.908   2.431  0.00  0.00     0.077 C 
ATOM      8  C7  UNL d   1       2.070  -0.901   1.357  0.00  0.00    -0.001 A 
ENDROOT
TORSDOF 0
ENDMDL
