MODEL 1
REMARK minimizedAffinity 3.658041
REMARK minimizedRMSD -1
REMARK  0 active torsions:
REMARK  status: ('A' for Active; 'I' for Inactive)
ROOT
ATOM      1  C   UNL d   1       3.511   5.260  -2.624  0.00  0.00     0.077 C 
ATOM      2  C1  UNL d   1       2.576   4.555  -1.687  0.00  0.00    -0.074 A 
ATOM      3  C2  UNL d   1       1.265   5.005  -1.505  0.00  0.00    -0.005 A 
ATOM      4  C3  UNL d   1       0.404   4.334  -0.637  0.00  0.00     0.006 A 
ATOM      5  C4  UNL d   1       0.846   3.206   0.057  0.00  0.00    -0.005 A 
ATOM      6  C5  UNL d   1       2.153   2.741  -0.112  0.00  0.00    -0.074 A 
ATOM      7  C6  UNL d   1       2.641   1.525   0.618  0.00  0.00     0.077 C 
ATOM      8  C7  UNL d   1       3.010   3.417  -0.992  0.00  0.00    -0.001 A 
ENDROOT
TORSDOF 0
ENDMDL
