MODEL 1
REMARK minimizedAffinity 4.46698666
REMARK minimizedRMSD -1
REMARK  0 active torsions:
REMARK  status: ('A' for Active; 'I' for Inactive)
ROOT
ATOM      1  C   UNL d   1      -0.394  -1.190   0.064  0.00  0.00     0.077 C 
ATOM      2  C1  UNL d   1       0.591  -1.004   1.180  0.00  0.00    -0.074 A 
ATOM      3  C2  UNL d   1       1.313   0.187   1.311  0.00  0.00    -0.005 A 
ATOM      4  C3  UNL d   1       2.218   0.350   2.359  0.00  0.00     0.006 A 
ATOM      5  C4  UNL d   1       2.411  -0.676   3.286  0.00  0.00    -0.005 A 
ATOM      6  C5  UNL d   1       1.698  -1.873   3.172  0.00  0.00    -0.074 A 
ATOM      7  C6  UNL d   1       1.886  -2.981   4.165  0.00  0.00     0.077 C 
ATOM      8  C7  UNL d   1       0.784  -2.026   2.120  0.00  0.00    -0.001 A 
ENDROOT
TORSDOF 0
ENDMDL
