MODEL 1
REMARK minimizedAffinity 2.64354229
REMARK minimizedRMSD -1
REMARK  0 active torsions:
REMARK  status: ('A' for Active; 'I' for Inactive)
ROOT
ATOM      1  C   UNL d   1      -0.279  -2.190  -2.225  0.00  0.00     0.077 C 
ATOM      2  C1  UNL d   1       1.219  -2.266  -2.210  0.00  0.00    -0.074 A 
ATOM      3  C2  UNL d   1       1.972  -1.445  -1.364  0.00  0.00    -0.005 A 
ATOM      4  C3  UNL d   1       3.364  -1.535  -1.354  0.00  0.00     0.006 A 
ATOM      5  C4  UNL d   1       4.016  -2.444  -2.188  0.00  0.00    -0.005 A 
ATOM      6  C5  UNL d   1       3.280  -3.274  -3.039  0.00  0.00    -0.074 A 
ATOM      7  C6  UNL d   1       3.964  -4.264  -3.934  0.00  0.00     0.077 C 
ATOM      8  C7  UNL d   1       1.881  -3.183  -3.039  0.00  0.00    -0.001 A 
ENDROOT
TORSDOF 0
ENDMDL
