MODEL 1
REMARK minimizedAffinity 9.1416626
REMARK minimizedRMSD -1
REMARK  0 active torsions:
REMARK  status: ('A' for Active; 'I' for Inactive)
ROOT
ATOM      1  C   UNL d   1      -2.876  -1.253  -0.764  0.00  0.00     0.077 C 
ATOM      2  C1  UNL d   1      -1.438  -1.679  -0.752  0.00  0.00    -0.074 A 
ATOM      3  C2  UNL d   1      -0.835  -2.207  -1.899  0.00  0.00    -0.005 A 
ATOM      4  C3  UNL d   1       0.506  -2.590  -1.875  0.00  0.00     0.006 A 
ATOM      5  C4  UNL d   1       1.257  -2.450  -0.707  0.00  0.00    -0.005 A 
ATOM      6  C5  UNL d   1       0.671  -1.923   0.449  0.00  0.00    -0.074 A 
ATOM      7  C6  UNL d   1       1.466  -1.756   1.710  0.00  0.00     0.077 C 
ATOM      8  C7  UNL d   1      -0.675  -1.534   0.415  0.00  0.00    -0.001 A 
ENDROOT
TORSDOF 0
ENDMDL
