MODEL 1
REMARK minimizedAffinity 4.98281431
REMARK minimizedRMSD -1
REMARK  0 active torsions:
REMARK  status: ('A' for Active; 'I' for Inactive)
ROOT
ATOM      1  C   UNL d   1      -3.132   1.715   1.043  0.00  0.00     0.077 C 
ATOM      2  C1  UNL d   1      -2.140   0.691   0.577  0.00  0.00    -0.074 A 
ATOM      3  C2  UNL d   1      -2.363  -0.046  -0.591  0.00  0.00    -0.005 A 
ATOM      4  C3  UNL d   1      -1.427  -0.988  -1.017  0.00  0.00     0.006 A 
ATOM      5  C4  UNL d   1      -0.261  -1.203  -0.281  0.00  0.00    -0.005 A 
ATOM      6  C5  UNL d   1      -0.021  -0.475   0.889  0.00  0.00    -0.074 A 
ATOM      7  C6  UNL d   1       1.231  -0.687   1.686  0.00  0.00     0.077 C 
ATOM      8  C7  UNL d   1      -0.963   0.475   1.307  0.00  0.00    -0.001 A 
ENDROOT
TORSDOF 0
ENDMDL
