MODEL 1
REMARK minimizedAffinity 7.37494469
REMARK minimizedRMSD -1
REMARK  1 active torsions:
REMARK  status: ('A' for Active; 'I' for Inactive)
REMARK    1  A    between atoms: C1_2  and  C2_3 
ROOT
ATOM      1  C2  UNL d   1       1.357   4.250  -3.469  0.00  0.00    -0.081 A 
ATOM      2  C3  UNL d   1       0.108   4.596  -2.940  0.00  0.00     0.006 A 
ATOM      3  C4  UNL d   1      -0.870   5.173  -3.753  0.00  0.00     0.002 A 
ATOM      4  C5  UNL d   1      -0.618   5.408  -5.109  0.00  0.00    -0.080 A 
ATOM      5  C6  UNL d   1      -1.670   6.000  -6.000  0.00  0.00     0.076 C 
ATOM      6  C7  UNL d   1       0.637   5.079  -5.634  0.00  0.00     0.002 A 
ATOM      7  C8  UNL d   1       1.615   4.502  -4.821  0.00  0.00     0.006 A 
ENDROOT
BRANCH   1   8
ATOM      8  C1  UNL d   1       2.391   3.568  -2.610  0.00  0.00     0.054 C 
ATOM      9  C   UNL d   1       1.965   2.151  -2.251  0.00  0.00     0.018 C 
ENDBRANCH   1   8
TORSDOF 1
ENDMDL
