MODEL 1
REMARK minimizedAffinity -0.904929101
REMARK minimizedRMSD -1
REMARK  1 active torsions:
REMARK  status: ('A' for Active; 'I' for Inactive)
REMARK    1  A    between atoms: C1_2  and  C2_3 
ROOT
ATOM      1  C2  UNL d   1      -5.980   0.990  -1.546  0.00  0.00    -0.081 A 
ATOM      2  C3  UNL d   1      -5.983  -0.250  -2.197  0.00  0.00     0.006 A 
ATOM      3  C4  UNL d   1      -5.985  -0.317  -3.592  0.00  0.00     0.002 A 
ATOM      4  C5  UNL d   1      -5.976   0.853  -4.359  0.00  0.00    -0.080 A 
ATOM      5  C6  UNL d   1      -5.947   0.794  -5.858  0.00  0.00     0.076 C 
ATOM      6  C7  UNL d   1      -5.990   2.092  -3.709  0.00  0.00     0.002 A 
ATOM      7  C8  UNL d   1      -5.989   2.160  -2.314  0.00  0.00     0.006 A 
ENDROOT
BRANCH   1   8
ATOM      8  C1  UNL d   1      -5.913   1.066  -0.042  0.00  0.00     0.054 C 
ATOM      9  C   UNL d   1      -5.682  -0.307   0.572  0.00  0.00     0.018 C 
ENDBRANCH   1   8
TORSDOF 1
ENDMDL
