MODEL 1
REMARK minimizedAffinity 6.93831253
REMARK minimizedRMSD -1
REMARK  1 active torsions:
REMARK  status: ('A' for Active; 'I' for Inactive)
REMARK    1  A    between atoms: C1_2  and  C2_3 
ROOT
ATOM      1  C2  UNL d   1       0.725   4.491  -4.488  0.00  0.00    -0.081 A 
ATOM      2  C3  UNL d   1       1.987   4.576  -3.887  0.00  0.00     0.006 A 
ATOM      3  C4  UNL d   1       2.325   3.731  -2.827  0.00  0.00     0.002 A 
ATOM      4  C5  UNL d   1       1.410   2.783  -2.356  0.00  0.00    -0.080 A 
ATOM      5  C6  UNL d   1       1.771   1.850  -1.238  0.00  0.00     0.076 C 
ATOM      6  C7  UNL d   1       0.143   2.710  -2.945  0.00  0.00     0.002 A 
ATOM      7  C8  UNL d   1      -0.195   3.554  -4.004  0.00  0.00     0.006 A 
ENDROOT
BRANCH   1   8
ATOM      8  C1  UNL d   1       0.381   5.356  -5.674  0.00  0.00     0.054 C 
ATOM      9  C   UNL d   1      -1.104   5.284  -5.999  0.00  0.00     0.018 C 
ENDBRANCH   1   8
TORSDOF 1
ENDMDL
