MODEL 1
REMARK minimizedAffinity 0.893954515
REMARK minimizedRMSD -1
REMARK  1 active torsions:
REMARK  status: ('A' for Active; 'I' for Inactive)
REMARK    1  A    between atoms: C1_2  and  C2_3 
ROOT
ATOM      1  C2  UNL d   1      -2.290  -5.282  -3.882  0.00  0.00    -0.081 A 
ATOM      2  C3  UNL d   1      -2.268  -5.755  -5.200  0.00  0.00     0.006 A 
ATOM      3  C4  UNL d   1      -3.461  -6.000  -5.884  0.00  0.00     0.002 A 
ATOM      4  C5  UNL d   1      -4.694  -5.770  -5.266  0.00  0.00    -0.080 A 
ATOM      5  C6  UNL d   1      -5.982  -6.000  -6.000  0.00  0.00     0.076 C 
ATOM      6  C7  UNL d   1      -4.716  -5.314  -3.943  0.00  0.00     0.002 A 
ATOM      7  C8  UNL d   1      -3.524  -5.070  -3.258  0.00  0.00     0.006 A 
ENDROOT
BRANCH   1   8
ATOM      8  C1  UNL d   1      -1.005  -4.955  -3.163  0.00  0.00     0.054 C 
ATOM      9  C   UNL d   1      -1.274  -4.455  -1.751  0.00  0.00     0.018 C 
ENDBRANCH   1   8
TORSDOF 1
ENDMDL
