MODEL 1
REMARK minimizedAffinity 10.6131592
REMARK minimizedRMSD -1
REMARK  1 active torsions:
REMARK  status: ('A' for Active; 'I' for Inactive)
REMARK    1  A    between atoms: C1_2  and  C2_3 
ROOT
ATOM      1  C2  UNL d   1       1.245   2.799  -3.247  0.00  0.00    -0.081 A 
ATOM      2  C3  UNL d   1       2.148   3.855  -3.422  0.00  0.00     0.006 A 
ATOM      3  C4  UNL d   1       1.867   4.886  -4.321  0.00  0.00     0.002 A 
ATOM      4  C5  UNL d   1       0.676   4.883  -5.054  0.00  0.00    -0.080 A 
ATOM      5  C6  UNL d   1       0.348   6.000  -6.000  0.00  0.00     0.076 C 
ATOM      6  C7  UNL d   1      -0.219   3.820  -4.892  0.00  0.00     0.002 A 
ATOM      7  C8  UNL d   1       0.062   2.788  -3.994  0.00  0.00     0.006 A 
ENDROOT
BRANCH   1   8
ATOM      8  C1  UNL d   1       1.515   1.719  -2.231  0.00  0.00     0.054 C 
ATOM      9  C   UNL d   1       1.500   2.276  -0.814  0.00  0.00     0.018 C 
ENDBRANCH   1   8
TORSDOF 1
ENDMDL
