MODEL 1
REMARK minimizedAffinity 9.54523849
REMARK minimizedRMSD -1
REMARK  1 active torsions:
REMARK  status: ('A' for Active; 'I' for Inactive)
REMARK    1  A    between atoms: C1_2  and  C2_3 
ROOT
ATOM      1  C2  UNL d   1       1.119   4.145  -3.786  0.00  0.00    -0.081 A 
ATOM      2  C3  UNL d   1       1.263   4.485  -5.137  0.00  0.00     0.006 A 
ATOM      3  C4  UNL d   1       0.180   4.992  -5.859  0.00  0.00     0.002 A 
ATOM      4  C5  UNL d   1      -1.062   5.174  -5.241  0.00  0.00    -0.080 A 
ATOM      5  C6  UNL d   1      -2.224   5.746  -5.997  0.00  0.00     0.076 C 
ATOM      6  C7  UNL d   1      -1.211   4.818  -3.897  0.00  0.00     0.002 A 
ATOM      7  C8  UNL d   1      -0.128   4.311  -3.174  0.00  0.00     0.006 A 
ENDROOT
BRANCH   1   8
ATOM      8  C1  UNL d   1       2.302   3.659  -2.988  0.00  0.00     0.054 C 
ATOM      9  C   UNL d   1       1.860   2.801  -1.811  0.00  0.00     0.018 C 
ENDBRANCH   1   8
TORSDOF 1
ENDMDL
