MODEL 1
REMARK minimizedAffinity 5.43946266
REMARK minimizedRMSD -1
REMARK  1 active torsions:
REMARK  status: ('A' for Active; 'I' for Inactive)
REMARK    1  A    between atoms: C1_2  and  C2_3 
ROOT
ATOM      1  C2  UNL d   1       1.046   4.790  -4.739  0.00  0.00    -0.081 A 
ATOM      2  C3  UNL d   1       2.368   4.506  -4.374  0.00  0.00     0.006 A 
ATOM      3  C4  UNL d   1       2.641   3.567  -3.376  0.00  0.00     0.002 A 
ATOM      4  C5  UNL d   1       1.599   2.891  -2.733  0.00  0.00    -0.080 A 
ATOM      5  C6  UNL d   1       1.880   1.859  -1.682  0.00  0.00     0.076 C 
ATOM      6  C7  UNL d   1       0.278   3.187  -3.085  0.00  0.00     0.002 A 
ATOM      7  C8  UNL d   1       0.004   4.126  -4.082  0.00  0.00     0.006 A 
ENDROOT
BRANCH   1   8
ATOM      8  C1  UNL d   1       0.750   5.754  -5.859  0.00  0.00     0.054 C 
ATOM      9  C   UNL d   1      -0.746   5.996  -6.000  0.00  0.00     0.018 C 
ENDBRANCH   1   8
TORSDOF 1
ENDMDL
