MODEL 1
REMARK minimizedAffinity 2.9563005
REMARK minimizedRMSD -1
REMARK  1 active torsions:
REMARK  status: ('A' for Active; 'I' for Inactive)
REMARK    1  A    between atoms: C1_2  and  C2_3 
ROOT
ATOM      1  C2  UNL d   1       1.044   3.353  -2.464  0.00  0.00    -0.081 A 
ATOM      2  C3  UNL d   1      -0.145   2.857  -3.012  0.00  0.00     0.006 A 
ATOM      3  C4  UNL d   1      -0.701   3.447  -4.149  0.00  0.00     0.002 A 
ATOM      4  C5  UNL d   1      -0.075   4.538  -4.761  0.00  0.00    -0.080 A 
ATOM      5  C6  UNL d   1      -0.646   5.163  -6.000  0.00  0.00     0.076 C 
ATOM      6  C7  UNL d   1       1.104   5.046  -4.203  0.00  0.00     0.002 A 
ATOM      7  C8  UNL d   1       1.660   4.456  -3.066  0.00  0.00     0.006 A 
ENDROOT
BRANCH   1   8
ATOM      8  C1  UNL d   1       1.681   2.678  -1.276  0.00  0.00     0.054 C 
ATOM      9  C   UNL d   1       1.073   3.168   0.031  0.00  0.00     0.018 C 
ENDBRANCH   1   8
TORSDOF 1
ENDMDL
