MODEL 1
REMARK minimizedAffinity 12.5079231
REMARK minimizedRMSD -1
REMARK  1 active torsions:
REMARK  status: ('A' for Active; 'I' for Inactive)
REMARK    1  A    between atoms: C1_2  and  C2_3 
ROOT
ATOM      1  C2  UNL d   1       2.630   0.184   1.993  0.00  0.00    -0.081 A 
ATOM      2  C3  UNL d   1       1.403  -0.341   2.414  0.00  0.00     0.006 A 
ATOM      3  C4  UNL d   1       1.355  -1.531   3.145  0.00  0.00     0.002 A 
ATOM      4  C5  UNL d   1       2.533  -2.209   3.474  0.00  0.00    -0.080 A 
ATOM      5  C6  UNL d   1       2.498  -3.471   4.284  0.00  0.00     0.076 C 
ATOM      6  C7  UNL d   1       3.759  -1.694   3.038  0.00  0.00     0.002 A 
ATOM      7  C8  UNL d   1       3.807  -0.505   2.306  0.00  0.00     0.006 A 
ENDROOT
BRANCH   1   8
ATOM      8  C1  UNL d   1       2.689   1.500   1.260  0.00  0.00     0.054 C 
ATOM      9  C   UNL d   1       1.299   1.972   0.857  0.00  0.00     0.018 C 
ENDBRANCH   1   8
TORSDOF 1
ENDMDL
