MODEL 1
REMARK minimizedAffinity 9.55664635
REMARK minimizedRMSD -1
REMARK  1 active torsions:
REMARK  status: ('A' for Active; 'I' for Inactive)
REMARK    1  A    between atoms: C1_2  and  C2_3 
ROOT
ATOM      1  C2  UNL d   1       1.704   3.548  -1.985  0.00  0.00    -0.081 A 
ATOM      2  C3  UNL d   1       1.584   3.898  -0.635  0.00  0.00     0.006 A 
ATOM      3  C4  UNL d   1       1.682   2.924   0.361  0.00  0.00     0.002 A 
ATOM      4  C5  UNL d   1       1.910   1.585   0.025  0.00  0.00    -0.080 A 
ATOM      5  C6  UNL d   1       2.049   0.534   1.086  0.00  0.00     0.076 C 
ATOM      6  C7  UNL d   1       2.013   1.232  -1.325  0.00  0.00     0.002 A 
ATOM      7  C8  UNL d   1       1.913   2.206  -2.322  0.00  0.00     0.006 A 
ENDROOT
BRANCH   1   8
ATOM      8  C1  UNL d   1       1.662   4.605  -3.059  0.00  0.00     0.054 C 
ATOM      9  C   UNL d   1       0.458   4.421  -3.971  0.00  0.00     0.018 C 
ENDBRANCH   1   8
TORSDOF 1
ENDMDL
