MODEL 1
REMARK minimizedAffinity 4.66378784
REMARK minimizedRMSD -1
REMARK  1 active torsions:
REMARK  status: ('A' for Active; 'I' for Inactive)
REMARK    1  A    between atoms: C1_2  and  C2_3 
ROOT
ATOM      1  C2  UNL d   1       1.324   3.589  -2.499  0.00  0.00    -0.081 A 
ATOM      2  C3  UNL d   1       0.135   3.373  -3.208  0.00  0.00     0.006 A 
ATOM      3  C4  UNL d   1      -0.168   4.143  -4.334  0.00  0.00     0.002 A 
ATOM      4  C5  UNL d   1       0.716   5.134  -4.775  0.00  0.00    -0.080 A 
ATOM      5  C6  UNL d   1       0.417   5.946  -6.000  0.00  0.00     0.076 C 
ATOM      6  C7  UNL d   1       1.895   5.361  -4.057  0.00  0.00     0.002 A 
ATOM      7  C8  UNL d   1       2.198   4.593  -2.931  0.00  0.00     0.006 A 
ENDROOT
BRANCH   1   8
ATOM      8  C1  UNL d   1       1.684   2.718  -1.323  0.00  0.00     0.054 C 
ATOM      9  C   UNL d   1       1.437   1.247  -1.627  0.00  0.00     0.018 C 
ENDBRANCH   1   8
TORSDOF 1
ENDMDL
