MODEL 1
REMARK minimizedAffinity 6.85538054
REMARK minimizedRMSD -1
REMARK  2 active torsions:
REMARK  status: ('A' for Active; 'I' for Inactive)
REMARK    1  A    between atoms: C2'_3  and  C1'_4 
REMARK    2  A    between atoms: C1'_4  and  C1_5 
ROOT
ATOM      1  C1  I4B d   1       0.465   0.740   2.914  0.00  0.00    -0.075 A 
ATOM      2  C2  I4B d   1       1.165   0.328   4.020  0.00  0.00     0.003 A 
ATOM      3  C3  I4B d   1       0.953   0.953   5.272  0.00  0.00     0.002 A 
ATOM      4  C4  I4B d   1       0.073   2.013   5.362  0.00  0.00    -0.004 A 
ATOM      5  C5  I4B d   1      -0.653   2.415   4.245  0.00  0.00     0.002 A 
ATOM      6  C6  I4B d   1      -0.466   1.767   3.016  0.00  0.00     0.003 A 
ENDROOT
BRANCH   1   7
ATOM      7  C1' I4B d   1       0.738   0.080   1.600  0.00  0.00     0.060 C 
BRANCH   7   8
ATOM      8  C2' I4B d   1       0.142  -1.313   1.645  0.00  0.00    -0.013 C 
ATOM      9  C4' I4B d   1      -1.320  -1.269   2.003  0.00  0.00     0.013 C 
ATOM     10  C3' I4B d   1       0.353  -1.949   0.303  0.00  0.00     0.013 C 
ENDBRANCH   7   8
ENDBRANCH   1   7
TORSDOF 2
ENDMDL
