MODEL 1
REMARK minimizedAffinity 16.4170036
REMARK minimizedRMSD -1
REMARK  2 active torsions:
REMARK  status: ('A' for Active; 'I' for Inactive)
REMARK    1  A    between atoms: C2'_3  and  C1'_4 
REMARK    2  A    between atoms: C1'_4  and  C1_5 
ROOT
ATOM      1  C1  I4B d   1       0.272  -3.536  -5.478  0.00  0.00    -0.075 A 
ATOM      2  C2  I4B d   1       0.828  -4.770  -5.706  0.00  0.00     0.003 A 
ATOM      3  C3  I4B d   1      -0.001  -5.888  -5.968  0.00  0.00     0.002 A 
ATOM      4  C4  I4B d   1      -1.372  -5.738  -5.941  0.00  0.00    -0.004 A 
ATOM      5  C5  I4B d   1      -1.934  -4.482  -5.732  0.00  0.00     0.002 A 
ATOM      6  C6  I4B d   1      -1.107  -3.371  -5.511  0.00  0.00     0.003 A 
ENDROOT
BRANCH   1   7
ATOM      7  C1' I4B d   1       1.175  -2.384  -5.172  0.00  0.00     0.060 C 
BRANCH   7   8
ATOM      8  C2' I4B d   1       0.312  -1.212  -4.750  0.00  0.00    -0.013 C 
ATOM      9  C4' I4B d   1      -0.291  -1.441  -3.389  0.00  0.00     0.013 C 
ATOM     10  C3' I4B d   1       1.165   0.021  -4.765  0.00  0.00     0.013 C 
ENDBRANCH   7   8
ENDBRANCH   1   7
TORSDOF 2
ENDMDL
