MODEL 1
REMARK minimizedAffinity 15.9207869
REMARK minimizedRMSD -1
REMARK  2 active torsions:
REMARK  status: ('A' for Active; 'I' for Inactive)
REMARK    1  A    between atoms: C2'_3  and  C1'_4 
REMARK    2  A    between atoms: C1'_4  and  C1_5 
ROOT
ATOM      1  C1  I4B d   1      -1.233  -0.755   2.645  0.00  0.00    -0.075 A 
ATOM      2  C2  I4B d   1      -0.739  -1.952   3.101  0.00  0.00     0.003 A 
ATOM      3  C3  I4B d   1       0.637  -2.083   3.409  0.00  0.00     0.002 A 
ATOM      4  C4  I4B d   1       1.485  -1.015   3.201  0.00  0.00    -0.004 A 
ATOM      5  C5  I4B d   1       0.978   0.204   2.760  0.00  0.00     0.002 A 
ATOM      6  C6  I4B d   1      -0.392   0.339   2.492  0.00  0.00     0.003 A 
ENDROOT
BRANCH   1   7
ATOM      7  C1' I4B d   1      -2.685  -0.661   2.298  0.00  0.00     0.060 C 
BRANCH   7   8
ATOM      8  C2' I4B d   1      -3.269  -2.058   2.347  0.00  0.00    -0.013 C 
ATOM      9  C4' I4B d   1      -4.461  -2.119   3.266  0.00  0.00     0.013 C 
ATOM     10  C3' I4B d   1      -3.642  -2.454   0.949  0.00  0.00     0.013 C 
ENDBRANCH   7   8
ENDBRANCH   1   7
TORSDOF 2
ENDMDL
