MODEL 1
REMARK minimizedAffinity 12.1622562
REMARK minimizedRMSD -1
REMARK  2 active torsions:
REMARK  status: ('A' for Active; 'I' for Inactive)
REMARK    1  A    between atoms: C2'_3  and  C1'_4 
REMARK    2  A    between atoms: C1'_4  and  C1_5 
ROOT
ATOM      1  C1  I4B d   1       0.149  -1.130   2.914  0.00  0.00    -0.075 A 
ATOM      2  C2  I4B d   1      -1.039  -1.469   2.317  0.00  0.00     0.003 A 
ATOM      3  C3  I4B d   1      -2.010  -0.475   2.047  0.00  0.00     0.002 A 
ATOM      4  C4  I4B d   1      -1.774   0.829   2.433  0.00  0.00    -0.004 A 
ATOM      5  C5  I4B d   1      -0.558   1.175   3.017  0.00  0.00     0.002 A 
ATOM      6  C6  I4B d   1       0.415   0.191   3.248  0.00  0.00     0.003 A 
ENDROOT
BRANCH   1   7
ATOM      7  C1' I4B d   1       1.139  -2.211   3.215  0.00  0.00     0.060 C 
BRANCH   7   8
ATOM      8  C2' I4B d   1       0.789  -2.801   4.566  0.00  0.00    -0.013 C 
ATOM      9  C4' I4B d   1      -0.341  -3.790   4.454  0.00  0.00     0.013 C 
ATOM     10  C3' I4B d   1       2.023  -3.448   5.122  0.00  0.00     0.013 C 
ENDBRANCH   7   8
ENDBRANCH   1   7
TORSDOF 2
ENDMDL
