MODEL 1
REMARK minimizedAffinity 15.7887869
REMARK minimizedRMSD -1
REMARK  2 active torsions:
REMARK  status: ('A' for Active; 'I' for Inactive)
REMARK    1  A    between atoms: C2'_3  and  C1'_4 
REMARK    2  A    between atoms: C1'_4  and  C1_5 
ROOT
ATOM      1  C1  I4B d   1      -0.909  -0.752   2.699  0.00  0.00    -0.075 A 
ATOM      2  C2  I4B d   1      -0.479  -1.905   3.307  0.00  0.00     0.003 A 
ATOM      3  C3  I4B d   1       0.907  -2.165   3.444  0.00  0.00     0.002 A 
ATOM      4  C4  I4B d   1       1.820  -1.275   2.917  0.00  0.00    -0.004 A 
ATOM      5  C5  I4B d   1       1.383  -0.096   2.321  0.00  0.00     0.002 A 
ATOM      6  C6  I4B d   1       0.010   0.174   2.222  0.00  0.00     0.003 A 
ENDROOT
BRANCH   1   7
ATOM      7  C1' I4B d   1      -2.379  -0.525   2.542  0.00  0.00     0.060 C 
BRANCH   7   8
ATOM      8  C2' I4B d   1      -2.992  -1.797   1.992  0.00  0.00    -0.013 C 
ATOM      9  C4' I4B d   1      -3.960  -2.405   2.973  0.00  0.00     0.013 C 
ATOM     10  C3' I4B d   1      -3.671  -1.462   0.698  0.00  0.00     0.013 C 
ENDBRANCH   7   8
ENDBRANCH   1   7
TORSDOF 2
ENDMDL
