MODEL 1
REMARK minimizedAffinity 0.928112864
REMARK minimizedRMSD -1
REMARK  2 active torsions:
REMARK  status: ('A' for Active; 'I' for Inactive)
REMARK    1  A    between atoms: C1_2  and  C2_3 
REMARK    2  A    between atoms: C2_3  and  C3_4 
ROOT
ATOM      1  C3  UNL d   1      -1.441  -5.922  -3.947  0.00  0.00    -0.075 A 
ATOM      2  C4  UNL d   1      -0.367  -5.830  -3.050  0.00  0.00     0.002 A 
ATOM      3  C5  UNL d   1       0.943  -5.731  -3.520  0.00  0.00     0.002 A 
ATOM      4  C6  UNL d   1       1.196  -5.732  -4.890  0.00  0.00    -0.004 A 
ATOM      5  C7  UNL d   1       0.138  -5.840  -5.790  0.00  0.00     0.002 A 
ATOM      6  C8  UNL d   1      -1.174  -5.935  -5.322  0.00  0.00     0.002 A 
ENDROOT
BRANCH   1   7
ATOM      7  C2  UNL d   1      -2.863  -6.000  -3.444  0.00  0.00     0.056 C 
BRANCH   7   8
ATOM      8  C1  UNL d   1      -3.028  -5.594  -1.976  0.00  0.00     0.007 C 
ATOM      9  C   UNL d   1      -4.418  -5.886  -1.426  0.00  0.00     0.009 C 
ENDBRANCH   7   8
ENDBRANCH   1   7
TORSDOF 2
ENDMDL
