MODEL 1
REMARK minimizedAffinity 7.03302717
REMARK minimizedRMSD -1
REMARK  2 active torsions:
REMARK  status: ('A' for Active; 'I' for Inactive)
REMARK    1  A    between atoms: C1_2  and  C2_3 
REMARK    2  A    between atoms: C2_3  and  C3_4 
ROOT
ATOM      1  C3  UNL d   1      -2.976   1.205  -2.296  0.00  0.00    -0.075 A 
ATOM      2  C4  UNL d   1      -4.359   1.082  -2.492  0.00  0.00     0.002 A 
ATOM      3  C5  UNL d   1      -5.156   0.443  -1.541  0.00  0.00     0.002 A 
ATOM      4  C6  UNL d   1      -4.580  -0.088  -0.390  0.00  0.00    -0.004 A 
ATOM      5  C7  UNL d   1      -3.204   0.014  -0.192  0.00  0.00     0.002 A 
ATOM      6  C8  UNL d   1      -2.406   0.656  -1.140  0.00  0.00     0.002 A 
ENDROOT
BRANCH   1   7
ATOM      7  C2  UNL d   1      -2.113   1.921  -3.307  0.00  0.00     0.056 C 
BRANCH   7   8
ATOM      8  C1  UNL d   1      -0.651   2.080  -2.878  0.00  0.00     0.007 C 
ATOM      9  C   UNL d   1      -0.033   3.398  -3.328  0.00  0.00     0.009 C 
ENDBRANCH   7   8
ENDBRANCH   1   7
TORSDOF 2
ENDMDL
