MODEL 1
REMARK minimizedAffinity 4.07086134
REMARK minimizedRMSD -1
REMARK  2 active torsions:
REMARK  status: ('A' for Active; 'I' for Inactive)
REMARK    1  A    between atoms: C1_2  and  C2_3 
REMARK    2  A    between atoms: C2_3  and  C3_4 
ROOT
ATOM      1  C3  UNL d   1      -1.421  -5.698  -3.267  0.00  0.00    -0.075 A 
ATOM      2  C4  UNL d   1      -0.321  -6.000  -2.450  0.00  0.00     0.002 A 
ATOM      3  C5  UNL d   1       0.976  -5.703  -2.870  0.00  0.00     0.002 A 
ATOM      4  C6  UNL d   1       1.190  -5.111  -4.112  0.00  0.00    -0.004 A 
ATOM      5  C7  UNL d   1       0.107  -4.821  -4.939  0.00  0.00     0.002 A 
ATOM      6  C8  UNL d   1      -1.192  -5.114  -4.520  0.00  0.00     0.002 A 
ENDROOT
BRANCH   1   7
ATOM      7  C2  UNL d   1      -2.829  -5.990  -2.806  0.00  0.00     0.056 C 
BRANCH   7   8
ATOM      8  C1  UNL d   1      -3.405  -4.936  -1.855  0.00  0.00     0.007 C 
ATOM      9  C   UNL d   1      -3.593  -3.574  -2.512  0.00  0.00     0.009 C 
ENDBRANCH   7   8
ENDBRANCH   1   7
TORSDOF 2
ENDMDL
