MODEL 1
REMARK minimizedAffinity 9.70937634
REMARK minimizedRMSD -1
REMARK  2 active torsions:
REMARK  status: ('A' for Active; 'I' for Inactive)
REMARK    1  A    between atoms: C1_2  and  C2_3 
REMARK    2  A    between atoms: C2_3  and  C3_4 
ROOT
ATOM      1  C3  UNL d   1      -0.875  -5.983  -3.894  0.00  0.00    -0.075 A 
ATOM      2  C4  UNL d   1      -0.870  -5.980  -5.296  0.00  0.00     0.002 A 
ATOM      3  C5  UNL d   1       0.335  -5.993  -6.000  0.00  0.00     0.002 A 
ATOM      4  C6  UNL d   1       1.546  -5.999  -5.313  0.00  0.00    -0.004 A 
ATOM      5  C7  UNL d   1       1.553  -5.985  -3.920  0.00  0.00     0.002 A 
ATOM      6  C8  UNL d   1       0.349  -5.976  -3.213  0.00  0.00     0.002 A 
ENDROOT
BRANCH   1   7
ATOM      7  C2  UNL d   1      -2.175  -5.999  -3.126  0.00  0.00     0.056 C 
BRANCH   7   8
ATOM      8  C1  UNL d   1      -2.740  -4.606  -2.827  0.00  0.00     0.007 C 
ATOM      9  C   UNL d   1      -3.769  -4.604  -1.704  0.00  0.00     0.009 C 
ENDBRANCH   7   8
ENDBRANCH   1   7
TORSDOF 2
ENDMDL
