MODEL 1
REMARK minimizedAffinity 6.94848585
REMARK minimizedRMSD -1
REMARK  2 active torsions:
REMARK  status: ('A' for Active; 'I' for Inactive)
REMARK    1  A    between atoms: C1_2  and  C2_3 
REMARK    2  A    between atoms: C2_3  and  C3_4 
ROOT
ATOM      1  C3  UNL d   1       0.107  -5.973  -2.885  0.00  0.00    -0.075 A 
ATOM      2  C4  UNL d   1      -1.268  -5.973  -3.159  0.00  0.00     0.002 A 
ATOM      3  C5  UNL d   1      -1.728  -5.991  -4.476  0.00  0.00     0.002 A 
ATOM      4  C6  UNL d   1      -0.821  -5.999  -5.534  0.00  0.00    -0.004 A 
ATOM      5  C7  UNL d   1       0.548  -5.982  -5.273  0.00  0.00     0.002 A 
ATOM      6  C8  UNL d   1       1.010  -5.969  -3.957  0.00  0.00     0.002 A 
ENDROOT
BRANCH   1   7
ATOM      7  C2  UNL d   1       0.611  -5.984  -1.462  0.00  0.00     0.056 C 
BRANCH   7   8
ATOM      8  C1  UNL d   1       0.410  -4.659  -0.719  0.00  0.00     0.007 C 
ATOM      9  C   UNL d   1      -0.170  -4.836   0.678  0.00  0.00     0.009 C 
ENDBRANCH   7   8
ENDBRANCH   1   7
TORSDOF 2
ENDMDL
