MODEL 1
REMARK minimizedAffinity -2.30034375
REMARK minimizedRMSD -1
REMARK  2 active torsions:
REMARK  status: ('A' for Active; 'I' for Inactive)
REMARK    1  A    between atoms: C1_2  and  C2_3 
REMARK    2  A    between atoms: C2_3  and  C3_4 
ROOT
ATOM      1  C3  UNL d   1      -1.795  -5.999  -3.761  0.00  0.00    -0.075 A 
ATOM      2  C4  UNL d   1      -0.850  -5.999  -2.725  0.00  0.00     0.002 A 
ATOM      3  C5  UNL d   1       0.515  -5.971  -3.012  0.00  0.00     0.002 A 
ATOM      4  C6  UNL d   1       0.952  -5.954  -4.335  0.00  0.00    -0.004 A 
ATOM      5  C7  UNL d   1       0.022  -5.970  -5.372  0.00  0.00     0.002 A 
ATOM      6  C8  UNL d   1      -1.345  -5.994  -5.087  0.00  0.00     0.002 A 
ENDROOT
BRANCH   1   7
ATOM      7  C2  UNL d   1      -3.274  -6.000  -3.456  0.00  0.00     0.056 C 
BRANCH   7   8
ATOM      8  C1  UNL d   1      -3.603  -5.984  -1.960  0.00  0.00     0.007 C 
ATOM      9  C   UNL d   1      -5.098  -5.922  -1.674  0.00  0.00     0.009 C 
ENDBRANCH   7   8
ENDBRANCH   1   7
TORSDOF 2
ENDMDL
