MODEL 1
REMARK minimizedAffinity 2.26275039
REMARK minimizedRMSD -1
REMARK  2 active torsions:
REMARK  status: ('A' for Active; 'I' for Inactive)
REMARK    1  A    between atoms: C1_2  and  C2_3 
REMARK    2  A    between atoms: C2_3  and  C3_4 
ROOT
ATOM      1  C3  UNL d   1      -1.274  -5.769  -3.783  0.00  0.00    -0.075 A 
ATOM      2  C4  UNL d   1       0.007  -5.710  -3.214  0.00  0.00     0.002 A 
ATOM      3  C5  UNL d   1       1.126  -5.472  -4.011  0.00  0.00     0.002 A 
ATOM      4  C6  UNL d   1       0.982  -5.300  -5.386  0.00  0.00    -0.004 A 
ATOM      5  C7  UNL d   1      -0.283  -5.373  -5.965  0.00  0.00     0.002 A 
ATOM      6  C8  UNL d   1      -1.406  -5.606  -5.169  0.00  0.00     0.002 A 
ENDROOT
BRANCH   1   7
ATOM      7  C2  UNL d   1      -2.493  -5.997  -2.921  0.00  0.00     0.056 C 
BRANCH   7   8
ATOM      8  C1  UNL d   1      -3.728  -5.208  -3.368  0.00  0.00     0.007 C 
ATOM      9  C   UNL d   1      -5.024  -5.999  -3.241  0.00  0.00     0.009 C 
ENDBRANCH   7   8
ENDBRANCH   1   7
TORSDOF 2
ENDMDL
