MODEL 1
REMARK minimizedAffinity 2.12996244
REMARK minimizedRMSD -1
REMARK  2 active torsions:
REMARK  status: ('A' for Active; 'I' for Inactive)
REMARK    1  A    between atoms: C1_2  and  C2_3 
REMARK    2  A    between atoms: C2_3  and  C3_4 
ROOT
ATOM      1  C3  UNL d   1      -0.990  -5.926  -3.117  0.00  0.00    -0.075 A 
ATOM      2  C4  UNL d   1       0.387  -5.907  -2.851  0.00  0.00     0.002 A 
ATOM      3  C5  UNL d   1       1.309  -5.848  -3.896  0.00  0.00     0.002 A 
ATOM      4  C6  UNL d   1       0.869  -5.818  -5.217  0.00  0.00    -0.004 A 
ATOM      5  C7  UNL d   1      -0.496  -5.854  -5.494  0.00  0.00     0.002 A 
ATOM      6  C8  UNL d   1      -1.422  -5.909  -4.450  0.00  0.00     0.002 A 
ENDROOT
BRANCH   1   7
ATOM      7  C2  UNL d   1      -1.994  -5.961  -1.989  0.00  0.00     0.056 C 
BRANCH   7   8
ATOM      8  C1  UNL d   1      -3.454  -5.985  -2.455  0.00  0.00     0.007 C 
ATOM      9  C   UNL d   1      -4.451  -5.999  -1.303  0.00  0.00     0.009 C 
ENDBRANCH   7   8
ENDBRANCH   1   7
TORSDOF 2
ENDMDL
