MODEL 1
REMARK minimizedAffinity 10.2264166
REMARK minimizedRMSD -1
REMARK  2 active torsions:
REMARK  status: ('A' for Active; 'I' for Inactive)
REMARK    1  A    between atoms: C1_2  and  C2_3 
REMARK    2  A    between atoms: C2_3  and  C3_4 
ROOT
ATOM      1  C3  UNL d   1       0.786  -0.233   0.261  0.00  0.00    -0.075 A 
ATOM      2  C4  UNL d   1       0.146  -1.380  -0.229  0.00  0.00     0.002 A 
ATOM      3  C5  UNL d   1      -0.033  -2.496   0.590  0.00  0.00     0.002 A 
ATOM      4  C6  UNL d   1       0.434  -2.482   1.903  0.00  0.00    -0.004 A 
ATOM      5  C7  UNL d   1       1.086  -1.353   2.395  0.00  0.00     0.002 A 
ATOM      6  C8  UNL d   1       1.262  -0.234   1.579  0.00  0.00     0.002 A 
ENDROOT
BRANCH   1   7
ATOM      7  C2  UNL d   1       0.956   0.989  -0.611  0.00  0.00     0.056 C 
BRANCH   7   8
ATOM      8  C1  UNL d   1       0.700   2.314   0.115  0.00  0.00     0.007 C 
ATOM      9  C   UNL d   1       1.531   3.467  -0.430  0.00  0.00     0.009 C 
ENDBRANCH   7   8
ENDBRANCH   1   7
TORSDOF 2
ENDMDL
