MODEL 1
REMARK minimizedAffinity 5.30305862
REMARK minimizedRMSD -1
REMARK  2 active torsions:
REMARK  status: ('A' for Active; 'I' for Inactive)
REMARK    1  A    between atoms: C1_2  and  C2_3 
REMARK    2  A    between atoms: C2_3  and  C3_4 
ROOT
ATOM      1  C3  UNL d   1       3.704  -0.005   0.852  0.00  0.00    -0.075 A 
ATOM      2  C4  UNL d   1       3.584   0.314  -0.508  0.00  0.00     0.002 A 
ATOM      3  C5  UNL d   1       2.338   0.623  -1.056  0.00  0.00     0.002 A 
ATOM      4  C6  UNL d   1       1.198   0.606  -0.255  0.00  0.00    -0.004 A 
ATOM      5  C7  UNL d   1       1.304   0.274   1.094  0.00  0.00     0.002 A 
ATOM      6  C8  UNL d   1       2.549  -0.031   1.646  0.00  0.00     0.002 A 
ENDROOT
BRANCH   1   7
ATOM      7  C2  UNL d   1       5.053  -0.311   1.457  0.00  0.00     0.056 C 
BRANCH   7   8
ATOM      8  C1  UNL d   1       5.438   0.609   2.621  0.00  0.00     0.007 C 
ATOM      9  C   UNL d   1       5.031   0.059   3.981  0.00  0.00     0.009 C 
ENDBRANCH   7   8
ENDBRANCH   1   7
TORSDOF 2
ENDMDL
