MODEL 1
REMARK minimizedAffinity 7.87855291
REMARK minimizedRMSD -1
REMARK  2 active torsions:
REMARK  status: ('A' for Active; 'I' for Inactive)
REMARK    1  A    between atoms: C1_2  and  C2_3 
REMARK    2  A    between atoms: C2_3  and  C3_4 
ROOT
ATOM      1  C3  UNL d   1      -0.704  -5.989  -2.796  0.00  0.00    -0.075 A 
ATOM      2  C4  UNL d   1       0.586  -5.997  -2.245  0.00  0.00     0.002 A 
ATOM      3  C5  UNL d   1       1.709  -5.990  -3.073  0.00  0.00     0.002 A 
ATOM      4  C6  UNL d   1       1.558  -5.987  -4.458  0.00  0.00    -0.004 A 
ATOM      5  C7  UNL d   1       0.281  -5.997  -5.015  0.00  0.00     0.002 A 
ATOM      6  C8  UNL d   1      -0.845  -5.999  -4.190  0.00  0.00     0.002 A 
ENDROOT
BRANCH   1   7
ATOM      7  C2  UNL d   1      -1.924  -5.966  -1.906  0.00  0.00     0.056 C 
BRANCH   7   8
ATOM      8  C1  UNL d   1      -3.198  -5.484  -2.607  0.00  0.00     0.007 C 
ATOM      9  C   UNL d   1      -4.474  -5.992  -1.948  0.00  0.00     0.009 C 
ENDBRANCH   7   8
ENDBRANCH   1   7
TORSDOF 2
ENDMDL
