MODEL 1
REMARK minimizedAffinity 10.32862
REMARK minimizedRMSD -1
REMARK  2 active torsions:
REMARK  status: ('A' for Active; 'I' for Inactive)
REMARK    1  A    between atoms: C1_2  and  C2_3 
REMARK    2  A    between atoms: C2_3  and  C3_4 
ROOT
ATOM      1  C3  UNL d   1       3.099  -0.357   0.717  0.00  0.00    -0.075 A 
ATOM      2  C4  UNL d   1       2.973   0.585  -0.315  0.00  0.00     0.002 A 
ATOM      3  C5  UNL d   1       1.751   1.214  -0.554  0.00  0.00     0.002 A 
ATOM      4  C6  UNL d   1       0.639   0.903   0.227  0.00  0.00    -0.004 A 
ATOM      5  C7  UNL d   1       0.749  -0.043   1.243  0.00  0.00     0.002 A 
ATOM      6  C8  UNL d   1       1.972  -0.671   1.488  0.00  0.00     0.002 A 
ENDROOT
BRANCH   1   7
ATOM      7  C2  UNL d   1       4.426  -1.020   1.000  0.00  0.00     0.056 C 
BRANCH   7   8
ATOM      8  C1  UNL d   1       5.228  -0.355   2.124  0.00  0.00     0.007 C 
ATOM      9  C   UNL d   1       4.373   0.034   3.322  0.00  0.00     0.009 C 
ENDBRANCH   7   8
ENDBRANCH   1   7
TORSDOF 2
ENDMDL
