MODEL 1
REMARK minimizedAffinity -1.13612783
REMARK minimizedRMSD -1
REMARK  2 active torsions:
REMARK  status: ('A' for Active; 'I' for Inactive)
REMARK    1  A    between atoms: C1_2  and  C2_3 
REMARK    2  A    between atoms: C2_3  and  C3_4 
ROOT
ATOM      1  C3  UNL d   1      -1.195  -5.845  -3.919  0.00  0.00    -0.075 A 
ATOM      2  C4  UNL d   1      -0.115  -6.000  -3.037  0.00  0.00     0.002 A 
ATOM      3  C5  UNL d   1       1.197  -5.952  -3.507  0.00  0.00     0.002 A 
ATOM      4  C6  UNL d   1       1.447  -5.760  -4.864  0.00  0.00    -0.004 A 
ATOM      5  C7  UNL d   1       0.382  -5.622  -5.752  0.00  0.00     0.002 A 
ATOM      6  C8  UNL d   1      -0.932  -5.665  -5.283  0.00  0.00     0.002 A 
ENDROOT
BRANCH   1   7
ATOM      7  C2  UNL d   1      -2.617  -5.867  -3.411  0.00  0.00     0.056 C 
BRANCH   7   8
ATOM      8  C1  UNL d   1      -2.738  -5.722  -1.891  0.00  0.00     0.007 C 
ATOM      9  C   UNL d   1      -4.143  -6.000  -1.372  0.00  0.00     0.009 C 
ENDBRANCH   7   8
ENDBRANCH   1   7
TORSDOF 2
ENDMDL
