MODEL 1
REMARK minimizedAffinity -3.18090248
REMARK minimizedRMSD -1
REMARK  2 active torsions:
REMARK  status: ('A' for Active; 'I' for Inactive)
REMARK    1  A    between atoms: C1_2  and  C2_3 
REMARK    2  A    between atoms: C2_3  and  C3_4 
ROOT
ATOM      1  C3  UNL d   1      -1.877  -5.631  -4.033  0.00  0.00    -0.075 A 
ATOM      2  C4  UNL d   1      -1.438  -5.250  -5.309  0.00  0.00     0.002 A 
ATOM      3  C5  UNL d   1      -0.097  -4.937  -5.532  0.00  0.00     0.002 A 
ATOM      4  C6  UNL d   1       0.818  -4.990  -4.483  0.00  0.00    -0.004 A 
ATOM      5  C7  UNL d   1       0.389  -5.351  -3.208  0.00  0.00     0.002 A 
ATOM      6  C8  UNL d   1      -0.951  -5.669  -2.983  0.00  0.00     0.002 A 
ENDROOT
BRANCH   1   7
ATOM      7  C2  UNL d   1      -3.322  -5.999  -3.792  0.00  0.00     0.056 C 
BRANCH   7   8
ATOM      8  C1  UNL d   1      -3.984  -5.214  -2.655  0.00  0.00     0.007 C 
ATOM      9  C   UNL d   1      -4.070  -6.000  -1.353  0.00  0.00     0.009 C 
ENDBRANCH   7   8
ENDBRANCH   1   7
TORSDOF 2
ENDMDL
