MODEL 1
REMARK minimizedAffinity 0.630965114
REMARK minimizedRMSD -1
REMARK  2 active torsions:
REMARK  status: ('A' for Active; 'I' for Inactive)
REMARK    1  A    between atoms: C1_2  and  C2_3 
REMARK    2  A    between atoms: C2_3  and  C3_4 
ROOT
ATOM      1  C3  UNL d   1       0.287  -0.648  -0.836  0.00  0.00    -0.075 A 
ATOM      2  C4  UNL d   1       0.432   0.121   0.328  0.00  0.00     0.002 A 
ATOM      3  C5  UNL d   1       0.477  -0.491   1.580  0.00  0.00     0.002 A 
ATOM      4  C6  UNL d   1       0.367  -1.876   1.687  0.00  0.00    -0.004 A 
ATOM      5  C7  UNL d   1       0.206  -2.648   0.538  0.00  0.00     0.002 A 
ATOM      6  C8  UNL d   1       0.166  -2.039  -0.717  0.00  0.00     0.002 A 
ENDROOT
BRANCH   1   7
ATOM      7  C2  UNL d   1       0.268   0.006  -2.197  0.00  0.00     0.056 C 
BRANCH   7   8
ATOM      8  C1  UNL d   1      -1.095   0.584  -2.592  0.00  0.00     0.007 C 
ATOM      9  C   UNL d   1      -0.991   1.791  -3.515  0.00  0.00     0.009 C 
ENDBRANCH   7   8
ENDBRANCH   1   7
TORSDOF 2
ENDMDL
