MODEL 1
REMARK minimizedAffinity -4.13035107
REMARK minimizedRMSD -1
REMARK  3 active torsions:
REMARK  status: ('A' for Active; 'I' for Inactive)
REMARK    1  A    between atoms: C3'_2  and  C2'_3 
REMARK    2  A    between atoms: C2'_3  and  C1'_4 
REMARK    3  A    between atoms: C1'_4  and  C1_5 
ROOT
ATOM      1  C1  N4B d   1      -0.166   0.072  -0.005  0.00  0.00    -0.075 A 
ATOM      2  C2  N4B d   1      -0.129  -0.737   1.152  0.00  0.00     0.002 A 
ATOM      3  C3  N4B d   1      -0.770  -0.329   2.296  0.00  0.00     0.002 A 
ATOM      4  C4  N4B d   1      -1.436   0.887   2.313  0.00  0.00    -0.004 A 
ATOM      5  C5  N4B d   1      -1.490   1.650   1.183  0.00  0.00     0.002 A 
ATOM      6  C6  N4B d   1      -0.853   1.251   0.025  0.00  0.00     0.002 A 
ENDROOT
BRANCH   1   7
ATOM      7  C1' N4B d   1       0.591  -0.291  -1.252  0.00  0.00     0.057 C 
BRANCH   7   8
ATOM      8  C2' N4B d   1       0.859  -1.793  -1.257  0.00  0.00     0.009 C 
BRANCH   8   9
ATOM      9  C3' N4B d   1       0.226  -2.479  -2.455  0.00  0.00     0.004 C 
ATOM     10  C4' N4B d   1      -0.321  -3.836  -2.126  0.00  0.00     0.003 C 
ENDBRANCH   8   9
ENDBRANCH   7   8
ENDBRANCH   1   7
TORSDOF 3
ENDMDL
