MODEL 1
REMARK minimizedAffinity -3.7204268
REMARK minimizedRMSD -1
REMARK  3 active torsions:
REMARK  status: ('A' for Active; 'I' for Inactive)
REMARK    1  A    between atoms: C3'_2  and  C2'_3 
REMARK    2  A    between atoms: C2'_3  and  C1'_4 
REMARK    3  A    between atoms: C1'_4  and  C1_5 
ROOT
ATOM      1  C1  N4B d   1       0.785  -1.621  -1.516  0.00  0.00    -0.075 A 
ATOM      2  C2  N4B d   1       0.822  -2.877  -0.871  0.00  0.00     0.002 A 
ATOM      3  C3  N4B d   1       0.400  -4.002  -1.536  0.00  0.00     0.002 A 
ATOM      4  C4  N4B d   1      -0.079  -3.894  -2.833  0.00  0.00    -0.004 A 
ATOM      5  C5  N4B d   1      -0.088  -2.681  -3.457  0.00  0.00     0.002 A 
ATOM      6  C6  N4B d   1       0.337  -1.542  -2.803  0.00  0.00     0.002 A 
ENDROOT
BRANCH   1   7
ATOM      7  C1' N4B d   1       1.156  -0.351  -0.801  0.00  0.00     0.057 C 
BRANCH   7   8
ATOM      8  C2' N4B d   1      -0.099   0.262  -0.185  0.00  0.00     0.009 C 
BRANCH   8   9
ATOM      9  C3' N4B d   1      -0.286  -0.162   1.262  0.00  0.00     0.004 C 
ATOM     10  C4' N4B d   1      -1.303   0.671   1.984  0.00  0.00     0.003 C 
ENDBRANCH   8   9
ENDBRANCH   7   8
ENDBRANCH   1   7
TORSDOF 3
ENDMDL
