MODEL 1
REMARK minimizedAffinity -5.90195227
REMARK minimizedRMSD -1
REMARK  3 active torsions:
REMARK  status: ('A' for Active; 'I' for Inactive)
REMARK    1  A    between atoms: C3'_2  and  C2'_3 
REMARK    2  A    between atoms: C2'_3  and  C1'_4 
REMARK    3  A    between atoms: C1'_4  and  C1_5 
ROOT
ATOM      1  C1  N4B d   1      -0.332  -0.233   0.354  0.00  0.00    -0.075 A 
ATOM      2  C2  N4B d   1      -1.110   0.651  -0.425  0.00  0.00     0.002 A 
ATOM      3  C3  N4B d   1      -1.763   1.700   0.175  0.00  0.00     0.002 A 
ATOM      4  C4  N4B d   1      -1.668   1.873   1.548  0.00  0.00    -0.004 A 
ATOM      5  C5  N4B d   1      -0.893   1.029   2.289  0.00  0.00     0.002 A 
ATOM      6  C6  N4B d   1      -0.228  -0.027   1.699  0.00  0.00     0.002 A 
ENDROOT
BRANCH   1   7
ATOM      7  C1' N4B d   1       0.331  -1.444  -0.244  0.00  0.00     0.057 C 
BRANCH   7   8
ATOM      8  C2' N4B d   1      -0.159  -1.627  -1.677  0.00  0.00     0.009 C 
BRANCH   8   9
ATOM      9  C3' N4B d   1       0.167  -3.009  -2.218  0.00  0.00     0.004 C 
ATOM     10  C4' N4B d   1       1.213  -3.717  -1.409  0.00  0.00     0.003 C 
ENDBRANCH   8   9
ENDBRANCH   7   8
ENDBRANCH   1   7
TORSDOF 3
ENDMDL
