MODEL 1
REMARK minimizedAffinity -5.72526789
REMARK minimizedRMSD -1
REMARK  3 active torsions:
REMARK  status: ('A' for Active; 'I' for Inactive)
REMARK    1  A    between atoms: C3'_2  and  C2'_3 
REMARK    2  A    between atoms: C2'_3  and  C1'_4 
REMARK    3  A    between atoms: C1'_4  and  C1_5 
ROOT
ATOM      1  C1  N4B d   1      -0.117  -0.925  -0.679  0.00  0.00    -0.075 A 
ATOM      2  C2  N4B d   1      -1.004  -1.530  -1.597  0.00  0.00     0.002 A 
ATOM      3  C3  N4B d   1      -0.594  -2.613  -2.335  0.00  0.00     0.002 A 
ATOM      4  C4  N4B d   1       0.698  -3.095  -2.188  0.00  0.00    -0.004 A 
ATOM      5  C5  N4B d   1       1.540  -2.521  -1.281  0.00  0.00     0.002 A 
ATOM      6  C6  N4B d   1       1.141  -1.434  -0.530  0.00  0.00     0.002 A 
ENDROOT
BRANCH   1   7
ATOM      7  C1' N4B d   1      -0.491   0.313   0.088  0.00  0.00     0.057 C 
BRANCH   7   8
ATOM      8  C2' N4B d   1      -1.797   0.064   0.836  0.00  0.00     0.009 C 
BRANCH   8   9
ATOM      9  C3' N4B d   1      -2.165   1.227   1.740  0.00  0.00     0.004 C 
ATOM     10  C4' N4B d   1      -1.071   1.582   2.703  0.00  0.00     0.003 C 
ENDBRANCH   8   9
ENDBRANCH   7   8
ENDBRANCH   1   7
TORSDOF 3
ENDMDL
