MODEL 1
REMARK minimizedAffinity -6.0637536
REMARK minimizedRMSD -1
REMARK  3 active torsions:
REMARK  status: ('A' for Active; 'I' for Inactive)
REMARK    1  A    between atoms: C3'_2  and  C2'_3 
REMARK    2  A    between atoms: C2'_3  and  C1'_4 
REMARK    3  A    between atoms: C1'_4  and  C1_5 
ROOT
ATOM      1  C1  N4B d   1      -0.128   0.273   0.107  0.00  0.00    -0.075 A 
ATOM      2  C2  N4B d   1      -0.115   0.159   1.514  0.00  0.00     0.002 A 
ATOM      3  C3  N4B d   1      -1.025   0.858   2.269  0.00  0.00     0.002 A 
ATOM      4  C4  N4B d   1      -1.942   1.688   1.641  0.00  0.00    -0.004 A 
ATOM      5  C5  N4B d   1      -1.965   1.772   0.280  0.00  0.00     0.002 A 
ATOM      6  C6  N4B d   1      -1.058   1.073  -0.491  0.00  0.00     0.002 A 
ENDROOT
BRANCH   1   7
ATOM      7  C1' N4B d   1       0.902  -0.405  -0.754  0.00  0.00     0.057 C 
BRANCH   7   8
ATOM      8  C2' N4B d   1       0.604  -1.901  -0.809  0.00  0.00     0.009 C 
BRANCH   8   9
ATOM      9  C3' N4B d   1       0.896  -2.488  -2.179  0.00  0.00     0.004 C 
ATOM     10  C4' N4B d   1      -0.317  -3.089  -2.824  0.00  0.00     0.003 C 
ENDBRANCH   8   9
ENDBRANCH   7   8
ENDBRANCH   1   7
TORSDOF 3
ENDMDL
