MODEL 1
REMARK minimizedAffinity -5.19058752
REMARK minimizedRMSD -1
REMARK  3 active torsions:
REMARK  status: ('A' for Active; 'I' for Inactive)
REMARK    1  A    between atoms: C3'_2  and  C2'_3 
REMARK    2  A    between atoms: C2'_3  and  C1'_4 
REMARK    3  A    between atoms: C1'_4  and  C1_5 
ROOT
ATOM      1  C1  N4B d   1       0.030  -0.024   0.093  0.00  0.00    -0.075 A 
ATOM      2  C2  N4B d   1      -0.814   0.939  -0.503  0.00  0.00     0.002 A 
ATOM      3  C3  N4B d   1      -1.581   1.761   0.285  0.00  0.00     0.002 A 
ATOM      4  C4  N4B d   1      -1.535   1.627   1.665  0.00  0.00    -0.004 A 
ATOM      5  C5  N4B d   1      -0.698   0.712   2.233  0.00  0.00     0.002 A 
ATOM      6  C6  N4B d   1       0.081  -0.118   1.453  0.00  0.00     0.002 A 
ENDROOT
BRANCH   1   7
ATOM      7  C1' N4B d   1       0.822  -1.003  -0.729  0.00  0.00     0.057 C 
BRANCH   7   8
ATOM      8  C2' N4B d   1       0.022  -1.375  -1.974  0.00  0.00     0.009 C 
BRANCH   8   9
ATOM      9  C3' N4B d   1       0.431  -2.728  -2.530  0.00  0.00     0.004 C 
ATOM     10  C4' N4B d   1      -0.547  -3.814  -2.192  0.00  0.00     0.003 C 
ENDBRANCH   8   9
ENDBRANCH   7   8
ENDBRANCH   1   7
TORSDOF 3
ENDMDL
