MODEL 1
REMARK minimizedAffinity -5.58882666
REMARK minimizedRMSD -1
REMARK  3 active torsions:
REMARK  status: ('A' for Active; 'I' for Inactive)
REMARK    1  A    between atoms: C3'_2  and  C2'_3 
REMARK    2  A    between atoms: C2'_3  and  C1'_4 
REMARK    3  A    between atoms: C1'_4  and  C1_5 
ROOT
ATOM      1  C1  N4B d   1       0.055   0.439  -0.032  0.00  0.00    -0.075 A 
ATOM      2  C2  N4B d   1      -0.861   1.466  -0.348  0.00  0.00     0.002 A 
ATOM      3  C3  N4B d   1      -1.755   1.903   0.599  0.00  0.00     0.002 A 
ATOM      4  C4  N4B d   1      -1.763   1.319   1.857  0.00  0.00    -0.004 A 
ATOM      5  C5  N4B d   1      -0.858   0.346   2.162  0.00  0.00     0.002 A 
ATOM      6  C6  N4B d   1       0.049  -0.102   1.222  0.00  0.00     0.002 A 
ENDROOT
BRANCH   1   7
ATOM      7  C1' N4B d   1       0.994  -0.132  -1.059  0.00  0.00     0.057 C 
BRANCH   7   8
ATOM      8  C2' N4B d   1       0.827  -1.648  -1.102  0.00  0.00     0.009 C 
BRANCH   8   9
ATOM      9  C3' N4B d   1       0.028  -2.099  -2.312  0.00  0.00     0.004 C 
ATOM     10  C4' N4B d   1      -0.306  -3.560  -2.277  0.00  0.00     0.003 C 
ENDBRANCH   8   9
ENDBRANCH   7   8
ENDBRANCH   1   7
TORSDOF 3
ENDMDL
