MODEL 1
REMARK minimizedAffinity -5.59609938
REMARK minimizedRMSD -1
REMARK  3 active torsions:
REMARK  status: ('A' for Active; 'I' for Inactive)
REMARK    1  A    between atoms: C3'_2  and  C2'_3 
REMARK    2  A    between atoms: C2'_3  and  C1'_4 
REMARK    3  A    between atoms: C1'_4  and  C1_5 
ROOT
ATOM      1  C1  N4B d   1      -0.174   0.013   0.395  0.00  0.00    -0.075 A 
ATOM      2  C2  N4B d   1      -0.255   0.174   1.795  0.00  0.00     0.002 A 
ATOM      3  C3  N4B d   1      -1.147   1.069   2.333  0.00  0.00     0.002 A 
ATOM      4  C4  N4B d   1      -1.952   1.824   1.493  0.00  0.00    -0.004 A 
ATOM      5  C5  N4B d   1      -1.886   1.644   0.143  0.00  0.00     0.002 A 
ATOM      6  C6  N4B d   1      -0.997   0.745  -0.412  0.00  0.00     0.002 A 
ENDROOT
BRANCH   1   7
ATOM      7  C1' N4B d   1       0.846  -0.890  -0.243  0.00  0.00     0.057 C 
BRANCH   7   8
ATOM      8  C2' N4B d   1       0.351  -1.307  -1.625  0.00  0.00     0.009 C 
BRANCH   8   9
ATOM      9  C3' N4B d   1       0.396  -2.813  -1.815  0.00  0.00     0.004 C 
ATOM     10  C4' N4B d   1      -0.392  -3.272  -3.006  0.00  0.00     0.003 C 
ENDBRANCH   8   9
ENDBRANCH   7   8
ENDBRANCH   1   7
TORSDOF 3
ENDMDL
