MODEL 1
REMARK minimizedAffinity 1.61570144
REMARK minimizedRMSD -1
REMARK  0 active torsions:
REMARK  status: ('A' for Active; 'I' for Inactive)
ROOT
ATOM      1  N1  IND d   1       5.075   2.499   5.997  0.00  0.00    -0.196 N 
ATOM      2  C2  IND d   1       4.159   1.484   5.992  0.00  0.00     0.054 A 
ATOM      3  C3  IND d   1       2.903   1.985   5.999  0.00  0.00    -0.031 A 
ATOM      4  C4  IND d   1       2.119   4.436   5.915  0.00  0.00     0.051 A 
ATOM      5  C5  IND d   1       2.589   5.719   5.945  0.00  0.00    -0.031 A 
ATOM      6  C6  IND d   1       3.939   5.999   5.992  0.00  0.00     0.015 A 
ATOM      7  C7  IND d   1       4.874   5.003   6.000  0.00  0.00    -0.016 A 
ATOM      8  C8  IND d   1       4.400   3.699   5.976  0.00  0.00    -0.047 A 
ATOM      9  C9  IND d   1       3.030   3.408   5.971  0.00  0.00    -0.096 A 
ATOM     10  HN1 IND d   1       5.929   2.403   6.011  0.00  0.00     0.298 HD
ENDROOT
TORSDOF 0
ENDMDL
