MODEL 1
REMARK minimizedAffinity 2.7213347
REMARK minimizedRMSD -1
REMARK  0 active torsions:
REMARK  status: ('A' for Active; 'I' for Inactive)
ROOT
ATOM      1  N1  IND d   1       4.348   1.046   5.635  0.00  0.00    -0.196 N 
ATOM      2  C2  IND d   1       3.021   0.827   5.881  0.00  0.00     0.054 A 
ATOM      3  C3  IND d   1       2.364   2.002   6.000  0.00  0.00    -0.031 A 
ATOM      4  C4  IND d   1       3.248   4.405   5.726  0.00  0.00     0.051 A 
ATOM      5  C5  IND d   1       4.401   5.113   5.533  0.00  0.00    -0.031 A 
ATOM      6  C6  IND d   1       5.619   4.489   5.359  0.00  0.00     0.015 A 
ATOM      7  C7  IND d   1       5.729   3.128   5.358  0.00  0.00    -0.016 A 
ATOM      8  C8  IND d   1       4.561   2.405   5.561  0.00  0.00    -0.047 A 
ATOM      9  C9  IND d   1       3.329   3.033   5.781  0.00  0.00    -0.096 A 
ATOM     10  HN1 IND d   1       4.948   0.438   5.542  0.00  0.00     0.298 HD
ENDROOT
TORSDOF 0
ENDMDL
