MODEL 1
REMARK minimizedAffinity 2.68478942
REMARK minimizedRMSD -1
REMARK  0 active torsions:
REMARK  status: ('A' for Active; 'I' for Inactive)
ROOT
ATOM      1  N1  IND d   1       4.795   2.521   5.909  0.00  0.00    -0.196 N 
ATOM      2  C2  IND d   1       3.927   1.464   5.897  0.00  0.00     0.054 A 
ATOM      3  C3  IND d   1       2.649   1.904   5.934  0.00  0.00    -0.031 A 
ATOM      4  C4  IND d   1       1.749   4.316   5.916  0.00  0.00     0.051 A 
ATOM      5  C5  IND d   1       2.158   5.619   5.966  0.00  0.00    -0.031 A 
ATOM      6  C6  IND d   1       3.494   5.963   5.998  0.00  0.00     0.015 A 
ATOM      7  C7  IND d   1       4.475   5.013   5.969  0.00  0.00    -0.016 A 
ATOM      8  C8  IND d   1       4.063   3.688   5.925  0.00  0.00    -0.047 A 
ATOM      9  C9  IND d   1       2.709   3.331   5.936  0.00  0.00    -0.096 A 
ATOM     10  HN1 IND d   1       5.653   2.466   5.907  0.00  0.00     0.298 HD
ENDROOT
TORSDOF 0
ENDMDL
