MODEL 1
REMARK minimizedAffinity 8.36297607
REMARK minimizedRMSD -1
REMARK  0 active torsions:
REMARK  status: ('A' for Active; 'I' for Inactive)
ROOT
ATOM      1  N1  IND d   1       4.798   1.270   5.999  0.00  0.00    -0.196 N 
ATOM      2  C2  IND d   1       3.476   0.922   6.000  0.00  0.00     0.054 A 
ATOM      3  C3  IND d   1       2.699   2.028   5.998  0.00  0.00    -0.031 A 
ATOM      4  C4  IND d   1       3.383   4.508   5.893  0.00  0.00     0.051 A 
ATOM      5  C5  IND d   1       4.478   5.325   5.914  0.00  0.00    -0.031 A 
ATOM      6  C6  IND d   1       5.762   4.822   5.963  0.00  0.00     0.015 A 
ATOM      7  C7  IND d   1       6.000   3.477   5.981  0.00  0.00    -0.016 A 
ATOM      8  C8  IND d   1       4.890   2.644   5.967  0.00  0.00    -0.047 A 
ATOM      9  C9  IND d   1       3.583   3.149   5.960  0.00  0.00    -0.096 A 
ATOM     10  HN1 IND d   1       5.461   0.723   6.017  0.00  0.00     0.298 HD
ENDROOT
TORSDOF 0
ENDMDL
