MODEL 1
REMARK minimizedAffinity -1.33799112
REMARK minimizedRMSD -1
REMARK  0 active torsions:
REMARK  status: ('A' for Active; 'I' for Inactive)
ROOT
ATOM      1  N1  IND d   1       4.258   1.342   4.460  0.00  0.00    -0.196 N 
ATOM      2  C2  IND d   1       3.167   1.127   5.256  0.00  0.00     0.054 A 
ATOM      3  C3  IND d   1       2.903   2.224   6.000  0.00  0.00    -0.031 A 
ATOM      4  C4  IND d   1       4.070   4.519   5.999  0.00  0.00     0.051 A 
ATOM      5  C5  IND d   1       5.139   5.184   5.468  0.00  0.00    -0.031 A 
ATOM      6  C6  IND d   1       5.985   4.591   4.553  0.00  0.00     0.015 A 
ATOM      7  C7  IND d   1       5.785   3.309   4.125  0.00  0.00    -0.016 A 
ATOM      8  C8  IND d   1       4.704   2.629   4.668  0.00  0.00    -0.047 A 
ATOM      9  C9  IND d   1       3.867   3.211   5.628  0.00  0.00    -0.096 A 
ATOM     10  HN1 IND d   1       4.606   0.770   3.921  0.00  0.00     0.298 HD
ENDROOT
TORSDOF 0
ENDMDL
