MODEL 1
REMARK minimizedAffinity -2.80568266
REMARK minimizedRMSD -1
REMARK  0 active torsions:
REMARK  status: ('A' for Active; 'I' for Inactive)
ROOT
ATOM      1  N1  IND d   1       1.349   3.965   5.999  0.00  0.00    -0.196 N 
ATOM      2  C2  IND d   1       1.172   5.320   5.997  0.00  0.00     0.054 A 
ATOM      3  C3  IND d   1       2.368   5.951   5.995  0.00  0.00    -0.031 A 
ATOM      4  C4  IND d   1       4.741   4.958   5.894  0.00  0.00     0.051 A 
ATOM      5  C5  IND d   1       5.412   3.768   5.918  0.00  0.00    -0.031 A 
ATOM      6  C6  IND d   1       4.751   2.558   5.969  0.00  0.00     0.015 A 
ATOM      7  C7  IND d   1       3.386   2.493   5.986  0.00  0.00    -0.016 A 
ATOM      8  C8  IND d   1       2.701   3.699   5.969  0.00  0.00    -0.047 A 
ATOM      9  C9  IND d   1       3.368   4.931   5.960  0.00  0.00    -0.096 A 
ATOM     10  HN1 IND d   1       0.722   3.377   6.018  0.00  0.00     0.298 HD
ENDROOT
TORSDOF 0
ENDMDL
