MODEL 1
REMARK minimizedAffinity 15.5807152
REMARK minimizedRMSD -1
REMARK  0 active torsions:
REMARK  status: ('A' for Active; 'I' for Inactive)
ROOT
ATOM      1  N1  IND d   1      -1.970   1.436  -2.829  0.00  0.00    -0.196 N 
ATOM      2  C2  IND d   1      -1.980   0.243  -2.161  0.00  0.00     0.054 A 
ATOM      3  C3  IND d   1      -3.100  -0.453  -2.459  0.00  0.00    -0.031 A 
ATOM      4  C4  IND d   1      -5.001   0.127  -4.095  0.00  0.00     0.051 A 
ATOM      5  C5  IND d   1      -5.453   1.127  -4.910  0.00  0.00    -0.031 A 
ATOM      6  C6  IND d   1      -4.751   2.303  -5.079  0.00  0.00     0.015 A 
ATOM      7  C7  IND d   1      -3.561   2.520  -4.445  0.00  0.00    -0.016 A 
ATOM      8  C8  IND d   1      -3.102   1.510  -3.611  0.00  0.00    -0.047 A 
ATOM      9  C9  IND d   1      -3.831   0.332  -3.402  0.00  0.00    -0.096 A 
ATOM     10  HN1 IND d   1      -1.359   2.038  -2.771  0.00  0.00     0.298 HD
ENDROOT
TORSDOF 0
ENDMDL
