MODEL 1
REMARK minimizedAffinity 7.13166618
REMARK minimizedRMSD -1
REMARK  0 active torsions:
REMARK  status: ('A' for Active; 'I' for Inactive)
ROOT
ATOM      1  N1  IND d   1      -3.954   1.148   1.363  0.00  0.00    -0.196 N 
ATOM      2  C2  IND d   1      -5.232   1.059   0.888  0.00  0.00     0.054 A 
ATOM      3  C3  IND d   1      -5.241   0.486  -0.337  0.00  0.00    -0.031 A 
ATOM      4  C4  IND d   1      -3.284  -0.475  -1.706  0.00  0.00     0.051 A 
ATOM      5  C5  IND d   1      -1.922  -0.591  -1.703  0.00  0.00    -0.031 A 
ATOM      6  C6  IND d   1      -1.153  -0.128  -0.656  0.00  0.00     0.015 A 
ATOM      7  C7  IND d   1      -1.720   0.463   0.438  0.00  0.00    -0.016 A 
ATOM      8  C8  IND d   1      -3.102   0.590   0.435  0.00  0.00    -0.047 A 
ATOM      9  C9  IND d   1      -3.884   0.159  -0.644  0.00  0.00    -0.096 A 
ATOM     10  HN1 IND d   1      -3.721   1.494   2.115  0.00  0.00     0.298 HD
ENDROOT
TORSDOF 0
ENDMDL
