MODEL 1
REMARK minimizedAffinity 7.84649563
REMARK minimizedRMSD -1
REMARK  0 active torsions:
REMARK  status: ('A' for Active; 'I' for Inactive)
ROOT
ATOM      1  C   UNL d   1      -3.441   3.076   0.354  0.00  0.00     0.172 C 
ATOM      2  N   UNL d   1      -4.384   4.099   0.743  0.00  0.00    -0.070 N 
ATOM      3  C1  UNL d   1      -4.529   5.321   0.142  0.00  0.00    -0.004 A 
ATOM      4  C2  UNL d   1      -5.529   6.000   0.804  0.00  0.00    -0.047 A 
ATOM      5  C3  UNL d   1      -6.000   5.158   1.839  0.00  0.00    -0.047 A 
ATOM      6  C4  UNL d   1      -5.274   3.987   1.779  0.00  0.00    -0.004 A 
ENDROOT
TORSDOF 0
ENDMDL
