MODEL 1
REMARK minimizedAffinity 4.99002361
REMARK minimizedRMSD -1
REMARK  0 active torsions:
REMARK  status: ('A' for Active; 'I' for Inactive)
ROOT
ATOM      1  C   UNL d   1       5.517   0.538   2.642  0.00  0.00     0.172 C 
ATOM      2  N   UNL d   1       5.097   1.529   1.679  0.00  0.00    -0.070 N 
ATOM      3  C1  UNL d   1       5.807   1.922   0.576  0.00  0.00    -0.004 A 
ATOM      4  C2  UNL d   1       5.068   2.881  -0.082  0.00  0.00    -0.047 A 
ATOM      5  C3  UNL d   1       3.872   3.071   0.651  0.00  0.00    -0.047 A 
ATOM      6  C4  UNL d   1       3.917   2.222   1.737  0.00  0.00    -0.004 A 
ENDROOT
TORSDOF 0
ENDMDL
