MODEL 1
REMARK minimizedAffinity 8.8624115
REMARK minimizedRMSD -1
REMARK  0 active torsions:
REMARK  status: ('A' for Active; 'I' for Inactive)
ROOT
ATOM      1  C   UNL d   1       5.425   1.618  -3.665  0.00  0.00     0.172 C 
ATOM      2  N   UNL d   1       4.343   0.945  -2.985  0.00  0.00    -0.070 N 
ATOM      3  C1  UNL d   1       3.408   1.544  -2.185  0.00  0.00    -0.004 A 
ATOM      4  C2  UNL d   1       2.553   0.565  -1.728  0.00  0.00    -0.047 A 
ATOM      5  C3  UNL d   1       2.990  -0.666  -2.273  0.00  0.00    -0.047 A 
ATOM      6  C4  UNL d   1       4.100  -0.402  -3.047  0.00  0.00    -0.004 A 
ENDROOT
TORSDOF 0
ENDMDL
