MODEL 1
REMARK minimizedAffinity 4.50407362
REMARK minimizedRMSD -1
REMARK  0 active torsions:
REMARK  status: ('A' for Active; 'I' for Inactive)
ROOT
ATOM      1  C   UNL d   1      -2.122  -1.503   2.909  0.00  0.00     0.172 C 
ATOM      2  N   UNL d   1      -1.804  -1.820   1.536  0.00  0.00    -0.070 N 
ATOM      3  C1  UNL d   1      -0.974  -2.827   1.121  0.00  0.00    -0.004 A 
ATOM      4  C2  UNL d   1      -0.935  -2.801  -0.256  0.00  0.00    -0.047 A 
ATOM      5  C3  UNL d   1      -1.770  -1.741  -0.683  0.00  0.00    -0.047 A 
ATOM      6  C4  UNL d   1      -2.296  -1.151   0.447  0.00  0.00    -0.004 A 
ENDROOT
TORSDOF 0
ENDMDL
