MODEL 1
REMARK minimizedAffinity 4.8424077
REMARK minimizedRMSD -1
REMARK  0 active torsions:
REMARK  status: ('A' for Active; 'I' for Inactive)
ROOT
ATOM      1  C   UNL d   1       2.871   0.002  -2.093  0.00  0.00     0.172 C 
ATOM      2  N   UNL d   1       4.143  -0.017  -2.775  0.00  0.00    -0.070 N 
ATOM      3  C1  UNL d   1       4.841   1.085  -3.194  0.00  0.00    -0.004 A 
ATOM      4  C2  UNL d   1       6.000   0.646  -3.797  0.00  0.00    -0.047 A 
ATOM      5  C3  UNL d   1       5.998  -0.768  -3.740  0.00  0.00    -0.047 A 
ATOM      6  C4  UNL d   1       4.838  -1.152  -3.102  0.00  0.00    -0.004 A 
ENDROOT
TORSDOF 0
ENDMDL
