MODEL 1
REMARK minimizedAffinity 5.13115883
REMARK minimizedRMSD -1
REMARK  0 active torsions:
REMARK  status: ('A' for Active; 'I' for Inactive)
ROOT
ATOM      1  C   UNL d   1      -2.809  -2.346   2.984  0.00  0.00     0.172 C 
ATOM      2  N   UNL d   1      -2.205  -2.454   1.677  0.00  0.00    -0.070 N 
ATOM      3  C1  UNL d   1      -2.555  -1.723   0.574  0.00  0.00    -0.004 A 
ATOM      4  C2  UNL d   1      -1.746  -2.120  -0.469  0.00  0.00    -0.047 A 
ATOM      5  C3  UNL d   1      -0.882  -3.126   0.024  0.00  0.00    -0.047 A 
ATOM      6  C4  UNL d   1      -1.188  -3.313   1.356  0.00  0.00    -0.004 A 
ENDROOT
TORSDOF 0
ENDMDL
