MODEL 1
REMARK minimizedAffinity 8.18323898
REMARK minimizedRMSD -1
REMARK  0 active torsions:
REMARK  status: ('A' for Active; 'I' for Inactive)
ROOT
ATOM      1  C   UNL d   1      -0.493  -4.352   0.970  0.00  0.00     0.172 C 
ATOM      2  N   UNL d   1      -1.149  -3.097   0.683  0.00  0.00    -0.070 N 
ATOM      3  C1  UNL d   1      -0.865  -2.271  -0.371  0.00  0.00    -0.004 A 
ATOM      4  C2  UNL d   1      -1.706  -1.182  -0.291  0.00  0.00    -0.047 A 
ATOM      5  C3  UNL d   1      -2.523  -1.360   0.851  0.00  0.00    -0.047 A 
ATOM      6  C4  UNL d   1      -2.157  -2.554   1.435  0.00  0.00    -0.004 A 
ENDROOT
TORSDOF 0
ENDMDL
