MODEL 1
REMARK minimizedAffinity 3.4635613
REMARK minimizedRMSD -1
REMARK  0 active torsions:
REMARK  status: ('A' for Active; 'I' for Inactive)
ROOT
ATOM      1  C   UNL d   1      -4.471   5.996  -1.528  0.00  0.00     0.172 C 
ATOM      2  N   UNL d   1      -4.888   5.256  -0.361  0.00  0.00    -0.070 N 
ATOM      3  C1  UNL d   1      -4.344   4.077   0.073  0.00  0.00    -0.004 A 
ATOM      4  C2  UNL d   1      -5.016   3.696   1.215  0.00  0.00    -0.047 A 
ATOM      5  C3  UNL d   1      -5.999   4.681   1.475  0.00  0.00    -0.047 A 
ATOM      6  C4  UNL d   1      -5.897   5.635   0.484  0.00  0.00    -0.004 A 
ENDROOT
TORSDOF 0
ENDMDL
