MODEL 1
REMARK minimizedAffinity 3.50752354
REMARK minimizedRMSD -1
REMARK  0 active torsions:
REMARK  status: ('A' for Active; 'I' for Inactive)
ROOT
ATOM      1  C   UNL d   1       4.733   5.436   0.307  0.00  0.00     0.172 C 
ATOM      2  N   UNL d   1       4.563   4.047   0.665  0.00  0.00    -0.070 N 
ATOM      3  C1  UNL d   1       4.900   2.974  -0.116  0.00  0.00    -0.004 A 
ATOM      4  C2  UNL d   1       4.582   1.828   0.581  0.00  0.00    -0.047 A 
ATOM      5  C3  UNL d   1       4.034   2.227   1.823  0.00  0.00    -0.047 A 
ATOM      6  C4  UNL d   1       4.034   3.605   1.849  0.00  0.00    -0.004 A 
ENDROOT
TORSDOF 0
ENDMDL
