MODEL 1
REMARK minimizedAffinity 12.5196333
REMARK minimizedRMSD -1
REMARK  0 active torsions:
REMARK  status: ('A' for Active; 'I' for Inactive)
ROOT
ATOM      1  C   UNL d   1       4.884   5.153  -0.063  0.00  0.00     0.172 C 
ATOM      2  N   UNL d   1       4.194   3.893   0.072  0.00  0.00    -0.070 N 
ATOM      3  C1  UNL d   1       3.786   3.090  -0.960  0.00  0.00    -0.004 A 
ATOM      4  C2  UNL d   1       3.169   1.985  -0.417  0.00  0.00    -0.047 A 
ATOM      5  C3  UNL d   1       3.205   2.127   0.990  0.00  0.00    -0.047 A 
ATOM      6  C4  UNL d   1       3.845   3.317   1.266  0.00  0.00    -0.004 A 
ENDROOT
TORSDOF 0
ENDMDL
