MODEL 1
REMARK minimizedAffinity 7.28221941
REMARK minimizedRMSD -1
REMARK  0 active torsions:
REMARK  status: ('A' for Active; 'I' for Inactive)
ROOT
ATOM      1  C   UNL d   1       4.723   5.637   0.412  0.00  0.00     0.172 C 
ATOM      2  N   UNL d   1       4.668   4.195   0.356  0.00  0.00    -0.070 N 
ATOM      3  C1  UNL d   1       3.766   3.405   1.017  0.00  0.00    -0.004 A 
ATOM      4  C2  UNL d   1       4.046   2.092   0.703  0.00  0.00    -0.047 A 
ATOM      5  C3  UNL d   1       5.155   2.094  -0.175  0.00  0.00    -0.047 A 
ATOM      6  C4  UNL d   1       5.520   3.409  -0.373  0.00  0.00    -0.004 A 
ENDROOT
TORSDOF 0
ENDMDL
