MODEL 1
REMARK minimizedAffinity 8.97235489
REMARK minimizedRMSD -1
REMARK  0 active torsions:
REMARK  status: ('A' for Active; 'I' for Inactive)
ROOT
ATOM      1  C   UNL d   1      -5.999   5.976  -5.999  0.00  0.00     0.172 C 
ATOM      2  N   UNL d   1      -4.956   5.357  -5.216  0.00  0.00    -0.070 N 
ATOM      3  C1  UNL d   1      -4.556   4.051  -5.309  0.00  0.00    -0.004 A 
ATOM      4  C2  UNL d   1      -3.540   3.855  -4.398  0.00  0.00    -0.047 A 
ATOM      5  C3  UNL d   1      -3.323   5.085  -3.734  0.00  0.00    -0.047 A 
ATOM      6  C4  UNL d   1      -4.213   5.998  -4.259  0.00  0.00    -0.004 A 
ENDROOT
TORSDOF 0
ENDMDL
