MODEL 1
REMARK minimizedAffinity 8.24207592
REMARK minimizedRMSD -1
REMARK  0 active torsions:
REMARK  status: ('A' for Active; 'I' for Inactive)
ROOT
ATOM      1  C   UNL d   1      -0.484  -4.452   0.427  0.00  0.00     0.172 C 
ATOM      2  N   UNL d   1      -1.158  -3.210   0.127  0.00  0.00    -0.070 N 
ATOM      3  C1  UNL d   1      -0.918  -2.414  -0.961  0.00  0.00    -0.004 A 
ATOM      4  C2  UNL d   1      -1.762  -1.328  -0.884  0.00  0.00    -0.047 A 
ATOM      5  C3  UNL d   1      -2.536  -1.476   0.292  0.00  0.00    -0.047 A 
ATOM      6  C4  UNL d   1      -2.141  -2.649   0.898  0.00  0.00    -0.004 A 
ENDROOT
TORSDOF 0
ENDMDL
