MODEL 1
REMARK minimizedAffinity 14.487999
REMARK minimizedRMSD -1
REMARK  0 active torsions:
REMARK  status: ('A' for Active; 'I' for Inactive)
ROOT
ATOM      1  C   UNL d   1      -0.353  -4.640   0.842  0.00  0.00     0.172 C 
ATOM      2  N   UNL d   1      -1.220  -3.521   0.553  0.00  0.00    -0.070 N 
ATOM      3  C1  UNL d   1      -0.962  -2.523  -0.348  0.00  0.00    -0.004 A 
ATOM      4  C2  UNL d   1      -2.029  -1.652  -0.329  0.00  0.00    -0.047 A 
ATOM      5  C3  UNL d   1      -2.961  -2.142   0.616  0.00  0.00    -0.047 A 
ATOM      6  C4  UNL d   1      -2.434  -3.301   1.148  0.00  0.00    -0.004 A 
ENDROOT
TORSDOF 0
ENDMDL
