MODEL 1
REMARK minimizedAffinity 9.69351768
REMARK minimizedRMSD -1
REMARK  0 active torsions:
REMARK  status: ('A' for Active; 'I' for Inactive)
ROOT
ATOM      1  C   UNL d   1       3.350   2.261   2.428  0.00  0.00     0.172 C 
ATOM      2  N   UNL d   1       3.356   2.318   3.871  0.00  0.00    -0.070 N 
ATOM      3  C1  UNL d   1       3.365   3.461   4.625  0.00  0.00    -0.004 A 
ATOM      4  C2  UNL d   1       3.367   3.091   5.953  0.00  0.00    -0.047 A 
ATOM      5  C3  UNL d   1       3.360   1.677   5.998  0.00  0.00    -0.047 A 
ATOM      6  C4  UNL d   1       3.353   1.224   4.696  0.00  0.00    -0.004 A 
ENDROOT
TORSDOF 0
ENDMDL
