MODEL 1
REMARK minimizedAffinity 6.64508009
REMARK minimizedRMSD -1
REMARK  0 active torsions:
REMARK  status: ('A' for Active; 'I' for Inactive)
ROOT
ATOM      1  C   UNL d   1       0.533   3.641  -1.685  0.00  0.00     0.020 A 
ATOM      2  C1  UNL d   1       0.631   4.138  -0.386  0.00  0.00     0.020 A 
ATOM      3  C2  UNL d   1       1.112   3.321   0.639  0.00  0.00     0.034 A 
ATOM      4  C3  UNL d   1       1.496   2.003   0.367  0.00  0.00     0.017 A 
ATOM      5  C4  UNL d   1       1.397   1.505  -0.938  0.00  0.00     0.017 A 
ATOM      6  C5  UNL d   1       0.915   2.328  -1.960  0.00  0.00     0.034 A 
ATOM      7 Cl   UNL d   1       1.852  -0.110  -1.350  0.00  0.00    -0.070 Cl
ATOM      8 Cl1  UNL d   1       2.082   1.049   1.683  0.00  0.00    -0.070 Cl
ENDROOT
TORSDOF 0
ENDMDL
