MODEL 1
REMARK minimizedAffinity 4.8135457
REMARK minimizedRMSD -1
REMARK  0 active torsions:
REMARK  status: ('A' for Active; 'I' for Inactive)
ROOT
ATOM      1  C   UNL d   1       1.319  -0.496   0.272  0.00  0.00     0.020 A 
ATOM      2  C1  UNL d   1       1.279  -0.381  -1.117  0.00  0.00     0.020 A 
ATOM      3  C2  UNL d   1       1.245   0.883  -1.711  0.00  0.00     0.034 A 
ATOM      4  C3  UNL d   1       1.250   2.035  -0.917  0.00  0.00     0.017 A 
ATOM      5  C4  UNL d   1       1.290   1.918   0.477  0.00  0.00     0.017 A 
ATOM      6  C5  UNL d   1       1.324   0.651   1.067  0.00  0.00     0.034 A 
ATOM      7 Cl   UNL d   1       1.299   3.294   1.523  0.00  0.00    -0.070 Cl
ATOM      8 Cl1  UNL d   1       1.207   3.564  -1.720  0.00  0.00    -0.070 Cl
ENDROOT
TORSDOF 0
ENDMDL
