MODEL 1
REMARK minimizedAffinity 0.0163935367
REMARK minimizedRMSD -1
REMARK  0 active torsions:
REMARK  status: ('A' for Active; 'I' for Inactive)
ROOT
ATOM      1  C   UNL d   1       1.002   1.296   0.878  0.00  0.00     0.020 A 
ATOM      2  C1  UNL d   1       1.445  -0.016   0.716  0.00  0.00     0.020 A 
ATOM      3  C2  UNL d   1       1.605  -0.546  -0.567  0.00  0.00     0.034 A 
ATOM      4  C3  UNL d   1       1.322   0.237  -1.692  0.00  0.00     0.017 A 
ATOM      5  C4  UNL d   1       0.877   1.554  -1.528  0.00  0.00     0.017 A 
ATOM      6  C5  UNL d   1       0.719   2.079  -0.242  0.00  0.00     0.034 A 
ATOM      7 Cl   UNL d   1       0.508   2.581  -2.868  0.00  0.00    -0.070 Cl
ATOM      8 Cl1  UNL d   1       1.542  -0.483  -3.247  0.00  0.00    -0.070 Cl
ENDROOT
TORSDOF 0
ENDMDL
