MODEL 1
REMARK minimizedAffinity 0.718919635
REMARK minimizedRMSD -1
REMARK  0 active torsions:
REMARK  status: ('A' for Active; 'I' for Inactive)
ROOT
ATOM      1  C   UNL d   1       1.312   0.880   0.415  0.00  0.00     0.020 A 
ATOM      2  C1  UNL d   1       0.660   1.117  -0.795  0.00  0.00     0.020 A 
ATOM      3  C2  UNL d   1       0.388   0.056  -1.660  0.00  0.00     0.034 A 
ATOM      4  C3  UNL d   1       0.766  -1.247  -1.317  0.00  0.00     0.017 A 
ATOM      5  C4  UNL d   1       1.420  -1.484  -0.102  0.00  0.00     0.017 A 
ATOM      6  C5  UNL d   1       1.690  -0.417   0.761  0.00  0.00     0.034 A 
ATOM      7 Cl   UNL d   1       1.917  -3.064   0.390  0.00  0.00    -0.070 Cl
ATOM      8 Cl1  UNL d   1       0.397  -2.512  -2.435  0.00  0.00    -0.070 Cl
ENDROOT
TORSDOF 0
ENDMDL
