MODEL 1
REMARK minimizedAffinity 5.56764841
REMARK minimizedRMSD -1
REMARK  0 active torsions:
REMARK  status: ('A' for Active; 'I' for Inactive)
ROOT
ATOM      1  C   UNL d   1       0.653   3.239  -0.950  0.00  0.00     0.020 A 
ATOM      2  C1  UNL d   1       0.189   3.016  -2.246  0.00  0.00     0.020 A 
ATOM      3  C2  UNL d   1       0.340   1.759  -2.835  0.00  0.00     0.034 A 
ATOM      4  C3  UNL d   1       0.957   0.720  -2.128  0.00  0.00     0.017 A 
ATOM      5  C4  UNL d   1       1.422   0.945  -0.827  0.00  0.00     0.017 A 
ATOM      6  C5  UNL d   1       1.268   2.206  -0.242  0.00  0.00     0.034 A 
ATOM      7 Cl   UNL d   1       2.193  -0.288   0.108  0.00  0.00    -0.070 Cl
ATOM      8 Cl1  UNL d   1       1.110  -0.809  -2.918  0.00  0.00    -0.070 Cl
ENDROOT
TORSDOF 0
ENDMDL
