MODEL 1
REMARK minimizedAffinity -2.98350024
REMARK minimizedRMSD -1
REMARK  0 active torsions:
REMARK  status: ('A' for Active; 'I' for Inactive)
ROOT
ATOM      1  C   UNL d   1       1.136   0.029  -0.944  0.00  0.00     0.020 A 
ATOM      2  C1  UNL d   1       1.219  -0.069   0.444  0.00  0.00     0.020 A 
ATOM      3  C2  UNL d   1       1.201   1.086   1.228  0.00  0.00     0.034 A 
ATOM      4  C3  UNL d   1       1.100   2.345   0.624  0.00  0.00     0.017 A 
ATOM      5  C4  UNL d   1       1.016   2.442  -0.769  0.00  0.00     0.017 A 
ATOM      6  C5  UNL d   1       1.035   1.282  -1.550  0.00  0.00     0.034 A 
ATOM      7 Cl   UNL d   1       0.889   3.960  -1.587  0.00  0.00    -0.070 Cl
ATOM      8 Cl1  UNL d   1       1.083   3.731   1.655  0.00  0.00    -0.070 Cl
ENDROOT
TORSDOF 0
ENDMDL
