MODEL 1
REMARK minimizedAffinity -1.22693133
REMARK minimizedRMSD -1
REMARK  0 active torsions:
REMARK  status: ('A' for Active; 'I' for Inactive)
ROOT
ATOM      1  C   UNL d   1      -3.255   1.002   2.786  0.00  0.00     0.020 A 
ATOM      2  C1  UNL d   1      -3.852   2.262   2.770  0.00  0.00     0.020 A 
ATOM      3  C2  UNL d   1      -3.538   3.195   3.760  0.00  0.00     0.034 A 
ATOM      4  C3  UNL d   1      -2.625   2.870   4.770  0.00  0.00     0.017 A 
ATOM      5  C4  UNL d   1      -2.027   1.605   4.785  0.00  0.00     0.017 A 
ATOM      6  C5  UNL d   1      -2.344   0.674   3.791  0.00  0.00     0.034 A 
ATOM      7 Cl   UNL d   1      -0.891   1.132   5.998  0.00  0.00    -0.070 Cl
ATOM      8 Cl1  UNL d   1      -2.283   4.074   5.961  0.00  0.00    -0.070 Cl
ENDROOT
TORSDOF 0
ENDMDL
