MODEL 1
REMARK minimizedAffinity -1.78844225
REMARK minimizedRMSD -1
REMARK  0 active torsions:
REMARK  status: ('A' for Active; 'I' for Inactive)
ROOT
ATOM      1  C   UNL d   1       1.210  -2.831  -0.101  0.00  0.00     0.020 A 
ATOM      2  C1  UNL d   1       2.569  -3.037   0.132  0.00  0.00     0.020 A 
ATOM      3  C2  UNL d   1       3.447  -1.951   0.145  0.00  0.00     0.034 A 
ATOM      4  C3  UNL d   1       2.967  -0.655  -0.076  0.00  0.00     0.017 A 
ATOM      5  C4  UNL d   1       1.603  -0.450  -0.309  0.00  0.00     0.017 A 
ATOM      6  C5  UNL d   1       0.728  -1.540  -0.320  0.00  0.00     0.034 A 
ATOM      7 Cl   UNL d   1       0.936   1.120  -0.588  0.00  0.00    -0.070 Cl
ATOM      8 Cl1  UNL d   1       4.110   0.641  -0.045  0.00  0.00    -0.070 Cl
ENDROOT
TORSDOF 0
ENDMDL
