MODEL 1
REMARK minimizedAffinity -4.30265427
REMARK minimizedRMSD -1
REMARK  0 active torsions:
REMARK  status: ('A' for Active; 'I' for Inactive)
ROOT
ATOM      1  C   UNL d   1       1.146   0.459  -2.863  0.00  0.00     0.020 A 
ATOM      2  C1  UNL d   1       0.895  -0.234  -1.680  0.00  0.00     0.020 A 
ATOM      3  C2  UNL d   1       0.783   0.460  -0.474  0.00  0.00     0.034 A 
ATOM      4  C3  UNL d   1       0.922   1.853  -0.448  0.00  0.00     0.017 A 
ATOM      5  C4  UNL d   1       1.174   2.548  -1.637  0.00  0.00     0.017 A 
ATOM      6  C5  UNL d   1       1.285   1.847  -2.842  0.00  0.00     0.034 A 
ATOM      7 Cl   UNL d   1       1.357   4.266  -1.684  0.00  0.00    -0.070 Cl
ATOM      8 Cl1  UNL d   1       0.771   2.647   1.079  0.00  0.00    -0.070 Cl
ENDROOT
TORSDOF 0
ENDMDL
