MODEL 1
REMARK minimizedAffinity 2.47365665
REMARK minimizedRMSD -1
REMARK  0 active torsions:
REMARK  status: ('A' for Active; 'I' for Inactive)
ROOT
ATOM      1  C   UNL d   1       1.231  -0.070  -0.936  0.00  0.00     0.020 A 
ATOM      2  C1  UNL d   1       0.913   1.169  -1.489  0.00  0.00     0.020 A 
ATOM      3  C2  UNL d   1       0.905   2.311  -0.686  0.00  0.00     0.034 A 
ATOM      4  C3  UNL d   1       1.216   2.216   0.676  0.00  0.00     0.017 A 
ATOM      5  C4  UNL d   1       1.536   0.972   1.230  0.00  0.00     0.017 A 
ATOM      6  C5  UNL d   1       1.542  -0.169   0.421  0.00  0.00     0.034 A 
ATOM      7 Cl   UNL d   1       1.931   0.776   2.901  0.00  0.00    -0.070 Cl
ATOM      8 Cl1  UNL d   1       1.188   3.670   1.609  0.00  0.00    -0.070 Cl
ENDROOT
TORSDOF 0
ENDMDL
