MODEL 1
REMARK minimizedAffinity -2.40712595
REMARK minimizedRMSD -1
REMARK  0 active torsions:
REMARK  status: ('A' for Active; 'I' for Inactive)
ROOT
ATOM      1  C   UNL d   1      -0.165   1.160  -2.722  0.00  0.00     0.020 A 
ATOM      2  C1  UNL d   1       0.682   0.169  -3.215  0.00  0.00     0.020 A 
ATOM      3  C2  UNL d   1       1.712  -0.331  -2.415  0.00  0.00     0.034 A 
ATOM      4  C3  UNL d   1       1.897   0.160  -1.117  0.00  0.00     0.017 A 
ATOM      5  C4  UNL d   1       1.046   1.155  -0.623  0.00  0.00     0.017 A 
ATOM      6  C5  UNL d   1       0.017   1.652  -1.429  0.00  0.00     0.034 A 
ATOM      7 Cl   UNL d   1       1.212   1.811   0.967  0.00  0.00    -0.070 Cl
ATOM      8 Cl1  UNL d   1       3.191  -0.504  -0.184  0.00  0.00    -0.070 Cl
ENDROOT
TORSDOF 0
ENDMDL
