MODEL 1
REMARK minimizedAffinity 1.21688926
REMARK minimizedRMSD -1
REMARK  0 active torsions:
REMARK  status: ('A' for Active; 'I' for Inactive)
ROOT
ATOM      1  C   UNL d   1       0.953   0.138   0.180  0.00  0.00     0.020 A 
ATOM      2  C1  UNL d   1       1.130   0.337  -1.188  0.00  0.00     0.020 A 
ATOM      3  C2  UNL d   1       1.309   1.629  -1.688  0.00  0.00     0.034 A 
ATOM      4  C3  UNL d   1       1.311   2.726  -0.819  0.00  0.00     0.017 A 
ATOM      5  C4  UNL d   1       1.133   2.525   0.555  0.00  0.00     0.017 A 
ATOM      6  C5  UNL d   1       0.954   1.229   1.050  0.00  0.00     0.034 A 
ATOM      7 Cl   UNL d   1       1.123   3.829   1.689  0.00  0.00    -0.070 Cl
ATOM      8 Cl1  UNL d   1       1.538   4.295  -1.506  0.00  0.00    -0.070 Cl
ENDROOT
TORSDOF 0
ENDMDL
