MODEL 1
REMARK minimizedAffinity -3.57594538
REMARK minimizedRMSD -1
REMARK  0 active torsions:
REMARK  status: ('A' for Active; 'I' for Inactive)
ROOT
ATOM      1  C   UNL d   1       0.927   2.050  -2.019  0.00  0.00     0.020 A 
ATOM      2  C1  UNL d   1       0.459   2.896  -1.014  0.00  0.00     0.020 A 
ATOM      3  C2  UNL d   1       0.361   2.432   0.300  0.00  0.00     0.034 A 
ATOM      4  C3  UNL d   1       0.732   1.119   0.612  0.00  0.00     0.017 A 
ATOM      5  C4  UNL d   1       1.201   0.271  -0.397  0.00  0.00     0.017 A 
ATOM      6  C5  UNL d   1       1.297   0.740  -1.711  0.00  0.00     0.034 A 
ATOM      7 Cl   UNL d   1       1.678  -1.362  -0.088  0.00  0.00    -0.070 Cl
ATOM      8 Cl1  UNL d   1       0.585   0.613   2.258  0.00  0.00    -0.070 Cl
ENDROOT
TORSDOF 0
ENDMDL
