MODEL 1
REMARK minimizedAffinity -3.42831278
REMARK minimizedRMSD -1
REMARK  0 active torsions:
REMARK  status: ('A' for Active; 'I' for Inactive)
ROOT
ATOM      1  C   UNL d   1       0.923   0.139  -1.588  0.00  0.00     0.020 A 
ATOM      2  C1  UNL d   1       0.836  -0.245  -0.250  0.00  0.00     0.020 A 
ATOM      3  C2  UNL d   1       0.931   0.714   0.760  0.00  0.00     0.034 A 
ATOM      4  C3  UNL d   1       1.114   2.063   0.434  0.00  0.00     0.017 A 
ATOM      5  C4  UNL d   1       1.202   2.448  -0.908  0.00  0.00     0.017 A 
ATOM      6  C5  UNL d   1       1.106   1.483  -1.916  0.00  0.00     0.034 A 
ATOM      7 Cl   UNL d   1       1.428   4.093  -1.388  0.00  0.00    -0.070 Cl
ATOM      8 Cl1  UNL d   1       1.223   3.196   1.734  0.00  0.00    -0.070 Cl
ENDROOT
TORSDOF 0
ENDMDL
