MODEL 1
REMARK minimizedAffinity 4.83459616
REMARK minimizedRMSD -1
REMARK  0 active torsions:
REMARK  status: ('A' for Active; 'I' for Inactive)
ROOT
ATOM      1  C   UNL d   1       0.880  -0.494   0.374  0.00  0.00     0.020 A 
ATOM      2  C1  UNL d   1       0.718  -0.502  -1.010  0.00  0.00     0.020 A 
ATOM      3  C2  UNL d   1       0.823   0.688  -1.733  0.00  0.00     0.034 A 
ATOM      4  C3  UNL d   1       1.091   1.892  -1.071  0.00  0.00     0.017 A 
ATOM      5  C4  UNL d   1       1.253   1.900   0.319  0.00  0.00     0.017 A 
ATOM      6  C5  UNL d   1       1.147   0.705   1.037  0.00  0.00     0.034 A 
ATOM      7 Cl   UNL d   1       1.585   3.346   1.205  0.00  0.00    -0.070 Cl
ATOM      8 Cl1  UNL d   1       1.208   3.326  -2.028  0.00  0.00    -0.070 Cl
ENDROOT
TORSDOF 0
ENDMDL
