MODEL 1
REMARK minimizedAffinity -0.112653509
REMARK minimizedRMSD -1
REMARK  0 active torsions:
REMARK  status: ('A' for Active; 'I' for Inactive)
ROOT
ATOM      1  C   UNL d   1       0.989  -1.114  -1.561  0.00  0.00     0.020 A 
ATOM      2  C1  UNL d   1       1.295  -1.524  -0.264  0.00  0.00     0.020 A 
ATOM      3  C2  UNL d   1       1.515  -0.574   0.736  0.00  0.00     0.034 A 
ATOM      4  C3  UNL d   1       1.429   0.791   0.440  0.00  0.00     0.017 A 
ATOM      5  C4  UNL d   1       1.122   1.202  -0.862  0.00  0.00     0.017 A 
ATOM      6  C5  UNL d   1       0.903   0.247  -1.859  0.00  0.00     0.034 A 
ATOM      7 Cl   UNL d   1       0.999   2.869  -1.303  0.00  0.00    -0.070 Cl
ATOM      8 Cl1  UNL d   1       1.713   1.911   1.725  0.00  0.00    -0.070 Cl
ENDROOT
TORSDOF 0
ENDMDL
