MODEL 1
REMARK minimizedAffinity 2.14517117
REMARK minimizedRMSD -1
REMARK  0 active torsions:
REMARK  status: ('A' for Active; 'I' for Inactive)
ROOT
ATOM      1  C   UNL d   1       1.179  -0.573  -0.768  0.00  0.00     0.020 A 
ATOM      2  C1  UNL d   1       0.943  -0.250   0.568  0.00  0.00     0.020 A 
ATOM      3  C2  UNL d   1       0.766   1.083   0.943  0.00  0.00     0.034 A 
ATOM      4  C3  UNL d   1       0.825   2.099  -0.018  0.00  0.00     0.017 A 
ATOM      5  C4  UNL d   1       1.062   1.774  -1.358  0.00  0.00     0.017 A 
ATOM      6  C5  UNL d   1       1.239   0.437  -1.729  0.00  0.00     0.034 A 
ATOM      7 Cl   UNL d   1       1.148   2.972  -2.601  0.00  0.00    -0.070 Cl
ATOM      8 Cl1  UNL d   1       0.597   3.726   0.518  0.00  0.00    -0.070 Cl
ENDROOT
TORSDOF 0
ENDMDL
