MODEL 1
REMARK minimizedAffinity -6.12650871
REMARK minimizedRMSD -1
REMARK  1 active torsions:
REMARK  status: ('A' for Active; 'I' for Inactive)
REMARK    1  A    between atoms: C1_2  and  C2_3 
ROOT
ATOM      1  C2  UNL d   1       0.824  -1.857   1.114  0.00  0.00    -0.077 A 
ATOM      2  C3  UNL d   1       1.493  -1.054   0.181  0.00  0.00     0.002 A 
ATOM      3  C4  UNL d   1       0.934   0.154  -0.242  0.00  0.00     0.002 A 
ATOM      4  C5  UNL d   1      -0.294   0.571   0.267  0.00  0.00    -0.004 A 
ATOM      5  C6  UNL d   1      -0.968  -0.222   1.195  0.00  0.00     0.002 A 
ATOM      6  C7  UNL d   1      -0.412  -1.430   1.617  0.00  0.00     0.002 A 
ENDROOT
BRANCH   1   7
ATOM      7  C1  UNL d   1       1.448  -3.136   1.608  0.00  0.00     0.055 C 
ATOM      8  C   UNL d   1       2.721  -2.863   2.396  0.00  0.00     0.019 C 
ENDBRANCH   1   7
TORSDOF 1
ENDMDL
