MODEL 1
REMARK minimizedAffinity -5.00428343
REMARK minimizedRMSD -1
REMARK  1 active torsions:
REMARK  status: ('A' for Active; 'I' for Inactive)
REMARK    1  A    between atoms: C1_2  and  C2_3 
ROOT
ATOM      1  C2  UNL d   1      -0.486  -0.365   0.510  0.00  0.00    -0.077 A 
ATOM      2  C3  UNL d   1      -0.921  -1.272   1.486  0.00  0.00     0.002 A 
ATOM      3  C4  UNL d   1      -0.153  -2.397   1.796  0.00  0.00     0.002 A 
ATOM      4  C5  UNL d   1       1.054  -2.622   1.138  0.00  0.00    -0.004 A 
ATOM      5  C6  UNL d   1       1.493  -1.726   0.164  0.00  0.00     0.002 A 
ATOM      6  C7  UNL d   1       0.727  -0.602  -0.148  0.00  0.00     0.002 A 
ENDROOT
BRANCH   1   7
ATOM      7  C1  UNL d   1      -1.288   0.875   0.210  0.00  0.00     0.055 C 
ATOM      8  C   UNL d   1      -1.297   1.180  -1.281  0.00  0.00     0.019 C 
ENDBRANCH   1   7
TORSDOF 1
ENDMDL
