MODEL 1
REMARK minimizedAffinity -4.78828287
REMARK minimizedRMSD -1
REMARK  1 active torsions:
REMARK  status: ('A' for Active; 'I' for Inactive)
REMARK    1  A    between atoms: C1_2  and  C2_3 
ROOT
ATOM      1  C2  UNL d   1       0.232  -0.041   0.010  0.00  0.00    -0.077 A 
ATOM      2  C3  UNL d   1       1.538  -0.365  -0.382  0.00  0.00     0.002 A 
ATOM      3  C4  UNL d   1       2.080  -1.614  -0.070  0.00  0.00     0.002 A 
ATOM      4  C5  UNL d   1       1.321  -2.549   0.630  0.00  0.00    -0.004 A 
ATOM      5  C6  UNL d   1       0.022  -2.236   1.026  0.00  0.00     0.002 A 
ATOM      6  C7  UNL d   1      -0.521  -0.988   0.716  0.00  0.00     0.002 A 
ENDROOT
BRANCH   1   7
ATOM      7  C1  UNL d   1      -0.372   1.286  -0.368  0.00  0.00     0.055 C 
ATOM      8  C   UNL d   1      -1.673   1.104  -1.137  0.00  0.00     0.019 C 
ENDBRANCH   1   7
TORSDOF 1
ENDMDL
