MODEL 1
REMARK minimizedAffinity -6.46067238
REMARK minimizedRMSD -1
REMARK  1 active torsions:
REMARK  status: ('A' for Active; 'I' for Inactive)
REMARK    1  A    between atoms: C1_2  and  C2_3 
ROOT
ATOM      1  C2  UNL d   1       0.561  -1.072   0.622  0.00  0.00    -0.077 A 
ATOM      2  C3  UNL d   1      -0.506  -0.892   1.513  0.00  0.00     0.002 A 
ATOM      3  C4  UNL d   1      -0.633  -1.711   2.637  0.00  0.00     0.002 A 
ATOM      4  C5  UNL d   1       0.306  -2.711   2.882  0.00  0.00    -0.004 A 
ATOM      5  C6  UNL d   1       1.369  -2.899   2.000  0.00  0.00     0.002 A 
ATOM      6  C7  UNL d   1       1.497  -2.083   0.876  0.00  0.00     0.002 A 
ENDROOT
BRANCH   1   7
ATOM      7  C1  UNL d   1       0.727  -0.158  -0.564  0.00  0.00     0.055 C 
ATOM      8  C   UNL d   1       0.289   1.261  -0.235  0.00  0.00     0.019 C 
ENDBRANCH   1   7
TORSDOF 1
ENDMDL
