MODEL 1
REMARK minimizedAffinity -5.79499722
REMARK minimizedRMSD -1
REMARK  1 active torsions:
REMARK  status: ('A' for Active; 'I' for Inactive)
REMARK    1  A    between atoms: C1_2  and  C2_3 
ROOT
ATOM      1  C2  UNL d   1       0.168  -1.506   1.370  0.00  0.00    -0.077 A 
ATOM      2  C3  UNL d   1       1.271  -2.368   1.451  0.00  0.00     0.002 A 
ATOM      3  C4  UNL d   1       1.337  -3.338   2.453  0.00  0.00     0.002 A 
ATOM      4  C5  UNL d   1       0.302  -3.458   3.378  0.00  0.00    -0.004 A 
ATOM      5  C6  UNL d   1      -0.798  -2.604   3.307  0.00  0.00     0.002 A 
ATOM      6  C7  UNL d   1      -0.865  -1.633   2.307  0.00  0.00     0.002 A 
ENDROOT
BRANCH   1   7
ATOM      7  C1  UNL d   1       0.072  -0.491   0.260  0.00  0.00     0.055 C 
ATOM      8  C   UNL d   1       1.451  -0.048  -0.206  0.00  0.00     0.019 C 
ENDBRANCH   1   7
TORSDOF 1
ENDMDL
