MODEL 1
REMARK minimizedAffinity -6.11493683
REMARK minimizedRMSD -1
REMARK  1 active torsions:
REMARK  status: ('A' for Active; 'I' for Inactive)
REMARK    1  A    between atoms: C1_2  and  C2_3 
ROOT
ATOM      1  C2  UNL d   1       0.041  -1.486   1.280  0.00  0.00    -0.077 A 
ATOM      2  C3  UNL d   1       1.364  -1.939   1.186  0.00  0.00     0.002 A 
ATOM      3  C4  UNL d   1       2.280  -1.279   0.364  0.00  0.00     0.002 A 
ATOM      4  C5  UNL d   1       1.883  -0.161  -0.367  0.00  0.00    -0.004 A 
ATOM      5  C6  UNL d   1       0.569   0.296  -0.282  0.00  0.00     0.002 A 
ATOM      6  C7  UNL d   1      -0.348  -0.363   0.538  0.00  0.00     0.002 A 
ENDROOT
BRANCH   1   7
ATOM      7  C1  UNL d   1      -0.935  -2.167   2.203  0.00  0.00     0.055 C 
ATOM      8  C   UNL d   1      -1.934  -1.175   2.781  0.00  0.00     0.019 C 
ENDBRANCH   1   7
TORSDOF 1
ENDMDL
