MODEL 1
REMARK minimizedAffinity -3.88526988
REMARK minimizedRMSD -1
REMARK  1 active torsions:
REMARK  status: ('A' for Active; 'I' for Inactive)
REMARK    1  A    between atoms: C1_2  and  C2_3 
ROOT
ATOM      1  C2  UNL d   1      -1.035   3.410  -3.661  0.00  0.00    -0.077 A 
ATOM      2  C3  UNL d   1      -2.167   2.700  -4.086  0.00  0.00     0.002 A 
ATOM      3  C4  UNL d   1      -2.875   1.898  -3.189  0.00  0.00     0.002 A 
ATOM      4  C5  UNL d   1      -2.463   1.803  -1.861  0.00  0.00    -0.004 A 
ATOM      5  C6  UNL d   1      -1.338   2.504  -1.430  0.00  0.00     0.002 A 
ATOM      6  C7  UNL d   1      -0.627   3.304  -2.325  0.00  0.00     0.002 A 
ENDROOT
BRANCH   1   7
ATOM      7  C1  UNL d   1      -0.298   4.314  -4.615  0.00  0.00     0.055 C 
ATOM      8  C   UNL d   1       0.450   5.411  -3.872  0.00  0.00     0.019 C 
ENDBRANCH   1   7
TORSDOF 1
ENDMDL
