MODEL 1
REMARK minimizedAffinity -3.64413214
REMARK minimizedRMSD -1
REMARK  1 active torsions:
REMARK  status: ('A' for Active; 'I' for Inactive)
REMARK    1  A    between atoms: C1_2  and  C2_3 
ROOT
ATOM      1  C2  UNL d   1      -0.308   0.286  -0.761  0.00  0.00    -0.077 A 
ATOM      2  C3  UNL d   1       0.934   0.777  -0.334  0.00  0.00     0.002 A 
ATOM      3  C4  UNL d   1       1.995  -0.098  -0.093  0.00  0.00     0.002 A 
ATOM      4  C5  UNL d   1       1.825  -1.469  -0.278  0.00  0.00    -0.004 A 
ATOM      5  C6  UNL d   1       0.593  -1.967  -0.700  0.00  0.00     0.002 A 
ATOM      6  C7  UNL d   1      -0.468  -1.094  -0.941  0.00  0.00     0.002 A 
ENDROOT
BRANCH   1   7
ATOM      7  C1  UNL d   1      -1.438   1.233  -1.069  0.00  0.00     0.055 C 
ATOM      8  C   UNL d   1      -1.468   1.596  -2.547  0.00  0.00     0.019 C 
ENDBRANCH   1   7
TORSDOF 1
ENDMDL
