MODEL 1
REMARK minimizedAffinity -4.47541571
REMARK minimizedRMSD -1
REMARK  1 active torsions:
REMARK  status: ('A' for Active; 'I' for Inactive)
REMARK    1  A    between atoms: C1_2  and  C2_3 
ROOT
ATOM      1  C2  UNL d   1       0.673  -1.357   1.359  0.00  0.00    -0.077 A 
ATOM      2  C3  UNL d   1       1.940  -1.477   0.771  0.00  0.00     0.002 A 
ATOM      3  C4  UNL d   1       2.233  -0.807  -0.419  0.00  0.00     0.002 A 
ATOM      4  C5  UNL d   1       1.265  -0.011  -1.028  0.00  0.00    -0.004 A 
ATOM      5  C6  UNL d   1       0.001   0.113  -0.452  0.00  0.00     0.002 A 
ATOM      6  C7  UNL d   1      -0.293  -0.557   0.736  0.00  0.00     0.002 A 
ENDROOT
BRANCH   1   7
ATOM      7  C1  UNL d   1       0.372  -2.039   2.668  0.00  0.00     0.055 C 
ATOM      8  C   UNL d   1      -0.917  -1.513   3.282  0.00  0.00     0.019 C 
ENDBRANCH   1   7
TORSDOF 1
ENDMDL
