MODEL 1
REMARK minimizedAffinity -5.23620129
REMARK minimizedRMSD -1
REMARK  1 active torsions:
REMARK  status: ('A' for Active; 'I' for Inactive)
REMARK    1  A    between atoms: C1_2  and  C2_3 
ROOT
ATOM      1  C2  UNL d   1       0.493  -1.397   2.023  0.00  0.00    -0.077 A 
ATOM      2  C3  UNL d   1      -0.205  -0.338   1.424  0.00  0.00     0.002 A 
ATOM      3  C4  UNL d   1       0.262   0.236   0.241  0.00  0.00     0.002 A 
ATOM      4  C5  UNL d   1       1.426  -0.244  -0.356  0.00  0.00    -0.004 A 
ATOM      5  C6  UNL d   1       2.128  -1.295   0.233  0.00  0.00     0.002 A 
ATOM      6  C7  UNL d   1       1.663  -1.869   1.416  0.00  0.00     0.002 A 
ENDROOT
BRANCH   1   7
ATOM      7  C1  UNL d   1      -0.037  -2.050   3.273  0.00  0.00     0.055 C 
ATOM      8  C   UNL d   1       0.141  -1.149   4.486  0.00  0.00     0.019 C 
ENDBRANCH   1   7
TORSDOF 1
ENDMDL
