MODEL 1
REMARK minimizedAffinity -0.6330989
REMARK minimizedRMSD -1
REMARK  1 active torsions:
REMARK  status: ('A' for Active; 'I' for Inactive)
REMARK    1  A    between atoms: C1_2  and  C2_3 
ROOT
ATOM      1  C2  UNL d   1      -1.234   1.021  -1.490  0.00  0.00    -0.077 A 
ATOM      2  C3  UNL d   1      -2.289   0.183  -1.879  0.00  0.00     0.002 A 
ATOM      3  C4  UNL d   1      -2.913   0.362  -3.116  0.00  0.00     0.002 A 
ATOM      4  C5  UNL d   1      -2.487   1.373  -3.974  0.00  0.00    -0.004 A 
ATOM      5  C6  UNL d   1      -1.440   2.213  -3.595  0.00  0.00     0.002 A 
ATOM      6  C7  UNL d   1      -0.816   2.037  -2.359  0.00  0.00     0.002 A 
ENDROOT
BRANCH   1   7
ATOM      7  C1  UNL d   1      -0.527   0.799  -0.178  0.00  0.00     0.055 C 
ATOM      8  C   UNL d   1       0.883   0.268  -0.392  0.00  0.00     0.019 C 
ENDBRANCH   1   7
TORSDOF 1
ENDMDL
