MODEL 1
REMARK minimizedAffinity -4.48307323
REMARK minimizedRMSD -1
REMARK  1 active torsions:
REMARK  status: ('A' for Active; 'I' for Inactive)
REMARK    1  A    between atoms: C1_2  and  C2_3 
ROOT
ATOM      1  C2  UNL d   1      -0.536   0.778  -0.773  0.00  0.00    -0.077 A 
ATOM      2  C3  UNL d   1      -1.563   0.102  -1.448  0.00  0.00     0.002 A 
ATOM      3  C4  UNL d   1      -2.371   0.778  -2.363  0.00  0.00     0.002 A 
ATOM      4  C5  UNL d   1      -2.159   2.132  -2.616  0.00  0.00    -0.004 A 
ATOM      5  C6  UNL d   1      -1.142   2.814  -1.948  0.00  0.00     0.002 A 
ATOM      6  C7  UNL d   1      -0.334   2.140  -1.031  0.00  0.00     0.002 A 
ENDROOT
BRANCH   1   7
ATOM      7  C1  UNL d   1       0.368   0.039   0.179  0.00  0.00     0.055 C 
ATOM      8  C   UNL d   1       1.547  -0.587  -0.552  0.00  0.00     0.019 C 
ENDBRANCH   1   7
TORSDOF 1
ENDMDL
