MODEL 1
REMARK minimizedAffinity -5.63329077
REMARK minimizedRMSD -1
REMARK  1 active torsions:
REMARK  status: ('A' for Active; 'I' for Inactive)
REMARK    1  A    between atoms: C1_2  and  C2_3 
ROOT
ATOM      1  C2  UNL d   1       0.512  -1.100   0.278  0.00  0.00    -0.077 A 
ATOM      2  C3  UNL d   1      -0.563  -1.117   1.178  0.00  0.00     0.002 A 
ATOM      3  C4  UNL d   1      -0.610  -2.064   2.203  0.00  0.00     0.002 A 
ATOM      4  C5  UNL d   1       0.415  -2.997   2.340  0.00  0.00    -0.004 A 
ATOM      5  C6  UNL d   1       1.487  -2.990   1.448  0.00  0.00     0.002 A 
ATOM      6  C7  UNL d   1       1.535  -2.045   0.422  0.00  0.00     0.002 A 
ENDROOT
BRANCH   1   7
ATOM      7  C1  UNL d   1       0.589  -0.049  -0.799  0.00  0.00     0.055 C 
ATOM      8  C   UNL d   1      -0.337   1.121  -0.498  0.00  0.00     0.019 C 
ENDBRANCH   1   7
TORSDOF 1
ENDMDL
