MODEL 1
REMARK minimizedAffinity -3.83663058
REMARK minimizedRMSD -1
REMARK  1 active torsions:
REMARK  status: ('A' for Active; 'I' for Inactive)
REMARK    1  A    between atoms: C1_2  and  C2_3 
ROOT
ATOM      1  C2  UNL d   1       0.076   0.231   0.342  0.00  0.00    -0.077 A 
ATOM      2  C3  UNL d   1      -0.379  -0.201   1.596  0.00  0.00     0.002 A 
ATOM      3  C4  UNL d   1       0.375  -1.103   2.348  0.00  0.00     0.002 A 
ATOM      4  C5  UNL d   1       1.590  -1.577   1.858  0.00  0.00    -0.004 A 
ATOM      5  C6  UNL d   1       2.050  -1.155   0.611  0.00  0.00     0.002 A 
ATOM      6  C7  UNL d   1       1.297  -0.254  -0.143  0.00  0.00     0.002 A 
ENDROOT
BRANCH   1   7
ATOM      7  C1  UNL d   1      -0.712   1.242  -0.450  0.00  0.00     0.055 C 
ATOM      8  C   UNL d   1      -0.966   0.757  -1.870  0.00  0.00     0.019 C 
ENDBRANCH   1   7
TORSDOF 1
ENDMDL
