MODEL 1
REMARK minimizedAffinity -3.02231789
REMARK minimizedRMSD -1
REMARK  1 active torsions:
REMARK  status: ('A' for Active; 'I' for Inactive)
REMARK    1  A    between atoms: C1_2  and  C2_3 
ROOT
ATOM      1  C2  UNL d   1      -0.117  -0.061   0.628  0.00  0.00    -0.077 A 
ATOM      2  C3  UNL d   1      -0.644  -0.624   1.798  0.00  0.00     0.002 A 
ATOM      3  C4  UNL d   1      -0.057  -1.759   2.362  0.00  0.00     0.002 A 
ATOM      4  C5  UNL d   1       1.061  -2.337   1.764  0.00  0.00    -0.004 A 
ATOM      5  C6  UNL d   1       1.591  -1.785   0.599  0.00  0.00     0.002 A 
ATOM      6  C7  UNL d   1       1.006  -0.652   0.033  0.00  0.00     0.002 A 
ENDROOT
BRANCH   1   7
ATOM      7  C1  UNL d   1      -0.718   1.192   0.046  0.00  0.00     0.055 C 
ATOM      8  C   UNL d   1      -1.423   0.907  -1.272  0.00  0.00     0.019 C 
ENDBRANCH   1   7
TORSDOF 1
ENDMDL
