MODEL 1
REMARK minimizedAffinity 0.30093196
REMARK minimizedRMSD -1
REMARK  0 active torsions:
REMARK  status: ('A' for Active; 'I' for Inactive)
ROOT
ATOM      1  O1  BZF d   1       2.242   5.784  -4.559  0.00  0.00    -0.204 OA
ATOM      2  C2  BZF d   1       1.656   4.805  -3.781  0.00  0.00     0.174 A 
ATOM      3  C3  BZF d   1       2.477   3.743  -3.649  0.00  0.00    -0.012 A 
ATOM      4  C3A BZF d   1       3.687   4.118  -4.314  0.00  0.00    -0.107 A 
ATOM      5  C4  BZF d   1       4.883   3.490  -4.511  0.00  0.00     0.055 A 
ATOM      6  C5  BZF d   1       5.833   4.101  -5.267  0.00  0.00    -0.016 A 
ATOM      7  C6  BZF d   1       5.619   5.336  -5.844  0.00  0.00     0.022 A 
ATOM      8  C7  BZF d   1       4.451   6.000  -5.672  0.00  0.00     0.029 A 
ATOM      9  C7A BZF d   1       3.501   5.400  -4.882  0.00  0.00     0.058 A 
ENDROOT
TORSDOF 0
ENDMDL
