MODEL 1
REMARK minimizedAffinity 7.01963139
REMARK minimizedRMSD -1
REMARK  0 active torsions:
REMARK  status: ('A' for Active; 'I' for Inactive)
ROOT
ATOM      1  O1  BZF d   1      -2.783  -3.851  -1.688  0.00  0.00    -0.204 OA
ATOM      2  C2  BZF d   1      -2.021  -5.000  -1.770  0.00  0.00     0.174 A 
ATOM      3  C3  BZF d   1      -2.660  -5.948  -2.485  0.00  0.00    -0.012 A 
ATOM      4  C3A BZF d   1      -3.859  -5.322  -2.953  0.00  0.00    -0.107 A 
ATOM      5  C4  BZF d   1      -4.899  -5.748  -3.728  0.00  0.00     0.055 A 
ATOM      6  C5  BZF d   1      -5.951  -4.913  -3.938  0.00  0.00    -0.016 A 
ATOM      7  C6  BZF d   1      -5.998  -3.651  -3.384  0.00  0.00     0.022 A 
ATOM      8  C7  BZF d   1      -4.987  -3.182  -2.612  0.00  0.00     0.029 A 
ATOM      9  C7A BZF d   1      -3.908  -4.011  -2.425  0.00  0.00     0.058 A 
ENDROOT
TORSDOF 0
ENDMDL
