MODEL 1
REMARK minimizedAffinity 3.13299489
REMARK minimizedRMSD -1
REMARK  0 active torsions:
REMARK  status: ('A' for Active; 'I' for Inactive)
ROOT
ATOM      1  O1  BZF d   1      -2.977  -4.520  -2.260  0.00  0.00    -0.204 OA
ATOM      2  C2  BZF d   1      -2.355  -5.694  -2.638  0.00  0.00     0.174 A 
ATOM      3  C3  BZF d   1      -1.150  -5.810  -2.043  0.00  0.00    -0.012 A 
ATOM      4  C3A BZF d   1      -1.051  -4.679  -1.172  0.00  0.00    -0.107 A 
ATOM      5  C4  BZF d   1      -0.092  -4.247  -0.300  0.00  0.00     0.055 A 
ATOM      6  C5  BZF d   1      -0.271  -3.064   0.345  0.00  0.00    -0.016 A 
ATOM      7  C6  BZF d   1      -1.392  -2.287   0.138  0.00  0.00     0.022 A 
ATOM      8  C7  BZF d   1      -2.372  -2.676  -0.713  0.00  0.00     0.029 A 
ATOM      9  C7A BZF d   1      -2.210  -3.887  -1.341  0.00  0.00     0.058 A 
ENDROOT
TORSDOF 0
ENDMDL
