MODEL 1
REMARK minimizedAffinity -0.934754729
REMARK minimizedRMSD -1
REMARK  0 active torsions:
REMARK  status: ('A' for Active; 'I' for Inactive)
ROOT
ATOM      1  O1  BZF d   1      -4.082   2.736   4.479  0.00  0.00    -0.204 OA
ATOM      2  C2  BZF d   1      -3.679   2.656   3.160  0.00  0.00     0.174 A 
ATOM      3  C3  BZF d   1      -4.037   1.472   2.622  0.00  0.00    -0.012 A 
ATOM      4  C3A BZF d   1      -4.786   0.805   3.643  0.00  0.00    -0.107 A 
ATOM      5  C4  BZF d   1      -5.421  -0.402   3.704  0.00  0.00     0.055 A 
ATOM      6  C5  BZF d   1      -5.999  -0.786   4.873  0.00  0.00    -0.016 A 
ATOM      7  C6  BZF d   1      -5.955   0.009   6.000  0.00  0.00     0.022 A 
ATOM      8  C7  BZF d   1      -5.341   1.217   5.986  0.00  0.00     0.029 A 
ATOM      9  C7A BZF d   1      -4.786   1.622   4.797  0.00  0.00     0.058 A 
ENDROOT
TORSDOF 0
ENDMDL
