MODEL 1
REMARK minimizedAffinity 12.6009045
REMARK minimizedRMSD -1
REMARK  0 active torsions:
REMARK  status: ('A' for Active; 'I' for Inactive)
ROOT
ATOM      1  O1  BZF d   1       0.066   4.121   1.106  0.00  0.00    -0.204 OA
ATOM      2  C2  BZF d   1       1.299   4.102   0.481  0.00  0.00     0.174 A 
ATOM      3  C3  BZF d   1       1.968   2.970   0.778  0.00  0.00    -0.012 A 
ATOM      4  C3A BZF d   1       1.062   2.193   1.567  0.00  0.00    -0.107 A 
ATOM      5  C4  BZF d   1       1.143   0.960   2.149  0.00  0.00     0.055 A 
ATOM      6  C5  BZF d   1       0.109   0.522   2.914  0.00  0.00    -0.016 A 
ATOM      7  C6  BZF d   1      -1.017   1.290   3.122  0.00  0.00     0.022 A 
ATOM      8  C7  BZF d   1      -1.146   2.517   2.561  0.00  0.00     0.029 A 
ATOM      9  C7A BZF d   1      -0.117   2.950   1.761  0.00  0.00     0.058 A 
ENDROOT
TORSDOF 0
ENDMDL
