MODEL 1
REMARK minimizedAffinity 8.42525387
REMARK minimizedRMSD -1
REMARK  0 active torsions:
REMARK  status: ('A' for Active; 'I' for Inactive)
ROOT
ATOM      1  O1  BZF d   1      -0.607   1.096  -2.776  0.00  0.00    -0.204 OA
ATOM      2  C2  BZF d   1      -0.344   2.442  -2.943  0.00  0.00     0.174 A 
ATOM      3  C3  BZF d   1       0.620   2.851  -2.092  0.00  0.00    -0.012 A 
ATOM      4  C3A BZF d   1       1.047   1.667  -1.412  0.00  0.00    -0.107 A 
ATOM      5  C4  BZF d   1       1.992   1.423  -0.456  0.00  0.00     0.055 A 
ATOM      6  C5  BZF d   1       2.110   0.168   0.051  0.00  0.00    -0.016 A 
ATOM      7  C6  BZF d   1       1.297  -0.865  -0.370  0.00  0.00     0.022 A 
ATOM      8  C7  BZF d   1       0.349  -0.672  -1.319  0.00  0.00     0.029 A 
ATOM      9  C7A BZF d   1       0.250   0.588  -1.857  0.00  0.00     0.058 A 
ENDROOT
TORSDOF 0
ENDMDL
