MODEL 1
REMARK minimizedAffinity 8.43486977
REMARK minimizedRMSD -1
REMARK  0 active torsions:
REMARK  status: ('A' for Active; 'I' for Inactive)
ROOT
ATOM      1  O1  BZF d   1       1.573  -0.788   0.110  0.00  0.00    -0.204 OA
ATOM      2  C2  BZF d   1       2.253  -0.671  -1.087  0.00  0.00     0.174 A 
ATOM      3  C3  BZF d   1       2.669   0.598  -1.278  0.00  0.00    -0.012 A 
ATOM      4  C3A BZF d   1       2.301   1.299  -0.086  0.00  0.00    -0.107 A 
ATOM      5  C4  BZF d   1       2.459   2.589   0.331  0.00  0.00     0.055 A 
ATOM      6  C5  BZF d   1       1.920   2.970   1.519  0.00  0.00    -0.016 A 
ATOM      7  C6  BZF d   1       1.214   2.089   2.312  0.00  0.00     0.022 A 
ATOM      8  C7  BZF d   1       1.035   0.797   1.943  0.00  0.00     0.029 A 
ATOM      9  C7A BZF d   1       1.607   0.401   0.758  0.00  0.00     0.058 A 
ENDROOT
TORSDOF 0
ENDMDL
