MODEL 1
REMARK minimizedAffinity 9.69611645
REMARK minimizedRMSD -1
REMARK  0 active torsions:
REMARK  status: ('A' for Active; 'I' for Inactive)
ROOT
ATOM      1  O1  BZF d   1       1.969  -0.287  -0.062  0.00  0.00    -0.204 OA
ATOM      2  C2  BZF d   1       2.441   0.784   0.672  0.00  0.00     0.174 A 
ATOM      3  C3  BZF d   1       2.071   1.952   0.107  0.00  0.00    -0.012 A 
ATOM      4  C3A BZF d   1       1.243   1.587  -1.001  0.00  0.00    -0.107 A 
ATOM      5  C4  BZF d   1       0.562   2.307  -1.941  0.00  0.00     0.055 A 
ATOM      6  C5  BZF d   1      -0.093   1.647  -2.932  0.00  0.00    -0.016 A 
ATOM      7  C6  BZF d   1      -0.084   0.270  -3.016  0.00  0.00     0.022 A 
ATOM      8  C7  BZF d   1       0.573  -0.487  -2.104  0.00  0.00     0.029 A 
ATOM      9  C7A BZF d   1       1.209   0.176  -1.083  0.00  0.00     0.058 A 
ENDROOT
TORSDOF 0
ENDMDL
