MODEL 1
REMARK minimizedAffinity 0.265247166
REMARK minimizedRMSD -1
REMARK  0 active torsions:
REMARK  status: ('A' for Active; 'I' for Inactive)
ROOT
ATOM      1  O1  BZF d   1       1.839   1.950   0.713  0.00  0.00    -0.204 OA
ATOM      2  C2  BZF d   1       1.197   2.628   1.731  0.00  0.00     0.174 A 
ATOM      3  C3  BZF d   1       0.359   1.808   2.399  0.00  0.00    -0.012 A 
ATOM      4  C3A BZF d   1       0.555   0.516   1.816  0.00  0.00    -0.107 A 
ATOM      5  C4  BZF d   1       0.018  -0.716   2.062  0.00  0.00     0.055 A 
ATOM      6  C5  BZF d   1       0.368  -1.760   1.265  0.00  0.00    -0.016 A 
ATOM      7  C6  BZF d   1       1.246  -1.607   0.212  0.00  0.00     0.022 A 
ATOM      8  C7  BZF d   1       1.807  -0.406  -0.068  0.00  0.00     0.029 A 
ATOM      9  C7A BZF d   1       1.481   0.644   0.756  0.00  0.00     0.058 A 
ENDROOT
TORSDOF 0
ENDMDL
