MODEL 1
REMARK minimizedAffinity 5.58859682
REMARK minimizedRMSD -1
REMARK  0 active torsions:
REMARK  status: ('A' for Active; 'I' for Inactive)
ROOT
ATOM      1  O1  BZF d   1       3.055   0.164  -0.105  0.00  0.00    -0.204 OA
ATOM      2  C2  BZF d   1       3.493   1.455   0.116  0.00  0.00     0.174 A 
ATOM      3  C3  BZF d   1       2.850   2.323  -0.691  0.00  0.00    -0.012 A 
ATOM      4  C3A BZF d   1       1.888   1.536  -1.399  0.00  0.00    -0.107 A 
ATOM      5  C4  BZF d   1       0.938   1.832  -2.334  0.00  0.00     0.055 A 
ATOM      6  C5  BZF d   1       0.211   0.822  -2.881  0.00  0.00    -0.016 A 
ATOM      7  C6  BZF d   1       0.411  -0.494  -2.520  0.00  0.00     0.022 A 
ATOM      8  C7  BZF d   1       1.339  -0.837  -1.593  0.00  0.00     0.029 A 
ATOM      9  C7A BZF d   1       2.052   0.185  -1.015  0.00  0.00     0.058 A 
ENDROOT
TORSDOF 0
ENDMDL
