MODEL 1
REMARK minimizedAffinity 6.63346195
REMARK minimizedRMSD -1
REMARK  0 active torsions:
REMARK  status: ('A' for Active; 'I' for Inactive)
ROOT
ATOM      1  O1  BZF d   1       2.489   0.143  -0.359  0.00  0.00    -0.204 OA
ATOM      2  C2  BZF d   1       2.898   0.577  -1.606  0.00  0.00     0.174 A 
ATOM      3  C3  BZF d   1       2.617   1.886  -1.773  0.00  0.00    -0.012 A 
ATOM      4  C3A BZF d   1       2.077   2.317  -0.520  0.00  0.00    -0.107 A 
ATOM      5  C4  BZF d   1       1.624   3.520  -0.057  0.00  0.00     0.055 A 
ATOM      6  C5  BZF d   1       1.093   3.589   1.192  0.00  0.00    -0.016 A 
ATOM      7  C6  BZF d   1       0.994   2.477   2.002  0.00  0.00     0.022 A 
ATOM      8  C7  BZF d   1       1.434   1.264   1.588  0.00  0.00     0.029 A 
ATOM      9  C7A BZF d   1       2.002   1.197   0.339  0.00  0.00     0.058 A 
ENDROOT
TORSDOF 0
ENDMDL
