MODEL 1
REMARK minimizedAffinity 8.17244911
REMARK minimizedRMSD -1
REMARK  0 active torsions:
REMARK  status: ('A' for Active; 'I' for Inactive)
ROOT
ATOM      1  O1  BZF d   1       2.072  -0.744  -1.240  0.00  0.00    -0.204 OA
ATOM      2  C2  BZF d   1       3.097   0.061  -0.779  0.00  0.00     0.174 A 
ATOM      3  C3  BZF d   1       3.046   1.278  -1.357  0.00  0.00    -0.012 A 
ATOM      4  C3A BZF d   1       1.866   1.262  -2.165  0.00  0.00    -0.107 A 
ATOM      5  C4  BZF d   1       1.268   2.187  -2.972  0.00  0.00     0.055 A 
ATOM      6  C5  BZF d   1       0.163   1.832  -3.679  0.00  0.00    -0.016 A 
ATOM      7  C6  BZF d   1      -0.367   0.560  -3.607  0.00  0.00     0.022 A 
ATOM      8  C7  BZF d   1       0.188  -0.390  -2.816  0.00  0.00     0.029 A 
ATOM      9  C7A BZF d   1       1.285  -0.024  -2.075  0.00  0.00     0.058 A 
ENDROOT
TORSDOF 0
ENDMDL
