MODEL 1
REMARK minimizedAffinity 15.1648378
REMARK minimizedRMSD -1
REMARK  0 active torsions:
REMARK  status: ('A' for Active; 'I' for Inactive)
ROOT
ATOM      1  O1  BZF d   1      -2.111   0.472   2.809  0.00  0.00    -0.204 OA
ATOM      2  C2  BZF d   1      -3.110   1.425   2.836  0.00  0.00     0.174 A 
ATOM      3  C3  BZF d   1      -2.633   2.629   2.460  0.00  0.00    -0.012 A 
ATOM      4  C3A BZF d   1      -1.270   2.396   2.092  0.00  0.00    -0.107 A 
ATOM      5  C4  BZF d   1      -0.274   3.202   1.620  0.00  0.00     0.055 A 
ATOM      6  C5  BZF d   1       0.965   2.678   1.430  0.00  0.00    -0.016 A 
ATOM      7  C6  BZF d   1       1.245   1.355   1.706  0.00  0.00     0.022 A 
ATOM      8  C7  BZF d   1       0.288   0.516   2.171  0.00  0.00     0.029 A 
ATOM      9  C7A BZF d   1      -0.974   1.034   2.333  0.00  0.00     0.058 A 
ENDROOT
TORSDOF 0
ENDMDL
