MODEL 1
REMARK minimizedAffinity 5.28871202
REMARK minimizedRMSD -1
REMARK  0 active torsions:
REMARK  status: ('A' for Active; 'I' for Inactive)
ROOT
ATOM      1  O1  BZF d   1      -0.094  -0.551   1.524  0.00  0.00    -0.204 OA
ATOM      2  C2  BZF d   1      -0.411  -1.318   0.419  0.00  0.00     0.174 A 
ATOM      3  C3  BZF d   1       0.238  -0.872  -0.676  0.00  0.00    -0.012 A 
ATOM      4  C3A BZF d   1       1.079   0.187  -0.209  0.00  0.00    -0.107 A 
ATOM      5  C4  BZF d   1       1.978   1.013  -0.822  0.00  0.00     0.055 A 
ATOM      6  C5  BZF d   1       2.579   1.991  -0.095  0.00  0.00    -0.016 A 
ATOM      7  C6  BZF d   1       2.303   2.175   1.243  0.00  0.00     0.022 A 
ATOM      8  C7  BZF d   1       1.423   1.378   1.897  0.00  0.00     0.029 A 
ATOM      9  C7A BZF d   1       0.838   0.367   1.173  0.00  0.00     0.058 A 
ENDROOT
TORSDOF 0
ENDMDL
