MODEL 1
REMARK minimizedAffinity 4.98077917
REMARK minimizedRMSD -1
REMARK  0 active torsions:
REMARK  status: ('A' for Active; 'I' for Inactive)
ROOT
ATOM      1  O1  BZF d   1       0.405  -0.578   0.411  0.00  0.00    -0.204 OA
ATOM      2  C2  BZF d   1       1.707  -0.699  -0.035  0.00  0.00     0.174 A 
ATOM      3  C3  BZF d   1       2.465   0.319   0.421  0.00  0.00    -0.012 A 
ATOM      4  C3A BZF d   1       1.604   1.076   1.277  0.00  0.00    -0.107 A 
ATOM      5  C4  BZF d   1       1.783   2.197   2.036  0.00  0.00     0.055 A 
ATOM      6  C5  BZF d   1       0.720   2.724   2.698  0.00  0.00    -0.016 A 
ATOM      7  C6  BZF d   1      -0.537   2.160   2.619  0.00  0.00     0.022 A 
ATOM      8  C7  BZF d   1      -0.763   1.045   1.883  0.00  0.00     0.029 A 
ATOM      9  C7A BZF d   1       0.317   0.491   1.239  0.00  0.00     0.058 A 
ENDROOT
TORSDOF 0
ENDMDL
