MODEL 1
REMARK minimizedAffinity 2.46689892
REMARK minimizedRMSD -1
REMARK  0 active torsions:
REMARK  status: ('A' for Active; 'I' for Inactive)
ROOT
ATOM      1  O1  BZF d   1      -2.387  -5.493  -3.171  0.00  0.00    -0.204 OA
ATOM      2  C2  BZF d   1      -3.638  -4.908  -3.174  0.00  0.00     0.174 A 
ATOM      3  C3  BZF d   1      -4.014  -4.575  -1.922  0.00  0.00    -0.012 A 
ATOM      4  C3A BZF d   1      -2.890  -4.892  -1.095  0.00  0.00    -0.107 A 
ATOM      5  C4  BZF d   1      -2.646  -4.773   0.243  0.00  0.00     0.055 A 
ATOM      6  C5  BZF d   1      -1.475  -5.244   0.745  0.00  0.00    -0.016 A 
ATOM      7  C6  BZF d   1      -0.529  -5.844  -0.060  0.00  0.00     0.022 A 
ATOM      8  C7  BZF d   1      -0.724  -5.981  -1.394  0.00  0.00     0.029 A 
ATOM      9  C7A BZF d   1      -1.892  -5.476  -1.910  0.00  0.00     0.058 A 
ENDROOT
TORSDOF 0
ENDMDL
