MODEL 1
REMARK minimizedAffinity 5.4262991
REMARK minimizedRMSD -1
REMARK  0 active torsions:
REMARK  status: ('A' for Active; 'I' for Inactive)
ROOT
ATOM      1  O1  BZF d   1      -0.478   2.282  -1.618  0.00  0.00    -0.204 OA
ATOM      2  C2  BZF d   1      -0.671   2.535  -2.962  0.00  0.00     0.174 A 
ATOM      3  C3  BZF d   1      -0.040   1.614  -3.718  0.00  0.00    -0.012 A 
ATOM      4  C3A BZF d   1       0.511   0.676  -2.787  0.00  0.00    -0.107 A 
ATOM      5  C4  BZF d   1       1.237  -0.472  -2.929  0.00  0.00     0.055 A 
ATOM      6  C5  BZF d   1       1.682  -1.113  -1.817  0.00  0.00    -0.016 A 
ATOM      7  C6  BZF d   1       1.425  -0.632  -0.549  0.00  0.00     0.022 A 
ATOM      8  C7  BZF d   1       0.705   0.500  -0.358  0.00  0.00     0.029 A 
ATOM      9  C7A BZF d   1       0.225   1.132  -1.479  0.00  0.00     0.058 A 
ENDROOT
TORSDOF 0
ENDMDL
