MODEL 1
REMARK minimizedAffinity 7.96979475
REMARK minimizedRMSD -1
REMARK  0 active torsions:
REMARK  status: ('A' for Active; 'I' for Inactive)
ROOT
ATOM      1  O1  BZF d   1       1.645  -0.664  -0.520  0.00  0.00    -0.204 OA
ATOM      2  C2  BZF d   1       2.305   0.413   0.041  0.00  0.00     0.174 A 
ATOM      3  C3  BZF d   1       2.138   1.520  -0.710  0.00  0.00    -0.012 A 
ATOM      4  C3A BZF d   1       1.247   1.133  -1.760  0.00  0.00    -0.107 A 
ATOM      5  C4  BZF d   1       0.693   1.800  -2.815  0.00  0.00     0.055 A 
ATOM      6  C5  BZF d   1      -0.078   1.113  -3.699  0.00  0.00    -0.016 A 
ATOM      7  C6  BZF d   1      -0.311  -0.239  -3.562  0.00  0.00     0.022 A 
ATOM      8  C7  BZF d   1       0.214  -0.943  -2.529  0.00  0.00     0.029 A 
ATOM      9  C7A BZF d   1       0.966  -0.246  -1.616  0.00  0.00     0.058 A 
ENDROOT
TORSDOF 0
ENDMDL
