MODEL 1
REMARK minimizedAffinity 2.65229392
REMARK minimizedRMSD -1
REMARK  0 active torsions:
REMARK  status: ('A' for Active; 'I' for Inactive)
ROOT
ATOM      1  O1  BZF d   1       3.566   0.570   0.088  0.00  0.00    -0.204 OA
ATOM      2  C2  BZF d   1       2.904   0.007  -0.986  0.00  0.00     0.174 A 
ATOM      3  C3  BZF d   1       1.572   0.002  -0.777  0.00  0.00    -0.012 A 
ATOM      4  C3A BZF d   1       1.383   0.684   0.467  0.00  0.00    -0.107 A 
ATOM      5  C4  BZF d   1       0.278   1.011   1.200  0.00  0.00     0.055 A 
ATOM      6  C5  BZF d   1       0.441   1.613   2.407  0.00  0.00    -0.016 A 
ATOM      7  C6  BZF d   1       1.692   1.896   2.914  0.00  0.00     0.022 A 
ATOM      8  C7  BZF d   1       2.818   1.594   2.222  0.00  0.00     0.029 A 
ATOM      9  C7A BZF d   1       2.655   1.016   0.986  0.00  0.00     0.058 A 
ENDROOT
TORSDOF 0
ENDMDL
