MODEL 1
REMARK minimizedAffinity 12.0152016
REMARK minimizedRMSD -1
REMARK  1 active torsions:
REMARK  status: ('A' for Active; 'I' for Inactive)
REMARK    1  A    between atoms: C1_2  and  C2_3 
ROOT
ATOM      1  C2  UNL d   1      -0.044  -2.721   2.387  0.00  0.00    -0.076 A 
ATOM      2  C3  UNL d   1      -1.332  -2.234   2.670  0.00  0.00     0.004 A 
ATOM      3  C4  UNL d   1      -2.454  -2.754   2.027  0.00  0.00    -0.003 A 
ATOM      4  C5  UNL d   1      -2.306  -3.772   1.091  0.00  0.00     0.000 A 
ATOM      5  C6  UNL d   1      -1.038  -4.280   0.811  0.00  0.00     0.000 A 
ATOM      6  C7  UNL d   1       0.102  -3.777   1.462  0.00  0.00    -0.073 A 
ATOM      7  C8  UNL d   1       1.445  -4.358   1.117  0.00  0.00     0.078 C 
ENDROOT
BRANCH   1   8
ATOM      8  C1  UNL d   1       1.137  -2.100   3.096  0.00  0.00     0.053 C 
ATOM      9  C   UNL d   1       1.544  -2.874   4.340  0.00  0.00     0.018 C 
ENDBRANCH   1   8
TORSDOF 1
ENDMDL
