MODEL 1
REMARK minimizedAffinity 11.582118
REMARK minimizedRMSD -1
REMARK  1 active torsions:
REMARK  status: ('A' for Active; 'I' for Inactive)
REMARK    1  A    between atoms: C1_2  and  C2_3 
ROOT
ATOM      1  C2  UNL d   1      -5.653   0.650  -1.616  0.00  0.00    -0.076 A 
ATOM      2  C3  UNL d   1      -5.345  -0.643  -1.158  0.00  0.00     0.004 A 
ATOM      3  C4  UNL d   1      -5.024  -0.873   0.179  0.00  0.00    -0.003 A 
ATOM      4  C5  UNL d   1      -5.006   0.187   1.079  0.00  0.00     0.000 A 
ATOM      5  C6  UNL d   1      -5.326   1.473   0.646  0.00  0.00     0.000 A 
ATOM      6  C7  UNL d   1      -5.668   1.719  -0.695  0.00  0.00    -0.073 A 
ATOM      7  C8  UNL d   1      -5.998   3.127  -1.109  0.00  0.00     0.078 C 
ENDROOT
BRANCH   1   8
ATOM      8  C1  UNL d   1      -5.967   0.843  -3.082  0.00  0.00     0.053 C 
ATOM      9  C   UNL d   1      -5.971  -0.468  -3.855  0.00  0.00     0.018 C 
ENDBRANCH   1   8
TORSDOF 1
ENDMDL
