MODEL 1
REMARK minimizedAffinity 7.42720699
REMARK minimizedRMSD -1
REMARK  1 active torsions:
REMARK  status: ('A' for Active; 'I' for Inactive)
REMARK    1  A    between atoms: C1_2  and  C2_3 
ROOT
ATOM      1  C2  UNL d   1      -1.314  -0.627   3.165  0.00  0.00    -0.076 A 
ATOM      2  C3  UNL d   1      -2.269  -0.926   2.178  0.00  0.00     0.004 A 
ATOM      3  C4  UNL d   1      -2.021  -1.901   1.213  0.00  0.00    -0.003 A 
ATOM      4  C5  UNL d   1      -0.815  -2.593   1.219  0.00  0.00     0.000 A 
ATOM      5  C6  UNL d   1       0.136  -2.321   2.202  0.00  0.00     0.000 A 
ATOM      6  C7  UNL d   1      -0.104  -1.353   3.192  0.00  0.00    -0.073 A 
ATOM      7  C8  UNL d   1       0.960  -1.097   4.224  0.00  0.00     0.078 C 
ENDROOT
BRANCH   1   8
ATOM      8  C1  UNL d   1      -1.627   0.459   4.170  0.00  0.00     0.053 C 
ATOM      9  C   UNL d   1      -2.561   1.520   3.609  0.00  0.00     0.018 C 
ENDBRANCH   1   8
TORSDOF 1
ENDMDL
