MODEL 1
REMARK minimizedAffinity 11.989481
REMARK minimizedRMSD -1
REMARK  1 active torsions:
REMARK  status: ('A' for Active; 'I' for Inactive)
REMARK    1  A    between atoms: C1_2  and  C2_3 
ROOT
ATOM      1  C2  UNL d   1       4.909   3.375  -2.132  0.00  0.00    -0.076 A 
ATOM      2  C3  UNL d   1       5.902   4.008  -2.901  0.00  0.00     0.004 A 
ATOM      3  C4  UNL d   1       5.730   4.211  -4.269  0.00  0.00    -0.003 A 
ATOM      4  C5  UNL d   1       4.561   3.786  -4.891  0.00  0.00     0.000 A 
ATOM      5  C6  UNL d   1       3.558   3.172  -4.141  0.00  0.00     0.000 A 
ATOM      6  C7  UNL d   1       3.709   2.975  -2.758  0.00  0.00    -0.073 A 
ATOM      7  C8  UNL d   1       2.598   2.302  -1.999  0.00  0.00     0.078 C 
ENDROOT
BRANCH   1   8
ATOM      8  C1  UNL d   1       5.163   3.158  -0.658  0.00  0.00     0.053 C 
ATOM      9  C   UNL d   1       5.999   4.269  -0.040  0.00  0.00     0.018 C 
ENDBRANCH   1   8
TORSDOF 1
ENDMDL
