MODEL 1
REMARK minimizedAffinity 17.3223839
REMARK minimizedRMSD -1
REMARK  1 active torsions:
REMARK  status: ('A' for Active; 'I' for Inactive)
REMARK    1  A    between atoms: C1_2  and  C2_3 
ROOT
ATOM      1  C2  UNL d   1       3.880   3.681  -2.255  0.00  0.00    -0.076 A 
ATOM      2  C3  UNL d   1       5.122   4.191  -1.837  0.00  0.00     0.004 A 
ATOM      3  C4  UNL d   1       5.998   4.781  -2.746  0.00  0.00    -0.003 A 
ATOM      4  C5  UNL d   1       5.646   4.872  -4.089  0.00  0.00     0.000 A 
ATOM      5  C6  UNL d   1       4.411   4.387  -4.518  0.00  0.00     0.000 A 
ATOM      6  C7  UNL d   1       3.510   3.804  -3.611  0.00  0.00    -0.073 A 
ATOM      7  C8  UNL d   1       2.194   3.292  -4.130  0.00  0.00     0.078 C 
ENDROOT
BRANCH   1   8
ATOM      8  C1  UNL d   1       2.983   3.027  -1.229  0.00  0.00     0.053 C 
ATOM      9  C   UNL d   1       3.712   2.717   0.070  0.00  0.00     0.018 C 
ENDBRANCH   1   8
TORSDOF 1
ENDMDL
