MODEL 1
REMARK minimizedAffinity 14.363615
REMARK minimizedRMSD -1
REMARK  1 active torsions:
REMARK  status: ('A' for Active; 'I' for Inactive)
REMARK    1  A    between atoms: C1_2  and  C2_3 
ROOT
ATOM      1  C2  UNL d   1      -2.071  -0.206   3.380  0.00  0.00    -0.076 A 
ATOM      2  C3  UNL d   1      -3.427  -0.563   3.282  0.00  0.00     0.004 A 
ATOM      3  C4  UNL d   1      -3.839  -1.590   2.434  0.00  0.00    -0.003 A 
ATOM      4  C5  UNL d   1      -2.901  -2.275   1.670  0.00  0.00     0.000 A 
ATOM      5  C6  UNL d   1      -1.550  -1.946   1.767  0.00  0.00     0.000 A 
ATOM      6  C7  UNL d   1      -1.116  -0.924   2.630  0.00  0.00    -0.073 A 
ATOM      7  C8  UNL d   1       0.353  -0.607   2.691  0.00  0.00     0.078 C 
ENDROOT
BRANCH   1   8
ATOM      8  C1  UNL d   1      -1.687   0.934   4.297  0.00  0.00     0.053 C 
ATOM      9  C   UNL d   1      -2.862   1.845   4.617  0.00  0.00     0.018 C 
ENDBRANCH   1   8
TORSDOF 1
ENDMDL
