MODEL 1
REMARK minimizedAffinity 13.89042
REMARK minimizedRMSD -1
REMARK  1 active torsions:
REMARK  status: ('A' for Active; 'I' for Inactive)
REMARK    1  A    between atoms: C1_2  and  C2_3 
ROOT
ATOM      1  C2  UNL d   1      -1.345  -1.343   2.479  0.00  0.00    -0.076 A 
ATOM      2  C3  UNL d   1      -1.824  -2.433   1.731  0.00  0.00     0.004 A 
ATOM      3  C4  UNL d   1      -3.182  -2.749   1.714  0.00  0.00    -0.003 A 
ATOM      4  C5  UNL d   1      -4.082  -1.980   2.442  0.00  0.00     0.000 A 
ATOM      5  C6  UNL d   1      -3.627  -0.885   3.175  0.00  0.00     0.000 A 
ATOM      6  C7  UNL d   1      -2.264  -0.542   3.191  0.00  0.00    -0.073 A 
ATOM      7  C8  UNL d   1      -1.827   0.646   4.004  0.00  0.00     0.078 C 
ENDROOT
BRANCH   1   8
ATOM      8  C1  UNL d   1       0.141  -1.064   2.482  0.00  0.00     0.053 C 
ATOM      9  C   UNL d   1       0.956  -2.255   2.963  0.00  0.00     0.018 C 
ENDBRANCH   1   8
TORSDOF 1
ENDMDL
