MODEL 1
REMARK minimizedAffinity 26.2822723
REMARK minimizedRMSD -1
REMARK  1 active torsions:
REMARK  status: ('A' for Active; 'I' for Inactive)
REMARK    1  A    between atoms: C1_2  and  C2_3 
ROOT
ATOM      1  C2  UNL d   1       2.785  -2.349   0.957  0.00  0.00    -0.076 A 
ATOM      2  C3  UNL d   1       2.639  -3.734   1.155  0.00  0.00     0.004 A 
ATOM      3  C4  UNL d   1       3.157  -4.647   0.239  0.00  0.00    -0.003 A 
ATOM      4  C5  UNL d   1       3.829  -4.192  -0.890  0.00  0.00     0.000 A 
ATOM      5  C6  UNL d   1       3.998  -2.823  -1.093  0.00  0.00     0.000 A 
ATOM      6  C7  UNL d   1       3.497  -1.888  -0.171  0.00  0.00    -0.073 A 
ATOM      7  C8  UNL d   1       3.703  -0.423  -0.443  0.00  0.00     0.078 C 
ENDROOT
BRANCH   1   8
ATOM      8  C1  UNL d   1       2.179  -1.405   1.971  0.00  0.00     0.053 C 
ATOM      9  C   UNL d   1       0.974  -2.006   2.679  0.00  0.00     0.018 C 
ENDBRANCH   1   8
TORSDOF 1
ENDMDL
