MODEL 1
REMARK minimizedAffinity 12.2045078
REMARK minimizedRMSD -1
REMARK  1 active torsions:
REMARK  status: ('A' for Active; 'I' for Inactive)
REMARK    1  A    between atoms: C1_2  and  C2_3 
ROOT
ATOM      1  C2  UNL d   1       4.689   3.888  -3.955  0.00  0.00    -0.076 A 
ATOM      2  C3  UNL d   1       4.335   4.349  -2.675  0.00  0.00     0.004 A 
ATOM      3  C4  UNL d   1       3.127   3.977  -2.087  0.00  0.00    -0.003 A 
ATOM      4  C5  UNL d   1       2.254   3.138  -2.769  0.00  0.00     0.000 A 
ATOM      5  C6  UNL d   1       2.597   2.656  -4.032  0.00  0.00     0.000 A 
ATOM      6  C7  UNL d   1       3.818   3.008  -4.633  0.00  0.00    -0.073 A 
ATOM      7  C8  UNL d   1       4.133   2.465  -5.999  0.00  0.00     0.078 C 
ENDROOT
BRANCH   1   8
ATOM      8  C1  UNL d   1       6.000   4.346  -4.553  0.00  0.00     0.053 C 
ATOM      9  C   UNL d   1       6.000   5.830  -4.888  0.00  0.00     0.018 C 
ENDBRANCH   1   8
TORSDOF 1
ENDMDL
