MODEL 1
REMARK minimizedAffinity 18.5116138
REMARK minimizedRMSD -1
REMARK  1 active torsions:
REMARK  status: ('A' for Active; 'I' for Inactive)
REMARK    1  A    between atoms: C1_2  and  C2_3 
ROOT
ATOM      1  C2  UNL d   1       2.289   4.949  -2.031  0.00  0.00    -0.076 A 
ATOM      2  C3  UNL d   1       1.573   3.947  -2.709  0.00  0.00     0.004 A 
ATOM      3  C4  UNL d   1       2.234   2.978  -3.463  0.00  0.00    -0.003 A 
ATOM      4  C5  UNL d   1       3.622   2.995  -3.550  0.00  0.00     0.000 A 
ATOM      5  C6  UNL d   1       4.349   3.971  -2.869  0.00  0.00     0.000 A 
ATOM      6  C7  UNL d   1       3.699   4.945  -2.092  0.00  0.00    -0.073 A 
ATOM      7  C8  UNL d   1       4.533   5.978  -1.384  0.00  0.00     0.078 C 
ENDROOT
BRANCH   1   8
ATOM      8  C1  UNL d   1       1.517   5.989  -1.251  0.00  0.00     0.053 C 
ATOM      9  C   UNL d   1       0.037   5.999  -1.600  0.00  0.00     0.018 C 
ENDBRANCH   1   8
TORSDOF 1
ENDMDL
