MODEL 1
REMARK minimizedAffinity 18.9774055
REMARK minimizedRMSD -1
REMARK  1 active torsions:
REMARK  status: ('A' for Active; 'I' for Inactive)
REMARK    1  A    between atoms: C1_2  and  C2_3 
ROOT
ATOM      1  C2  UNL d   1      -5.880   2.601   3.383  0.00  0.00    -0.076 A 
ATOM      2  C3  UNL d   1      -5.787   1.730   4.483  0.00  0.00     0.004 A 
ATOM      3  C4  UNL d   1      -5.659   2.223   5.780  0.00  0.00    -0.003 A 
ATOM      4  C5  UNL d   1      -5.621   3.595   5.999  0.00  0.00     0.000 A 
ATOM      5  C6  UNL d   1      -5.729   4.474   4.922  0.00  0.00     0.000 A 
ATOM      6  C7  UNL d   1      -5.876   3.994   3.610  0.00  0.00    -0.073 A 
ATOM      7  C8  UNL d   1      -5.982   4.987   2.485  0.00  0.00     0.078 C 
ENDROOT
BRANCH   1   8
ATOM      8  C1  UNL d   1      -5.990   2.008   1.997  0.00  0.00     0.053 C 
ATOM      9  C   UNL d   1      -4.954   0.925   1.742  0.00  0.00     0.018 C 
ENDBRANCH   1   8
TORSDOF 1
ENDMDL
