MODEL 1
REMARK minimizedAffinity 8.45991802
REMARK minimizedRMSD -1
REMARK  1 active torsions:
REMARK  status: ('A' for Active; 'I' for Inactive)
REMARK    1  A    between atoms: C1_2  and  C2_3 
ROOT
ATOM      1  C2  UNL d   1       4.151   1.827  -0.320  0.00  0.00    -0.076 A 
ATOM      2  C3  UNL d   1       5.381   2.463  -0.558  0.00  0.00     0.004 A 
ATOM      3  C4  UNL d   1       5.967   3.277   0.411  0.00  0.00    -0.003 A 
ATOM      4  C5  UNL d   1       5.331   3.468   1.632  0.00  0.00     0.000 A 
ATOM      5  C6  UNL d   1       4.118   2.831   1.892  0.00  0.00     0.000 A 
ATOM      6  C7  UNL d   1       3.522   1.994   0.932  0.00  0.00    -0.073 A 
ATOM      7  C8  UNL d   1       2.210   1.336   1.263  0.00  0.00     0.078 C 
ENDROOT
BRANCH   1   8
ATOM      8  C1  UNL d   1       3.551   0.978  -1.418  0.00  0.00     0.053 C 
ATOM      9  C   UNL d   1       2.337   1.629  -2.062  0.00  0.00     0.018 C 
ENDBRANCH   1   8
TORSDOF 1
ENDMDL
