MODEL 1
REMARK minimizedAffinity 8.42526722
REMARK minimizedRMSD -1
REMARK  1 active torsions:
REMARK  status: ('A' for Active; 'I' for Inactive)
REMARK    1  A    between atoms: C1_2  and  C2_3 
ROOT
ATOM      1  C2  UNL d   1      -1.611  -0.646   2.245  0.00  0.00    -0.076 A 
ATOM      2  C3  UNL d   1      -2.888  -1.184   2.005  0.00  0.00     0.004 A 
ATOM      3  C4  UNL d   1      -3.039  -2.440   1.421  0.00  0.00    -0.003 A 
ATOM      4  C5  UNL d   1      -1.916  -3.179   1.066  0.00  0.00     0.000 A 
ATOM      5  C6  UNL d   1      -0.642  -2.669   1.312  0.00  0.00     0.000 A 
ATOM      6  C7  UNL d   1      -0.472  -1.411   1.916  0.00  0.00    -0.073 A 
ATOM      7  C8  UNL d   1       0.925  -0.907   2.152  0.00  0.00     0.078 C 
ENDROOT
BRANCH   1   8
ATOM      8  C1  UNL d   1      -1.509   0.733   2.857  0.00  0.00     0.053 C 
ATOM      9  C   UNL d   1      -1.879   0.744   4.332  0.00  0.00     0.018 C 
ENDBRANCH   1   8
TORSDOF 1
ENDMDL
