MODEL 1
REMARK minimizedAffinity 10.2265911
REMARK minimizedRMSD -1
REMARK  1 active torsions:
REMARK  status: ('A' for Active; 'I' for Inactive)
REMARK    1  A    between atoms: C1_2  and  C2_3 
ROOT
ATOM      1  C2  UNL d   1       4.731   3.763  -2.351  0.00  0.00    -0.076 A 
ATOM      2  C3  UNL d   1       5.845   4.154  -3.114  0.00  0.00     0.004 A 
ATOM      3  C4  UNL d   1       5.989   3.741  -4.438  0.00  0.00    -0.003 A 
ATOM      4  C5  UNL d   1       5.020   2.932  -5.020  0.00  0.00     0.000 A 
ATOM      5  C6  UNL d   1       3.899   2.549  -4.284  0.00  0.00     0.000 A 
ATOM      6  C7  UNL d   1       3.731   2.970  -2.953  0.00  0.00    -0.073 A 
ATOM      7  C8  UNL d   1       2.506   2.523  -2.204  0.00  0.00     0.078 C 
ENDROOT
BRANCH   1   8
ATOM      8  C1  UNL d   1       4.642   4.220  -0.912  0.00  0.00     0.053 C 
ATOM      9  C   UNL d   1       5.999   4.247  -0.225  0.00  0.00     0.018 C 
ENDBRANCH   1   8
TORSDOF 1
ENDMDL
