MODEL 1
REMARK minimizedAffinity 5.7964344
REMARK minimizedRMSD -1
REMARK  1 active torsions:
REMARK  status: ('A' for Active; 'I' for Inactive)
REMARK    1  A    between atoms: C1_2  and  C2_3 
ROOT
ATOM      1  C2  UNL d   1       2.134   3.162  -2.795  0.00  0.00    -0.076 A 
ATOM      2  C3  UNL d   1       2.602   1.929  -2.308  0.00  0.00     0.004 A 
ATOM      3  C4  UNL d   1       2.546   1.627  -0.949  0.00  0.00    -0.003 A 
ATOM      4  C5  UNL d   1       2.019   2.552  -0.054  0.00  0.00     0.000 A 
ATOM      5  C6  UNL d   1       1.533   3.773  -0.522  0.00  0.00     0.000 A 
ATOM      6  C7  UNL d   1       1.568   4.086  -1.892  0.00  0.00    -0.073 A 
ATOM      7  C8  UNL d   1       1.036   5.420  -2.340  0.00  0.00     0.078 C 
ENDROOT
BRANCH   1   8
ATOM      8  C1  UNL d   1       2.246   3.445  -4.276  0.00  0.00     0.053 C 
ATOM      9  C   UNL d   1       3.605   3.061  -4.842  0.00  0.00     0.018 C 
ENDBRANCH   1   8
TORSDOF 1
ENDMDL
