MODEL 1
REMARK minimizedAffinity 13.9576817
REMARK minimizedRMSD -1
REMARK  1 active torsions:
REMARK  status: ('A' for Active; 'I' for Inactive)
REMARK    1  A    between atoms: C1_2  and  C2_3 
ROOT
ATOM      1  C2  UNL d   1       4.807   4.004  -3.576  0.00  0.00    -0.076 A 
ATOM      2  C3  UNL d   1       4.562   4.524  -2.294  0.00  0.00     0.004 A 
ATOM      3  C4  UNL d   1       3.462   4.104  -1.547  0.00  0.00    -0.003 A 
ATOM      4  C5  UNL d   1       2.590   3.157  -2.071  0.00  0.00     0.000 A 
ATOM      5  C6  UNL d   1       2.827   2.617  -3.334  0.00  0.00     0.000 A 
ATOM      6  C7  UNL d   1       3.940   3.017  -4.094  0.00  0.00    -0.073 A 
ATOM      7  C8  UNL d   1       4.144   2.406  -5.453  0.00  0.00     0.078 C 
ENDROOT
BRANCH   1   8
ATOM      8  C1  UNL d   1       6.000   4.517  -4.351  0.00  0.00     0.053 C 
ATOM      9  C   UNL d   1       5.891   5.999  -4.674  0.00  0.00     0.018 C 
ENDBRANCH   1   8
TORSDOF 1
ENDMDL
