MODEL 1
REMARK minimizedAffinity -2.07723069
REMARK minimizedRMSD -1
REMARK  0 active torsions:
REMARK  status: ('A' for Active; 'I' for Inactive)
ROOT
ATOM      1  C1  BNZ d   1       0.497  -1.106  -0.089  0.00  0.00     0.000 A 
ATOM      2  C2  BNZ d   1      -0.718  -0.602   0.292  0.00  0.00     0.000 A 
ATOM      3  C3  BNZ d   1      -1.575  -1.344   1.056  0.00  0.00     0.000 A 
ATOM      4  C4  BNZ d   1      -1.234  -2.602   1.402  0.00  0.00     0.000 A 
ATOM      5  C5  BNZ d   1      -0.017  -3.128   1.017  0.00  0.00     0.000 A 
ATOM      6  C6  BNZ d   1       0.860  -2.363   0.282  0.00  0.00     0.000 A 
ENDROOT
TORSDOF 0
ENDMDL
