MODEL 1
REMARK minimizedAffinity -1.90808487
REMARK minimizedRMSD -1
REMARK  0 active torsions:
REMARK  status: ('A' for Active; 'I' for Inactive)
ROOT
ATOM      1  C1  BNZ d   1       0.312   2.658  -0.596  0.00  0.00     0.000 A 
ATOM      2  C2  BNZ d   1      -0.410   1.515  -0.811  0.00  0.00     0.000 A 
ATOM      3  C3  BNZ d   1      -0.170   0.387  -0.077  0.00  0.00     0.000 A 
ATOM      4  C4  BNZ d   1       0.818   0.391   0.841  0.00  0.00     0.000 A 
ATOM      5  C5  BNZ d   1       1.562   1.533   1.063  0.00  0.00     0.000 A 
ATOM      6  C6  BNZ d   1       1.291   2.679   0.349  0.00  0.00     0.000 A 
ENDROOT
TORSDOF 0
ENDMDL
