MODEL 1
REMARK minimizedAffinity -4.43145275
REMARK minimizedRMSD -1
REMARK  0 active torsions:
REMARK  status: ('A' for Active; 'I' for Inactive)
ROOT
ATOM      1  C1  BNZ d   1       0.029   0.128  -0.466  0.00  0.00     0.000 A 
ATOM      2  C2  BNZ d   1       0.160  -1.228  -0.603  0.00  0.00     0.000 A 
ATOM      3  C3  BNZ d   1      -0.411  -2.081   0.300  0.00  0.00     0.000 A 
ATOM      4  C4  BNZ d   1      -1.076  -1.578   1.359  0.00  0.00     0.000 A 
ATOM      5  C5  BNZ d   1      -1.208  -0.212   1.517  0.00  0.00     0.000 A 
ATOM      6  C6  BNZ d   1      -0.666   0.643   0.585  0.00  0.00     0.000 A 
ENDROOT
TORSDOF 0
ENDMDL
