MODEL 1
REMARK minimizedAffinity -1.83419192
REMARK minimizedRMSD -1
REMARK  0 active torsions:
REMARK  status: ('A' for Active; 'I' for Inactive)
ROOT
ATOM      1  C1  BNZ d   1       0.031   1.999  -0.113  0.00  0.00     0.000 A 
ATOM      2  C2  BNZ d   1       0.639   3.219   0.020  0.00  0.00     0.000 A 
ATOM      3  C3  BNZ d   1       1.990   3.311   0.208  0.00  0.00     0.000 A 
ATOM      4  C4  BNZ d   1       2.725   2.184   0.302  0.00  0.00     0.000 A 
ATOM      5  C5  BNZ d   1       2.125   0.946   0.179  0.00  0.00     0.000 A 
ATOM      6  C6  BNZ d   1       0.771   0.858  -0.049  0.00  0.00     0.000 A 
ENDROOT
TORSDOF 0
ENDMDL
