MODEL 1
REMARK minimizedAffinity -1.99720597
REMARK minimizedRMSD -1
REMARK  0 active torsions:
REMARK  status: ('A' for Active; 'I' for Inactive)
ROOT
ATOM      1  C1  BNZ d   1      -1.287   0.243   1.701  0.00  0.00     0.000 A 
ATOM      2  C2  BNZ d   1      -1.608  -1.080   1.848  0.00  0.00     0.000 A 
ATOM      3  C3  BNZ d   1      -1.166  -2.011   0.950  0.00  0.00     0.000 A 
ATOM      4  C4  BNZ d   1      -0.439  -1.613  -0.113  0.00  0.00     0.000 A 
ATOM      5  C5  BNZ d   1      -0.114  -0.282  -0.280  0.00  0.00     0.000 A 
ATOM      6  C6  BNZ d   1      -0.528   0.647   0.647  0.00  0.00     0.000 A 
ENDROOT
TORSDOF 0
ENDMDL
