MODEL 1
REMARK minimizedAffinity -4.22502947
REMARK minimizedRMSD -1
REMARK  0 active torsions:
REMARK  status: ('A' for Active; 'I' for Inactive)
ROOT
ATOM      1  C1  BNZ d   1       0.608  -2.981  -1.494  0.00  0.00     0.000 A 
ATOM      2  C2  BNZ d   1       1.173  -2.543  -0.326  0.00  0.00     0.000 A 
ATOM      3  C3  BNZ d   1       0.393  -2.179   0.735  0.00  0.00     0.000 A 
ATOM      4  C4  BNZ d   1      -0.950  -2.214   0.614  0.00  0.00     0.000 A 
ATOM      5  C5  BNZ d   1      -1.535  -2.645  -0.560  0.00  0.00     0.000 A 
ATOM      6  C6  BNZ d   1      -0.746  -3.048  -1.613  0.00  0.00     0.000 A 
ENDROOT
TORSDOF 0
ENDMDL
