MODEL 1
REMARK minimizedAffinity -5.01963329
REMARK minimizedRMSD -1
REMARK  0 active torsions:
REMARK  status: ('A' for Active; 'I' for Inactive)
ROOT
ATOM      1  C1  BNZ d   1       0.830  -2.095  -0.670  0.00  0.00     0.000 A 
ATOM      2  C2  BNZ d   1       0.667  -0.736  -0.719  0.00  0.00     0.000 A 
ATOM      3  C3  BNZ d   1      -0.287  -0.118   0.040  0.00  0.00     0.000 A 
ATOM      4  C4  BNZ d   1      -1.103  -0.862   0.815  0.00  0.00     0.000 A 
ATOM      5  C5  BNZ d   1      -0.957  -2.234   0.868  0.00  0.00     0.000 A 
ATOM      6  C6  BNZ d   1       0.030  -2.849   0.133  0.00  0.00     0.000 A 
ENDROOT
TORSDOF 0
ENDMDL
