MODEL 1
REMARK minimizedAffinity -3.0060997
REMARK minimizedRMSD -1
REMARK  0 active torsions:
REMARK  status: ('A' for Active; 'I' for Inactive)
ROOT
ATOM      1  C1  BNZ d   1      -0.771   0.979  -0.290  0.00  0.00     0.000 A 
ATOM      2  C2  BNZ d   1      -1.355   0.398   0.804  0.00  0.00     0.000 A 
ATOM      3  C3  BNZ d   1      -1.151  -0.923   1.088  0.00  0.00     0.000 A 
ATOM      4  C4  BNZ d   1      -0.396  -1.670   0.258  0.00  0.00     0.000 A 
ATOM      5  C5  BNZ d   1       0.193  -1.102  -0.854  0.00  0.00     0.000 A 
ATOM      6  C6  BNZ d   1       0.016   0.238  -1.116  0.00  0.00     0.000 A 
ENDROOT
TORSDOF 0
ENDMDL
