MODEL 1
REMARK minimizedAffinity -4.45811415
REMARK minimizedRMSD -1
REMARK  0 active torsions:
REMARK  status: ('A' for Active; 'I' for Inactive)
ROOT
ATOM      1  C1  BNZ d   1       1.693   2.984  -0.270  0.00  0.00     0.000 A 
ATOM      2  C2  BNZ d   1       2.272   2.125  -1.165  0.00  0.00     0.000 A 
ATOM      3  C3  BNZ d   1       1.623   0.991  -1.567  0.00  0.00     0.000 A 
ATOM      4  C4  BNZ d   1       0.416   0.697  -1.044  0.00  0.00     0.000 A 
ATOM      5  C5  BNZ d   1      -0.177   1.549  -0.133  0.00  0.00     0.000 A 
ATOM      6  C6  BNZ d   1       0.462   2.709   0.240  0.00  0.00     0.000 A 
ENDROOT
TORSDOF 0
ENDMDL
