MODEL 1
REMARK minimizedAffinity -2.70216513
REMARK minimizedRMSD -1
REMARK  0 active torsions:
REMARK  status: ('A' for Active; 'I' for Inactive)
ROOT
ATOM      1  C1  BNZ d   1       0.067   1.049  -1.142  0.00  0.00     0.000 A 
ATOM      2  C2  BNZ d   1      -0.404   0.680   0.090  0.00  0.00     0.000 A 
ATOM      3  C3  BNZ d   1      -0.572  -0.639   0.409  0.00  0.00     0.000 A 
ATOM      4  C4  BNZ d   1      -0.307  -1.584  -0.517  0.00  0.00     0.000 A 
ATOM      5  C5  BNZ d   1       0.160  -1.227  -1.766  0.00  0.00     0.000 A 
ATOM      6  C6  BNZ d   1       0.364   0.100  -2.070  0.00  0.00     0.000 A 
ENDROOT
TORSDOF 0
ENDMDL
