MODEL 1
REMARK minimizedAffinity -3.3562336
REMARK minimizedRMSD -1
REMARK  0 active torsions:
REMARK  status: ('A' for Active; 'I' for Inactive)
ROOT
ATOM      1  C1  BNZ d   1       0.393  -1.303  -1.492  0.00  0.00     0.000 A 
ATOM      2  C2  BNZ d   1      -0.031  -2.038  -0.417  0.00  0.00     0.000 A 
ATOM      3  C3  BNZ d   1      -0.539  -1.423   0.693  0.00  0.00     0.000 A 
ATOM      4  C4  BNZ d   1      -0.586  -0.076   0.743  0.00  0.00     0.000 A 
ATOM      5  C5  BNZ d   1      -0.154   0.678  -0.329  0.00  0.00     0.000 A 
ATOM      6  C6  BNZ d   1       0.321   0.055  -1.461  0.00  0.00     0.000 A 
ENDROOT
TORSDOF 0
ENDMDL
