MODEL 1
REMARK minimizedAffinity -4.12627268
REMARK minimizedRMSD -1
REMARK  0 active torsions:
REMARK  status: ('A' for Active; 'I' for Inactive)
ROOT
ATOM      1  C1  BNZ d   1       1.104   0.781  -2.131  0.00  0.00     0.000 A 
ATOM      2  C2  BNZ d   1       1.989   1.550  -1.424  0.00  0.00     0.000 A 
ATOM      3  C3  BNZ d   1       1.716   1.929  -0.140  0.00  0.00     0.000 A 
ATOM      4  C4  BNZ d   1       0.543   1.573   0.421  0.00  0.00     0.000 A 
ATOM      5  C5  BNZ d   1      -0.364   0.806  -0.282  0.00  0.00     0.000 A 
ATOM      6  C6  BNZ d   1      -0.069   0.393  -1.561  0.00  0.00     0.000 A 
ENDROOT
TORSDOF 0
ENDMDL
