MODEL 1
REMARK minimizedAffinity 0.184830099
REMARK minimizedRMSD -1
REMARK  0 active torsions:
REMARK  status: ('A' for Active; 'I' for Inactive)
ROOT
ATOM      1  C1  BNZ d   1       0.584   0.124  -0.381  0.00  0.00     0.000 A 
ATOM      2  C2  BNZ d   1       0.865   1.444  -0.147  0.00  0.00     0.000 A 
ATOM      3  C3  BNZ d   1       0.342   2.089   0.938  0.00  0.00     0.000 A 
ATOM      4  C4  BNZ d   1      -0.494   1.427   1.764  0.00  0.00     0.000 A 
ATOM      5  C5  BNZ d   1      -0.795   0.099   1.536  0.00  0.00     0.000 A 
ATOM      6  C6  BNZ d   1      -0.235  -0.558   0.465  0.00  0.00     0.000 A 
ENDROOT
TORSDOF 0
ENDMDL
