MODEL 1
REMARK minimizedAffinity 3.76744175
REMARK minimizedRMSD -1
REMARK  0 active torsions:
REMARK  status: ('A' for Active; 'I' for Inactive)
ROOT
ATOM      1  C2' OXE d   1      -1.628  -3.869   2.612  0.00  0.00     0.078 C 
ATOM      2  C1' OXE d   1      -3.206  -2.905   4.724  0.00  0.00     0.078 C 
ATOM      3  C1  OXE d   1      -2.668  -1.902   3.734  0.00  0.00    -0.078 A 
ATOM      4  C2  OXE d   1      -1.858  -2.377   2.731  0.00  0.00    -0.078 A 
ATOM      5  C3  OXE d   1      -1.379  -1.503   1.759  0.00  0.00     0.003 A 
ATOM      6  C4  OXE d   1      -1.589  -0.124   1.881  0.00  0.00    -0.002 A 
ATOM      7  C5  OXE d   1      -2.378   0.385   2.918  0.00  0.00    -0.002 A 
ATOM      8  C6  OXE d   1      -2.959  -0.493   3.827  0.00  0.00     0.003 A 
ENDROOT
TORSDOF 0
ENDMDL
