MODEL 1
REMARK minimizedAffinity 5.79674768
REMARK minimizedRMSD -1
REMARK  0 active torsions:
REMARK  status: ('A' for Active; 'I' for Inactive)
ROOT
ATOM      1  C2' OXE d   1      -0.467  -0.272   1.164  0.00  0.00     0.078 C 
ATOM      2  C1' OXE d   1       1.081   1.087   3.071  0.00  0.00     0.078 C 
ATOM      3  C1  OXE d   1       1.025   1.656   1.675  0.00  0.00    -0.078 A 
ATOM      4  C2  OXE d   1       0.303   0.959   0.737  0.00  0.00    -0.078 A 
ATOM      5  C3  OXE d   1       0.174   1.469  -0.552  0.00  0.00     0.003 A 
ATOM      6  C4  OXE d   1       0.898   2.603  -0.942  0.00  0.00    -0.002 A 
ATOM      7  C5  OXE d   1       1.671   3.305  -0.012  0.00  0.00    -0.002 A 
ATOM      8  C6  OXE d   1       1.711   2.871   1.309  0.00  0.00     0.003 A 
ENDROOT
TORSDOF 0
ENDMDL
