MODEL 1
REMARK minimizedAffinity 6.0988183
REMARK minimizedRMSD -1
REMARK  0 active torsions:
REMARK  status: ('A' for Active; 'I' for Inactive)
ROOT
ATOM      1  C2' OXE d   1       0.314   5.083  -5.569  0.00  0.00     0.078 C 
ATOM      2  C1' OXE d   1       1.423   3.166  -3.844  0.00  0.00     0.078 C 
ATOM      3  C1  OXE d   1       2.363   4.139  -4.512  0.00  0.00    -0.078 A 
ATOM      4  C2  OXE d   1       1.817   5.043  -5.391  0.00  0.00    -0.078 A 
ATOM      5  C3  OXE d   1       2.631   5.999  -5.992  0.00  0.00     0.003 A 
ATOM      6  C4  OXE d   1       4.021   5.948  -5.829  0.00  0.00    -0.002 A 
ATOM      7  C5  OXE d   1       4.602   5.010  -4.970  0.00  0.00    -0.002 A 
ATOM      8  C6  OXE d   1       3.785   4.127  -4.272  0.00  0.00     0.003 A 
ENDROOT
TORSDOF 0
ENDMDL
