MODEL 1
REMARK minimizedAffinity 0.349023908
REMARK minimizedRMSD -1
REMARK  0 active torsions:
REMARK  status: ('A' for Active; 'I' for Inactive)
ROOT
ATOM      1  C2' OXE d   1      -0.699   5.945  -4.890  0.00  0.00     0.078 C 
ATOM      2  C1' OXE d   1      -0.918   5.999  -2.092  0.00  0.00     0.078 C 
ATOM      3  C1  OXE d   1      -2.193   5.976  -2.897  0.00  0.00    -0.078 A 
ATOM      4  C2  OXE d   1      -2.077   5.997  -4.266  0.00  0.00    -0.078 A 
ATOM      5  C3  OXE d   1      -3.220   5.921  -5.057  0.00  0.00     0.003 A 
ATOM      6  C4  OXE d   1      -4.491   5.979  -4.472  0.00  0.00    -0.002 A 
ATOM      7  C5  OXE d   1      -4.632   5.998  -3.080  0.00  0.00    -0.002 A 
ATOM      8  C6  OXE d   1      -3.496   5.954  -2.280  0.00  0.00     0.003 A 
ENDROOT
TORSDOF 0
ENDMDL
