MODEL 1
REMARK minimizedAffinity 0.0936423764
REMARK minimizedRMSD -1
REMARK  0 active torsions:
REMARK  status: ('A' for Active; 'I' for Inactive)
ROOT
ATOM      1  C2' OXE d   1       0.126   5.949  -4.559  0.00  0.00     0.078 C 
ATOM      2  C1' OXE d   1      -0.009   5.974  -1.755  0.00  0.00     0.078 C 
ATOM      3  C1  OXE d   1      -1.308   5.964  -2.522  0.00  0.00    -0.078 A 
ATOM      4  C2  OXE d   1      -1.232   5.999  -3.894  0.00  0.00    -0.078 A 
ATOM      5  C3  OXE d   1      -2.399   5.936  -4.650  0.00  0.00     0.003 A 
ATOM      6  C4  OXE d   1      -3.652   5.993  -4.027  0.00  0.00    -0.002 A 
ATOM      7  C5  OXE d   1      -3.751   5.998  -2.632  0.00  0.00    -0.002 A 
ATOM      8  C6  OXE d   1      -2.592   5.941  -1.866  0.00  0.00     0.003 A 
ENDROOT
TORSDOF 0
ENDMDL
