MODEL 1
REMARK minimizedAffinity 3.15125155
REMARK minimizedRMSD -1
REMARK  0 active torsions:
REMARK  status: ('A' for Active; 'I' for Inactive)
ROOT
ATOM      1  C2' OXE d   1      -1.169   5.998  -4.597  0.00  0.00     0.078 C 
ATOM      2  C1' OXE d   1      -3.924   5.999  -4.062  0.00  0.00     0.078 C 
ATOM      3  C1  OXE d   1      -2.980   5.985  -2.886  0.00  0.00    -0.078 A 
ATOM      4  C2  OXE d   1      -1.633   5.938  -3.158  0.00  0.00    -0.078 A 
ATOM      5  C3  OXE d   1      -0.717   5.978  -2.111  0.00  0.00     0.003 A 
ATOM      6  C4  OXE d   1      -1.155   5.911  -0.783  0.00  0.00    -0.002 A 
ATOM      7  C5  OXE d   1      -2.522   5.919  -0.485  0.00  0.00    -0.002 A 
ATOM      8  C6  OXE d   1      -3.445   5.998  -1.521  0.00  0.00     0.003 A 
ENDROOT
TORSDOF 0
ENDMDL
