MODEL 1
REMARK minimizedAffinity 1.90819836
REMARK minimizedRMSD -1
REMARK  0 active torsions:
REMARK  status: ('A' for Active; 'I' for Inactive)
ROOT
ATOM      1  C2' OXE d   1      -2.820   6.000  -4.205  0.00  0.00     0.078 C 
ATOM      2  C1' OXE d   1      -1.192   5.990  -1.919  0.00  0.00     0.078 C 
ATOM      3  C1  OXE d   1      -0.513   5.982  -3.266  0.00  0.00    -0.078 A 
ATOM      4  C2  OXE d   1      -1.318   5.940  -4.379  0.00  0.00    -0.078 A 
ATOM      5  C3  OXE d   1      -0.745   5.986  -5.646  0.00  0.00     0.003 A 
ATOM      6  C4  OXE d   1       0.646   5.920  -5.798  0.00  0.00    -0.002 A 
ATOM      7  C5  OXE d   1       1.483   5.923  -4.678  0.00  0.00    -0.002 A 
ATOM      8  C6  OXE d   1       0.922   5.996  -3.408  0.00  0.00     0.003 A 
ENDROOT
TORSDOF 0
ENDMDL
