MODEL 1
REMARK minimizedAffinity 7.5517292
REMARK minimizedRMSD -1
REMARK  0 active torsions:
REMARK  status: ('A' for Active; 'I' for Inactive)
ROOT
ATOM      1  C2' OXE d   1       0.758   5.952  -5.760  0.00  0.00     0.078 C 
ATOM      2  C1' OXE d   1       1.032   5.960  -2.966  0.00  0.00     0.078 C 
ATOM      3  C1  OXE d   1       2.291   5.955  -3.797  0.00  0.00    -0.078 A 
ATOM      4  C2  OXE d   1       2.147   5.903  -5.162  0.00  0.00    -0.078 A 
ATOM      5  C3  OXE d   1       3.275   5.951  -5.976  0.00  0.00     0.003 A 
ATOM      6  C4  OXE d   1       4.557   5.896  -5.415  0.00  0.00    -0.002 A 
ATOM      7  C5  OXE d   1       4.725   5.908  -4.027  0.00  0.00    -0.002 A 
ATOM      8  C6  OXE d   1       3.606   5.980  -3.205  0.00  0.00     0.003 A 
ENDROOT
TORSDOF 0
ENDMDL
