MODEL 1
REMARK minimizedAffinity -0.281961739
REMARK minimizedRMSD -1
REMARK  0 active torsions:
REMARK  status: ('A' for Active; 'I' for Inactive)
ROOT
ATOM      1  C2' OXE d   1      -4.806   6.000  -4.021  0.00  0.00     0.078 C 
ATOM      2  C1' OXE d   1      -4.044   5.977  -1.319  0.00  0.00     0.078 C 
ATOM      3  C1  OXE d   1      -2.951   5.980  -2.359  0.00  0.00    -0.078 A 
ATOM      4  C2  OXE d   1      -3.333   5.944  -3.678  0.00  0.00    -0.078 A 
ATOM      5  C3  OXE d   1      -2.366   6.000  -4.678  0.00  0.00     0.003 A 
ATOM      6  C4  OXE d   1      -1.006   5.938  -4.352  0.00  0.00    -0.002 A 
ATOM      7  C5  OXE d   1      -0.595   5.934  -3.015  0.00  0.00    -0.002 A 
ATOM      8  C6  OXE d   1      -1.552   5.998  -2.008  0.00  0.00     0.003 A 
ENDROOT
TORSDOF 0
ENDMDL
