MODEL 1
REMARK minimizedAffinity 5.89913321
REMARK minimizedRMSD -1
REMARK  0 active torsions:
REMARK  status: ('A' for Active; 'I' for Inactive)
ROOT
ATOM      1  C2' OXE d   1      -3.019   5.985  -2.333  0.00  0.00     0.078 C 
ATOM      2  C1' OXE d   1      -0.679   5.998  -0.782  0.00  0.00     0.078 C 
ATOM      3  C1  OXE d   1      -0.528   5.982  -2.283  0.00  0.00    -0.078 A 
ATOM      4  C2  OXE d   1      -1.678   5.929  -3.033  0.00  0.00    -0.078 A 
ATOM      5  C3  OXE d   1      -1.597   5.967  -4.422  0.00  0.00     0.003 A 
ATOM      6  C4  OXE d   1      -0.353   5.905  -5.062  0.00  0.00    -0.002 A 
ATOM      7  C5  OXE d   1       0.830   5.918  -4.316  0.00  0.00    -0.002 A 
ATOM      8  C6  OXE d   1       0.761   6.000  -2.930  0.00  0.00     0.003 A 
ENDROOT
TORSDOF 0
ENDMDL
