MODEL 1
REMARK minimizedAffinity -3.63289738
REMARK minimizedRMSD -1
REMARK  0 active torsions:
REMARK  status: ('A' for Active; 'I' for Inactive)
ROOT
ATOM      1  C2' OXE d   1      -0.867   0.887   2.428  0.00  0.00     0.078 C 
ATOM      2  C1' OXE d   1       0.235   1.920   0.062  0.00  0.00     0.078 C 
ATOM      3  C1  OXE d   1       1.185   1.411   1.117  0.00  0.00    -0.078 A 
ATOM      4  C2  OXE d   1       0.639   0.951   2.291  0.00  0.00    -0.078 A 
ATOM      5  C3  OXE d   1       1.468   0.420   3.275  0.00  0.00     0.003 A 
ATOM      6  C4  OXE d   1       2.860   0.491   3.144  0.00  0.00    -0.002 A 
ATOM      7  C5  OXE d   1       3.438   0.993   1.973  0.00  0.00    -0.002 A 
ATOM      8  C6  OXE d   1       2.616   1.417   0.935  0.00  0.00     0.003 A 
ENDROOT
TORSDOF 0
ENDMDL
