MODEL 1
REMARK minimizedAffinity -1.64590847
REMARK minimizedRMSD -1
REMARK  0 active torsions:
REMARK  status: ('A' for Active; 'I' for Inactive)
ROOT
ATOM      1  C2' OXE d   1       0.389   6.000  -3.073  0.00  0.00     0.078 C 
ATOM      2  C1' OXE d   1      -0.499   5.980  -5.736  0.00  0.00     0.078 C 
ATOM      3  C1  OXE d   1      -1.542   5.982  -4.646  0.00  0.00    -0.078 A 
ATOM      4  C2  OXE d   1      -1.098   5.944  -3.347  0.00  0.00    -0.078 A 
ATOM      5  C3  OXE d   1      -2.017   6.000  -2.302  0.00  0.00     0.003 A 
ATOM      6  C4  OXE d   1      -3.391   5.938  -2.564  0.00  0.00    -0.002 A 
ATOM      7  C5  OXE d   1      -3.864   5.935  -3.880  0.00  0.00    -0.002 A 
ATOM      8  C6  OXE d   1      -2.956   6.000  -4.931  0.00  0.00     0.003 A 
ENDROOT
TORSDOF 0
ENDMDL
