MODEL 1
REMARK minimizedAffinity 0.711420715
REMARK minimizedRMSD -1
REMARK  0 active torsions:
REMARK  status: ('A' for Active; 'I' for Inactive)
ROOT
ATOM      1  C2' OXE d   1      -2.597   5.948  -1.921  0.00  0.00     0.078 C 
ATOM      2  C1' OXE d   1      -3.852   5.971  -4.432  0.00  0.00     0.078 C 
ATOM      3  C1  OXE d   1      -2.344   5.962  -4.400  0.00  0.00    -0.078 A 
ATOM      4  C2  OXE d   1      -1.738   5.998  -3.167  0.00  0.00    -0.078 A 
ATOM      5  C3  OXE d   1      -0.350   5.937  -3.079  0.00  0.00     0.003 A 
ATOM      6  C4  OXE d   1       0.436   5.994  -4.236  0.00  0.00    -0.002 A 
ATOM      7  C5  OXE d   1      -0.161   5.998  -5.501  0.00  0.00    -0.002 A 
ATOM      8  C6  OXE d   1      -1.546   5.940  -5.601  0.00  0.00     0.003 A 
ENDROOT
TORSDOF 0
ENDMDL
