MODEL 1
REMARK minimizedAffinity -1.43822014
REMARK minimizedRMSD -1
REMARK  0 active torsions:
REMARK  status: ('A' for Active; 'I' for Inactive)
ROOT
ATOM      1  C2' OXE d   1      -2.834   5.911  -3.727  0.00  0.00     0.078 C 
ATOM      2  C1' OXE d   1      -0.768   5.999  -1.829  0.00  0.00     0.078 C 
ATOM      3  C1  OXE d   1      -0.383   5.945  -3.286  0.00  0.00    -0.078 A 
ATOM      4  C2  OXE d   1      -1.400   5.855  -4.206  0.00  0.00    -0.078 A 
ATOM      5  C3  OXE d   1      -1.102   5.858  -5.566  0.00  0.00     0.003 A 
ATOM      6  C4  OXE d   1       0.228   5.796  -6.000  0.00  0.00    -0.002 A 
ATOM      7  C5  OXE d   1       1.279   5.846  -5.078  0.00  0.00    -0.002 A 
ATOM      8  C6  OXE d   1       0.991   5.964  -3.723  0.00  0.00     0.003 A 
ENDROOT
TORSDOF 0
ENDMDL
