MODEL 1
REMARK minimizedAffinity 8.47299862
REMARK minimizedRMSD -1
REMARK  0 active torsions:
REMARK  status: ('A' for Active; 'I' for Inactive)
ROOT
ATOM      1  C2' OXE d   1       1.683   3.839  -3.711  0.00  0.00     0.078 C 
ATOM      2  C1' OXE d   1       1.387   5.621  -5.860  0.00  0.00     0.078 C 
ATOM      3  C1  OXE d   1       2.780   5.375  -5.336  0.00  0.00    -0.078 A 
ATOM      4  C2  OXE d   1       2.910   4.538  -4.255  0.00  0.00    -0.078 A 
ATOM      5  C3  OXE d   1       4.178   4.234  -3.767  0.00  0.00     0.003 A 
ATOM      6  C4  OXE d   1       5.307   4.892  -4.269  0.00  0.00    -0.002 A 
ATOM      7  C5  OXE d   1       5.193   5.779  -5.344  0.00  0.00    -0.002 A 
ATOM      8  C6  OXE d   1       3.944   5.998  -5.916  0.00  0.00     0.003 A 
ENDROOT
TORSDOF 0
ENDMDL
