MODEL 1
REMARK minimizedAffinity 4.64877415
REMARK minimizedRMSD -1
REMARK  0 active torsions:
REMARK  status: ('A' for Active; 'I' for Inactive)
ROOT
ATOM      1  C2' OXE d   1      -1.004   5.948  -0.530  0.00  0.00     0.078 C 
ATOM      2  C1' OXE d   1      -3.802   5.984  -0.758  0.00  0.00     0.078 C 
ATOM      3  C1  OXE d   1      -2.992   5.969  -2.031  0.00  0.00    -0.078 A 
ATOM      4  C2  OXE d   1      -1.624   5.999  -1.910  0.00  0.00    -0.078 A 
ATOM      5  C3  OXE d   1      -0.830   5.932  -3.051  0.00  0.00     0.003 A 
ATOM      6  C4  OXE d   1      -1.411   5.989  -4.324  0.00  0.00    -0.002 A 
ATOM      7  C5  OXE d   1      -2.802   5.999  -4.469  0.00  0.00    -0.002 A 
ATOM      8  C6  OXE d   1      -3.606   5.947  -3.335  0.00  0.00     0.003 A 
ENDROOT
TORSDOF 0
ENDMDL
