MODEL 1
REMARK minimizedAffinity 6.289855
REMARK minimizedRMSD -1
REMARK  0 active torsions:
REMARK  status: ('A' for Active; 'I' for Inactive)
ROOT
ATOM      1  C2' OXE d   1      -4.673  -2.324  -0.904  0.00  0.00     0.078 C 
ATOM      2  C1' OXE d   1      -2.502  -0.596  -0.478  0.00  0.00     0.078 C 
ATOM      3  C1  OXE d   1      -2.772  -1.052  -1.890  0.00  0.00    -0.078 A 
ATOM      4  C2  OXE d   1      -3.808  -1.934  -2.083  0.00  0.00    -0.078 A 
ATOM      5  C3  OXE d   1      -4.134  -2.343  -3.373  0.00  0.00     0.003 A 
ATOM      6  C4  OXE d   1      -3.322  -1.985  -4.456  0.00  0.00    -0.002 A 
ATOM      7  C5  OXE d   1      -2.238  -1.119  -4.276  0.00  0.00    -0.002 A 
ATOM      8  C6  OXE d   1      -1.976  -0.611  -3.009  0.00  0.00     0.003 A 
ENDROOT
TORSDOF 0
ENDMDL
