MODEL 1
REMARK minimizedAffinity -0.843818128
REMARK minimizedRMSD -1
REMARK  0 active torsions:
REMARK  status: ('A' for Active; 'I' for Inactive)
ROOT
ATOM      1  C2' OXE d   1       2.895   5.982  -4.138  0.00  0.00     0.078 C 
ATOM      2  C1' OXE d   1       4.996   5.989  -5.999  0.00  0.00     0.078 C 
ATOM      3  C1  OXE d   1       4.969   4.884  -4.973  0.00  0.00    -0.078 A 
ATOM      4  C2  OXE d   1       3.963   4.914  -4.037  0.00  0.00    -0.078 A 
ATOM      5  C3  OXE d   1       3.860   3.888  -3.102  0.00  0.00     0.003 A 
ATOM      6  C4  OXE d   1       4.858   2.911  -3.010  0.00  0.00    -0.002 A 
ATOM      7  C5  OXE d   1       5.913   2.884  -3.928  0.00  0.00    -0.002 A 
ATOM      8  C6  OXE d   1       5.960   3.836  -4.940  0.00  0.00     0.003 A 
ENDROOT
TORSDOF 0
ENDMDL
