MODEL 1
REMARK minimizedAffinity 2.7836175
REMARK minimizedRMSD -1
REMARK  0 active torsions:
REMARK  status: ('A' for Active; 'I' for Inactive)
ROOT
ATOM      1  C2' OXE d   1      -1.520   5.965  -5.909  0.00  0.00     0.078 C 
ATOM      2  C1' OXE d   1      -3.884   5.970  -4.395  0.00  0.00     0.078 C 
ATOM      3  C1  OXE d   1      -2.572   5.969  -3.651  0.00  0.00    -0.078 A 
ATOM      4  C2  OXE d   1      -1.421   5.919  -4.400  0.00  0.00    -0.078 A 
ATOM      5  C3  OXE d   1      -0.183   5.971  -3.765  0.00  0.00     0.003 A 
ATOM      6  C4  OXE d   1      -0.100   5.918  -2.369  0.00  0.00    -0.002 A 
ATOM      7  C5  OXE d   1      -1.260   5.928  -1.587  0.00  0.00    -0.002 A 
ATOM      8  C6  OXE d   1      -2.501   5.996  -2.211  0.00  0.00     0.003 A 
ENDROOT
TORSDOF 0
ENDMDL
