MODEL 1
REMARK minimizedAffinity -3.62200451
REMARK minimizedRMSD -1
REMARK  0 active torsions:
REMARK  status: ('A' for Active; 'I' for Inactive)
ROOT
ATOM      1  C2' OXE d   1      -3.408   6.000  -4.143  0.00  0.00     0.078 C 
ATOM      2  C1' OXE d   1      -1.608   5.967  -1.989  0.00  0.00     0.078 C 
ATOM      3  C1  OXE d   1      -1.036   5.971  -3.385  0.00  0.00    -0.078 A 
ATOM      4  C2  OXE d   1      -1.924   5.940  -4.433  0.00  0.00    -0.078 A 
ATOM      5  C3  OXE d   1      -1.450   5.998  -5.740  0.00  0.00     0.003 A 
ATOM      6  C4  OXE d   1      -0.075   5.932  -5.999  0.00  0.00    -0.002 A 
ATOM      7  C5  OXE d   1       0.846   5.923  -4.946  0.00  0.00    -0.002 A 
ATOM      8  C6  OXE d   1       0.384   5.985  -3.636  0.00  0.00     0.003 A 
ENDROOT
TORSDOF 0
ENDMDL
