MODEL 1
REMARK minimizedAffinity 11.4400978
REMARK minimizedRMSD -1
REMARK  1 active torsions:
REMARK  status: ('A' for Active; 'I' for Inactive)
REMARK    1  A    between atoms: C1_2  and  C2_3 
ROOT
ATOM      1  C2  UNL d   1       3.441  -3.471  -5.382  0.00  0.00    -0.077 A 
ATOM      2  C3  UNL d   1       2.795  -3.744  -4.168  0.00  0.00     0.002 A 
ATOM      3  C4  UNL d   1       2.909  -5.002  -3.574  0.00  0.00     0.002 A 
ATOM      4  C5  UNL d   1       3.672  -5.995  -4.184  0.00  0.00    -0.004 A 
ATOM      5  C6  UNL d   1       4.317  -5.734  -5.393  0.00  0.00     0.002 A 
ATOM      6  C7  UNL d   1       4.203  -4.477  -5.988  0.00  0.00     0.002 A 
ENDROOT
BRANCH   1   7
ATOM      7  C1  UNL d   1       3.359  -2.099  -5.999  0.00  0.00     0.055 C 
ATOM      8  C   UNL d   1       4.714  -1.406  -5.991  0.00  0.00     0.019 C 
ENDBRANCH   1   7
TORSDOF 1
ENDMDL
