MODEL 1
REMARK minimizedAffinity 9.06085491
REMARK minimizedRMSD -1
REMARK  1 active torsions:
REMARK  status: ('A' for Active; 'I' for Inactive)
REMARK    1  A    between atoms: C1_2  and  C2_3 
ROOT
ATOM      1  C2  UNL d   1      -3.762   3.914  -2.229  0.00  0.00    -0.077 A 
ATOM      2  C3  UNL d   1      -3.393   2.961  -1.269  0.00  0.00     0.002 A 
ATOM      3  C4  UNL d   1      -2.731   1.793  -1.652  0.00  0.00     0.002 A 
ATOM      4  C5  UNL d   1      -2.429   1.570  -2.994  0.00  0.00    -0.004 A 
ATOM      5  C6  UNL d   1      -2.794   2.510  -3.956  0.00  0.00     0.002 A 
ATOM      6  C7  UNL d   1      -3.457   3.678  -3.575  0.00  0.00     0.002 A 
ENDROOT
BRANCH   1   7
ATOM      7  C1  UNL d   1      -4.433   5.197  -1.812  0.00  0.00     0.055 C 
ATOM      8  C   UNL d   1      -5.918   4.988  -1.557  0.00  0.00     0.019 C 
ENDBRANCH   1   7
TORSDOF 1
ENDMDL
