MODEL 1
REMARK minimizedAffinity 3.36487651
REMARK minimizedRMSD -1
REMARK  1 active torsions:
REMARK  status: ('A' for Active; 'I' for Inactive)
REMARK    1  A    between atoms: C1_2  and  C2_3 
ROOT
ATOM      1  C2  UNL d   1      -3.005   1.891  -3.667  0.00  0.00    -0.077 A 
ATOM      2  C3  UNL d   1      -2.891   0.868  -4.619  0.00  0.00     0.002 A 
ATOM      3  C4  UNL d   1      -2.564  -0.431  -4.224  0.00  0.00     0.002 A 
ATOM      4  C5  UNL d   1      -2.353  -0.719  -2.877  0.00  0.00    -0.004 A 
ATOM      5  C6  UNL d   1      -2.463   0.292  -1.923  0.00  0.00     0.002 A 
ATOM      6  C7  UNL d   1      -2.788   1.591  -2.316  0.00  0.00     0.002 A 
ENDROOT
BRANCH   1   7
ATOM      7  C1  UNL d   1      -3.406   3.282  -4.085  0.00  0.00     0.055 C 
ATOM      8  C   UNL d   1      -4.161   3.998  -2.975  0.00  0.00     0.019 C 
ENDBRANCH   1   7
TORSDOF 1
ENDMDL
