MODEL 1
REMARK minimizedAffinity 2.81116104
REMARK minimizedRMSD -1
REMARK  1 active torsions:
REMARK  status: ('A' for Active; 'I' for Inactive)
REMARK    1  A    between atoms: C1_2  and  C2_3 
ROOT
ATOM      1  C2  UNL d   1      -2.646   1.956  -3.124  0.00  0.00    -0.077 A 
ATOM      2  C3  UNL d   1      -2.054   1.700  -1.879  0.00  0.00     0.002 A 
ATOM      3  C4  UNL d   1      -1.578   0.424  -1.573  0.00  0.00     0.002 A 
ATOM      4  C5  UNL d   1      -1.684  -0.604  -2.508  0.00  0.00    -0.004 A 
ATOM      5  C6  UNL d   1      -2.273  -0.360  -3.747  0.00  0.00     0.002 A 
ATOM      6  C7  UNL d   1      -2.751   0.915  -4.055  0.00  0.00     0.002 A 
ENDROOT
BRANCH   1   7
ATOM      7  C1  UNL d   1      -3.117   3.344  -3.474  0.00  0.00     0.055 C 
ATOM      8  C   UNL d   1      -3.920   3.960  -2.338  0.00  0.00     0.019 C 
ENDBRANCH   1   7
TORSDOF 1
ENDMDL
