MODEL 1
REMARK minimizedAffinity 12.3126507
REMARK minimizedRMSD -1
REMARK  1 active torsions:
REMARK  status: ('A' for Active; 'I' for Inactive)
REMARK    1  A    between atoms: C1_2  and  C2_3 
ROOT
ATOM      1  C2  UNL d   1      -2.632   1.878  -3.286  0.00  0.00    -0.077 A 
ATOM      2  C3  UNL d   1      -2.442   0.824  -4.191  0.00  0.00     0.002 A 
ATOM      3  C4  UNL d   1      -2.099  -0.449  -3.731  0.00  0.00     0.002 A 
ATOM      4  C5  UNL d   1      -1.948  -0.681  -2.366  0.00  0.00    -0.004 A 
ATOM      5  C6  UNL d   1      -2.133   0.361  -1.458  0.00  0.00     0.002 A 
ATOM      6  C7  UNL d   1      -2.474   1.634  -1.916  0.00  0.00     0.002 A 
ENDROOT
BRANCH   1   7
ATOM      7  C1  UNL d   1      -3.050   3.239  -3.776  0.00  0.00     0.055 C 
ATOM      8  C   UNL d   1      -4.069   3.876  -2.841  0.00  0.00     0.019 C 
ENDBRANCH   1   7
TORSDOF 1
ENDMDL
