MODEL 1
REMARK minimizedAffinity 6.51309681
REMARK minimizedRMSD -1
REMARK  1 active torsions:
REMARK  status: ('A' for Active; 'I' for Inactive)
REMARK    1  A    between atoms: C1_2  and  C2_3 
ROOT
ATOM      1  C2  UNL d   1       2.662   0.623  -0.701  0.00  0.00    -0.077 A 
ATOM      2  C3  UNL d   1       3.555   1.623  -1.109  0.00  0.00     0.002 A 
ATOM      3  C4  UNL d   1       3.676   2.804  -0.375  0.00  0.00     0.002 A 
ATOM      4  C5  UNL d   1       2.909   2.995   0.773  0.00  0.00    -0.004 A 
ATOM      5  C6  UNL d   1       2.016   2.007   1.186  0.00  0.00     0.002 A 
ATOM      6  C7  UNL d   1       1.893   0.826   0.453  0.00  0.00     0.002 A 
ENDROOT
BRANCH   1   7
ATOM      7  C1  UNL d   1       2.566  -0.673  -1.463  0.00  0.00     0.055 C 
ATOM      8  C   UNL d   1       2.767  -1.871  -0.546  0.00  0.00     0.019 C 
ENDBRANCH   1   7
TORSDOF 1
ENDMDL
