MODEL 1
REMARK minimizedAffinity 8.75479031
REMARK minimizedRMSD -1
REMARK  1 active torsions:
REMARK  status: ('A' for Active; 'I' for Inactive)
REMARK    1  A    between atoms: C1_2  and  C2_3 
ROOT
ATOM      1  C2  UNL d   1       2.382   1.366   1.523  0.00  0.00    -0.077 A 
ATOM      2  C3  UNL d   1       1.341   0.675   2.159  0.00  0.00     0.002 A 
ATOM      3  C4  UNL d   1       0.784   1.168   3.340  0.00  0.00     0.002 A 
ATOM      4  C5  UNL d   1       1.258   2.356   3.893  0.00  0.00    -0.004 A 
ATOM      5  C6  UNL d   1       2.294   3.049   3.270  0.00  0.00     0.002 A 
ATOM      6  C7  UNL d   1       2.853   2.557   2.090  0.00  0.00     0.002 A 
ENDROOT
BRANCH   1   7
ATOM      7  C1  UNL d   1       2.951   0.862   0.223  0.00  0.00     0.055 C 
ATOM      8  C   UNL d   1       3.268   2.009  -0.725  0.00  0.00     0.019 C 
ENDBRANCH   1   7
TORSDOF 1
ENDMDL
