MODEL 1
REMARK minimizedAffinity 8.31202698
REMARK minimizedRMSD -1
REMARK  1 active torsions:
REMARK  status: ('A' for Active; 'I' for Inactive)
REMARK    1  A    between atoms: C1_2  and  C2_3 
ROOT
ATOM      1  C2  UNL d   1       2.656  -1.218  -0.187  0.00  0.00    -0.077 A 
ATOM      2  C3  UNL d   1       1.774  -0.141  -0.017  0.00  0.00     0.002 A 
ATOM      3  C4  UNL d   1       1.890   0.697   1.094  0.00  0.00     0.002 A 
ATOM      4  C5  UNL d   1       2.887   0.469   2.040  0.00  0.00    -0.004 A 
ATOM      5  C6  UNL d   1       3.767  -0.601   1.880  0.00  0.00     0.002 A 
ATOM      6  C7  UNL d   1       3.652  -1.440   0.772  0.00  0.00     0.002 A 
ENDROOT
BRANCH   1   7
ATOM      7  C1  UNL d   1       2.564  -2.094  -1.410  0.00  0.00     0.055 C 
ATOM      8  C   UNL d   1       3.208  -1.428  -2.617  0.00  0.00     0.019 C 
ENDBRANCH   1   7
TORSDOF 1
ENDMDL
