MODEL 1
REMARK minimizedAffinity -2.76951361
REMARK minimizedRMSD -1
REMARK  1 active torsions:
REMARK  status: ('A' for Active; 'I' for Inactive)
REMARK    1  A    between atoms: C1_2  and  C2_3 
ROOT
ATOM      1  C2  UNL d   1       3.191  -0.411   0.005  0.00  0.00    -0.077 A 
ATOM      2  C3  UNL d   1       2.937   0.474  -1.051  0.00  0.00     0.002 A 
ATOM      3  C4  UNL d   1       3.808   1.534  -1.309  0.00  0.00     0.002 A 
ATOM      4  C5  UNL d   1       4.941   1.716  -0.519  0.00  0.00    -0.004 A 
ATOM      5  C6  UNL d   1       5.201   0.841   0.536  0.00  0.00     0.002 A 
ATOM      6  C7  UNL d   1       4.331  -0.218   0.796  0.00  0.00     0.002 A 
ENDROOT
BRANCH   1   7
ATOM      7  C1  UNL d   1       2.279  -1.584   0.255  0.00  0.00     0.055 C 
ATOM      8  C   UNL d   1       1.711  -2.131  -1.047  0.00  0.00     0.019 C 
ENDBRANCH   1   7
TORSDOF 1
ENDMDL
