MODEL 1
REMARK minimizedAffinity 0.537433863
REMARK minimizedRMSD -1
REMARK  1 active torsions:
REMARK  status: ('A' for Active; 'I' for Inactive)
REMARK    1  A    between atoms: C1_2  and  C2_3 
ROOT
ATOM      1  C2  UNL d   1       2.071  -1.344  -0.101  0.00  0.00    -0.077 A 
ATOM      2  C3  UNL d   1       2.067   0.033   0.164  0.00  0.00     0.002 A 
ATOM      3  C4  UNL d   1       2.975   0.878  -0.477  0.00  0.00     0.002 A 
ATOM      4  C5  UNL d   1       3.890   0.357  -1.389  0.00  0.00    -0.004 A 
ATOM      5  C6  UNL d   1       3.904  -1.011  -1.658  0.00  0.00     0.002 A 
ATOM      6  C7  UNL d   1       2.998  -1.857  -1.017  0.00  0.00     0.002 A 
ENDROOT
BRANCH   1   7
ATOM      7  C1  UNL d   1       1.061  -2.250   0.552  0.00  0.00     0.055 C 
ATOM      8  C   UNL d   1       0.743  -3.450  -0.328  0.00  0.00     0.019 C 
ENDBRANCH   1   7
TORSDOF 1
ENDMDL
