MODEL 1
REMARK minimizedAffinity 3.38823915
REMARK minimizedRMSD -1
REMARK  1 active torsions:
REMARK  status: ('A' for Active; 'I' for Inactive)
REMARK    1  A    between atoms: C1_2  and  C2_3 
ROOT
ATOM      1  C2  UNL d   1      -3.925   0.483  -2.557  0.00  0.00    -0.077 A 
ATOM      2  C3  UNL d   1      -5.106   0.734  -3.269  0.00  0.00     0.002 A 
ATOM      3  C4  UNL d   1      -5.052   1.163  -4.596  0.00  0.00     0.002 A 
ATOM      4  C5  UNL d   1      -3.821   1.341  -5.224  0.00  0.00    -0.004 A 
ATOM      5  C6  UNL d   1      -2.641   1.096  -4.523  0.00  0.00     0.002 A 
ATOM      6  C7  UNL d   1      -2.692   0.668  -3.196  0.00  0.00     0.002 A 
ENDROOT
BRANCH   1   7
ATOM      7  C1  UNL d   1      -3.981  -0.028  -1.141  0.00  0.00     0.055 C 
ATOM      8  C   UNL d   1      -5.042   0.703  -0.330  0.00  0.00     0.019 C 
ENDBRANCH   1   7
TORSDOF 1
ENDMDL
