MODEL 1
REMARK minimizedAffinity -4.08854198
REMARK minimizedRMSD -1
REMARK  0 active torsions:
REMARK  status: ('A' for Active; 'I' for Inactive)
ROOT
ATOM      1  C4' PXY d   1       1.286   0.301  -3.509  0.00  0.00     0.077 C 
ATOM      2  C1' PXY d   1       1.123   2.058   1.995  0.00  0.00     0.077 C 
ATOM      3  C1  PXY d   1       1.162   1.609   0.548  0.00  0.00    -0.082 A 
ATOM      4  C2  PXY d   1       1.024   0.326   0.257  0.00  0.00     0.003 A 
ATOM      5  C3  PXY d   1       1.088  -0.101  -1.044  0.00  0.00     0.003 A 
ATOM      6  C4  PXY d   1       1.243   0.801  -2.062  0.00  0.00    -0.082 A 
ATOM      7  C5  PXY d   1       1.375   2.113  -1.775  0.00  0.00     0.003 A 
ATOM      8  C6  PXY d   1       1.347   2.522  -0.444  0.00  0.00     0.003 A 
ENDROOT
TORSDOF 0
ENDMDL
