MODEL 1
REMARK minimizedAffinity -1.44696045
REMARK minimizedRMSD -1
REMARK  0 active torsions:
REMARK  status: ('A' for Active; 'I' for Inactive)
ROOT
ATOM      1  C4' PXY d   1       1.244   5.376  -0.600  0.00  0.00     0.077 C 
ATOM      2  C1' PXY d   1       0.807  -0.335  -1.384  0.00  0.00     0.077 C 
ATOM      3  C1  PXY d   1       0.912   1.162  -1.169  0.00  0.00    -0.082 A 
ATOM      4  C2  PXY d   1       1.344   1.935  -2.152  0.00  0.00     0.003 A 
ATOM      5  C3  PXY d   1       1.476   3.287  -1.964  0.00  0.00     0.003 A 
ATOM      6  C4  PXY d   1       1.112   3.860  -0.775  0.00  0.00    -0.082 A 
ATOM      7  C5  PXY d   1       0.661   3.079   0.229  0.00  0.00     0.003 A 
ATOM      8  C6  PXY d   1       0.573   1.704   0.032  0.00  0.00     0.003 A 
ENDROOT
TORSDOF 0
ENDMDL
