MODEL 1
REMARK minimizedAffinity -6.52552223
REMARK minimizedRMSD -1
REMARK  0 active torsions:
REMARK  status: ('A' for Active; 'I' for Inactive)
ROOT
ATOM      1  C4' PXY d   1       1.596   3.790  -1.147  0.00  0.00     0.077 C 
ATOM      2  C1' PXY d   1       0.866  -1.930  -0.730  0.00  0.00     0.077 C 
ATOM      3  C1  PXY d   1       1.053  -0.428  -0.827  0.00  0.00    -0.082 A 
ATOM      4  C2  PXY d   1       1.089   0.151  -2.016  0.00  0.00     0.003 A 
ATOM      5  C3  PXY d   1       1.289   1.503  -2.124  0.00  0.00     0.003 A 
ATOM      6  C4  PXY d   1       1.400   2.278  -1.001  0.00  0.00    -0.082 A 
ATOM      7  C5  PXY d   1       1.354   1.696   0.216  0.00  0.00     0.003 A 
ATOM      8  C6  PXY d   1       1.191   0.317   0.303  0.00  0.00     0.003 A 
ENDROOT
TORSDOF 0
ENDMDL
