MODEL 1
REMARK minimizedAffinity -0.711244583
REMARK minimizedRMSD -1
REMARK  0 active torsions:
REMARK  status: ('A' for Active; 'I' for Inactive)
ROOT
ATOM      1  C4' PXY d   1       0.575   4.005   0.664  0.00  0.00     0.077 C 
ATOM      2  C1' PXY d   1       2.475  -1.149  -1.136  0.00  0.00     0.077 C 
ATOM      3  C1  PXY d   1       1.972   0.197  -0.653  0.00  0.00    -0.082 A 
ATOM      4  C2  PXY d   1       1.768   1.170  -1.526  0.00  0.00     0.003 A 
ATOM      5  C3  PXY d   1       1.343   2.403  -1.103  0.00  0.00     0.003 A 
ATOM      6  C4  PXY d   1       1.074   2.627   0.221  0.00  0.00    -0.082 A 
ATOM      7  C5  PXY d   1       1.269   1.636   1.116  0.00  0.00     0.003 A 
ATOM      8  C6  PXY d   1       1.740   0.403   0.672  0.00  0.00     0.003 A 
ENDROOT
TORSDOF 0
ENDMDL
