MODEL 1
REMARK minimizedAffinity -4.39805317
REMARK minimizedRMSD -1
REMARK  0 active torsions:
REMARK  status: ('A' for Active; 'I' for Inactive)
ROOT
ATOM      1  C4' PXY d   1       1.633   4.954  -1.162  0.00  0.00     0.077 C 
ATOM      2  C1' PXY d   1       0.647  -0.695  -0.438  0.00  0.00     0.077 C 
ATOM      3  C1  PXY d   1       0.913   0.783  -0.638  0.00  0.00    -0.082 A 
ATOM      4  C2  PXY d   1       0.751   1.620   0.375  0.00  0.00     0.003 A 
ATOM      5  C3  PXY d   1       0.957   2.965   0.203  0.00  0.00     0.003 A 
ATOM      6  C4  PXY d   1       1.385   3.452  -1.003  0.00  0.00    -0.082 A 
ATOM      7  C5  PXY d   1       1.562   2.603  -2.038  0.00  0.00     0.003 A 
ATOM      8  C6  PXY d   1       1.308   1.247  -1.854  0.00  0.00     0.003 A 
ENDROOT
TORSDOF 0
ENDMDL
