MODEL 1
REMARK minimizedAffinity -0.426905215
REMARK minimizedRMSD -1
REMARK  0 active torsions:
REMARK  status: ('A' for Active; 'I' for Inactive)
ROOT
ATOM      1  C4' PXY d   1       2.410   4.839  -1.137  0.00  0.00     0.077 C 
ATOM      2  C1' PXY d   1       0.623  -0.573  -0.176  0.00  0.00     0.077 C 
ATOM      3  C1  PXY d   1       1.084   0.850  -0.417  0.00  0.00    -0.082 A 
ATOM      4  C2  PXY d   1       1.479   1.213  -1.627  0.00  0.00     0.003 A 
ATOM      5  C3  PXY d   1       1.930   2.488  -1.856  0.00  0.00     0.003 A 
ATOM      6  C4  PXY d   1       1.927   3.415  -0.849  0.00  0.00    -0.082 A 
ATOM      7  C5  PXY d   1       1.516   3.055   0.386  0.00  0.00     0.003 A 
ATOM      8  C6  PXY d   1       1.101   1.745   0.607  0.00  0.00     0.003 A 
ENDROOT
TORSDOF 0
ENDMDL
