MODEL 1
REMARK minimizedAffinity 2.05473065
REMARK minimizedRMSD -1
REMARK  0 active torsions:
REMARK  status: ('A' for Active; 'I' for Inactive)
ROOT
ATOM      1  C4' PXY d   1       1.791   0.375   1.759  0.00  0.00     0.077 C 
ATOM      2  C1' PXY d   1       1.109   1.718  -3.822  0.00  0.00     0.077 C 
ATOM      3  C1  PXY d   1       1.279   1.357  -2.359  0.00  0.00    -0.082 A 
ATOM      4  C2  PXY d   1       1.742   2.261  -1.511  0.00  0.00     0.003 A 
ATOM      5  C3  PXY d   1       1.932   1.941  -0.192  0.00  0.00     0.003 A 
ATOM      6  C4  PXY d   1       1.595   0.699   0.275  0.00  0.00    -0.082 A 
ATOM      7  C5  PXY d   1       1.112  -0.226  -0.582  0.00  0.00     0.003 A 
ATOM      8  C6  PXY d   1       0.965   0.106  -1.925  0.00  0.00     0.003 A 
ENDROOT
TORSDOF 0
ENDMDL
