MODEL 1
REMARK minimizedAffinity -1.35533965
REMARK minimizedRMSD -1
REMARK  0 active torsions:
REMARK  status: ('A' for Active; 'I' for Inactive)
ROOT
ATOM      1  C4' PXY d   1       0.639  -0.197  -1.178  0.00  0.00     0.077 C 
ATOM      2  C1' PXY d   1       2.153   5.376  -1.436  0.00  0.00     0.077 C 
ATOM      3  C1  PXY d   1       1.761   3.914  -1.357  0.00  0.00    -0.082 A 
ATOM      4  C2  PXY d   1       1.578   3.224  -2.471  0.00  0.00     0.003 A 
ATOM      5  C3  PXY d   1       1.192   1.909  -2.417  0.00  0.00     0.003 A 
ATOM      6  C4  PXY d   1       1.045   1.279  -1.210  0.00  0.00    -0.082 A 
ATOM      7  C5  PXY d   1       1.240   1.973  -0.069  0.00  0.00     0.003 A 
ATOM      8  C6  PXY d   1       1.591   3.318  -0.145  0.00  0.00     0.003 A 
ENDROOT
TORSDOF 0
ENDMDL
