MODEL 1
REMARK minimizedAffinity -2.54296327
REMARK minimizedRMSD -1
REMARK  0 active torsions:
REMARK  status: ('A' for Active; 'I' for Inactive)
ROOT
ATOM      1  C4' PXY d   1       0.978  -0.865  -0.474  0.00  0.00     0.077 C 
ATOM      2  C1' PXY d   1       1.815   4.789  -1.335  0.00  0.00     0.077 C 
ATOM      3  C1  PXY d   1       1.598   3.308  -1.096  0.00  0.00    -0.082 A 
ATOM      4  C2  PXY d   1       1.758   2.454  -2.094  0.00  0.00     0.003 A 
ATOM      5  C3  PXY d   1       1.535   1.115  -1.904  0.00  0.00     0.003 A 
ATOM      6  C4  PXY d   1       1.195   0.638  -0.666  0.00  0.00    -0.082 A 
ATOM      7  C5  PXY d   1       1.040   1.501   0.360  0.00  0.00     0.003 A 
ATOM      8  C6  PXY d   1       1.231   2.862   0.136  0.00  0.00     0.003 A 
ENDROOT
TORSDOF 0
ENDMDL
