MODEL 1
REMARK minimizedAffinity 3.94454932
REMARK minimizedRMSD -1
REMARK  0 active torsions:
REMARK  status: ('A' for Active; 'I' for Inactive)
ROOT
ATOM      1  C4' PXY d   1       1.057   0.140  -2.680  0.00  0.00     0.077 C 
ATOM      2  C1' PXY d   1       1.833   5.519  -0.712  0.00  0.00     0.077 C 
ATOM      3  C1  PXY d   1       1.618   4.112  -1.233  0.00  0.00    -0.082 A 
ATOM      4  C2  PXY d   1       2.231   3.096  -0.647  0.00  0.00     0.003 A 
ATOM      5  C3  PXY d   1       2.073   1.821  -1.125  0.00  0.00     0.003 A 
ATOM      6  C4  PXY d   1       1.237   1.576  -2.181  0.00  0.00    -0.082 A 
ATOM      7  C5  PXY d   1       0.600   2.606  -2.778  0.00  0.00     0.003 A 
ATOM      8  C6  PXY d   1       0.806   3.898  -2.304  0.00  0.00     0.003 A 
ENDROOT
TORSDOF 0
ENDMDL
