MODEL 1
REMARK minimizedAffinity -0.622531772
REMARK minimizedRMSD -1
REMARK  0 active torsions:
REMARK  status: ('A' for Active; 'I' for Inactive)
ROOT
ATOM      1  C4' PXY d   1       1.147   4.070   1.060  0.00  0.00     0.077 C 
ATOM      2  C1' PXY d   1       1.574  -0.452  -2.517  0.00  0.00     0.077 C 
ATOM      3  C1  PXY d   1       1.460   0.742  -1.589  0.00  0.00    -0.082 A 
ATOM      4  C2  PXY d   1       2.060   0.714  -0.410  0.00  0.00     0.003 A 
ATOM      5  C3  PXY d   1       1.940   1.772   0.454  0.00  0.00     0.003 A 
ATOM      6  C4  PXY d   1       1.243   2.891   0.087  0.00  0.00    -0.082 A 
ATOM      7  C5  PXY d   1       0.637   2.932  -1.119  0.00  0.00     0.003 A 
ATOM      8  C6  PXY d   1       0.736   1.831  -1.965  0.00  0.00     0.003 A 
ENDROOT
TORSDOF 0
ENDMDL
