MODEL 1
REMARK minimizedAffinity -2.18046832
REMARK minimizedRMSD -1
REMARK  0 active torsions:
REMARK  status: ('A' for Active; 'I' for Inactive)
ROOT
ATOM      1  C4' PXY d   1       1.221   4.864  -0.140  0.00  0.00     0.077 C 
ATOM      2  C1' PXY d   1       0.894  -0.730  -1.559  0.00  0.00     0.077 C 
ATOM      3  C1  PXY d   1       0.971   0.735  -1.177  0.00  0.00    -0.082 A 
ATOM      4  C2  PXY d   1       1.388   1.621  -2.067  0.00  0.00     0.003 A 
ATOM      5  C3  PXY d   1       1.493   2.946  -1.729  0.00  0.00     0.003 A 
ATOM      6  C4  PXY d   1       1.119   3.376  -0.484  0.00  0.00    -0.082 A 
ATOM      7  C5  PXY d   1       0.683   2.479   0.426  0.00  0.00     0.003 A 
ATOM      8  C6  PXY d   1       0.622   1.133   0.076  0.00  0.00     0.003 A 
ENDROOT
TORSDOF 0
ENDMDL
