MODEL 1
REMARK minimizedAffinity -2.62733531
REMARK minimizedRMSD -1
REMARK  0 active torsions:
REMARK  status: ('A' for Active; 'I' for Inactive)
ROOT
ATOM      1  C4' PXY d   1       1.138   3.222   0.760  0.00  0.00     0.077 C 
ATOM      2  C1' PXY d   1       1.259  -2.160  -1.346  0.00  0.00     0.077 C 
ATOM      3  C1  PXY d   1       1.226  -0.753  -0.781  0.00  0.00    -0.082 A 
ATOM      4  C2  PXY d   1       0.837   0.251  -1.550  0.00  0.00     0.003 A 
ATOM      5  C3  PXY d   1       0.832   1.533  -1.066  0.00  0.00     0.003 A 
ATOM      6  C4  PXY d   1       1.178   1.784   0.235  0.00  0.00    -0.082 A 
ATOM      7  C5  PXY d   1       1.566   0.763   1.029  0.00  0.00     0.003 A 
ATOM      8  C6  PXY d   1       1.604  -0.526   0.506  0.00  0.00     0.003 A 
ENDROOT
TORSDOF 0
ENDMDL
