MODEL 1
REMARK minimizedAffinity -2.85325885
REMARK minimizedRMSD -1
REMARK  0 active torsions:
REMARK  status: ('A' for Active; 'I' for Inactive)
ROOT
ATOM      1  C4' PXY d   1       1.642   5.018  -1.038  0.00  0.00     0.077 C 
ATOM      2  C1' PXY d   1       0.891  -0.711  -0.871  0.00  0.00     0.077 C 
ATOM      3  C1  PXY d   1       1.082   0.792  -0.904  0.00  0.00    -0.082 A 
ATOM      4  C2  PXY d   1       1.278   1.402  -2.062  0.00  0.00     0.003 A 
ATOM      5  C3  PXY d   1       1.483   2.757  -2.106  0.00  0.00     0.003 A 
ATOM      6  C4  PXY d   1       1.436   3.503  -0.959  0.00  0.00    -0.082 A 
ATOM      7  C5  PXY d   1       1.226   2.889   0.225  0.00  0.00     0.003 A 
ATOM      8  C6  PXY d   1       1.060   1.508   0.253  0.00  0.00     0.003 A 
ENDROOT
TORSDOF 0
ENDMDL
