MODEL 1
REMARK minimizedAffinity 1.00863028
REMARK minimizedRMSD -1
REMARK  0 active torsions:
REMARK  status: ('A' for Active; 'I' for Inactive)
ROOT
ATOM      1  C4' PXY d   1      -1.880  -3.920  -5.341  0.00  0.00     0.077 C 
ATOM      2  C1' PXY d   1      -1.487  -4.351   0.410  0.00  0.00     0.077 C 
ATOM      3  C1  PXY d   1      -1.601  -4.231  -1.097  0.00  0.00    -0.082 A 
ATOM      4  C2  PXY d   1      -1.029  -5.139  -1.870  0.00  0.00     0.003 A 
ATOM      5  C3  PXY d   1      -1.095  -5.028  -3.235  0.00  0.00     0.003 A 
ATOM      6  C4  PXY d   1      -1.799  -4.006  -3.814  0.00  0.00    -0.082 A 
ATOM      7  C5  PXY d   1      -2.394  -3.081  -3.031  0.00  0.00     0.003 A 
ATOM      8  C6  PXY d   1      -2.280  -3.189  -1.648  0.00  0.00     0.003 A 
ENDROOT
TORSDOF 0
ENDMDL
