MODEL 1
REMARK minimizedAffinity 1.55775392
REMARK minimizedRMSD -1
REMARK  0 active torsions:
REMARK  status: ('A' for Active; 'I' for Inactive)
ROOT
ATOM      1  C4' PXY d   1      -2.525   2.360   5.765  0.00  0.00     0.077 C 
ATOM      2  C1' PXY d   1      -3.572   3.091   0.127  0.00  0.00     0.077 C 
ATOM      3  C1  PXY d   1      -3.286   2.905   1.604  0.00  0.00    -0.082 A 
ATOM      4  C2  PXY d   1      -3.861   1.912   2.262  0.00  0.00     0.003 A 
ATOM      5  C3  PXY d   1      -3.639   1.749   3.605  0.00  0.00     0.003 A 
ATOM      6  C4  PXY d   1      -2.777   2.579   4.271  0.00  0.00    -0.082 A 
ATOM      7  C5  PXY d   1      -2.178   3.589   3.604  0.00  0.00     0.003 A 
ATOM      8  C6  PXY d   1      -2.449   3.762   2.250  0.00  0.00     0.003 A 
ENDROOT
TORSDOF 0
ENDMDL
