MODEL 1
REMARK minimizedAffinity -0.0982304886
REMARK minimizedRMSD -1
REMARK  0 active torsions:
REMARK  status: ('A' for Active; 'I' for Inactive)
ROOT
ATOM      1  C4' PXY d   1       1.488   2.045  -2.327  0.00  0.00     0.077 C 
ATOM      2  C1' PXY d   1       0.985  -3.253  -0.071  0.00  0.00     0.077 C 
ATOM      3  C1  PXY d   1       1.113  -1.858  -0.651  0.00  0.00    -0.082 A 
ATOM      4  C2  PXY d   1       1.036  -1.685  -1.960  0.00  0.00     0.003 A 
ATOM      5  C3  PXY d   1       1.182  -0.435  -2.505  0.00  0.00     0.003 A 
ATOM      6  C4  PXY d   1       1.355   0.656  -1.696  0.00  0.00    -0.082 A 
ATOM      7  C5  PXY d   1       1.424   0.489  -0.359  0.00  0.00     0.003 A 
ATOM      8  C6  PXY d   1       1.315  -0.793   0.171  0.00  0.00     0.003 A 
ENDROOT
TORSDOF 0
ENDMDL
