MODEL 1
REMARK minimizedAffinity 0.736188412
REMARK minimizedRMSD -1
REMARK  0 active torsions:
REMARK  status: ('A' for Active; 'I' for Inactive)
ROOT
ATOM      1  C4' PXY d   1       1.470   0.218  -1.184  0.00  0.00     0.077 C 
ATOM      2  C1' PXY d   1       1.471   5.999  -1.218  0.00  0.00     0.077 C 
ATOM      3  C1  PXY d   1       1.467   4.483  -1.222  0.00  0.00    -0.082 A 
ATOM      4  C2  PXY d   1       1.285   3.827  -0.088  0.00  0.00     0.003 A 
ATOM      5  C3  PXY d   1       1.311   2.456  -0.068  0.00  0.00     0.003 A 
ATOM      6  C4  PXY d   1       1.472   1.749  -1.229  0.00  0.00    -0.082 A 
ATOM      7  C5  PXY d   1       1.648   2.411  -2.392  0.00  0.00     0.003 A 
ATOM      8  C6  PXY d   1       1.660   3.803  -2.385  0.00  0.00     0.003 A 
ENDROOT
TORSDOF 0
ENDMDL
