MODEL 1
REMARK minimizedAffinity -2.76162195
REMARK minimizedRMSD -1
REMARK  0 active torsions:
REMARK  status: ('A' for Active; 'I' for Inactive)
ROOT
ATOM      1  C4' PXY d   1       0.958  -0.140  -1.141  0.00  0.00     0.077 C 
ATOM      2  C1' PXY d   1       1.882   5.558  -0.838  0.00  0.00     0.077 C 
ATOM      3  C1  PXY d   1       1.644   4.062  -0.905  0.00  0.00    -0.082 A 
ATOM      4  C2  PXY d   1       1.618   3.456  -2.081  0.00  0.00     0.003 A 
ATOM      5  C3  PXY d   1       1.372   2.110  -2.162  0.00  0.00     0.003 A 
ATOM      6  C4  PXY d   1       1.204   1.367  -1.025  0.00  0.00    -0.082 A 
ATOM      7  C5  PXY d   1       1.240   1.976   0.179  0.00  0.00     0.003 A 
ATOM      8  C6  PXY d   1       1.450   3.351   0.238  0.00  0.00     0.003 A 
ENDROOT
TORSDOF 0
ENDMDL
