MODEL 1
REMARK minimizedAffinity -6.26775217
REMARK minimizedRMSD -1
REMARK  0 active torsions:
REMARK  status: ('A' for Active; 'I' for Inactive)
ROOT
ATOM      1  C4' PXY d   1       0.768   0.065  -0.382  0.00  0.00     0.077 C 
ATOM      2  C1' PXY d   1       1.857   5.723  -0.846  0.00  0.00     0.077 C 
ATOM      3  C1  PXY d   1       1.574   4.239  -0.711  0.00  0.00    -0.082 A 
ATOM      4  C2  PXY d   1       1.662   3.458  -1.775  0.00  0.00     0.003 A 
ATOM      5  C3  PXY d   1       1.379   2.120  -1.678  0.00  0.00     0.003 A 
ATOM      6  C4  PXY d   1       1.054   1.566  -0.469  0.00  0.00    -0.082 A 
ATOM      7  C5  PXY d   1       0.972   2.355   0.623  0.00  0.00     0.003 A 
ATOM      8  C6  PXY d   1       1.223   3.718   0.496  0.00  0.00     0.003 A 
ENDROOT
TORSDOF 0
ENDMDL
