MODEL 1
REMARK minimizedAffinity -4.56966925
REMARK minimizedRMSD -1
REMARK  0 active torsions:
REMARK  status: ('A' for Active; 'I' for Inactive)
ROOT
ATOM      1  N1  IND d   1       0.702   3.283   0.132  0.00  0.00    -0.196 N 
ATOM      2  C2  IND d   1       1.639   3.529   1.096  0.00  0.00     0.054 A 
ATOM      3  C3  IND d   1       2.048   2.370   1.661  0.00  0.00    -0.031 A 
ATOM      4  C4  IND d   1       1.386  -0.051   1.088  0.00  0.00     0.051 A 
ATOM      5  C5  IND d   1       0.536  -0.778   0.303  0.00  0.00    -0.031 A 
ATOM      6  C6  IND d   1      -0.318  -0.177  -0.599  0.00  0.00     0.015 A 
ATOM      7  C7  IND d   1      -0.345   1.180  -0.758  0.00  0.00    -0.016 A 
ATOM      8  C8  IND d   1       0.512   1.922   0.042  0.00  0.00    -0.047 A 
ATOM      9  C9  IND d   1       1.350   1.320   0.989  0.00  0.00    -0.096 A 
ATOM     10  HN1 IND d   1       0.298   3.879  -0.339  0.00  0.00     0.298 HD
ENDROOT
TORSDOF 0
ENDMDL
