MODEL 1
REMARK minimizedAffinity -3.25634384
REMARK minimizedRMSD -1
REMARK  0 active torsions:
REMARK  status: ('A' for Active; 'I' for Inactive)
ROOT
ATOM      1  N1  IND d   1      -0.789   0.857   0.116  0.00  0.00    -0.196 N 
ATOM      2  C2  IND d   1       0.001   1.073  -0.979  0.00  0.00     0.054 A 
ATOM      3  C3  IND d   1       0.723  -0.034  -1.264  0.00  0.00    -0.031 A 
ATOM      4  C4  IND d   1       0.691  -2.344  -0.129  0.00  0.00     0.051 A 
ATOM      5  C5  IND d   1       0.157  -3.014   0.936  0.00  0.00    -0.031 A 
ATOM      6  C6  IND d   1      -0.740  -2.416   1.798  0.00  0.00     0.015 A 
ATOM      7  C7  IND d   1      -1.147  -1.124   1.619  0.00  0.00    -0.016 A 
ATOM      8  C8  IND d   1      -0.601  -0.439   0.543  0.00  0.00    -0.047 A 
ATOM      9  C9  IND d   1       0.342  -1.027  -0.310  0.00  0.00    -0.096 A 
ATOM     10  HN1 IND d   1      -1.314   1.434   0.477  0.00  0.00     0.298 HD
ENDROOT
TORSDOF 0
ENDMDL
