MODEL 1
REMARK minimizedAffinity -4.26987743
REMARK minimizedRMSD -1
REMARK  0 active torsions:
REMARK  status: ('A' for Active; 'I' for Inactive)
ROOT
ATOM      1  N1  IND d   1      -0.367  -0.797  -0.007  0.00  0.00    -0.196 N 
ATOM      2  C2  IND d   1       0.379  -1.606   0.804  0.00  0.00     0.054 A 
ATOM      3  C3  IND d   1       1.383  -0.904   1.374  0.00  0.00    -0.031 A 
ATOM      4  C4  IND d   1       1.930   1.606   1.198  0.00  0.00     0.051 A 
ATOM      5  C5  IND d   1       1.553   2.747   0.547  0.00  0.00    -0.031 A 
ATOM      6  C6  IND d   1       0.495   2.766  -0.338  0.00  0.00     0.015 A 
ATOM      7  C7  IND d   1      -0.237   1.642  -0.597  0.00  0.00    -0.016 A 
ATOM      8  C8  IND d   1       0.146   0.480   0.057  0.00  0.00    -0.047 A 
ATOM      9  C9  IND d   1       1.246   0.445   0.923  0.00  0.00    -0.096 A 
ATOM     10  HN1 IND d   1      -1.042  -1.044  -0.478  0.00  0.00     0.298 HD
ENDROOT
TORSDOF 0
ENDMDL
