MODEL 1
REMARK minimizedAffinity -4.75031996
REMARK minimizedRMSD -1
REMARK  0 active torsions:
REMARK  status: ('A' for Active; 'I' for Inactive)
ROOT
ATOM      1  N1  IND d   1       0.528  -3.084   0.479  0.00  0.00    -0.196 N 
ATOM      2  C2  IND d   1      -0.677  -3.712   0.631  0.00  0.00     0.054 A 
ATOM      3  C3  IND d   1      -1.664  -2.803   0.798  0.00  0.00    -0.031 A 
ATOM      4  C4  IND d   1      -1.543  -0.232   0.757  0.00  0.00     0.051 A 
ATOM      5  C5  IND d   1      -0.654   0.804   0.685  0.00  0.00    -0.031 A 
ATOM      6  C6  IND d   1       0.701   0.592   0.536  0.00  0.00     0.015 A 
ATOM      7  C7  IND d   1       1.219  -0.668   0.440  0.00  0.00    -0.016 A 
ATOM      8  C8  IND d   1       0.320  -1.722   0.519  0.00  0.00    -0.047 A 
ATOM      9  C9  IND d   1      -1.051  -1.515   0.714  0.00  0.00    -0.096 A 
ATOM     10  HN1 IND d   1       1.287  -3.473   0.376  0.00  0.00     0.298 HD
ENDROOT
TORSDOF 0
ENDMDL
