MODEL 1
REMARK minimizedAffinity -3.72763872
REMARK minimizedRMSD -1
REMARK  0 active torsions:
REMARK  status: ('A' for Active; 'I' for Inactive)
ROOT
ATOM      1  N1  IND d   1       0.777   0.293  -1.061  0.00  0.00    -0.196 N 
ATOM      2  C2  IND d   1       0.800   1.488  -0.397  0.00  0.00     0.054 A 
ATOM      3  C3  IND d   1       0.222   1.363   0.818  0.00  0.00    -0.031 A 
ATOM      4  C4  IND d   1      -0.738  -0.733   1.965  0.00  0.00     0.051 A 
ATOM      5  C5  IND d   1      -1.015  -2.052   1.740  0.00  0.00    -0.031 A 
ATOM      6  C6  IND d   1      -0.701  -2.670   0.546  0.00  0.00     0.015 A 
ATOM      7  C7  IND d   1      -0.084  -1.992  -0.466  0.00  0.00    -0.016 A 
ATOM      8  C8  IND d   1       0.193  -0.650  -0.244  0.00  0.00    -0.047 A 
ATOM      9  C9  IND d   1      -0.162  -0.007   0.949  0.00  0.00    -0.096 A 
ATOM     10  HN1 IND d   1       1.077   0.154  -1.854  0.00  0.00     0.298 HD
ENDROOT
TORSDOF 0
ENDMDL
