MODEL 1
REMARK minimizedAffinity -2.71414566
REMARK minimizedRMSD -1
REMARK  0 active torsions:
REMARK  status: ('A' for Active; 'I' for Inactive)
ROOT
ATOM      1  N1  IND d   1       0.618   0.025  -1.097  0.00  0.00    -0.196 N 
ATOM      2  C2  IND d   1       0.382   0.912  -0.084  0.00  0.00     0.054 A 
ATOM      3  C3  IND d   1      -0.298   0.312   0.918  0.00  0.00    -0.031 A 
ATOM      4  C4  IND d   1      -1.037  -2.143   1.152  0.00  0.00     0.051 A 
ATOM      5  C5  IND d   1      -1.079  -3.325   0.468  0.00  0.00    -0.031 A 
ATOM      6  C6  IND d   1      -0.545  -3.454  -0.798  0.00  0.00     0.015 A 
ATOM      7  C7  IND d   1       0.065  -2.404  -1.424  0.00  0.00    -0.016 A 
ATOM      8  C8  IND d   1       0.103  -1.201  -0.735  0.00  0.00    -0.047 A 
ATOM      9  C9  IND d   1      -0.475  -1.052   0.532  0.00  0.00    -0.096 A 
ATOM     10  HN1 IND d   1       1.020   0.202  -1.836  0.00  0.00     0.298 HD
ENDROOT
TORSDOF 0
ENDMDL
