MODEL 1
REMARK minimizedAffinity -4.9716711
REMARK minimizedRMSD -1
REMARK  0 active torsions:
REMARK  status: ('A' for Active; 'I' for Inactive)
ROOT
ATOM      1  N1  IND d   1      -1.226  -3.251   0.749  0.00  0.00    -0.196 N 
ATOM      2  C2  IND d   1      -0.666  -3.978  -0.264  0.00  0.00     0.054 A 
ATOM      3  C3  IND d   1      -0.006  -3.165  -1.118  0.00  0.00    -0.031 A 
ATOM      4  C4  IND d   1       0.373  -0.621  -0.991  0.00  0.00     0.051 A 
ATOM      5  C5  IND d   1       0.025   0.485  -0.267  0.00  0.00    -0.031 A 
ATOM      6  C6  IND d   1      -0.771   0.400   0.856  0.00  0.00     0.015 A 
ATOM      7  C7  IND d   1      -1.242  -0.801   1.307  0.00  0.00    -0.016 A 
ATOM      8  C8  IND d   1      -0.897  -1.925   0.571  0.00  0.00    -0.047 A 
ATOM      9  C9  IND d   1      -0.124  -1.841  -0.595  0.00  0.00    -0.096 A 
ATOM     10  HN1 IND d   1      -1.702  -3.568   1.391  0.00  0.00     0.298 HD
ENDROOT
TORSDOF 0
ENDMDL
