MODEL 1
REMARK minimizedAffinity -1.77781487
REMARK minimizedRMSD -1
REMARK  0 active torsions:
REMARK  status: ('A' for Active; 'I' for Inactive)
ROOT
ATOM      1  N1  IND d   1       0.412   0.089  -2.815  0.00  0.00    -0.196 N 
ATOM      2  C2  IND d   1       0.841  -1.133  -3.253  0.00  0.00     0.054 A 
ATOM      3  C3  IND d   1       0.913  -2.004  -2.221  0.00  0.00    -0.031 A 
ATOM      4  C4  IND d   1       0.278  -1.667   0.251  0.00  0.00     0.051 A 
ATOM      5  C5  IND d   1      -0.129  -0.710   1.138  0.00  0.00    -0.031 A 
ATOM      6  C6  IND d   1      -0.384   0.588   0.744  0.00  0.00     0.015 A 
ATOM      7  C7  IND d   1      -0.252   0.976  -0.559  0.00  0.00    -0.016 A 
ATOM      8  C8  IND d   1       0.168   0.008  -1.461  0.00  0.00    -0.047 A 
ATOM      9  C9  IND d   1       0.469  -1.299  -1.060  0.00  0.00    -0.096 A 
ATOM     10  HN1 IND d   1       0.312   0.790  -3.302  0.00  0.00     0.298 HD
ENDROOT
TORSDOF 0
ENDMDL
