MODEL 1
REMARK minimizedAffinity -3.50677943
REMARK minimizedRMSD -1
REMARK  0 active torsions:
REMARK  status: ('A' for Active; 'I' for Inactive)
ROOT
ATOM      1  N1  IND d   1       0.099   0.701  -1.188  0.00  0.00    -0.196 N 
ATOM      2  C2  IND d   1       0.151   1.702  -0.258  0.00  0.00     0.054 A 
ATOM      3  C3  IND d   1      -0.096   1.210   0.977  0.00  0.00    -0.031 A 
ATOM      4  C4  IND d   1      -0.512  -1.221   1.715  0.00  0.00     0.051 A 
ATOM      5  C5  IND d   1      -0.689  -2.483   1.219  0.00  0.00    -0.031 A 
ATOM      6  C6  IND d   1      -0.608  -2.753  -0.132  0.00  0.00     0.015 A 
ATOM      7  C7  IND d   1      -0.335  -1.769  -1.040  0.00  0.00    -0.016 A 
ATOM      8  C8  IND d   1      -0.161  -0.486  -0.540  0.00  0.00    -0.047 A 
ATOM      9  C9  IND d   1      -0.284  -0.199   0.825  0.00  0.00    -0.096 A 
ATOM     10  HN1 IND d   1       0.210   0.798  -2.035  0.00  0.00     0.298 HD
ENDROOT
TORSDOF 0
ENDMDL
