MODEL 1
REMARK minimizedAffinity -0.728175938
REMARK minimizedRMSD -1
REMARK  0 active torsions:
REMARK  status: ('A' for Active; 'I' for Inactive)
ROOT
ATOM      1  N1  IND d   1       0.843   1.612   0.972  0.00  0.00    -0.196 N 
ATOM      2  C2  IND d   1       0.426   2.226  -0.176  0.00  0.00     0.054 A 
ATOM      3  C3  IND d   1      -0.347   1.388  -0.903  0.00  0.00    -0.031 A 
ATOM      4  C4  IND d   1      -1.139  -0.999  -0.352  0.00  0.00     0.051 A 
ATOM      5  C5  IND d   1      -0.988  -1.999   0.567  0.00  0.00    -0.031 A 
ATOM      6  C6  IND d   1      -0.205  -1.842   1.692  0.00  0.00     0.015 A 
ATOM      7  C7  IND d   1       0.450  -0.670   1.947  0.00  0.00    -0.016 A 
ATOM      8  C8  IND d   1       0.304   0.345   1.012  0.00  0.00    -0.047 A 
ATOM      9  C9  IND d   1      -0.455   0.177  -0.153  0.00  0.00    -0.096 A 
ATOM     10  HN1 IND d   1       1.356   1.959   1.568  0.00  0.00     0.298 HD
ENDROOT
TORSDOF 0
ENDMDL
