MODEL 1
REMARK minimizedAffinity -5.22916555
REMARK minimizedRMSD -1
REMARK  0 active torsions:
REMARK  status: ('A' for Active; 'I' for Inactive)
ROOT
ATOM      1  N1  IND d   1      -0.250  -1.177  -2.687  0.00  0.00    -0.196 N 
ATOM      2  C2  IND d   1      -0.261  -2.498  -3.039  0.00  0.00     0.054 A 
ATOM      3  C3  IND d   1      -0.222  -3.279  -1.936  0.00  0.00    -0.031 A 
ATOM      4  C4  IND d   1      -0.238  -2.603   0.548  0.00  0.00     0.051 A 
ATOM      5  C5  IND d   1      -0.188  -1.510   1.367  0.00  0.00    -0.031 A 
ATOM      6  C6  IND d   1      -0.159  -0.224   0.867  0.00  0.00     0.015 A 
ATOM      7  C7  IND d   1      -0.190   0.018  -0.478  0.00  0.00    -0.016 A 
ATOM      8  C8  IND d   1      -0.233  -1.090  -1.313  0.00  0.00    -0.047 A 
ATOM      9  C9  IND d   1      -0.220  -2.398  -0.811  0.00  0.00    -0.096 A 
ATOM     10  HN1 IND d   1      -0.253  -0.513  -3.233  0.00  0.00     0.298 HD
ENDROOT
TORSDOF 0
ENDMDL
