MODEL 1
REMARK minimizedAffinity 1.30410528
REMARK minimizedRMSD -1
REMARK  0 active torsions:
REMARK  status: ('A' for Active; 'I' for Inactive)
ROOT
ATOM      1  N1  IND d   1      -0.110  -1.887  -2.383  0.00  0.00    -0.196 N 
ATOM      2  C2  IND d   1      -0.342  -3.222  -2.561  0.00  0.00     0.054 A 
ATOM      3  C3  IND d   1      -0.646  -3.808  -1.381  0.00  0.00    -0.031 A 
ATOM      4  C4  IND d   1      -0.918  -2.749   0.949  0.00  0.00     0.051 A 
ATOM      5  C5  IND d   1      -0.771  -1.567   1.619  0.00  0.00    -0.031 A 
ATOM      6  C6  IND d   1      -0.391  -0.407   0.976  0.00  0.00     0.015 A 
ATOM      7  C7  IND d   1      -0.154  -0.383  -0.370  0.00  0.00    -0.016 A 
ATOM      8  C8  IND d   1      -0.295  -1.584  -1.052  0.00  0.00    -0.047 A 
ATOM      9  C9  IND d   1      -0.639  -2.773  -0.397  0.00  0.00    -0.096 A 
ATOM     10  HN1 IND d   1       0.115  -1.330  -2.998  0.00  0.00     0.298 HD
ENDROOT
TORSDOF 0
ENDMDL
