MODEL 1
REMARK minimizedAffinity -5.35289049
REMARK minimizedRMSD -1
REMARK  0 active torsions:
REMARK  status: ('A' for Active; 'I' for Inactive)
ROOT
ATOM      1  N1  IND d   1       1.979   1.822  -0.618  0.00  0.00    -0.196 N 
ATOM      2  C2  IND d   1       1.466   3.039  -0.268  0.00  0.00     0.054 A 
ATOM      3  C3  IND d   1       0.310   2.883   0.416  0.00  0.00    -0.031 A 
ATOM      4  C4  IND d   1      -0.869   0.720   1.164  0.00  0.00     0.051 A 
ATOM      5  C5  IND d   1      -0.799  -0.640   1.049  0.00  0.00    -0.031 A 
ATOM      6  C6  IND d   1       0.223  -1.261   0.361  0.00  0.00     0.015 A 
ATOM      7  C7  IND d   1       1.224  -0.544  -0.231  0.00  0.00    -0.016 A 
ATOM      8  C8  IND d   1       1.152   0.838  -0.122  0.00  0.00    -0.047 A 
ATOM      9  C9  IND d   1       0.094   1.476   0.539  0.00  0.00    -0.096 A 
ATOM     10  HN1 IND d   1       2.698   1.692  -1.071  0.00  0.00     0.298 HD
ENDROOT
TORSDOF 0
ENDMDL
