MODEL 1
REMARK minimizedAffinity -3.42387462
REMARK minimizedRMSD -1
REMARK  0 active torsions:
REMARK  status: ('A' for Active; 'I' for Inactive)
ROOT
ATOM      1  N1  IND d   1       0.855   1.670  -0.940  0.00  0.00    -0.196 N 
ATOM      2  C2  IND d   1       1.558   2.504  -0.117  0.00  0.00     0.054 A 
ATOM      3  C3  IND d   1       1.894   1.864   1.026  0.00  0.00    -0.031 A 
ATOM      4  C4  IND d   1       1.483  -0.583   1.711  0.00  0.00     0.051 A 
ATOM      5  C5  IND d   1       0.851  -1.724   1.304  0.00  0.00    -0.031 A 
ATOM      6  C6  IND d   1       0.176  -1.795   0.102  0.00  0.00     0.015 A 
ATOM      7  C7  IND d   1       0.118  -0.725  -0.746  0.00  0.00    -0.016 A 
ATOM      8  C8  IND d   1       0.753   0.437  -0.332  0.00  0.00    -0.047 A 
ATOM      9  C9  IND d   1       1.403   0.528   0.905  0.00  0.00    -0.096 A 
ATOM     10  HN1 IND d   1       0.530   1.879  -1.708  0.00  0.00     0.298 HD
ENDROOT
TORSDOF 0
ENDMDL
