MODEL 1
REMARK minimizedAffinity -3.96137786
REMARK minimizedRMSD -1
REMARK  0 active torsions:
REMARK  status: ('A' for Active; 'I' for Inactive)
ROOT
ATOM      1  C   UNL d   1       1.303  -2.054   1.850  0.00  0.00     0.077 C 
ATOM      2  C1  UNL d   1       0.550  -1.231   0.847  0.00  0.00    -0.074 A 
ATOM      3  C2  UNL d   1       1.226  -0.451  -0.096  0.00  0.00    -0.005 A 
ATOM      4  C3  UNL d   1       0.512   0.302  -1.029  0.00  0.00     0.006 A 
ATOM      5  C4  UNL d   1      -0.883   0.281  -1.028  0.00  0.00    -0.005 A 
ATOM      6  C5  UNL d   1      -1.576  -0.494  -0.093  0.00  0.00    -0.074 A 
ATOM      7  C6  UNL d   1      -3.076  -0.535  -0.085  0.00  0.00     0.077 C 
ATOM      8  C7  UNL d   1      -0.852  -1.253   0.836  0.00  0.00    -0.001 A 
ENDROOT
TORSDOF 0
ENDMDL
