MODEL 1
REMARK minimizedAffinity -3.58476806
REMARK minimizedRMSD -1
REMARK  0 active torsions:
REMARK  status: ('A' for Active; 'I' for Inactive)
ROOT
ATOM      1  C   UNL d   1      -3.313  -0.562   0.055  0.00  0.00     0.077 C 
ATOM      2  C1  UNL d   1      -1.929  -0.095  -0.286  0.00  0.00    -0.074 A 
ATOM      3  C2  UNL d   1      -1.518   0.022  -1.618  0.00  0.00    -0.005 A 
ATOM      4  C3  UNL d   1      -0.231   0.467  -1.920  0.00  0.00     0.006 A 
ATOM      5  C4  UNL d   1       0.656   0.798  -0.895  0.00  0.00    -0.005 A 
ATOM      6  C5  UNL d   1       0.263   0.687   0.442  0.00  0.00    -0.074 A 
ATOM      7  C6  UNL d   1       1.201   1.048   1.555  0.00  0.00     0.077 C 
ATOM      8  C7  UNL d   1      -1.034   0.247   0.738  0.00  0.00    -0.001 A 
ENDROOT
TORSDOF 0
ENDMDL
