MODEL 1
REMARK minimizedAffinity -1.23755026
REMARK minimizedRMSD -1
REMARK  0 active torsions:
REMARK  status: ('A' for Active; 'I' for Inactive)
ROOT
ATOM      1  C   UNL d   1      -3.030  -1.133   0.047  0.00  0.00     0.077 C 
ATOM      2  C1  UNL d   1      -1.638  -0.629  -0.196  0.00  0.00    -0.074 A 
ATOM      3  C2  UNL d   1      -0.706  -0.563   0.844  0.00  0.00    -0.005 A 
ATOM      4  C3  UNL d   1       0.587  -0.100   0.601  0.00  0.00     0.006 A 
ATOM      5  C4  UNL d   1       0.961   0.299  -0.683  0.00  0.00    -0.005 A 
ATOM      6  C5  UNL d   1       0.043   0.239  -1.736  0.00  0.00    -0.074 A 
ATOM      7  C6  UNL d   1       0.431   0.655  -3.124  0.00  0.00     0.077 C 
ATOM      8  C7  UNL d   1      -1.253  -0.234  -1.485  0.00  0.00    -0.001 A 
ENDROOT
TORSDOF 0
ENDMDL
