MODEL 1
REMARK minimizedAffinity -0.694602966
REMARK minimizedRMSD -1
REMARK  0 active torsions:
REMARK  status: ('A' for Active; 'I' for Inactive)
ROOT
ATOM      1  C   UNL d   1       2.278   3.905   0.671  0.00  0.00     0.077 C 
ATOM      2  C1  UNL d   1       1.930   2.447   0.738  0.00  0.00    -0.074 A 
ATOM      3  C2  UNL d   1       2.786   1.532   1.359  0.00  0.00    -0.005 A 
ATOM      4  C3  UNL d   1       2.444   0.181   1.421  0.00  0.00     0.006 A 
ATOM      5  C4  UNL d   1       1.245  -0.267   0.864  0.00  0.00    -0.005 A 
ATOM      6  C5  UNL d   1       0.377   0.634   0.240  0.00  0.00    -0.074 A 
ATOM      7  C6  UNL d   1      -0.919   0.170  -0.355  0.00  0.00     0.077 C 
ATOM      8  C7  UNL d   1       0.724   1.991   0.188  0.00  0.00    -0.001 A 
ENDROOT
TORSDOF 0
ENDMDL
