MODEL 1
REMARK minimizedAffinity -1.43725705
REMARK minimizedRMSD -1
REMARK  0 active torsions:
REMARK  status: ('A' for Active; 'I' for Inactive)
ROOT
ATOM      1  C   UNL d   1       1.335  -1.308   1.518  0.00  0.00     0.077 C 
ATOM      2  C1  UNL d   1       0.367  -0.500   0.706  0.00  0.00    -0.074 A 
ATOM      3  C2  UNL d   1       0.699   0.783   0.259  0.00  0.00    -0.005 A 
ATOM      4  C3  UNL d   1      -0.208   1.519  -0.503  0.00  0.00     0.006 A 
ATOM      5  C4  UNL d   1      -1.455   0.981  -0.825  0.00  0.00    -0.005 A 
ATOM      6  C5  UNL d   1      -1.804  -0.301  -0.387  0.00  0.00    -0.074 A 
ATOM      7  C6  UNL d   1      -3.136  -0.898  -0.732  0.00  0.00     0.077 C 
ATOM      8  C7  UNL d   1      -0.885  -1.037   0.372  0.00  0.00    -0.001 A 
ENDROOT
TORSDOF 0
ENDMDL
