MODEL 1
REMARK minimizedAffinity 0.494794816
REMARK minimizedRMSD -1
REMARK  0 active torsions:
REMARK  status: ('A' for Active; 'I' for Inactive)
ROOT
ATOM      1  C   UNL d   1       1.234   0.279  -2.809  0.00  0.00     0.077 C 
ATOM      2  C1  UNL d   1       0.857   0.349  -1.359  0.00  0.00    -0.074 A 
ATOM      3  C2  UNL d   1      -0.078  -0.538  -0.816  0.00  0.00    -0.005 A 
ATOM      4  C3  UNL d   1      -0.411  -0.467   0.536  0.00  0.00     0.006 A 
ATOM      5  C4  UNL d   1       0.186   0.490   1.358  0.00  0.00    -0.005 A 
ATOM      6  C5  UNL d   1       1.124   1.384   0.833  0.00  0.00    -0.074 A 
ATOM      7  C6  UNL d   1       1.782   2.412   1.704  0.00  0.00     0.077 C 
ATOM      8  C7  UNL d   1       1.459   1.302  -0.526  0.00  0.00    -0.001 A 
ENDROOT
TORSDOF 0
ENDMDL
