MODEL 1
REMARK minimizedAffinity -3.70702219
REMARK minimizedRMSD -1
REMARK  0 active torsions:
REMARK  status: ('A' for Active; 'I' for Inactive)
ROOT
ATOM      1  C   UNL d   1      -3.218  -0.322   0.379  0.00  0.00     0.077 C 
ATOM      2  C1  UNL d   1      -1.839  -0.095  -0.165  0.00  0.00    -0.074 A 
ATOM      3  C2  UNL d   1      -1.530  -0.405  -1.493  0.00  0.00    -0.005 A 
ATOM      4  C3  UNL d   1      -0.245  -0.181  -1.987  0.00  0.00     0.006 A 
ATOM      5  C4  UNL d   1       0.743   0.355  -1.160  0.00  0.00    -0.005 A 
ATOM      6  C5  UNL d   1       0.452   0.672   0.171  0.00  0.00    -0.074 A 
ATOM      7  C6  UNL d   1       1.499   1.258   1.071  0.00  0.00     0.077 C 
ATOM      8  C7  UNL d   1      -0.843   0.450   0.658  0.00  0.00    -0.001 A 
ENDROOT
TORSDOF 0
ENDMDL
