MODEL 1
REMARK minimizedAffinity -4.14264488
REMARK minimizedRMSD -1
REMARK  0 active torsions:
REMARK  status: ('A' for Active; 'I' for Inactive)
ROOT
ATOM      1  C   UNL d   1      -2.708  -0.056   0.032  0.00  0.00     0.077 C 
ATOM      2  C1  UNL d   1      -1.314  -0.431   0.438  0.00  0.00    -0.074 A 
ATOM      3  C2  UNL d   1      -1.084  -1.449   1.369  0.00  0.00    -0.005 A 
ATOM      4  C3  UNL d   1       0.219  -1.792   1.729  0.00  0.00     0.006 A 
ATOM      5  C4  UNL d   1       1.304  -1.122   1.162  0.00  0.00    -0.005 A 
ATOM      6  C5  UNL d   1       1.094  -0.102   0.229  0.00  0.00    -0.074 A 
ATOM      7  C6  UNL d   1       2.250   0.621  -0.397  0.00  0.00     0.077 C 
ATOM      8  C7  UNL d   1      -0.218   0.232  -0.133  0.00  0.00    -0.001 A 
ENDROOT
TORSDOF 0
ENDMDL
