MODEL 1
REMARK minimizedAffinity -3.75295877
REMARK minimizedRMSD -1
REMARK  0 active torsions:
REMARK  status: ('A' for Active; 'I' for Inactive)
ROOT
ATOM      1  C   UNL d   1       1.444  -1.356   1.595  0.00  0.00     0.077 C 
ATOM      2  C1  UNL d   1       0.509  -0.739   0.598  0.00  0.00    -0.074 A 
ATOM      3  C2  UNL d   1       0.998  -0.026  -0.501  0.00  0.00    -0.005 A 
ATOM      4  C3  UNL d   1       0.116   0.535  -1.425  0.00  0.00     0.006 A 
ATOM      5  C4  UNL d   1      -1.262   0.389  -1.259  0.00  0.00    -0.005 A 
ATOM      6  C5  UNL d   1      -1.769  -0.322  -0.167  0.00  0.00    -0.074 A 
ATOM      7  C6  UNL d   1      -3.247  -0.497   0.020  0.00  0.00     0.077 C 
ATOM      8  C7  UNL d   1      -0.877  -0.888   0.753  0.00  0.00    -0.001 A 
ENDROOT
TORSDOF 0
ENDMDL
