MODEL 1
REMARK minimizedAffinity -4.69595575
REMARK minimizedRMSD -1
REMARK  0 active torsions:
REMARK  status: ('A' for Active; 'I' for Inactive)
ROOT
ATOM      1  C   UNL d   1       0.809   0.791   0.247  0.00  0.00     0.077 C 
ATOM      2  C1  UNL d   1      -0.494   0.098  -0.019  0.00  0.00    -0.074 A 
ATOM      3  C2  UNL d   1      -1.424  -0.101   1.007  0.00  0.00    -0.005 A 
ATOM      4  C3  UNL d   1      -2.636  -0.739   0.742  0.00  0.00     0.006 A 
ATOM      5  C4  UNL d   1      -2.930  -1.183  -0.547  0.00  0.00    -0.005 A 
ATOM      6  C5  UNL d   1      -2.012  -0.993  -1.585  0.00  0.00    -0.074 A 
ATOM      7  C6  UNL d   1      -2.316  -1.455  -2.979  0.00  0.00     0.077 C 
ATOM      8  C7  UNL d   1      -0.799  -0.345  -1.313  0.00  0.00    -0.001 A 
ENDROOT
TORSDOF 0
ENDMDL
