MODEL 1
REMARK minimizedAffinity -4.31554604
REMARK minimizedRMSD -1
REMARK  0 active torsions:
REMARK  status: ('A' for Active; 'I' for Inactive)
ROOT
ATOM      1  C   UNL d   1       1.941   0.798  -0.225  0.00  0.00     0.077 C 
ATOM      2  C1  UNL d   1       0.721   0.006   0.142  0.00  0.00    -0.074 A 
ATOM      3  C2  UNL d   1       0.813  -1.107   0.984  0.00  0.00    -0.005 A 
ATOM      4  C3  UNL d   1      -0.332  -1.827   1.325  0.00  0.00     0.006 A 
ATOM      5  C4  UNL d   1      -1.578  -1.443   0.828  0.00  0.00    -0.005 A 
ATOM      6  C5  UNL d   1      -1.689  -0.332  -0.015  0.00  0.00    -0.074 A 
ATOM      7  C6  UNL d   1      -3.022   0.101  -0.550  0.00  0.00     0.077 C 
ATOM      8  C7  UNL d   1      -0.535   0.391  -0.347  0.00  0.00    -0.001 A 
ENDROOT
TORSDOF 0
ENDMDL
