MODEL 1
REMARK minimizedAffinity -4.03876066
REMARK minimizedRMSD -1
REMARK  0 active torsions:
REMARK  status: ('A' for Active; 'I' for Inactive)
ROOT
ATOM      1  C   UNL d   1      -3.158  -1.144   0.075  0.00  0.00     0.077 C 
ATOM      2  C1  UNL d   1      -1.850  -0.689  -0.500  0.00  0.00    -0.074 A 
ATOM      3  C2  UNL d   1      -1.703  -0.477  -1.874  0.00  0.00    -0.005 A 
ATOM      4  C3  UNL d   1      -0.482  -0.045  -2.393  0.00  0.00     0.006 A 
ATOM      5  C4  UNL d   1       0.602   0.180  -1.544  0.00  0.00    -0.005 A 
ATOM      6  C5  UNL d   1       0.474  -0.026  -0.167  0.00  0.00    -0.074 A 
ATOM      7  C6  UNL d   1       1.626   0.221   0.761  0.00  0.00     0.077 C 
ATOM      8  C7  UNL d   1      -0.758  -0.453   0.348  0.00  0.00    -0.001 A 
ENDROOT
TORSDOF 0
ENDMDL
