MODEL 1
REMARK minimizedAffinity -1.48059809
REMARK minimizedRMSD -1
REMARK  0 active torsions:
REMARK  status: ('A' for Active; 'I' for Inactive)
ROOT
ATOM      1  C   UNL d   1      -2.561  -0.757  -0.796  0.00  0.00     0.077 C 
ATOM      2  C1  UNL d   1      -1.283  -0.751  -0.012  0.00  0.00    -0.074 A 
ATOM      3  C2  UNL d   1      -0.932  -1.836   0.798  0.00  0.00    -0.005 A 
ATOM      4  C3  UNL d   1       0.265  -1.821   1.515  0.00  0.00     0.006 A 
ATOM      5  C4  UNL d   1       1.121  -0.723   1.429  0.00  0.00    -0.005 A 
ATOM      6  C5  UNL d   1       0.788   0.371   0.623  0.00  0.00    -0.074 A 
ATOM      7  C6  UNL d   1       1.702   1.555   0.512  0.00  0.00     0.077 C 
ATOM      8  C7  UNL d   1      -0.413   0.345  -0.099  0.00  0.00    -0.001 A 
ENDROOT
TORSDOF 0
ENDMDL
