MODEL 1
REMARK minimizedAffinity -1.41283524
REMARK minimizedRMSD -1
REMARK  0 active torsions:
REMARK  status: ('A' for Active; 'I' for Inactive)
ROOT
ATOM      1  C   UNL d   1      -3.230  -1.279   0.521  0.00  0.00     0.077 C 
ATOM      2  C1  UNL d   1      -1.791  -1.278   0.945  0.00  0.00    -0.074 A 
ATOM      3  C2  UNL d   1      -1.293  -2.266   1.800  0.00  0.00    -0.005 A 
ATOM      4  C3  UNL d   1       0.050  -2.258   2.177  0.00  0.00     0.006 A 
ATOM      5  C4  UNL d   1       0.906  -1.262   1.705  0.00  0.00    -0.005 A 
ATOM      6  C5  UNL d   1       0.426  -0.266   0.849  0.00  0.00    -0.074 A 
ATOM      7  C6  UNL d   1       1.335   0.805   0.324  0.00  0.00     0.077 C 
ATOM      8  C7  UNL d   1      -0.923  -0.286   0.468  0.00  0.00    -0.001 A 
ENDROOT
TORSDOF 0
ENDMDL
