MODEL 1
REMARK minimizedAffinity -4.81787777
REMARK minimizedRMSD -1
REMARK  0 active torsions:
REMARK  status: ('A' for Active; 'I' for Inactive)
ROOT
ATOM      1  C   UNL d   1      -2.194  -2.267   2.046  0.00  0.00     0.077 C 
ATOM      2  C1  UNL d   1      -1.771  -1.324   0.960  0.00  0.00    -0.074 A 
ATOM      3  C2  UNL d   1      -2.663  -0.941  -0.047  0.00  0.00    -0.005 A 
ATOM      4  C3  UNL d   1      -2.259  -0.055  -1.046  0.00  0.00     0.006 A 
ATOM      5  C4  UNL d   1      -0.960   0.456  -1.048  0.00  0.00    -0.005 A 
ATOM      6  C5  UNL d   1      -0.055   0.085  -0.048  0.00  0.00    -0.074 A 
ATOM      7  C6  UNL d   1       1.342   0.633  -0.030  0.00  0.00     0.077 C 
ATOM      8  C7  UNL d   1      -0.471  -0.800   0.956  0.00  0.00    -0.001 A 
ENDROOT
TORSDOF 0
ENDMDL
