MODEL 1
REMARK minimizedAffinity -5.58803463
REMARK minimizedRMSD -1
REMARK  0 active torsions:
REMARK  status: ('A' for Active; 'I' for Inactive)
ROOT
ATOM      1  C   UNL d   1       0.949  -1.211   1.835  0.00  0.00     0.077 C 
ATOM      2  C1  UNL d   1       0.053  -0.853   0.687  0.00  0.00    -0.074 A 
ATOM      3  C2  UNL d   1       0.526  -0.088  -0.384  0.00  0.00    -0.005 A 
ATOM      4  C3  UNL d   1      -0.317   0.229  -1.449  0.00  0.00     0.006 A 
ATOM      5  C4  UNL d   1      -1.640  -0.215  -1.454  0.00  0.00    -0.005 A 
ATOM      6  C5  UNL d   1      -2.131  -0.981  -0.392  0.00  0.00    -0.074 A 
ATOM      7  C6  UNL d   1      -3.547  -1.474  -0.386  0.00  0.00     0.077 C 
ATOM      8  C7  UNL d   1      -1.276  -1.302   0.671  0.00  0.00    -0.001 A 
ENDROOT
TORSDOF 0
ENDMDL
