MODEL 1
REMARK minimizedAffinity -2.65137792
REMARK minimizedRMSD -1
REMARK  0 active torsions:
REMARK  status: ('A' for Active; 'I' for Inactive)
ROOT
ATOM      1  C   UNL d   1      -2.540  -0.162   0.713  0.00  0.00     0.077 C 
ATOM      2  C1  UNL d   1      -1.139   0.030   0.214  0.00  0.00    -0.074 A 
ATOM      3  C2  UNL d   1      -0.753  -0.444  -1.044  0.00  0.00    -0.005 A 
ATOM      4  C3  UNL d   1       0.551  -0.249  -1.499  0.00  0.00     0.006 A 
ATOM      5  C4  UNL d   1       1.481   0.420  -0.702  0.00  0.00    -0.005 A 
ATOM      6  C5  UNL d   1       1.113   0.902   0.558  0.00  0.00    -0.074 A 
ATOM      7  C6  UNL d   1       2.097   1.632   1.423  0.00  0.00     0.077 C 
ATOM      8  C7  UNL d   1      -0.202   0.709   1.005  0.00  0.00    -0.001 A 
ENDROOT
TORSDOF 0
ENDMDL
