MODEL 1
REMARK minimizedAffinity 1.93405449
REMARK minimizedRMSD -1
REMARK  0 active torsions:
REMARK  status: ('A' for Active; 'I' for Inactive)
ROOT
ATOM      1  C   UNL d   1      -3.183  -0.775   0.826  0.00  0.00     0.077 C 
ATOM      2  C1  UNL d   1      -1.689  -0.883   0.887  0.00  0.00    -0.074 A 
ATOM      3  C2  UNL d   1      -1.068  -1.784   1.758  0.00  0.00    -0.005 A 
ATOM      4  C3  UNL d   1       0.323  -1.880   1.797  0.00  0.00     0.006 A 
ATOM      5  C4  UNL d   1       1.106  -1.078   0.965  0.00  0.00    -0.005 A 
ATOM      6  C5  UNL d   1       0.503  -0.173   0.087  0.00  0.00    -0.074 A 
ATOM      7  C6  UNL d   1       1.330   0.689  -0.821  0.00  0.00     0.077 C 
ATOM      8  C7  UNL d   1      -0.895  -0.087   0.049  0.00  0.00    -0.001 A 
ENDROOT
TORSDOF 0
ENDMDL
