MODEL 1
REMARK minimizedAffinity 6.86889219
REMARK minimizedRMSD -1
REMARK  0 active torsions:
REMARK  status: ('A' for Active; 'I' for Inactive)
ROOT
ATOM      1  C2' OXE d   1       2.410  -4.431  -5.999  0.00  0.00     0.078 C 
ATOM      2  C1' OXE d   1       2.342  -4.604  -3.198  0.00  0.00     0.078 C 
ATOM      3  C1  OXE d   1       3.648  -4.907  -3.891  0.00  0.00    -0.078 A 
ATOM      4  C2  OXE d   1       3.659  -4.865  -5.264  0.00  0.00    -0.078 A 
ATOM      5  C3  OXE d   1       4.851  -5.082  -5.950  0.00  0.00     0.003 A 
ATOM      6  C4  OXE d   1       6.000  -5.493  -5.263  0.00  0.00    -0.002 A 
ATOM      7  C5  OXE d   1       5.999  -5.580  -3.867  0.00  0.00    -0.002 A 
ATOM      8  C6  OXE d   1       4.845  -5.250  -3.164  0.00  0.00     0.003 A 
ENDROOT
TORSDOF 0
ENDMDL
