MODEL 1
REMARK minimizedAffinity 7.33278322
REMARK minimizedRMSD -1
REMARK  0 active torsions:
REMARK  status: ('A' for Active; 'I' for Inactive)
ROOT
ATOM      1  C2' OXE d   1       5.765  -5.957  -3.120  0.00  0.00     0.078 C 
ATOM      2  C1' OXE d   1       5.986  -5.897  -5.918  0.00  0.00     0.078 C 
ATOM      3  C1  OXE d   1       5.233  -4.775  -5.248  0.00  0.00    -0.078 A 
ATOM      4  C2  OXE d   1       5.090  -4.837  -3.882  0.00  0.00    -0.078 A 
ATOM      5  C3  OXE d   1       4.452  -3.800  -3.208  0.00  0.00     0.003 A 
ATOM      6  C4  OXE d   1       3.822  -2.773  -3.921  0.00  0.00    -0.002 A 
ATOM      7  C5  OXE d   1       3.921  -2.712  -5.316  0.00  0.00    -0.002 A 
ATOM      8  C6  OXE d   1       4.658  -3.680  -5.989  0.00  0.00     0.003 A 
ENDROOT
TORSDOF 0
ENDMDL
