MODEL 1
REMARK minimizedAffinity 5.5804739
REMARK minimizedRMSD -1
REMARK  0 active torsions:
REMARK  status: ('A' for Active; 'I' for Inactive)
ROOT
ATOM      1  C2' OXE d   1      -0.411   1.455  -1.495  0.00  0.00     0.078 C 
ATOM      2  C1' OXE d   1       1.969  -0.032  -1.563  0.00  0.00     0.078 C 
ATOM      3  C1  OXE d   1       1.054  -0.222  -0.379  0.00  0.00    -0.078 A 
ATOM      4  C2  OXE d   1      -0.085   0.544  -0.331  0.00  0.00    -0.078 A 
ATOM      5  C3  OXE d   1      -0.991   0.368   0.712  0.00  0.00     0.003 A 
ATOM      6  C4  OXE d   1      -0.677  -0.469   1.789  0.00  0.00    -0.002 A 
ATOM      7  C5  OXE d   1       0.497  -1.229   1.779  0.00  0.00    -0.002 A 
ATOM      8  C6  OXE d   1       1.351  -1.150   0.685  0.00  0.00     0.003 A 
ENDROOT
TORSDOF 0
ENDMDL
