MODEL 1
REMARK minimizedAffinity 13.136323
REMARK minimizedRMSD -1
REMARK  0 active torsions:
REMARK  status: ('A' for Active; 'I' for Inactive)
ROOT
ATOM      1  C2' OXE d   1      -3.064  -0.393   3.704  0.00  0.00     0.078 C 
ATOM      2  C1' OXE d   1      -4.958   0.348   5.639  0.00  0.00     0.078 C 
ATOM      3  C1  OXE d   1      -5.001   1.053   4.306  0.00  0.00    -0.078 A 
ATOM      4  C2  OXE d   1      -4.041   0.717   3.382  0.00  0.00    -0.078 A 
ATOM      5  C3  OXE d   1      -4.068   1.298   2.117  0.00  0.00     0.003 A 
ATOM      6  C4  OXE d   1      -4.968   2.331   1.831  0.00  0.00    -0.002 A 
ATOM      7  C5  OXE d   1      -5.929   2.716   2.772  0.00  0.00    -0.002 A 
ATOM      8  C6  OXE d   1      -5.986   2.060   3.996  0.00  0.00     0.003 A 
ENDROOT
TORSDOF 0
ENDMDL
