MODEL 1
REMARK minimizedAffinity 2.50635767
REMARK minimizedRMSD -1
REMARK  0 active torsions:
REMARK  status: ('A' for Active; 'I' for Inactive)
ROOT
ATOM      1  C2' OXE d   1       2.533  -4.125  -2.998  0.00  0.00     0.078 C 
ATOM      2  C1' OXE d   1       4.499  -6.000  -2.291  0.00  0.00     0.078 C 
ATOM      3  C1  OXE d   1       4.672  -5.255  -3.591  0.00  0.00    -0.078 A 
ATOM      4  C2  OXE d   1       3.681  -4.374  -3.952  0.00  0.00    -0.078 A 
ATOM      5  C3  OXE d   1       3.818  -3.621  -5.114  0.00  0.00     0.003 A 
ATOM      6  C4  OXE d   1       4.878  -3.864  -5.996  0.00  0.00    -0.002 A 
ATOM      7  C5  OXE d   1       5.878  -4.786  -5.667  0.00  0.00    -0.002 A 
ATOM      8  C6  OXE d   1       5.812  -5.457  -4.451  0.00  0.00     0.003 A 
ENDROOT
TORSDOF 0
ENDMDL
