MODEL 1
REMARK minimizedAffinity 2.93095446
REMARK minimizedRMSD -1
REMARK  0 active torsions:
REMARK  status: ('A' for Active; 'I' for Inactive)
ROOT
ATOM      1  C2' OXE d   1       3.590  -2.666  -3.516  0.00  0.00     0.078 C 
ATOM      2  C1' OXE d   1       4.830  -2.172  -5.986  0.00  0.00     0.078 C 
ATOM      3  C1  OXE d   1       5.023  -3.531  -5.361  0.00  0.00    -0.078 A 
ATOM      4  C2  OXE d   1       4.451  -3.748  -4.131  0.00  0.00    -0.078 A 
ATOM      5  C3  OXE d   1       4.552  -5.002  -3.535  0.00  0.00     0.003 A 
ATOM      6  C4  OXE d   1       5.359  -5.995  -4.105  0.00  0.00    -0.002 A 
ATOM      7  C5  OXE d   1       5.983  -5.781  -5.339  0.00  0.00    -0.002 A 
ATOM      8  C6  OXE d   1       5.790  -4.572  -5.999  0.00  0.00     0.003 A 
ENDROOT
TORSDOF 0
ENDMDL
