MODEL 1
REMARK minimizedAffinity 4.38857079
REMARK minimizedRMSD -1
REMARK  0 active torsions:
REMARK  status: ('A' for Active; 'I' for Inactive)
ROOT
ATOM      1  C2' OXE d   1      -4.506  -3.729  -0.417  0.00  0.00     0.078 C 
ATOM      2  C1' OXE d   1      -3.188  -5.947  -1.523  0.00  0.00     0.078 C 
ATOM      3  C1  OXE d   1      -2.464  -4.623  -1.529  0.00  0.00    -0.078 A 
ATOM      4  C2  OXE d   1      -3.135  -3.534  -1.027  0.00  0.00    -0.078 A 
ATOM      5  C3  OXE d   1      -2.493  -2.301  -0.958  0.00  0.00     0.003 A 
ATOM      6  C4  OXE d   1      -1.229  -2.126  -1.534  0.00  0.00    -0.002 A 
ATOM      7  C5  OXE d   1      -0.544  -3.214  -2.086  0.00  0.00    -0.002 A 
ATOM      8  C6  OXE d   1      -1.129  -4.476  -2.053  0.00  0.00     0.003 A 
ENDROOT
TORSDOF 0
ENDMDL
