MODEL 1
REMARK minimizedAffinity 7.34980011
REMARK minimizedRMSD -1
REMARK  0 active torsions:
REMARK  status: ('A' for Active; 'I' for Inactive)
ROOT
ATOM      1  C2' OXE d   1       3.215  -5.929  -5.997  0.00  0.00     0.078 C 
ATOM      2  C1' OXE d   1       5.885  -5.996  -5.133  0.00  0.00     0.078 C 
ATOM      3  C1  OXE d   1       5.252  -4.645  -5.357  0.00  0.00    -0.078 A 
ATOM      4  C2  OXE d   1       3.960  -4.623  -5.825  0.00  0.00    -0.078 A 
ATOM      5  C3  OXE d   1       3.311  -3.404  -5.997  0.00  0.00     0.003 A 
ATOM      6  C4  OXE d   1       4.010  -2.200  -5.846  0.00  0.00    -0.002 A 
ATOM      7  C5  OXE d   1       5.339  -2.202  -5.408  0.00  0.00    -0.002 A 
ATOM      8  C6  OXE d   1       5.960  -3.412  -5.119  0.00  0.00     0.003 A 
ENDROOT
TORSDOF 0
ENDMDL
