MODEL 1
REMARK minimizedAffinity 7.57932186
REMARK minimizedRMSD -1
REMARK  0 active torsions:
REMARK  status: ('A' for Active; 'I' for Inactive)
ROOT
ATOM      1  C2' OXE d   1       2.701  -3.189  -3.746  0.00  0.00     0.078 C 
ATOM      2  C1' OXE d   1       4.104  -2.140  -5.938  0.00  0.00     0.078 C 
ATOM      3  C1  OXE d   1       4.535  -3.483  -5.405  0.00  0.00    -0.078 A 
ATOM      4  C2  OXE d   1       3.872  -3.968  -4.303  0.00  0.00    -0.078 A 
ATOM      5  C3  OXE d   1       4.193  -5.227  -3.805  0.00  0.00     0.003 A 
ATOM      6  C4  OXE d   1       5.285  -5.937  -4.320  0.00  0.00    -0.002 A 
ATOM      7  C5  OXE d   1       5.998  -5.443  -5.417  0.00  0.00    -0.002 A 
ATOM      8  C6  OXE d   1       5.610  -4.240  -5.998  0.00  0.00     0.003 A 
ENDROOT
TORSDOF 0
ENDMDL
