MODEL 1
REMARK minimizedAffinity 2.72582674
REMARK minimizedRMSD -1
REMARK  0 active torsions:
REMARK  status: ('A' for Active; 'I' for Inactive)
ROOT
ATOM      1  C2' OXE d   1       4.594  -2.493  -3.167  0.00  0.00     0.078 C 
ATOM      2  C1' OXE d   1       4.620  -2.471  -5.974  0.00  0.00     0.078 C 
ATOM      3  C1  OXE d   1       5.089  -3.723  -5.276  0.00  0.00    -0.078 A 
ATOM      4  C2  OXE d   1       5.117  -3.708  -3.902  0.00  0.00    -0.078 A 
ATOM      5  C3  OXE d   1       5.490  -4.856  -3.208  0.00  0.00     0.003 A 
ATOM      6  C4  OXE d   1       5.982  -5.972  -3.896  0.00  0.00    -0.002 A 
ATOM      7  C5  OXE d   1       6.000  -5.993  -5.295  0.00  0.00    -0.002 A 
ATOM      8  C6  OXE d   1       5.518  -4.895  -5.999  0.00  0.00     0.003 A 
ENDROOT
TORSDOF 0
ENDMDL
