MODEL 1
REMARK minimizedAffinity 3.08940935
REMARK minimizedRMSD -1
REMARK  0 active torsions:
REMARK  status: ('A' for Active; 'I' for Inactive)
ROOT
ATOM      1  C2' OXE d   1       2.494  -3.635  -5.999  0.00  0.00     0.078 C 
ATOM      2  C1' OXE d   1       3.766  -2.147  -3.987  0.00  0.00     0.078 C 
ATOM      3  C1  OXE d   1       4.354  -3.487  -4.349  0.00  0.00    -0.078 A 
ATOM      4  C2  OXE d   1       3.699  -4.229  -5.302  0.00  0.00    -0.078 A 
ATOM      5  C3  OXE d   1       4.230  -5.449  -5.713  0.00  0.00     0.003 A 
ATOM      6  C4  OXE d   1       5.339  -5.996  -5.056  0.00  0.00    -0.002 A 
ATOM      7  C5  OXE d   1       5.999  -5.274  -4.055  0.00  0.00    -0.002 A 
ATOM      8  C6  OXE d   1       5.545  -4.003  -3.720  0.00  0.00     0.003 A 
ENDROOT
TORSDOF 0
ENDMDL
