MODEL 1
REMARK minimizedAffinity 7.23110104
REMARK minimizedRMSD -1
REMARK  0 active torsions:
REMARK  status: ('A' for Active; 'I' for Inactive)
ROOT
ATOM      1  C2' OXE d   1       5.269  -5.929  -2.957  0.00  0.00     0.078 C 
ATOM      2  C1' OXE d   1       5.941  -5.878  -5.682  0.00  0.00     0.078 C 
ATOM      3  C1  OXE d   1       5.039  -4.787  -5.159  0.00  0.00    -0.078 A 
ATOM      4  C2  OXE d   1       4.678  -4.846  -3.835  0.00  0.00    -0.078 A 
ATOM      5  C3  OXE d   1       3.893  -3.835  -3.288  0.00  0.00     0.003 A 
ATOM      6  C4  OXE d   1       3.343  -2.843  -4.109  0.00  0.00    -0.002 A 
ATOM      7  C5  OXE d   1       3.666  -2.787  -5.469  0.00  0.00    -0.002 A 
ATOM      8  C6  OXE d   1       4.545  -3.725  -6.000  0.00  0.00     0.003 A 
ENDROOT
TORSDOF 0
ENDMDL
