MODEL 1
REMARK minimizedAffinity 6.04083443
REMARK minimizedRMSD -1
REMARK  0 active torsions:
REMARK  status: ('A' for Active; 'I' for Inactive)
ROOT
ATOM      1  C2' OXE d   1       3.688  -2.120  -6.000  0.00  0.00     0.078 C 
ATOM      2  C1' OXE d   1       2.169  -4.480  -5.995  0.00  0.00     0.078 C 
ATOM      3  C1  OXE d   1       3.502  -4.500  -5.291  0.00  0.00    -0.078 A 
ATOM      4  C2  OXE d   1       4.259  -3.355  -5.338  0.00  0.00    -0.078 A 
ATOM      5  C3  OXE d   1       5.473  -3.302  -4.658  0.00  0.00     0.003 A 
ATOM      6  C4  OXE d   1       5.999  -4.452  -4.057  0.00  0.00    -0.002 A 
ATOM      7  C5  OXE d   1       5.262  -5.640  -4.032  0.00  0.00    -0.002 A 
ATOM      8  C6  OXE d   1       3.996  -5.669  -4.606  0.00  0.00     0.003 A 
ENDROOT
TORSDOF 0
ENDMDL
