MODEL 1
REMARK minimizedAffinity 7.23409557
REMARK minimizedRMSD -1
REMARK  0 active torsions:
REMARK  status: ('A' for Active; 'I' for Inactive)
ROOT
ATOM      1  C2' OXE d   1       5.894  -5.936  -2.721  0.00  0.00     0.078 C 
ATOM      2  C1' OXE d   1       5.357  -3.187  -2.542  0.00  0.00     0.078 C 
ATOM      3  C1  OXE d   1       4.851  -3.925  -3.756  0.00  0.00    -0.078 A 
ATOM      4  C2  OXE d   1       5.158  -5.260  -3.858  0.00  0.00    -0.078 A 
ATOM      5  C3  OXE d   1       4.670  -6.000  -4.931  0.00  0.00     0.003 A 
ATOM      6  C4  OXE d   1       3.999  -5.364  -5.983  0.00  0.00    -0.002 A 
ATOM      7  C5  OXE d   1       3.710  -3.997  -5.918  0.00  0.00    -0.002 A 
ATOM      8  C6  OXE d   1       4.091  -3.273  -4.794  0.00  0.00     0.003 A 
ENDROOT
TORSDOF 0
ENDMDL
