MODEL 1
REMARK minimizedAffinity -1.1693846
REMARK minimizedRMSD -1
REMARK  0 active torsions:
REMARK  status: ('A' for Active; 'I' for Inactive)
ROOT
ATOM      1  C2' OXE d   1       4.167  -1.774  -5.010  0.00  0.00     0.078 C 
ATOM      2  C1' OXE d   1       6.000  -2.685  -3.089  0.00  0.00     0.078 C 
ATOM      3  C1  OXE d   1       5.489  -3.679  -4.101  0.00  0.00    -0.078 A 
ATOM      4  C2  OXE d   1       4.558  -3.236  -5.009  0.00  0.00    -0.078 A 
ATOM      5  C3  OXE d   1       4.095  -4.098  -5.999  0.00  0.00     0.003 A 
ATOM      6  C4  OXE d   1       4.453  -5.452  -5.984  0.00  0.00    -0.002 A 
ATOM      7  C5  OXE d   1       5.370  -5.933  -5.044  0.00  0.00    -0.002 A 
ATOM      8  C6  OXE d   1       5.929  -5.053  -4.124  0.00  0.00     0.003 A 
ENDROOT
TORSDOF 0
ENDMDL
