MODEL 1
REMARK minimizedAffinity 4.93594694
REMARK minimizedRMSD -1
REMARK  0 active torsions:
REMARK  status: ('A' for Active; 'I' for Inactive)
ROOT
ATOM      1  C2' OXE d   1       1.792  -3.437  -5.998  0.00  0.00     0.078 C 
ATOM      2  C1' OXE d   1       3.691  -1.372  -5.898  0.00  0.00     0.078 C 
ATOM      3  C1  OXE d   1       4.196  -2.793  -5.888  0.00  0.00    -0.078 A 
ATOM      4  C2  OXE d   1       3.258  -3.798  -5.890  0.00  0.00    -0.078 A 
ATOM      5  C3  OXE d   1       3.671  -5.126  -5.937  0.00  0.00     0.003 A 
ATOM      6  C4  OXE d   1       5.028  -5.451  -5.827  0.00  0.00    -0.002 A 
ATOM      7  C5  OXE d   1       5.998  -4.444  -5.783  0.00  0.00    -0.002 A 
ATOM      8  C6  OXE d   1       5.602  -3.113  -5.856  0.00  0.00     0.003 A 
ENDROOT
TORSDOF 0
ENDMDL
