MODEL 1
REMARK minimizedAffinity 8.10630035
REMARK minimizedRMSD -1
REMARK  0 active torsions:
REMARK  status: ('A' for Active; 'I' for Inactive)
ROOT
ATOM      1  C2' OXE d   1       5.968   0.712  -0.444  0.00  0.00     0.078 C 
ATOM      2  C1' OXE d   1       5.999  -2.023  -1.077  0.00  0.00     0.078 C 
ATOM      3  C1  OXE d   1       5.965  -1.639   0.381  0.00  0.00    -0.078 A 
ATOM      4  C2  OXE d   1       5.998  -0.299   0.683  0.00  0.00    -0.078 A 
ATOM      5  C3  OXE d   1       5.913   0.112   2.010  0.00  0.00     0.003 A 
ATOM      6  C4  OXE d   1       5.951  -0.829   3.047  0.00  0.00    -0.002 A 
ATOM      7  C5  OXE d   1       5.958  -2.199   2.762  0.00  0.00    -0.002 A 
ATOM      8  C6  OXE d   1       5.923  -2.620   1.437  0.00  0.00     0.003 A 
ENDROOT
TORSDOF 0
ENDMDL
