MODEL 1
REMARK minimizedAffinity 2.30101275
REMARK minimizedRMSD -1
REMARK  0 active torsions:
REMARK  status: ('A' for Active; 'I' for Inactive)
ROOT
ATOM      1  C2' OXE d   1       5.974  -3.320  -2.934  0.00  0.00     0.078 C 
ATOM      2  C1' OXE d   1       4.880  -1.771  -5.004  0.00  0.00     0.078 C 
ATOM      3  C1  OXE d   1       4.586  -3.251  -5.001  0.00  0.00    -0.078 A 
ATOM      4  C2  OXE d   1       5.164  -4.009  -4.012  0.00  0.00    -0.078 A 
ATOM      5  C3  OXE d   1       4.882  -5.369  -3.931  0.00  0.00     0.003 A 
ATOM      6  C4  OXE d   1       4.140  -6.000  -4.938  0.00  0.00    -0.002 A 
ATOM      7  C5  OXE d   1       3.575  -5.253  -5.977  0.00  0.00    -0.002 A 
ATOM      8  C6  OXE d   1       3.753  -3.874  -6.000  0.00  0.00     0.003 A 
ENDROOT
TORSDOF 0
ENDMDL
