MODEL 1
REMARK minimizedAffinity 1.57689691
REMARK minimizedRMSD -1
REMARK  0 active torsions:
REMARK  status: ('A' for Active; 'I' for Inactive)
ROOT
ATOM      1  C2' OXE d   1       4.863  -2.347  -5.982  0.00  0.00     0.078 C 
ATOM      2  C1' OXE d   1       4.829  -2.415  -3.176  0.00  0.00     0.078 C 
ATOM      3  C1  OXE d   1       5.254  -3.665  -3.905  0.00  0.00    -0.078 A 
ATOM      4  C2  OXE d   1       5.223  -3.637  -5.278  0.00  0.00    -0.078 A 
ATOM      5  C3  OXE d   1       5.658  -4.745  -6.000  0.00  0.00     0.003 A 
ATOM      6  C4  OXE d   1       5.980  -5.938  -5.342  0.00  0.00    -0.002 A 
ATOM      7  C5  OXE d   1       5.980  -6.000  -3.944  0.00  0.00    -0.002 A 
ATOM      8  C6  OXE d   1       5.661  -4.862  -3.211  0.00  0.00     0.003 A 
ENDROOT
TORSDOF 0
ENDMDL
