MODEL 1
REMARK minimizedAffinity -5.58667088
REMARK minimizedRMSD -1
REMARK  1 active torsions:
REMARK  status: ('A' for Active; 'I' for Inactive)
REMARK    1  A    between atoms: C3_4  and  O_7 
ROOT
ATOM      1  C   UNL d   1       2.066  -1.180  -2.584  0.00  0.00    -0.033 A 
ATOM      2  C1  UNL d   1       1.715  -2.158  -1.652  0.00  0.00     0.039 A 
ATOM      3  C2  UNL d   1       0.886  -1.834  -0.576  0.00  0.00    -0.080 A 
ATOM      4  C3  UNL d   1       0.415  -0.531  -0.444  0.00  0.00     0.150 A 
ATOM      5  C4  UNL d   1       0.757   0.448  -1.372  0.00  0.00    -0.007 A 
ATOM      6  C5  UNL d   1       1.586   0.123  -2.445  0.00  0.00     0.039 A 
ENDROOT
BRANCH   4   7
ATOM      7  O   UNL d   1      -0.392  -0.166   0.592  0.00  0.00    -0.526 OA
ATOM      8  H5  UNL d   1      -0.521  -0.938   1.168  0.00  0.00     0.418 HD
ENDBRANCH   4   7
TORSDOF 1
ENDMDL
