MODEL 1
REMARK minimizedAffinity -1.54039884
REMARK minimizedRMSD -1
REMARK  1 active torsions:
REMARK  status: ('A' for Active; 'I' for Inactive)
REMARK    1  A    between atoms: C3_4  and  O_7 
ROOT
ATOM      1  C   UNL d   1      -0.026  -0.789   0.656  0.00  0.00    -0.033 A 
ATOM      2  C1  UNL d   1      -0.062   0.587   0.420  0.00  0.00     0.039 A 
ATOM      3  C2  UNL d   1       0.806   1.160  -0.512  0.00  0.00    -0.080 A 
ATOM      4  C3  UNL d   1       1.702   0.347  -1.201  0.00  0.00     0.150 A 
ATOM      5  C4  UNL d   1       1.740  -1.024  -0.974  0.00  0.00    -0.007 A 
ATOM      6  C5  UNL d   1       0.874  -1.595  -0.042  0.00  0.00     0.039 A 
ENDROOT
BRANCH   4   7
ATOM      7  O   UNL d   1       2.571   0.862  -2.117  0.00  0.00    -0.526 OA
ATOM      8  H5  UNL d   1       2.451   1.826  -2.148  0.00  0.00     0.418 HD
ENDBRANCH   4   7
TORSDOF 1
ENDMDL
