MODEL 1
REMARK minimizedAffinity -5.76451874
REMARK minimizedRMSD -1
REMARK  1 active torsions:
REMARK  status: ('A' for Active; 'I' for Inactive)
REMARK    1  A    between atoms: C3_4  and  O_7 
ROOT
ATOM      1  C   UNL d   1       0.530  -1.368   0.014  0.00  0.00    -0.033 A 
ATOM      2  C1  UNL d   1       0.678   0.020  -0.022  0.00  0.00     0.039 A 
ATOM      3  C2  UNL d   1       1.257   0.634  -1.134  0.00  0.00    -0.080 A 
ATOM      4  C3  UNL d   1       1.683  -0.150  -2.203  0.00  0.00     0.150 A 
ATOM      5  C4  UNL d   1       1.535  -1.533  -2.176  0.00  0.00    -0.007 A 
ATOM      6  C5  UNL d   1       0.958  -2.145  -1.064  0.00  0.00     0.039 A 
ENDROOT
BRANCH   4   7
ATOM      7  O   UNL d   1       2.258   0.403  -3.308  0.00  0.00    -0.526 OA
ATOM      8  H5  UNL d   1       2.321   1.364  -3.174  0.00  0.00     0.418 HD
ENDBRANCH   4   7
TORSDOF 1
ENDMDL
