MODEL 1
REMARK minimizedAffinity -3.53301048
REMARK minimizedRMSD -1
REMARK  1 active torsions:
REMARK  status: ('A' for Active; 'I' for Inactive)
REMARK    1  A    between atoms: C3_4  and  O_7 
ROOT
ATOM      1  C   UNL d   1       1.822  -0.064  -2.037  0.00  0.00    -0.033 A 
ATOM      2  C1  UNL d   1       0.747  -0.933  -1.843  0.00  0.00     0.039 A 
ATOM      3  C2  UNL d   1      -0.105  -0.759  -0.750  0.00  0.00    -0.080 A 
ATOM      4  C3  UNL d   1       0.128   0.286   0.139  0.00  0.00     0.150 A 
ATOM      5  C4  UNL d   1       1.196   1.158  -0.050  0.00  0.00    -0.007 A 
ATOM      6  C5  UNL d   1       2.046   0.982  -1.141  0.00  0.00     0.039 A 
ENDROOT
BRANCH   4   7
ATOM      7  O   UNL d   1      -0.673   0.493   1.222  0.00  0.00    -0.526 OA
ATOM      8  H5  UNL d   1      -1.351  -0.203   1.241  0.00  0.00     0.418 HD
ENDBRANCH   4   7
TORSDOF 1
ENDMDL
