MODEL 1
REMARK minimizedAffinity -3.94337153
REMARK minimizedRMSD -1
REMARK  1 active torsions:
REMARK  status: ('A' for Active; 'I' for Inactive)
REMARK    1  A    between atoms: C3_4  and  O_7 
ROOT
ATOM      1  C   UNL d   1       2.136  -2.224  -2.968  0.00  0.00    -0.033 A 
ATOM      2  C1  UNL d   1       2.057  -0.832  -3.051  0.00  0.00     0.039 A 
ATOM      3  C2  UNL d   1       1.355  -0.112  -2.083  0.00  0.00    -0.080 A 
ATOM      4  C3  UNL d   1       0.737  -0.794  -1.039  0.00  0.00     0.150 A 
ATOM      5  C4  UNL d   1       0.814  -2.180  -0.948  0.00  0.00    -0.007 A 
ATOM      6  C5  UNL d   1       1.516  -2.897  -1.915  0.00  0.00     0.039 A 
ENDROOT
BRANCH   4   7
ATOM      7  O   UNL d   1       0.036  -0.134  -0.073  0.00  0.00    -0.526 OA
ATOM      8  H5  UNL d   1       0.043   0.815  -0.281  0.00  0.00     0.418 HD
ENDBRANCH   4   7
TORSDOF 1
ENDMDL
