MODEL 1
REMARK minimizedAffinity -4.29803658
REMARK minimizedRMSD -1
REMARK  1 active torsions:
REMARK  status: ('A' for Active; 'I' for Inactive)
REMARK    1  A    between atoms: C3_4  and  O_7 
ROOT
ATOM      1  C   UNL d   1       0.506  -0.310   0.854  0.00  0.00    -0.033 A 
ATOM      2  C1  UNL d   1       0.165  -1.326  -0.041  0.00  0.00     0.039 A 
ATOM      3  C2  UNL d   1       0.471  -1.196  -1.397  0.00  0.00    -0.080 A 
ATOM      4  C3  UNL d   1       1.119  -0.048  -1.845  0.00  0.00     0.150 A 
ATOM      5  C4  UNL d   1       1.466   0.966  -0.958  0.00  0.00    -0.007 A 
ATOM      6  C5  UNL d   1       1.158   0.835   0.396  0.00  0.00     0.039 A 
ENDROOT
BRANCH   4   7
ATOM      7  O   UNL d   1       1.434   0.126  -3.160  0.00  0.00    -0.526 OA
ATOM      8  H5  UNL d   1       1.108  -0.642  -3.658  0.00  0.00     0.418 HD
ENDBRANCH   4   7
TORSDOF 1
ENDMDL
