MODEL 1
REMARK minimizedAffinity -3.34643984
REMARK minimizedRMSD -1
REMARK  1 active torsions:
REMARK  status: ('A' for Active; 'I' for Inactive)
REMARK    1  A    between atoms: C3_4  and  O_7 
ROOT
ATOM      1  C   UNL d   1      -0.252  -0.882  -0.016  0.00  0.00    -0.033 A 
ATOM      2  C1  UNL d   1       0.346   0.379  -0.020  0.00  0.00     0.039 A 
ATOM      3  C2  UNL d   1       1.066   0.809  -1.137  0.00  0.00    -0.080 A 
ATOM      4  C3  UNL d   1       1.179  -0.031  -2.242  0.00  0.00     0.150 A 
ATOM      5  C4  UNL d   1       0.582  -1.287  -2.246  0.00  0.00    -0.007 A 
ATOM      6  C5  UNL d   1      -0.136  -1.715  -1.129  0.00  0.00     0.039 A 
ENDROOT
BRANCH   4   7
ATOM      7  O   UNL d   1       1.875   0.343  -3.353  0.00  0.00    -0.526 OA
ATOM      8  H5  UNL d   1       2.256   1.223  -3.196  0.00  0.00     0.418 HD
ENDBRANCH   4   7
TORSDOF 1
ENDMDL
