MODEL 1
REMARK minimizedAffinity -4.45600224
REMARK minimizedRMSD -1
REMARK  1 active torsions:
REMARK  status: ('A' for Active; 'I' for Inactive)
REMARK    1  A    between atoms: C3_4  and  O_7 
ROOT
ATOM      1  C   UNL d   1       0.208   1.399  -0.444  0.00  0.00    -0.033 A 
ATOM      2  C1  UNL d   1       1.453   1.759  -0.964  0.00  0.00     0.039 A 
ATOM      3  C2  UNL d   1       2.150   0.874  -1.789  0.00  0.00    -0.080 A 
ATOM      4  C3  UNL d   1       1.591  -0.366  -2.086  0.00  0.00     0.150 A 
ATOM      5  C4  UNL d   1       0.350  -0.730  -1.574  0.00  0.00    -0.007 A 
ATOM      6  C5  UNL d   1      -0.344   0.155  -0.751  0.00  0.00     0.039 A 
ENDROOT
BRANCH   4   7
ATOM      7  O   UNL d   1       2.236  -1.266  -2.882  0.00  0.00    -0.526 OA
ATOM      8  H5  UNL d   1       3.094  -0.890  -3.139  0.00  0.00     0.418 HD
ENDBRANCH   4   7
TORSDOF 1
ENDMDL
