MODEL 1
REMARK minimizedAffinity -5.43870115
REMARK minimizedRMSD -1
REMARK  1 active torsions:
REMARK  status: ('A' for Active; 'I' for Inactive)
REMARK    1  A    between atoms: C3_4  and  O_7 
ROOT
ATOM      1  C   UNL d   1       0.300  -1.280   0.008  0.00  0.00    -0.033 A 
ATOM      2  C1  UNL d   1       0.491   0.099  -0.104  0.00  0.00     0.039 A 
ATOM      3  C2  UNL d   1       1.140   0.627  -1.222  0.00  0.00    -0.080 A 
ATOM      4  C3  UNL d   1       1.591  -0.232  -2.220  0.00  0.00     0.150 A 
ATOM      5  C4  UNL d   1       1.401  -1.606  -2.117  0.00  0.00    -0.007 A 
ATOM      6  C5  UNL d   1       0.754  -2.132  -0.999  0.00  0.00     0.039 A 
ENDROOT
BRANCH   4   7
ATOM      7  O   UNL d   1       2.233   0.237  -3.327  0.00  0.00    -0.526 OA
ATOM      8  H5  UNL d   1       2.318   1.202  -3.248  0.00  0.00     0.418 HD
ENDBRANCH   4   7
TORSDOF 1
ENDMDL
