MODEL 1
REMARK minimizedAffinity -4.98671198
REMARK minimizedRMSD -1
REMARK  1 active torsions:
REMARK  status: ('A' for Active; 'I' for Inactive)
REMARK    1  A    between atoms: C3_4  and  O_7 
ROOT
ATOM      1  C   UNL d   1       0.325  -0.147   0.638  0.00  0.00    -0.033 A 
ATOM      2  C1  UNL d   1       0.394  -1.368  -0.035  0.00  0.00     0.039 A 
ATOM      3  C2  UNL d   1       0.853  -1.416  -1.353  0.00  0.00    -0.080 A 
ATOM      4  C3  UNL d   1       1.241  -0.237  -1.984  0.00  0.00     0.150 A 
ATOM      5  C4  UNL d   1       1.179   0.982  -1.318  0.00  0.00    -0.007 A 
ATOM      6  C5  UNL d   1       0.719   1.028  -0.003  0.00  0.00     0.039 A 
ENDROOT
BRANCH   4   7
ATOM      7  O   UNL d   1       1.692  -0.233  -3.271  0.00  0.00    -0.526 OA
ATOM      8  H5  UNL d   1       1.653  -1.142  -3.613  0.00  0.00     0.418 HD
ENDBRANCH   4   7
TORSDOF 1
ENDMDL
