MODEL 1
REMARK minimizedAffinity -2.55689859
REMARK minimizedRMSD -1
REMARK  1 active torsions:
REMARK  status: ('A' for Active; 'I' for Inactive)
REMARK    1  A    between atoms: C3_4  and  O_7 
ROOT
ATOM      1  C   UNL d   1      -0.346  -0.068   0.087  0.00  0.00    -0.033 A 
ATOM      2  C1  UNL d   1       0.427   1.074  -0.131  0.00  0.00     0.039 A 
ATOM      3  C2  UNL d   1       1.331   1.114  -1.194  0.00  0.00    -0.080 A 
ATOM      4  C3  UNL d   1       1.451   0.009  -2.032  0.00  0.00     0.150 A 
ATOM      5  C4  UNL d   1       0.680  -1.130  -1.823  0.00  0.00    -0.007 A 
ATOM      6  C5  UNL d   1      -0.221  -1.169  -0.760  0.00  0.00     0.039 A 
ENDROOT
BRANCH   4   7
ATOM      7  O   UNL d   1       2.322   0.000  -3.080  0.00  0.00    -0.526 OA
ATOM      8  H5  UNL d   1       2.807   0.842  -3.084  0.00  0.00     0.418 HD
ENDBRANCH   4   7
TORSDOF 1
ENDMDL
