MODEL 1
REMARK minimizedAffinity -4.20120525
REMARK minimizedRMSD -1
REMARK  1 active torsions:
REMARK  status: ('A' for Active; 'I' for Inactive)
REMARK    1  A    between atoms: C3_4  and  O_7 
ROOT
ATOM      1  C   UNL d   1      -0.212  -0.436   1.325  0.00  0.00    -0.033 A 
ATOM      2  C1  UNL d   1      -0.142  -1.592   0.544  0.00  0.00     0.039 A 
ATOM      3  C2  UNL d   1       0.358  -1.528  -0.758  0.00  0.00    -0.080 A 
ATOM      4  C3  UNL d   1       0.785  -0.304  -1.266  0.00  0.00     0.150 A 
ATOM      5  C4  UNL d   1       0.722   0.850  -0.492  0.00  0.00    -0.007 A 
ATOM      6  C5  UNL d   1       0.222   0.785   0.807  0.00  0.00     0.039 A 
ENDROOT
BRANCH   4   7
ATOM      7  O   UNL d   1       1.276  -0.191  -2.533  0.00  0.00    -0.526 OA
ATOM      8  H5  UNL d   1       1.233  -1.064  -2.958  0.00  0.00     0.418 HD
ENDBRANCH   4   7
TORSDOF 1
ENDMDL
