MODEL 1
REMARK minimizedAffinity -3.50355864
REMARK minimizedRMSD -1
REMARK  1 active torsions:
REMARK  status: ('A' for Active; 'I' for Inactive)
REMARK    1  A    between atoms: C3_4  and  O_7 
ROOT
ATOM      1  C   UNL d   1       0.033  -1.146   0.856  0.00  0.00    -0.033 A 
ATOM      2  C1  UNL d   1       0.109   0.194   0.473  0.00  0.00     0.039 A 
ATOM      3  C2  UNL d   1       0.570   0.533  -0.801  0.00  0.00    -0.080 A 
ATOM      4  C3  UNL d   1       0.949  -0.476  -1.681  0.00  0.00     0.150 A 
ATOM      5  C4  UNL d   1       0.871  -1.814  -1.308  0.00  0.00    -0.007 A 
ATOM      6  C5  UNL d   1       0.412  -2.150  -0.035  0.00  0.00     0.039 A 
ENDROOT
BRANCH   4   7
ATOM      7  O   UNL d   1       1.409  -0.194  -2.933  0.00  0.00    -0.526 OA
ATOM      8  H5  UNL d   1       1.436   0.771  -3.041  0.00  0.00     0.418 HD
ENDBRANCH   4   7
TORSDOF 1
ENDMDL
