MODEL 1
REMARK minimizedAffinity -3.99739552
REMARK minimizedRMSD -1
REMARK  1 active torsions:
REMARK  status: ('A' for Active; 'I' for Inactive)
REMARK    1  A    between atoms: C3_4  and  O_7 
ROOT
ATOM      1  C   UNL d   1       0.109  -0.103   0.179  0.00  0.00    -0.033 A 
ATOM      2  C1  UNL d   1      -0.289  -0.952  -0.856  0.00  0.00     0.039 A 
ATOM      3  C2  UNL d   1       0.175  -0.737  -2.155  0.00  0.00    -0.080 A 
ATOM      4  C3  UNL d   1       1.036   0.328  -2.406  0.00  0.00     0.150 A 
ATOM      5  C4  UNL d   1       1.439   1.175  -1.379  0.00  0.00    -0.007 A 
ATOM      6  C5  UNL d   1       0.975   0.959  -0.082  0.00  0.00     0.039 A 
ENDROOT
BRANCH   4   7
ATOM      7  O   UNL d   1       1.511   0.580  -3.658  0.00  0.00    -0.526 OA
ATOM      8  H5  UNL d   1       1.125  -0.069  -4.270  0.00  0.00     0.418 HD
ENDBRANCH   4   7
TORSDOF 1
ENDMDL
