MODEL 1
REMARK minimizedAffinity 1.93536794
REMARK minimizedRMSD -1
REMARK  1 active torsions:
REMARK  status: ('A' for Active; 'I' for Inactive)
REMARK    1  A    between atoms: C1_2  and  C2_3 
ROOT
ATOM      1  C2  UNL d   1       2.073  -1.113  -0.370  0.00  0.00    -0.077 A 
ATOM      2  C3  UNL d   1       1.970   0.269  -0.581  0.00  0.00     0.002 A 
ATOM      3  C4  UNL d   1       1.130   1.045   0.220  0.00  0.00     0.002 A 
ATOM      4  C5  UNL d   1       0.391   0.449   1.240  0.00  0.00    -0.004 A 
ATOM      5  C6  UNL d   1       0.486  -0.925   1.457  0.00  0.00     0.002 A 
ATOM      6  C7  UNL d   1       1.324  -1.702   0.656  0.00  0.00     0.002 A 
ENDROOT
BRANCH   1   7
ATOM      7  C1  UNL d   1       3.016  -1.944  -1.201  0.00  0.00     0.055 C 
ATOM      8  C   UNL d   1       4.158  -1.102  -1.751  0.00  0.00     0.019 C 
ENDBRANCH   1   7
TORSDOF 1
ENDMDL
