MODEL 1
REMARK minimizedAffinity -2.57659698
REMARK minimizedRMSD -1
REMARK  1 active torsions:
REMARK  status: ('A' for Active; 'I' for Inactive)
REMARK    1  A    between atoms: C1_2  and  C2_3 
ROOT
ATOM      1  C2  UNL d   1       1.680  -0.266   0.637  0.00  0.00    -0.077 A 
ATOM      2  C3  UNL d   1       2.203  -1.495   0.212  0.00  0.00     0.002 A 
ATOM      3  C4  UNL d   1       3.052  -1.556  -0.895  0.00  0.00     0.002 A 
ATOM      4  C5  UNL d   1       3.389  -0.392  -1.582  0.00  0.00    -0.004 A 
ATOM      5  C6  UNL d   1       2.872   0.835  -1.169  0.00  0.00     0.002 A 
ATOM      6  C7  UNL d   1       2.022   0.898  -0.064  0.00  0.00     0.002 A 
ENDROOT
BRANCH   1   7
ATOM      7  C1  UNL d   1       0.803  -0.191   1.859  0.00  0.00     0.055 C 
ATOM      8  C   UNL d   1      -0.292  -1.246   1.820  0.00  0.00     0.019 C 
ENDBRANCH   1   7
TORSDOF 1
ENDMDL
