MODEL 1
REMARK minimizedAffinity 2.24250889
REMARK minimizedRMSD -1
REMARK  1 active torsions:
REMARK  status: ('A' for Active; 'I' for Inactive)
REMARK    1  A    between atoms: C1_2  and  C2_3 
ROOT
ATOM      1  C2  UNL d   1       1.714  -1.809   0.416  0.00  0.00    -0.077 A 
ATOM      2  C3  UNL d   1       2.835  -1.002   0.174  0.00  0.00     0.002 A 
ATOM      3  C4  UNL d   1       2.678   0.353  -0.123  0.00  0.00     0.002 A 
ATOM      4  C5  UNL d   1       1.404   0.914  -0.177  0.00  0.00    -0.004 A 
ATOM      5  C6  UNL d   1       0.283   0.120   0.061  0.00  0.00     0.002 A 
ATOM      6  C7  UNL d   1       0.437  -1.235   0.356  0.00  0.00     0.002 A 
ENDROOT
BRANCH   1   7
ATOM      7  C1  UNL d   1       1.883  -3.259   0.785  0.00  0.00     0.055 C 
ATOM      8  C   UNL d   1       0.971  -3.646   1.940  0.00  0.00     0.019 C 
ENDBRANCH   1   7
TORSDOF 1
ENDMDL
