MODEL 1
REMARK minimizedAffinity 2.63813305
REMARK minimizedRMSD -1
REMARK  1 active torsions:
REMARK  status: ('A' for Active; 'I' for Inactive)
REMARK    1  A    between atoms: C1_2  and  C2_3 
ROOT
ATOM      1  C2  UNL d   1       1.292   0.323   1.048  0.00  0.00    -0.077 A 
ATOM      2  C3  UNL d   1       1.285  -1.049   0.760  0.00  0.00     0.002 A 
ATOM      3  C4  UNL d   1       1.723  -1.512  -0.483  0.00  0.00     0.002 A 
ATOM      4  C5  UNL d   1       2.175  -0.610  -1.444  0.00  0.00    -0.004 A 
ATOM      5  C6  UNL d   1       2.184   0.756  -1.168  0.00  0.00     0.002 A 
ATOM      6  C7  UNL d   1       1.745   1.221   0.073  0.00  0.00     0.002 A 
ENDROOT
BRANCH   1   7
ATOM      7  C1  UNL d   1       0.866   0.821   2.404  0.00  0.00     0.055 C 
ATOM      8  C   UNL d   1       2.068   1.175   3.267  0.00  0.00     0.019 C 
ENDBRANCH   1   7
TORSDOF 1
ENDMDL
