MODEL 1
REMARK minimizedAffinity -0.724975705
REMARK minimizedRMSD -1
REMARK  1 active torsions:
REMARK  status: ('A' for Active; 'I' for Inactive)
REMARK    1  A    between atoms: C1_2  and  C2_3 
ROOT
ATOM      1  C2  UNL d   1       2.996  -0.551  -0.856  0.00  0.00    -0.077 A 
ATOM      2  C3  UNL d   1       3.012   0.851  -0.858  0.00  0.00     0.002 A 
ATOM      3  C4  UNL d   1       2.040   1.570  -0.160  0.00  0.00     0.002 A 
ATOM      4  C5  UNL d   1       1.048   0.897   0.549  0.00  0.00    -0.004 A 
ATOM      5  C6  UNL d   1       1.022  -0.497   0.556  0.00  0.00     0.002 A 
ATOM      6  C7  UNL d   1       1.992  -1.218  -0.142  0.00  0.00     0.002 A 
ENDROOT
BRANCH   1   7
ATOM      7  C1  UNL d   1       4.072  -1.328  -1.567  0.00  0.00     0.055 C 
ATOM      8  C   UNL d   1       5.033  -0.402  -2.299  0.00  0.00     0.019 C 
ENDBRANCH   1   7
TORSDOF 1
ENDMDL
