MODEL 1
REMARK minimizedAffinity -1.70041478
REMARK minimizedRMSD -1
REMARK  1 active torsions:
REMARK  status: ('A' for Active; 'I' for Inactive)
REMARK    1  A    between atoms: C1_2  and  C2_3 
ROOT
ATOM      1  C2  UNL d   1       1.767  -0.306  -0.254  0.00  0.00    -0.077 A 
ATOM      2  C3  UNL d   1       2.518  -1.489  -0.303  0.00  0.00     0.002 A 
ATOM      3  C4  UNL d   1       3.678  -1.557  -1.078  0.00  0.00     0.002 A 
ATOM      4  C5  UNL d   1       4.098  -0.446  -1.806  0.00  0.00    -0.004 A 
ATOM      5  C6  UNL d   1       3.356   0.734  -1.765  0.00  0.00     0.002 A 
ATOM      6  C7  UNL d   1       2.196   0.804  -0.992  0.00  0.00     0.002 A 
ENDROOT
BRANCH   1   7
ATOM      7  C1  UNL d   1       0.543  -0.215   0.620  0.00  0.00     0.055 C 
ATOM      8  C   UNL d   1       0.636   0.961   1.581  0.00  0.00     0.019 C 
ENDBRANCH   1   7
TORSDOF 1
ENDMDL
