MODEL 1
REMARK minimizedAffinity -2.55968881
REMARK minimizedRMSD -1
REMARK  1 active torsions:
REMARK  status: ('A' for Active; 'I' for Inactive)
REMARK    1  A    between atoms: C1_2  and  C2_3 
ROOT
ATOM      1  C2  UNL d   1       2.825   0.587  -1.236  0.00  0.00    -0.077 A 
ATOM      2  C3  UNL d   1       2.364   1.423  -0.210  0.00  0.00     0.002 A 
ATOM      3  C4  UNL d   1       1.475   0.938   0.751  0.00  0.00     0.002 A 
ATOM      4  C5  UNL d   1       1.043  -0.386   0.698  0.00  0.00    -0.004 A 
ATOM      5  C6  UNL d   1       1.495  -1.225  -0.320  0.00  0.00     0.002 A 
ATOM      6  C7  UNL d   1       2.383  -0.741  -1.282  0.00  0.00     0.002 A 
ENDROOT
BRANCH   1   7
ATOM      7  C1  UNL d   1       3.822   1.095  -2.244  0.00  0.00     0.055 C 
ATOM      8  C   UNL d   1       4.910   0.065  -2.514  0.00  0.00     0.019 C 
ENDBRANCH   1   7
TORSDOF 1
ENDMDL
