MODEL 1
REMARK minimizedAffinity -5.97077465
REMARK minimizedRMSD -1
REMARK  1 active torsions:
REMARK  status: ('A' for Active; 'I' for Inactive)
REMARK    1  A    between atoms: C1_2  and  C2_3 
ROOT
ATOM      1  C2  UNL d   1       2.426  -0.731  -0.853  0.00  0.00    -0.077 A 
ATOM      2  C3  UNL d   1       2.214   0.629  -1.119  0.00  0.00     0.002 A 
ATOM      3  C4  UNL d   1       1.305   1.365  -0.356  0.00  0.00     0.002 A 
ATOM      4  C5  UNL d   1       0.606   0.751   0.681  0.00  0.00    -0.004 A 
ATOM      5  C6  UNL d   1       0.808  -0.602   0.952  0.00  0.00     0.002 A 
ATOM      6  C7  UNL d   1       1.715  -1.339   0.189  0.00  0.00     0.002 A 
ENDROOT
BRANCH   1   7
ATOM      7  C1  UNL d   1       3.441  -1.515  -1.644  0.00  0.00     0.055 C 
ATOM      8  C   UNL d   1       4.510  -0.603  -2.229  0.00  0.00     0.019 C 
ENDBRANCH   1   7
TORSDOF 1
ENDMDL
