MODEL 1
REMARK minimizedAffinity -3.81238532
REMARK minimizedRMSD -1
REMARK  1 active torsions:
REMARK  status: ('A' for Active; 'I' for Inactive)
REMARK    1  A    between atoms: C1_2  and  C2_3 
ROOT
ATOM      1  C2  UNL d   1       2.804  -0.830  -0.733  0.00  0.00    -0.077 A 
ATOM      2  C3  UNL d   1       2.194   0.409  -0.977  0.00  0.00     0.002 A 
ATOM      3  C4  UNL d   1       1.164   0.863  -0.151  0.00  0.00     0.002 A 
ATOM      4  C5  UNL d   1       0.739   0.089   0.927  0.00  0.00    -0.004 A 
ATOM      5  C6  UNL d   1       1.339  -1.145   1.176  0.00  0.00     0.002 A 
ATOM      6  C7  UNL d   1       2.367  -1.602   0.351  0.00  0.00     0.002 A 
ENDROOT
BRANCH   1   7
ATOM      7  C1  UNL d   1       3.948  -1.299  -1.594  0.00  0.00     0.055 C 
ATOM      8  C   UNL d   1       4.687  -0.126  -2.221  0.00  0.00     0.019 C 
ENDBRANCH   1   7
TORSDOF 1
ENDMDL
