MODEL 1
REMARK minimizedAffinity -6.46589041
REMARK minimizedRMSD -1
REMARK  1 active torsions:
REMARK  status: ('A' for Active; 'I' for Inactive)
REMARK    1  A    between atoms: C1_2  and  C2_3 
ROOT
ATOM      1  C2  UNL d   1       2.723  -0.751  -1.033  0.00  0.00    -0.077 A 
ATOM      2  C3  UNL d   1       2.457   0.602  -0.777  0.00  0.00     0.002 A 
ATOM      3  C4  UNL d   1       1.383   0.969   0.036  0.00  0.00     0.002 A 
ATOM      4  C5  UNL d   1       0.570  -0.010   0.603  0.00  0.00    -0.004 A 
ATOM      5  C6  UNL d   1       0.824  -1.358   0.353  0.00  0.00     0.002 A 
ATOM      6  C7  UNL d   1       1.897  -1.727  -0.460  0.00  0.00     0.002 A 
ENDROOT
BRANCH   1   7
ATOM      7  C1  UNL d   1       3.910  -1.151  -1.869  0.00  0.00     0.055 C 
ATOM      8  C   UNL d   1       4.722   0.064  -2.295  0.00  0.00     0.019 C 
ENDBRANCH   1   7
TORSDOF 1
ENDMDL
