MODEL 1
REMARK minimizedAffinity -1.81695962
REMARK minimizedRMSD -1
REMARK  1 active torsions:
REMARK  status: ('A' for Active; 'I' for Inactive)
REMARK    1  A    between atoms: C1_2  and  C2_3 
ROOT
ATOM      1  C2  UNL d   1       2.743  -1.022  -0.258  0.00  0.00    -0.077 A 
ATOM      2  C3  UNL d   1       2.639   0.371  -0.387  0.00  0.00     0.002 A 
ATOM      3  C4  UNL d   1       1.514   1.042   0.096  0.00  0.00     0.002 A 
ATOM      4  C5  UNL d   1       0.487   0.331   0.713  0.00  0.00    -0.004 A 
ATOM      5  C6  UNL d   1       0.580  -1.054   0.844  0.00  0.00     0.002 A 
ATOM      6  C7  UNL d   1       1.703  -1.727   0.361  0.00  0.00     0.002 A 
ENDROOT
BRANCH   1   7
ATOM      7  C1  UNL d   1       3.977  -1.742  -0.734  0.00  0.00     0.055 C 
ATOM      8  C   UNL d   1       4.902  -0.809  -1.501  0.00  0.00     0.019 C 
ENDBRANCH   1   7
TORSDOF 1
ENDMDL
