MODEL 1
REMARK minimizedAffinity 4.79333067
REMARK minimizedRMSD -1
REMARK  1 active torsions:
REMARK  status: ('A' for Active; 'I' for Inactive)
REMARK    1  A    between atoms: C1_2  and  C2_3 
ROOT
ATOM      1  C2  UNL d   1       2.215   0.588   0.092  0.00  0.00    -0.077 A 
ATOM      2  C3  UNL d   1       3.109  -0.417  -0.303  0.00  0.00     0.002 A 
ATOM      3  C4  UNL d   1       2.819  -1.760  -0.053  0.00  0.00     0.002 A 
ATOM      4  C5  UNL d   1       1.632  -2.110   0.588  0.00  0.00    -0.004 A 
ATOM      5  C6  UNL d   1       0.737  -1.118   0.987  0.00  0.00     0.002 A 
ATOM      6  C7  UNL d   1       1.027   0.225   0.739  0.00  0.00     0.002 A 
ENDROOT
BRANCH   1   7
ATOM      7  C1  UNL d   1       2.504   2.033  -0.220  0.00  0.00     0.055 C 
ATOM      8  C   UNL d   1       1.957   2.953   0.862  0.00  0.00     0.019 C 
ENDBRANCH   1   7
TORSDOF 1
ENDMDL
