MODEL 1
REMARK minimizedAffinity 17.8589802
REMARK minimizedRMSD -1
REMARK  0 active torsions:
REMARK  status: ('A' for Active; 'I' for Inactive)
ROOT
ATOM      1  C1  DEN d   1       0.738  -3.309  -2.423  0.00  0.00     0.130 A 
ATOM      2  C2  DEN d   1       1.206  -4.689  -2.325  0.00  0.00    -0.031 A 
ATOM      3  C3  DEN d   1       1.970  -4.824  -1.069  0.00  0.00     0.027 A 
ATOM      4  C4  DEN d   1       2.467  -3.041   0.728  0.00  0.00     0.027 A 
ATOM      5  C5  DEN d   1       2.288  -1.721   1.079  0.00  0.00    -0.003 A 
ATOM      6  C6  DEN d   1       1.615  -0.837   0.278  0.00  0.00     0.001 A 
ATOM      7  C7  DEN d   1       1.056  -1.273  -0.894  0.00  0.00     0.017 A 
ATOM      8  C8  DEN d   1       1.239  -2.600  -1.259  0.00  0.00    -0.094 A 
ATOM      9  C9  DEN d   1       1.912  -3.482  -0.430  0.00  0.00    -0.072 A 
ENDROOT
TORSDOF 0
ENDMDL
