MODEL 1
REMARK minimizedAffinity 20.5410194
REMARK minimizedRMSD -1
REMARK  0 active torsions:
REMARK  status: ('A' for Active; 'I' for Inactive)
ROOT
ATOM      1  C1  DEN d   1       4.377  -5.733  -0.967  0.00  0.00     0.130 A 
ATOM      2  C2  DEN d   1       5.781  -5.660  -1.361  0.00  0.00    -0.031 A 
ATOM      3  C3  DEN d   1       5.863  -4.879  -2.612  0.00  0.00     0.027 A 
ATOM      4  C4  DEN d   1       3.964  -3.779  -3.967  0.00  0.00     0.027 A 
ATOM      5  C5  DEN d   1       2.603  -3.579  -4.033  0.00  0.00    -0.003 A 
ATOM      6  C6  DEN d   1       1.741  -4.108  -3.109  0.00  0.00     0.001 A 
ATOM      7  C7  DEN d   1       2.236  -4.825  -2.052  0.00  0.00     0.017 A 
ATOM      8  C8  DEN d   1       3.607  -5.037  -1.982  0.00  0.00    -0.094 A 
ATOM      9  C9  DEN d   1       4.463  -4.484  -2.919  0.00  0.00    -0.072 A 
ENDROOT
TORSDOF 0
ENDMDL
