MODEL 1
REMARK minimizedAffinity 16.390419
REMARK minimizedRMSD -1
REMARK  0 active torsions:
REMARK  status: ('A' for Active; 'I' for Inactive)
ROOT
ATOM      1  C1  DEN d   1       0.905  -3.369  -1.513  0.00  0.00     0.130 A 
ATOM      2  C2  DEN d   1       1.514  -4.600  -2.009  0.00  0.00    -0.031 A 
ATOM      3  C3  DEN d   1       2.806  -4.782  -1.317  0.00  0.00     0.027 A 
ATOM      4  C4  DEN d   1       3.913  -3.288   0.470  0.00  0.00     0.027 A 
ATOM      5  C5  DEN d   1       3.781  -2.129   1.203  0.00  0.00    -0.003 A 
ATOM      6  C6  DEN d   1       2.706  -1.293   1.060  0.00  0.00     0.001 A 
ATOM      7  C7  DEN d   1       1.698  -1.625   0.194  0.00  0.00     0.017 A 
ATOM      8  C8  DEN d   1       1.828  -2.788  -0.555  0.00  0.00    -0.094 A 
ATOM      9  C9  DEN d   1       2.916  -3.627  -0.386  0.00  0.00    -0.072 A 
ENDROOT
TORSDOF 0
ENDMDL
