MODEL 1
REMARK minimizedAffinity 13.3146315
REMARK minimizedRMSD -1
REMARK  0 active torsions:
REMARK  status: ('A' for Active; 'I' for Inactive)
ROOT
ATOM      1  C1  DEN d   1       2.269  -3.274  -0.320  0.00  0.00     0.130 A 
ATOM      2  C2  DEN d   1       1.715  -1.931  -0.172  0.00  0.00    -0.031 A 
ATOM      3  C3  DEN d   1       2.727  -1.090   0.499  0.00  0.00     0.027 A 
ATOM      4  C4  DEN d   1       5.089  -1.733   1.311  0.00  0.00     0.027 A 
ATOM      5  C5  DEN d   1       5.999  -2.761   1.416  0.00  0.00    -0.003 A 
ATOM      6  C6  DEN d   1       5.720  -4.030   0.983  0.00  0.00     0.001 A 
ATOM      7  C7  DEN d   1       4.516  -4.294   0.384  0.00  0.00     0.017 A 
ATOM      8  C8  DEN d   1       3.590  -3.263   0.282  0.00  0.00    -0.094 A 
ATOM      9  C9  DEN d   1       3.896  -1.984   0.715  0.00  0.00    -0.072 A 
ENDROOT
TORSDOF 0
ENDMDL
