MODEL 1
REMARK minimizedAffinity 18.1382313
REMARK minimizedRMSD -1
REMARK  0 active torsions:
REMARK  status: ('A' for Active; 'I' for Inactive)
ROOT
ATOM      1  C1  DEN d   1       4.534  -3.844   1.153  0.00  0.00     0.130 A 
ATOM      2  C2  DEN d   1       5.493  -4.882   0.786  0.00  0.00    -0.031 A 
ATOM      3  C3  DEN d   1       5.008  -5.537  -0.445  0.00  0.00     0.027 A 
ATOM      4  C4  DEN d   1       2.879  -5.044  -1.816  0.00  0.00     0.027 A 
ATOM      5  C5  DEN d   1       1.750  -4.259  -1.891  0.00  0.00    -0.003 A 
ATOM      6  C6  DEN d   1       1.454  -3.312  -0.947  0.00  0.00     0.001 A 
ATOM      7  C7  DEN d   1       2.321  -3.094   0.091  0.00  0.00     0.017 A 
ATOM      8  C8  DEN d   1       3.459  -3.886   0.178  0.00  0.00    -0.094 A 
ATOM      9  C9  DEN d   1       3.746  -4.830  -0.794  0.00  0.00    -0.072 A 
ENDROOT
TORSDOF 0
ENDMDL
