MODEL 1
REMARK minimizedAffinity 2.54450512
REMARK minimizedRMSD -1
REMARK  0 active torsions:
REMARK  status: ('A' for Active; 'I' for Inactive)
ROOT
ATOM      1  C1  DEN d   1      -5.520   3.026  -4.956  0.00  0.00     0.130 A 
ATOM      2  C2  DEN d   1      -5.213   1.653  -4.565  0.00  0.00    -0.031 A 
ATOM      3  C3  DEN d   1      -3.796   1.600  -4.153  0.00  0.00     0.027 A 
ATOM      4  C4  DEN d   1      -2.057   3.504  -4.077  0.00  0.00     0.027 A 
ATOM      5  C5  DEN d   1      -1.846   4.842  -4.325  0.00  0.00    -0.003 A 
ATOM      6  C6  DEN d   1      -2.827   5.655  -4.829  0.00  0.00     0.001 A 
ATOM      7  C7  DEN d   1      -4.079   5.146  -5.058  0.00  0.00     0.017 A 
ATOM      8  C8  DEN d   1      -4.297   3.796  -4.818  0.00  0.00    -0.094 A 
ATOM      9  C9  DEN d   1      -3.296   2.994  -4.297  0.00  0.00    -0.072 A 
ENDROOT
TORSDOF 0
ENDMDL
