MODEL 1
REMARK minimizedAffinity 22.9452953
REMARK minimizedRMSD -1
REMARK  0 active torsions:
REMARK  status: ('A' for Active; 'I' for Inactive)
ROOT
ATOM      1  C1  DEN d   1       1.909   4.315   1.376  0.00  0.00     0.130 A 
ATOM      2  C2  DEN d   1       1.559   4.218  -0.039  0.00  0.00    -0.031 A 
ATOM      3  C3  DEN d   1       0.787   2.974  -0.234  0.00  0.00     0.027 A 
ATOM      4  C4  DEN d   1       0.101   1.201   1.509  0.00  0.00     0.027 A 
ATOM      5  C5  DEN d   1       0.178   0.843   2.837  0.00  0.00    -0.003 A 
ATOM      6  C6  DEN d   1       0.862   1.593   3.757  0.00  0.00     0.001 A 
ATOM      7  C7  DEN d   1       1.457   2.765   3.369  0.00  0.00     0.017 A 
ATOM      8  C8  DEN d   1       1.389   3.129   2.031  0.00  0.00    -0.094 A 
ATOM      9  C9  DEN d   1       0.683   2.363   1.119  0.00  0.00    -0.072 A 
ENDROOT
TORSDOF 0
ENDMDL
