MODEL 1
REMARK minimizedAffinity 13.5779705
REMARK minimizedRMSD -1
REMARK  0 active torsions:
REMARK  status: ('A' for Active; 'I' for Inactive)
ROOT
ATOM      1  C1  DEN d   1       4.667  -4.820   1.029  0.00  0.00     0.130 A 
ATOM      2  C2  DEN d   1       6.000  -4.334   1.375  0.00  0.00    -0.031 A 
ATOM      3  C3  DEN d   1       5.964  -2.857   1.364  0.00  0.00     0.027 A 
ATOM      4  C4  DEN d   1       3.984  -1.286   0.850  0.00  0.00     0.027 A 
ATOM      5  C5  DEN d   1       2.655  -1.236   0.492  0.00  0.00    -0.003 A 
ATOM      6  C6  DEN d   1       1.918  -2.366   0.257  0.00  0.00     0.001 A 
ATOM      7  C7  DEN d   1       2.495  -3.598   0.421  0.00  0.00     0.017 A 
ATOM      8  C8  DEN d   1       3.837  -3.657   0.774  0.00  0.00    -0.094 A 
ATOM      9  C9  DEN d   1       4.561  -2.503   1.019  0.00  0.00    -0.072 A 
ENDROOT
TORSDOF 0
ENDMDL
