MODEL 1
REMARK minimizedAffinity 18.4634418
REMARK minimizedRMSD -1
REMARK  0 active torsions:
REMARK  status: ('A' for Active; 'I' for Inactive)
ROOT
ATOM      1  C1  DEN d   1      -5.230  -1.438   1.650  0.00  0.00     0.130 A 
ATOM      2  C2  DEN d   1      -5.625  -1.661   0.262  0.00  0.00    -0.031 A 
ATOM      3  C3  DEN d   1      -5.994  -3.084   0.115  0.00  0.00     0.027 A 
ATOM      4  C4  DEN d   1      -5.998  -4.950   1.895  0.00  0.00     0.027 A 
ATOM      5  C5  DEN d   1      -5.731  -5.245   3.214  0.00  0.00    -0.003 A 
ATOM      6  C6  DEN d   1      -5.249  -4.307   4.088  0.00  0.00     0.001 A 
ATOM      7  C7  DEN d   1      -5.062  -3.017   3.665  0.00  0.00     0.017 A 
ATOM      8  C8  DEN d   1      -5.323  -2.714   2.335  0.00  0.00    -0.094 A 
ATOM      9  C9  DEN d   1      -5.821  -3.674   1.470  0.00  0.00    -0.072 A 
ENDROOT
TORSDOF 0
ENDMDL
