MODEL 1
REMARK minimizedAffinity 10.8863134
REMARK minimizedRMSD -1
REMARK  0 active torsions:
REMARK  status: ('A' for Active; 'I' for Inactive)
ROOT
ATOM      1  C1  DEN d   1      -5.972  -4.294   0.409  0.00  0.00     0.130 A 
ATOM      2  C2  DEN d   1      -5.973  -2.835   0.335  0.00  0.00    -0.031 A 
ATOM      3  C3  DEN d   1      -5.951  -2.308   1.714  0.00  0.00     0.027 A 
ATOM      4  C4  DEN d   1      -5.910  -3.602   3.945  0.00  0.00     0.027 A 
ATOM      5  C5  DEN d   1      -5.912  -4.855   4.516  0.00  0.00    -0.003 A 
ATOM      6  C6  DEN d   1      -5.968  -5.999   3.765  0.00  0.00     0.001 A 
ATOM      7  C7  DEN d   1      -5.978  -5.914   2.398  0.00  0.00     0.017 A 
ATOM      8  C8  DEN d   1      -5.984  -4.654   1.815  0.00  0.00    -0.094 A 
ATOM      9  C9  DEN d   1      -5.915  -3.509   2.591  0.00  0.00    -0.072 A 
ENDROOT
TORSDOF 0
ENDMDL
