MODEL 1
REMARK minimizedAffinity 6.25581408
REMARK minimizedRMSD -1
REMARK  0 active torsions:
REMARK  status: ('A' for Active; 'I' for Inactive)
ROOT
ATOM      1  C1  DEN d   1      -1.667  -1.933   5.085  0.00  0.00     0.130 A 
ATOM      2  C2  DEN d   1      -3.069  -1.909   5.496  0.00  0.00    -0.031 A 
ATOM      3  C3  DEN d   1      -3.443  -3.273   5.920  0.00  0.00     0.027 A 
ATOM      4  C4  DEN d   1      -1.996  -5.407   5.985  0.00  0.00     0.027 A 
ATOM      5  C5  DEN d   1      -0.747  -5.925   5.721  0.00  0.00    -0.003 A 
ATOM      6  C6  DEN d   1       0.264  -5.163   5.199  0.00  0.00     0.001 A 
ATOM      7  C7  DEN d   1       0.058  -3.829   4.966  0.00  0.00     0.017 A 
ATOM      8  C8  DEN d   1      -1.201  -3.301   5.223  0.00  0.00    -0.094 A 
ATOM      9  C9  DEN d   1      -2.207  -4.085   5.762  0.00  0.00    -0.072 A 
ENDROOT
TORSDOF 0
ENDMDL
