MODEL 1
REMARK minimizedAffinity 6.50702
REMARK minimizedRMSD -1
REMARK  0 active torsions:
REMARK  status: ('A' for Active; 'I' for Inactive)
ROOT
ATOM      1  C1  DEN d   1      -0.372   4.517  -0.010  0.00  0.00     0.130 A 
ATOM      2  C2  DEN d   1       0.132   4.137  -1.327  0.00  0.00    -0.031 A 
ATOM      3  C3  DEN d   1      -0.908   4.462  -2.324  0.00  0.00     0.027 A 
ATOM      4  C4  DEN d   1      -3.233   5.516  -1.960  0.00  0.00     0.027 A 
ATOM      5  C5  DEN d   1      -4.111   5.999  -1.015  0.00  0.00    -0.003 A 
ATOM      6  C6  DEN d   1      -3.820   5.992   0.324  0.00  0.00     0.001 A 
ATOM      7  C7  DEN d   1      -2.602   5.532   0.751  0.00  0.00     0.017 A 
ATOM      8  C8  DEN d   1      -1.715   5.036  -0.195  0.00  0.00    -0.094 A 
ATOM      9  C9  DEN d   1      -2.023   5.063  -1.545  0.00  0.00    -0.072 A 
ENDROOT
TORSDOF 0
ENDMDL
