MODEL 1
REMARK minimizedAffinity 24.5144978
REMARK minimizedRMSD -1
REMARK  0 active torsions:
REMARK  status: ('A' for Active; 'I' for Inactive)
ROOT
ATOM      1  C1  DEN d   1       2.633   0.163  -3.684  0.00  0.00     0.130 A 
ATOM      2  C2  DEN d   1       2.973  -0.604  -4.880  0.00  0.00    -0.031 A 
ATOM      3  C3  DEN d   1       2.161  -0.086  -6.000  0.00  0.00     0.027 A 
ATOM      4  C4  DEN d   1       0.425   1.821  -6.000  0.00  0.00     0.027 A 
ATOM      5  C5  DEN d   1      -0.212   2.759  -5.218  0.00  0.00    -0.003 A 
ATOM      6  C6  DEN d   1       0.028   2.874  -3.874  0.00  0.00     0.001 A 
ATOM      7  C7  DEN d   1       0.961   2.067  -3.280  0.00  0.00     0.017 A 
ATOM      8  C8  DEN d   1       1.602   1.113  -4.060  0.00  0.00    -0.094 A 
ATOM      9  C9  DEN d   1       1.355   1.021  -5.419  0.00  0.00    -0.072 A 
ENDROOT
TORSDOF 0
ENDMDL
