MODEL 1
REMARK minimizedAffinity 19.524086
REMARK minimizedRMSD -1
REMARK  0 active torsions:
REMARK  status: ('A' for Active; 'I' for Inactive)
ROOT
ATOM      1  C1  DEN d   1       2.384  -3.051  -4.814  0.00  0.00     0.130 A 
ATOM      2  C2  DEN d   1       1.814  -3.684  -6.000  0.00  0.00    -0.031 A 
ATOM      3  C3  DEN d   1       1.189  -4.956  -5.583  0.00  0.00     0.027 A 
ATOM      4  C4  DEN d   1       1.044  -5.997  -3.228  0.00  0.00     0.027 A 
ATOM      5  C5  DEN d   1       1.392  -5.834  -1.905  0.00  0.00    -0.003 A 
ATOM      6  C6  DEN d   1       2.119  -4.758  -1.468  0.00  0.00     0.001 A 
ATOM      7  C7  DEN d   1       2.482  -3.779  -2.355  0.00  0.00     0.017 A 
ATOM      8  C8  DEN d   1       2.141  -3.940  -3.692  0.00  0.00    -0.094 A 
ATOM      9  C9  DEN d   1       1.396  -5.029  -4.112  0.00  0.00    -0.072 A 
ENDROOT
TORSDOF 0
ENDMDL
