MODEL 1
REMARK minimizedAffinity 27.4801292
REMARK minimizedRMSD -1
REMARK  0 active torsions:
REMARK  status: ('A' for Active; 'I' for Inactive)
ROOT
ATOM      1  C1  DEN d   1       1.319   2.237   2.936  0.00  0.00     0.130 A 
ATOM      2  C2  DEN d   1       0.648   1.411   3.937  0.00  0.00    -0.031 A 
ATOM      3  C3  DEN d   1      -0.723   1.140   3.461  0.00  0.00     0.027 A 
ATOM      4  C4  DEN d   1      -1.865   1.910   1.280  0.00  0.00     0.027 A 
ATOM      5  C5  DEN d   1      -1.699   2.639   0.123  0.00  0.00    -0.003 A 
ATOM      6  C6  DEN d   1      -0.537   3.307  -0.160  0.00  0.00     0.001 A 
ATOM      7  C7  DEN d   1       0.521   3.223   0.706  0.00  0.00     0.017 A 
ATOM      8  C8  DEN d   1       0.359   2.497   1.878  0.00  0.00    -0.094 A 
ATOM      9  C9  DEN d   1      -0.819   1.818   2.140  0.00  0.00    -0.072 A 
ENDROOT
TORSDOF 0
ENDMDL
