MODEL 1
REMARK minimizedAffinity 12.9462509
REMARK minimizedRMSD -1
REMARK  0 active torsions:
REMARK  status: ('A' for Active; 'I' for Inactive)
ROOT
ATOM      1  C1  DEN d   1      -2.384   2.317  -2.996  0.00  0.00     0.130 A 
ATOM      2  C2  DEN d   1      -3.035   1.040  -2.718  0.00  0.00    -0.031 A 
ATOM      3  C3  DEN d   1      -2.509   0.528  -1.437  0.00  0.00     0.027 A 
ATOM      4  C4  DEN d   1      -0.761   1.587   0.137  0.00  0.00     0.027 A 
ATOM      5  C5  DEN d   1       0.081   2.661   0.319  0.00  0.00    -0.003 A 
ATOM      6  C6  DEN d   1       0.185   3.671  -0.600  0.00  0.00     0.001 A 
ATOM      7  C7  DEN d   1      -0.600   3.650  -1.723  0.00  0.00     0.017 A 
ATOM      8  C8  DEN d   1      -1.446   2.567  -1.917  0.00  0.00    -0.094 A 
ATOM      9  C9  DEN d   1      -1.546   1.561  -0.970  0.00  0.00    -0.072 A 
ENDROOT
TORSDOF 0
ENDMDL
