MODEL 1
REMARK minimizedAffinity 1.10353911
REMARK minimizedRMSD -1
REMARK  3 active torsions:
REMARK  status: ('A' for Active; 'I' for Inactive)
REMARK    1  A    between atoms: C3'_2  and  C2'_3 
REMARK    2  A    between atoms: C2'_3  and  C1'_4 
REMARK    3  A    between atoms: C1'_4  and  C1_5 
ROOT
ATOM      1  C1  N4B d   1      -3.755   5.318   3.120  0.00  0.00    -0.075 A 
ATOM      2  C2  N4B d   1      -4.844   5.335   4.019  0.00  0.00     0.002 A 
ATOM      3  C3  N4B d   1      -4.644   5.680   5.333  0.00  0.00     0.002 A 
ATOM      4  C4  N4B d   1      -3.367   5.993   5.773  0.00  0.00    -0.004 A 
ATOM      5  C5  N4B d   1      -2.325   6.000   4.893  0.00  0.00     0.002 A 
ATOM      6  C6  N4B d   1      -2.512   5.658   3.569  0.00  0.00     0.002 A 
ENDROOT
BRANCH   1   7
ATOM      7  C1' N4B d   1      -3.909   4.864   1.694  0.00  0.00     0.057 C 
BRANCH   7   8
ATOM      8  C2' N4B d   1      -2.554   4.935   0.997  0.00  0.00     0.009 C 
BRANCH   8   9
ATOM      9  C3' N4B d   1      -2.692   4.913  -0.516  0.00  0.00     0.004 C 
ATOM     10  C4' N4B d   1      -1.444   5.357  -1.220  0.00  0.00     0.003 C 
ENDBRANCH   8   9
ENDBRANCH   7   8
ENDBRANCH   1   7
TORSDOF 3
ENDMDL
