MODEL 1
REMARK minimizedAffinity 4.10605335
REMARK minimizedRMSD -1
REMARK  3 active torsions:
REMARK  status: ('A' for Active; 'I' for Inactive)
REMARK    1  A    between atoms: C3'_2  and  C2'_3 
REMARK    2  A    between atoms: C2'_3  and  C1'_4 
REMARK    3  A    between atoms: C1'_4  and  C1_5 
ROOT
ATOM      1  C1  N4B d   1      -3.274   4.390   3.418  0.00  0.00    -0.075 A 
ATOM      2  C2  N4B d   1      -4.449   5.161   3.278  0.00  0.00     0.002 A 
ATOM      3  C3  N4B d   1      -4.869   5.965   4.309  0.00  0.00     0.002 A 
ATOM      4  C4  N4B d   1      -4.145   6.000   5.491  0.00  0.00    -0.004 A 
ATOM      5  C5  N4B d   1      -2.998   5.271   5.609  0.00  0.00     0.002 A 
ATOM      6  C6  N4B d   1      -2.561   4.462   4.580  0.00  0.00     0.002 A 
ENDROOT
BRANCH   1   7
ATOM      7  C1' N4B d   1      -2.822   3.431   2.351  0.00  0.00     0.057 C 
BRANCH   7   8
ATOM      8  C2' N4B d   1      -2.182   2.213   3.012  0.00  0.00     0.009 C 
BRANCH   8   9
ATOM      9  C3' N4B d   1      -2.440   0.939   2.225  0.00  0.00     0.004 C 
ATOM     10  C4' N4B d   1      -3.222  -0.076   3.004  0.00  0.00     0.003 C 
ENDBRANCH   8   9
ENDBRANCH   7   8
ENDBRANCH   1   7
TORSDOF 3
ENDMDL
