MODEL 1
REMARK minimizedAffinity 1.54588711
REMARK minimizedRMSD -1
REMARK  3 active torsions:
REMARK  status: ('A' for Active; 'I' for Inactive)
REMARK    1  A    between atoms: C3'_2  and  C2'_3 
REMARK    2  A    between atoms: C2'_3  and  C1'_4 
REMARK    3  A    between atoms: C1'_4  and  C1_5 
ROOT
ATOM      1  C1  N4B d   1       3.523  -5.593   4.104  0.00  0.00    -0.075 A 
ATOM      2  C2  N4B d   1       2.214  -5.192   3.758  0.00  0.00     0.002 A 
ATOM      3  C3  N4B d   1       1.817  -5.202   2.443  0.00  0.00     0.002 A 
ATOM      4  C4  N4B d   1       2.715  -5.589   1.459  0.00  0.00    -0.004 A 
ATOM      5  C5  N4B d   1       3.969  -5.999   1.804  0.00  0.00     0.002 A 
ATOM      6  C6  N4B d   1       4.380  -5.998   3.122  0.00  0.00     0.002 A 
ENDROOT
BRANCH   1   7
ATOM      7  C1' N4B d   1       4.029  -5.516   5.518  0.00  0.00     0.057 C 
BRANCH   7   8
ATOM      8  C2' N4B d   1       5.549  -5.380   5.500  0.00  0.00     0.009 C 
BRANCH   8   9
ATOM      9  C3' N4B d   1       6.000  -3.989   5.911  0.00  0.00     0.004 C 
ATOM     10  C4' N4B d   1       4.885  -2.986   5.885  0.00  0.00     0.003 C 
ENDBRANCH   8   9
ENDBRANCH   7   8
ENDBRANCH   1   7
TORSDOF 3
ENDMDL
