MODEL 1
REMARK minimizedAffinity 14.3616953
REMARK minimizedRMSD -1
REMARK  3 active torsions:
REMARK  status: ('A' for Active; 'I' for Inactive)
REMARK    1  A    between atoms: C3'_2  and  C2'_3 
REMARK    2  A    between atoms: C2'_3  and  C1'_4 
REMARK    3  A    between atoms: C1'_4  and  C1_5 
ROOT
ATOM      1  C1  N4B d   1       5.014  -3.145   4.992  0.00  0.00    -0.075 A 
ATOM      2  C2  N4B d   1       3.744  -3.716   4.757  0.00  0.00     0.002 A 
ATOM      3  C3  N4B d   1       3.513  -5.032   5.075  0.00  0.00     0.002 A 
ATOM      4  C4  N4B d   1       4.538  -5.799   5.608  0.00  0.00    -0.004 A 
ATOM      5  C5  N4B d   1       5.755  -5.233   5.855  0.00  0.00     0.002 A 
ATOM      6  C6  N4B d   1       6.000  -3.911   5.545  0.00  0.00     0.002 A 
ENDROOT
BRANCH   1   7
ATOM      7  C1' N4B d   1       5.339  -1.735   4.582  0.00  0.00     0.057 C 
BRANCH   7   8
ATOM      8  C2' N4B d   1       4.115  -1.112   3.918  0.00  0.00     0.009 C 
BRANCH   8   9
ATOM      9  C3' N4B d   1       4.499  -0.159   2.799  0.00  0.00     0.004 C 
ATOM     10  C4' N4B d   1       5.913  -0.348   2.335  0.00  0.00     0.003 C 
ENDBRANCH   8   9
ENDBRANCH   7   8
ENDBRANCH   1   7
TORSDOF 3
ENDMDL
