MODEL 1
REMARK minimizedAffinity 12.8975124
REMARK minimizedRMSD -1
REMARK  3 active torsions:
REMARK  status: ('A' for Active; 'I' for Inactive)
REMARK    1  A    between atoms: C3'_2  and  C2'_3 
REMARK    2  A    between atoms: C2'_3  and  C1'_4 
REMARK    3  A    between atoms: C1'_4  and  C1_5 
ROOT
ATOM      1  C1  N4B d   1      -3.390  -1.406   1.750  0.00  0.00    -0.075 A 
ATOM      2  C2  N4B d   1      -3.999  -1.155   2.999  0.00  0.00     0.002 A 
ATOM      3  C3  N4B d   1      -3.814   0.054   3.623  0.00  0.00     0.002 A 
ATOM      4  C4  N4B d   1      -3.013   1.017   3.028  0.00  0.00    -0.004 A 
ATOM      5  C5  N4B d   1      -2.449   0.776   1.809  0.00  0.00     0.002 A 
ATOM      6  C6  N4B d   1      -2.629  -0.433   1.169  0.00  0.00     0.002 A 
ENDROOT
BRANCH   1   7
ATOM      7  C1' N4B d   1      -3.493  -2.745   1.071  0.00  0.00     0.057 C 
BRANCH   7   8
ATOM      8  C2' N4B d   1      -3.533  -2.538  -0.440  0.00  0.00     0.009 C 
BRANCH   8   9
ATOM      9  C3' N4B d   1      -4.881  -2.915  -1.030  0.00  0.00     0.004 C 
ATOM     10  C4' N4B d   1      -6.000  -2.807  -0.038  0.00  0.00     0.003 C 
ENDBRANCH   8   9
ENDBRANCH   7   8
ENDBRANCH   1   7
TORSDOF 3
ENDMDL
