MODEL 1
REMARK minimizedAffinity 11.0910597
REMARK minimizedRMSD -1
REMARK  3 active torsions:
REMARK  status: ('A' for Active; 'I' for Inactive)
REMARK    1  A    between atoms: C3'_2  and  C2'_3 
REMARK    2  A    between atoms: C2'_3  and  C1'_4 
REMARK    3  A    between atoms: C1'_4  and  C1_5 
ROOT
ATOM      1  C1  N4B d   1      -3.821   3.354   2.246  0.00  0.00    -0.075 A 
ATOM      2  C2  N4B d   1      -5.044   3.871   1.766  0.00  0.00     0.002 A 
ATOM      3  C3  N4B d   1      -5.593   4.988   2.348  0.00  0.00     0.002 A 
ATOM      4  C4  N4B d   1      -4.949   5.591   3.418  0.00  0.00    -0.004 A 
ATOM      5  C5  N4B d   1      -3.755   5.100   3.859  0.00  0.00     0.002 A 
ATOM      6  C6  N4B d   1      -3.190   3.981   3.281  0.00  0.00     0.002 A 
ENDROOT
BRANCH   1   7
ATOM      7  C1' N4B d   1      -3.225   2.086   1.699  0.00  0.00     0.057 C 
BRANCH   7   8
ATOM      8  C2' N4B d   1      -2.732   1.223   2.857  0.00  0.00     0.009 C 
BRANCH   8   9
ATOM      9  C3' N4B d   1      -3.329  -0.173   2.820  0.00  0.00     0.004 C 
ATOM     10  C4' N4B d   1      -3.062  -0.885   1.528  0.00  0.00     0.003 C 
ENDBRANCH   8   9
ENDBRANCH   7   8
ENDBRANCH   1   7
TORSDOF 3
ENDMDL
