MODEL 1
REMARK minimizedAffinity 12.1687241
REMARK minimizedRMSD -1
REMARK  3 active torsions:
REMARK  status: ('A' for Active; 'I' for Inactive)
REMARK    1  A    between atoms: C3'_2  and  C2'_3 
REMARK    2  A    between atoms: C2'_3  and  C1'_4 
REMARK    3  A    between atoms: C1'_4  and  C1_5 
ROOT
ATOM      1  C1  N4B d   1      -3.921   2.724   3.621  0.00  0.00    -0.075 A 
ATOM      2  C2  N4B d   1      -2.990   1.812   4.165  0.00  0.00     0.002 A 
ATOM      3  C3  N4B d   1      -3.200   0.461   4.043  0.00  0.00     0.002 A 
ATOM      4  C4  N4B d   1      -4.339  -0.001   3.400  0.00  0.00    -0.004 A 
ATOM      5  C5  N4B d   1      -5.220   0.885   2.854  0.00  0.00     0.002 A 
ATOM      6  C6  N4B d   1      -5.020   2.247   2.966  0.00  0.00     0.002 A 
ENDROOT
BRANCH   1   7
ATOM      7  C1' N4B d   1      -3.778   4.210   3.804  0.00  0.00     0.057 C 
BRANCH   7   8
ATOM      8  C2' N4B d   1      -2.734   4.483   4.882  0.00  0.00     0.009 C 
BRANCH   8   9
ATOM      9  C3' N4B d   1      -3.031   5.761   5.649  0.00  0.00     0.004 C 
ATOM     10  C4' N4B d   1      -4.482   5.904   5.999  0.00  0.00     0.003 C 
ENDBRANCH   8   9
ENDBRANCH   7   8
ENDBRANCH   1   7
TORSDOF 3
ENDMDL
