MODEL 1
REMARK minimizedAffinity 4.93898201
REMARK minimizedRMSD -1
REMARK  3 active torsions:
REMARK  status: ('A' for Active; 'I' for Inactive)
REMARK    1  A    between atoms: C3'_2  and  C2'_3 
REMARK    2  A    between atoms: C2'_3  and  C1'_4 
REMARK    3  A    between atoms: C1'_4  and  C1_5 
ROOT
ATOM      1  C1  N4B d   1       1.855   2.307  -0.727  0.00  0.00    -0.075 A 
ATOM      2  C2  N4B d   1       2.218   3.632  -1.055  0.00  0.00     0.002 A 
ATOM      3  C3  N4B d   1       2.808   4.436  -0.111  0.00  0.00     0.002 A 
ATOM      4  C4  N4B d   1       3.028   3.945   1.168  0.00  0.00    -0.004 A 
ATOM      5  C5  N4B d   1       2.698   2.656   1.469  0.00  0.00     0.002 A 
ATOM      6  C6  N4B d   1       2.108   1.836   0.528  0.00  0.00     0.002 A 
ENDROOT
BRANCH   1   7
ATOM      7  C1' N4B d   1       1.129   1.419  -1.700  0.00  0.00     0.057 C 
BRANCH   7   8
ATOM      8  C2' N4B d   1       2.043   1.123  -2.886  0.00  0.00     0.009 C 
BRANCH   8   9
ATOM      9  C3' N4B d   1       1.500   1.704  -4.180  0.00  0.00     0.004 C 
ATOM     10  C4' N4B d   1       2.291   2.883  -4.665  0.00  0.00     0.003 C 
ENDBRANCH   8   9
ENDBRANCH   7   8
ENDBRANCH   1   7
TORSDOF 3
ENDMDL
