MODEL 1
REMARK minimizedAffinity 14.4279518
REMARK minimizedRMSD -1
REMARK  3 active torsions:
REMARK  status: ('A' for Active; 'I' for Inactive)
REMARK    1  A    between atoms: C3'_2  and  C2'_3 
REMARK    2  A    between atoms: C2'_3  and  C1'_4 
REMARK    3  A    between atoms: C1'_4  and  C1_5 
ROOT
ATOM      1  C1  N4B d   1       2.959   4.481   0.197  0.00  0.00    -0.075 A 
ATOM      2  C2  N4B d   1       2.995   4.022   1.532  0.00  0.00     0.002 A 
ATOM      3  C3  N4B d   1       4.190   3.967   2.207  0.00  0.00     0.002 A 
ATOM      4  C4  N4B d   1       5.359   4.346   1.564  0.00  0.00    -0.004 A 
ATOM      5  C5  N4B d   1       5.312   4.813   0.283  0.00  0.00     0.002 A 
ATOM      6  C6  N4B d   1       4.118   4.877  -0.406  0.00  0.00     0.002 A 
ENDROOT
BRANCH   1   7
ATOM      7  C1' N4B d   1       1.689   4.478  -0.610  0.00  0.00     0.057 C 
BRANCH   7   8
ATOM      8  C2' N4B d   1       1.075   5.875  -0.582  0.00  0.00     0.009 C 
BRANCH   8   9
ATOM      9  C3' N4B d   1      -0.007   5.999   0.477  0.00  0.00     0.004 C 
ATOM     10  C4' N4B d   1      -1.375   5.685  -0.050  0.00  0.00     0.003 C 
ENDBRANCH   8   9
ENDBRANCH   7   8
ENDBRANCH   1   7
TORSDOF 3
ENDMDL
