MODEL 1
REMARK minimizedAffinity 8.75453091
REMARK minimizedRMSD -1
REMARK  3 active torsions:
REMARK  status: ('A' for Active; 'I' for Inactive)
REMARK    1  A    between atoms: C3'_2  and  C2'_3 
REMARK    2  A    between atoms: C2'_3  and  C1'_4 
REMARK    3  A    between atoms: C1'_4  and  C1_5 
ROOT
ATOM      1  C1  N4B d   1       1.836  -0.739  -2.776  0.00  0.00    -0.075 A 
ATOM      2  C2  N4B d   1       1.219  -0.890  -4.037  0.00  0.00     0.002 A 
ATOM      3  C3  N4B d   1       0.918  -2.145  -4.508  0.00  0.00     0.002 A 
ATOM      4  C4  N4B d   1       1.241  -3.259  -3.747  0.00  0.00    -0.004 A 
ATOM      5  C5  N4B d   1       1.814  -3.103  -2.519  0.00  0.00     0.002 A 
ATOM      6  C6  N4B d   1       2.118  -1.848  -2.031  0.00  0.00     0.002 A 
ENDROOT
BRANCH   1   7
ATOM      7  C1' N4B d   1       2.262   0.607  -2.256  0.00  0.00     0.057 C 
BRANCH   7   8
ATOM      8  C2' N4B d   1       3.543   1.035  -2.966  0.00  0.00     0.009 C 
BRANCH   8   9
ATOM      9  C3' N4B d   1       4.709   0.119  -2.637  0.00  0.00     0.004 C 
ATOM     10  C4' N4B d   1       5.961   0.484  -3.377  0.00  0.00     0.003 C 
ENDBRANCH   8   9
ENDBRANCH   7   8
ENDBRANCH   1   7
TORSDOF 3
ENDMDL
