MODEL 1
REMARK minimizedAffinity -0.189526156
REMARK minimizedRMSD -1
REMARK  2 active torsions:
REMARK  status: ('A' for Active; 'I' for Inactive)
REMARK    1  A    between atoms: C2'_3  and  C1'_4 
REMARK    2  A    between atoms: C1'_4  and  C1_5 
ROOT
ATOM      1  C1  I4B d   1      -0.719   0.549   0.947  0.00  0.00    -0.075 A 
ATOM      2  C2  I4B d   1      -0.129   1.444   0.089  0.00  0.00     0.003 A 
ATOM      3  C3  I4B d   1       0.453   0.994  -1.121  0.00  0.00     0.002 A 
ATOM      4  C4  I4B d   1       0.468  -0.356  -1.407  0.00  0.00    -0.004 A 
ATOM      5  C5  I4B d   1      -0.151  -1.259  -0.548  0.00  0.00     0.002 A 
ATOM      6  C6  I4B d   1      -0.759  -0.803   0.631  0.00  0.00     0.003 A 
ENDROOT
BRANCH   1   7
ATOM      7  C1' I4B d   1      -1.295   1.055   2.231  0.00  0.00     0.060 C 
BRANCH   7   8
ATOM      8  C2' I4B d   1      -2.132  -0.054   2.835  0.00  0.00    -0.013 C 
ATOM      9  C4' I4B d   1      -2.005  -0.078   4.336  0.00  0.00     0.013 C 
ATOM     10  C3' I4B d   1      -3.556   0.160   2.416  0.00  0.00     0.013 C 
ENDBRANCH   7   8
ENDBRANCH   1   7
TORSDOF 2
ENDMDL
