MODEL 1
REMARK minimizedAffinity -0.216505811
REMARK minimizedRMSD -1
REMARK  2 active torsions:
REMARK  status: ('A' for Active; 'I' for Inactive)
REMARK    1  A    between atoms: C2'_3  and  C1'_4 
REMARK    2  A    between atoms: C1'_4  and  C1_5 
ROOT
ATOM      1  C1  I4B d   1       0.059  -0.313  -0.029  0.00  0.00    -0.075 A 
ATOM      2  C2  I4B d   1      -0.233  -1.627   0.241  0.00  0.00     0.003 A 
ATOM      3  C3  I4B d   1       0.651  -2.653  -0.171  0.00  0.00     0.002 A 
ATOM      4  C4  I4B d   1       1.783  -2.327  -0.889  0.00  0.00    -0.004 A 
ATOM      5  C5  I4B d   1       2.090  -0.993  -1.142  0.00  0.00     0.002 A 
ATOM      6  C6  I4B d   1       1.229   0.022  -0.699  0.00  0.00     0.003 A 
ENDROOT
BRANCH   1   7
ATOM      7  C1' I4B d   1      -0.913   0.743   0.391  0.00  0.00     0.060 C 
BRANCH   7   8
ATOM      8  C2' I4B d   1      -0.233   2.089   0.244  0.00  0.00    -0.013 C 
ATOM      9  C4' I4B d   1      -0.845   2.890  -0.875  0.00  0.00     0.013 C 
ATOM     10  C3' I4B d   1      -0.349   2.812   1.553  0.00  0.00     0.013 C 
ENDBRANCH   7   8
ENDBRANCH   1   7
TORSDOF 2
ENDMDL
