MODEL 1
REMARK minimizedAffinity -1.16532242
REMARK minimizedRMSD -1
REMARK  2 active torsions:
REMARK  status: ('A' for Active; 'I' for Inactive)
REMARK    1  A    between atoms: C2'_3  and  C1'_4 
REMARK    2  A    between atoms: C1'_4  and  C1_5 
ROOT
ATOM      1  C1  I4B d   1      -1.285   0.184   0.852  0.00  0.00    -0.075 A 
ATOM      2  C2  I4B d   1      -1.216   1.196  -0.072  0.00  0.00     0.003 A 
ATOM      3  C3  I4B d   1      -0.175   1.215  -1.032  0.00  0.00     0.002 A 
ATOM      4  C4  I4B d   1       0.797   0.236  -0.999  0.00  0.00    -0.004 A 
ATOM      5  C5  I4B d   1       0.713  -0.802  -0.075  0.00  0.00     0.002 A 
ATOM      6  C6  I4B d   1      -0.342  -0.835   0.849  0.00  0.00     0.003 A 
ENDROOT
BRANCH   1   7
ATOM      7  C1' I4B d   1      -2.379   0.214   1.872  0.00  0.00     0.060 C 
BRANCH   7   8
ATOM      8  C2' I4B d   1      -1.766   0.600   3.203  0.00  0.00    -0.013 C 
ATOM      9  C4' I4B d   1      -1.961   2.066   3.488  0.00  0.00     0.013 C 
ATOM     10  C3' I4B d   1      -2.399  -0.246   4.267  0.00  0.00     0.013 C 
ENDBRANCH   7   8
ENDBRANCH   1   7
TORSDOF 2
ENDMDL
