MODEL 1
REMARK minimizedAffinity -3.41061234
REMARK minimizedRMSD -1
REMARK  2 active torsions:
REMARK  status: ('A' for Active; 'I' for Inactive)
REMARK    1  A    between atoms: C2'_3  and  C1'_4 
REMARK    2  A    between atoms: C1'_4  and  C1_5 
ROOT
ATOM      1  C1  I4B d   1      -0.369  -0.140  -0.055  0.00  0.00    -0.075 A 
ATOM      2  C2  I4B d   1      -0.250  -1.484   0.197  0.00  0.00     0.003 A 
ATOM      3  C3  I4B d   1       0.821  -2.222  -0.363  0.00  0.00     0.002 A 
ATOM      4  C4  I4B d   1       1.715  -1.591  -1.203  0.00  0.00    -0.004 A 
ATOM      5  C5  I4B d   1       1.606  -0.224  -1.440  0.00  0.00     0.002 A 
ATOM      6  C6  I4B d   1       0.564   0.509  -0.852  0.00  0.00     0.003 A 
ENDROOT
BRANCH   1   7
ATOM      7  C1' I4B d   1      -1.531   0.602   0.525  0.00  0.00     0.060 C 
BRANCH   7   8
ATOM      8  C2' I4B d   1      -1.535   0.367   2.022  0.00  0.00    -0.013 C 
ATOM      9  C4' I4B d   1      -1.153   1.616   2.771  0.00  0.00     0.013 C 
ATOM     10  C3' I4B d   1      -2.904  -0.103   2.414  0.00  0.00     0.013 C 
ENDBRANCH   7   8
ENDBRANCH   1   7
TORSDOF 2
ENDMDL
