MODEL 1
REMARK minimizedAffinity 0.189192578
REMARK minimizedRMSD -1
REMARK  2 active torsions:
REMARK  status: ('A' for Active; 'I' for Inactive)
REMARK    1  A    between atoms: C2'_3  and  C1'_4 
REMARK    2  A    between atoms: C1'_4  and  C1_5 
ROOT
ATOM      1  C1  I4B d   1      -0.378  -0.099   0.213  0.00  0.00    -0.075 A 
ATOM      2  C2  I4B d   1      -0.359  -1.343   0.792  0.00  0.00     0.003 A 
ATOM      3  C3  I4B d   1       0.601  -2.302   0.388  0.00  0.00     0.002 A 
ATOM      4  C4  I4B d   1       1.485  -1.994  -0.625  0.00  0.00    -0.004 A 
ATOM      5  C5  I4B d   1       1.479  -0.724  -1.195  0.00  0.00     0.002 A 
ATOM      6  C6  I4B d   1       0.550   0.234  -0.765  0.00  0.00     0.003 A 
ENDROOT
BRANCH   1   7
ATOM      7  C1' I4B d   1      -1.427   0.878   0.640  0.00  0.00     0.060 C 
BRANCH   7   8
ATOM      8  C2' I4B d   1      -1.563   0.790   2.146  0.00  0.00    -0.013 C 
ATOM      9  C4' I4B d   1      -1.692   2.158   2.763  0.00  0.00     0.013 C 
ATOM     10  C3' I4B d   1      -2.760  -0.059   2.455  0.00  0.00     0.013 C 
ENDBRANCH   7   8
ENDBRANCH   1   7
TORSDOF 2
ENDMDL
