MODEL 1
REMARK minimizedAffinity -0.936110973
REMARK minimizedRMSD -1
REMARK  2 active torsions:
REMARK  status: ('A' for Active; 'I' for Inactive)
REMARK    1  A    between atoms: C2'_3  and  C1'_4 
REMARK    2  A    between atoms: C1'_4  and  C1_5 
ROOT
ATOM      1  C1  I4B d   1       0.450   0.248   0.065  0.00  0.00    -0.075 A 
ATOM      2  C2  I4B d   1       0.890   0.861  -1.082  0.00  0.00     0.003 A 
ATOM      3  C3  I4B d   1       1.544   0.107  -2.087  0.00  0.00     0.002 A 
ATOM      4  C4  I4B d   1       1.781  -1.237  -1.882  0.00  0.00    -0.004 A 
ATOM      5  C5  I4B d   1       1.314  -1.861  -0.729  0.00  0.00     0.002 A 
ATOM      6  C6  I4B d   1       0.633  -1.116   0.245  0.00  0.00     0.003 A 
ENDROOT
BRANCH   1   7
ATOM      7  C1' I4B d   1      -0.207   1.081   1.119  0.00  0.00     0.060 C 
BRANCH   7   8
ATOM      8  C2' I4B d   1      -1.577   0.493   1.391  0.00  0.00    -0.013 C 
ATOM      9  C4' I4B d   1      -2.165   1.047   2.662  0.00  0.00     0.013 C 
ATOM     10  C3' I4B d   1      -2.453   0.796   0.212  0.00  0.00     0.013 C 
ENDBRANCH   7   8
ENDBRANCH   1   7
TORSDOF 2
ENDMDL
