MODEL 1
REMARK minimizedAffinity -3.70997047
REMARK minimizedRMSD -1
REMARK  2 active torsions:
REMARK  status: ('A' for Active; 'I' for Inactive)
REMARK    1  A    between atoms: C2'_3  and  C1'_4 
REMARK    2  A    between atoms: C1'_4  and  C1_5 
ROOT
ATOM      1  C1  I4B d   1      -0.485   0.048   0.195  0.00  0.00    -0.075 A 
ATOM      2  C2  I4B d   1       0.074  -1.191   0.388  0.00  0.00     0.003 A 
ATOM      3  C3  I4B d   1       1.175  -1.607  -0.399  0.00  0.00     0.002 A 
ATOM      4  C4  I4B d   1       1.649  -0.779  -1.397  0.00  0.00    -0.004 A 
ATOM      5  C5  I4B d   1       1.095   0.486  -1.576  0.00  0.00     0.002 A 
ATOM      6  C6  I4B d   1       0.029   0.907  -0.768  0.00  0.00     0.003 A 
ENDROOT
BRANCH   1   7
ATOM      7  C1' I4B d   1      -1.667   0.442   1.022  0.00  0.00     0.060 C 
BRANCH   7   8
ATOM      8  C2' I4B d   1      -1.155   1.130   2.271  0.00  0.00    -0.013 C 
ATOM      9  C4' I4B d   1      -1.393   2.616   2.212  0.00  0.00     0.013 C 
ATOM     10  C3' I4B d   1      -1.845   0.517   3.453  0.00  0.00     0.013 C 
ENDBRANCH   7   8
ENDBRANCH   1   7
TORSDOF 2
ENDMDL
