MODEL 1
REMARK minimizedAffinity -3.77612185
REMARK minimizedRMSD -1
REMARK  2 active torsions:
REMARK  status: ('A' for Active; 'I' for Inactive)
REMARK    1  A    between atoms: C2'_3  and  C1'_4 
REMARK    2  A    between atoms: C1'_4  and  C1_5 
ROOT
ATOM      1  C1  I4B d   1      -0.347  -0.036  -0.185  0.00  0.00    -0.075 A 
ATOM      2  C2  I4B d   1       0.044  -1.281   0.240  0.00  0.00     0.003 A 
ATOM      3  C3  I4B d   1       1.216  -1.878  -0.286  0.00  0.00     0.002 A 
ATOM      4  C4  I4B d   1       1.933  -1.221  -1.264  0.00  0.00    -0.004 A 
ATOM      5  C5  I4B d   1       1.548   0.051  -1.677  0.00  0.00     0.002 A 
ATOM      6  C6  I4B d   1       0.408   0.653  -1.125  0.00  0.00     0.003 A 
ENDROOT
BRANCH   1   7
ATOM      7  C1' I4B d   1      -1.607   0.551   0.367  0.00  0.00     0.060 C 
BRANCH   7   8
ATOM      8  C2' I4B d   1      -1.480   0.596   1.876  0.00  0.00    -0.013 C 
ATOM      9  C4' I4B d   1      -1.472   2.015   2.381  0.00  0.00     0.013 C 
ATOM     10  C3' I4B d   1      -2.622  -0.181   2.461  0.00  0.00     0.013 C 
ENDBRANCH   7   8
ENDBRANCH   1   7
TORSDOF 2
ENDMDL
