MODEL 1
REMARK minimizedAffinity -3.0415082
REMARK minimizedRMSD -1
REMARK  2 active torsions:
REMARK  status: ('A' for Active; 'I' for Inactive)
REMARK    1  A    between atoms: C2'_3  and  C1'_4 
REMARK    2  A    between atoms: C1'_4  and  C1_5 
ROOT
ATOM      1  C1  I4B d   1      -0.943   0.402   0.926  0.00  0.00    -0.075 A 
ATOM      2  C2  I4B d   1      -0.121   0.455   2.024  0.00  0.00     0.003 A 
ATOM      3  C3  I4B d   1      -0.630   0.878   3.276  0.00  0.00     0.002 A 
ATOM      4  C4  I4B d   1      -1.946   1.283   3.372  0.00  0.00    -0.004 A 
ATOM      5  C5  I4B d   1      -2.783   1.206   2.263  0.00  0.00     0.002 A 
ATOM      6  C6  I4B d   1      -2.283   0.751   1.035  0.00  0.00     0.003 A 
ENDROOT
BRANCH   1   7
ATOM      7  C1' I4B d   1      -0.364  -0.018  -0.388  0.00  0.00     0.060 C 
BRANCH   7   8
ATOM      8  C2' I4B d   1       0.374  -1.324  -0.177  0.00  0.00    -0.013 C 
ATOM      9  C4' I4B d   1      -0.581  -2.488  -0.124  0.00  0.00     0.013 C 
ATOM     10  C3' I4B d   1       1.361  -1.484  -1.295  0.00  0.00     0.013 C 
ENDBRANCH   7   8
ENDBRANCH   1   7
TORSDOF 2
ENDMDL
