MODEL 1
REMARK minimizedAffinity -2.27622604
REMARK minimizedRMSD -1
REMARK  2 active torsions:
REMARK  status: ('A' for Active; 'I' for Inactive)
REMARK    1  A    between atoms: C2'_3  and  C1'_4 
REMARK    2  A    between atoms: C1'_4  and  C1_5 
ROOT
ATOM      1  C1  I4B d   1       0.640   0.936  -1.646  0.00  0.00    -0.075 A 
ATOM      2  C2  I4B d   1       0.924  -0.264  -1.043  0.00  0.00     0.003 A 
ATOM      3  C3  I4B d   1       1.817  -1.176  -1.656  0.00  0.00     0.002 A 
ATOM      4  C4  I4B d   1       2.362  -0.871  -2.887  0.00  0.00    -0.004 A 
ATOM      5  C5  I4B d   1       2.091   0.356  -3.485  0.00  0.00     0.002 A 
ATOM      6  C6  I4B d   1       1.235   1.271  -2.855  0.00  0.00     0.003 A 
ENDROOT
BRANCH   1   7
ATOM      7  C1' I4B d   1      -0.333   1.861  -0.987  0.00  0.00     0.060 C 
BRANCH   7   8
ATOM      8  C2' I4B d   1      -0.653   1.303   0.385  0.00  0.00    -0.013 C 
ATOM      9  C4' I4B d   1      -1.072   2.394   1.334  0.00  0.00     0.013 C 
ATOM     10  C3' I4B d   1      -1.736   0.278   0.226  0.00  0.00     0.013 C 
ENDBRANCH   7   8
ENDBRANCH   1   7
TORSDOF 2
ENDMDL
