MODEL 1
REMARK minimizedAffinity -0.127859324
REMARK minimizedRMSD -1
REMARK  2 active torsions:
REMARK  status: ('A' for Active; 'I' for Inactive)
REMARK    1  A    between atoms: C2'_3  and  C1'_4 
REMARK    2  A    between atoms: C1'_4  and  C1_5 
ROOT
ATOM      1  C1  I4B d   1      -1.822   0.838   1.619  0.00  0.00    -0.075 A 
ATOM      2  C2  I4B d   1      -2.250  -0.268   2.310  0.00  0.00     0.003 A 
ATOM      3  C3  I4B d   1      -2.299  -0.249   3.725  0.00  0.00     0.002 A 
ATOM      4  C4  I4B d   1      -1.867   0.872   4.405  0.00  0.00    -0.004 A 
ATOM      5  C5  I4B d   1      -1.456   2.000   3.702  0.00  0.00     0.002 A 
ATOM      6  C6  I4B d   1      -1.445   1.988   2.299  0.00  0.00     0.003 A 
ENDROOT
BRANCH   1   7
ATOM      7  C1' I4B d   1      -1.752   0.772   0.126  0.00  0.00     0.060 C 
BRANCH   7   8
ATOM      8  C2' I4B d   1      -0.292   0.671  -0.268  0.00  0.00    -0.013 C 
ATOM      9  C4' I4B d   1       0.081  -0.746  -0.617  0.00  0.00     0.013 C 
ATOM     10  C3' I4B d   1      -0.061   1.593  -1.428  0.00  0.00     0.013 C 
ENDBRANCH   7   8
ENDBRANCH   1   7
TORSDOF 2
ENDMDL
