MODEL 1
REMARK minimizedAffinity -1.98121333
REMARK minimizedRMSD -1
REMARK  2 active torsions:
REMARK  status: ('A' for Active; 'I' for Inactive)
REMARK    1  A    between atoms: C2'_3  and  C1'_4 
REMARK    2  A    between atoms: C1'_4  and  C1_5 
ROOT
ATOM      1  C1  I4B d   1      -0.318  -0.252   0.042  0.00  0.00    -0.075 A 
ATOM      2  C2  I4B d   1       0.344   0.342  -1.003  0.00  0.00     0.003 A 
ATOM      3  C3  I4B d   1       1.537  -0.230  -1.508  0.00  0.00     0.002 A 
ATOM      4  C4  I4B d   1       2.056  -1.359  -0.908  0.00  0.00    -0.004 A 
ATOM      5  C5  I4B d   1       1.371  -1.972   0.138  0.00  0.00     0.002 A 
ATOM      6  C6  I4B d   1       0.170  -1.422   0.608  0.00  0.00     0.003 A 
ENDROOT
BRANCH   1   7
ATOM      7  C1' I4B d   1      -1.558   0.397   0.571  0.00  0.00     0.060 C 
BRANCH   7   8
ATOM      8  C2' I4B d   1      -1.526   0.303   2.083  0.00  0.00    -0.013 C 
ATOM      9  C4' I4B d   1      -1.582   1.668   2.716  0.00  0.00     0.013 C 
ATOM     10  C3' I4B d   1      -2.684  -0.544   2.519  0.00  0.00     0.013 C 
ENDBRANCH   7   8
ENDBRANCH   1   7
TORSDOF 2
ENDMDL
