MODEL 1
REMARK minimizedAffinity -1.10570586
REMARK minimizedRMSD -1
REMARK  0 active torsions:
REMARK  status: ('A' for Active; 'I' for Inactive)
ROOT
ATOM      1  C   UNL d   1      -0.378  -2.238   1.664  0.00  0.00     0.020 A 
ATOM      2  C1  UNL d   1       0.668  -2.194   0.743  0.00  0.00     0.020 A 
ATOM      3  C2  UNL d   1       0.850  -1.061  -0.053  0.00  0.00     0.034 A 
ATOM      4  C3  UNL d   1      -0.015   0.032   0.070  0.00  0.00     0.017 A 
ATOM      5  C4  UNL d   1      -1.065  -0.013   0.995  0.00  0.00     0.017 A 
ATOM      6  C5  UNL d   1      -1.242  -1.150   1.790  0.00  0.00     0.034 A 
ATOM      7 Cl   UNL d   1      -2.173   1.297   1.203  0.00  0.00    -0.070 Cl
ATOM      8 Cl1  UNL d   1       0.269   1.400  -0.947  0.00  0.00    -0.070 Cl
ENDROOT
TORSDOF 0
ENDMDL
