MODEL 1
REMARK minimizedAffinity -1.18234885
REMARK minimizedRMSD -1
REMARK  0 active torsions:
REMARK  status: ('A' for Active; 'I' for Inactive)
ROOT
ATOM      1  C   UNL d   1      -0.484  -2.276   1.981  0.00  0.00     0.020 A 
ATOM      2  C1  UNL d   1       0.593  -2.202   1.099  0.00  0.00     0.020 A 
ATOM      3  C2  UNL d   1       0.735  -1.093   0.262  0.00  0.00     0.034 A 
ATOM      4  C3  UNL d   1      -0.202  -0.054   0.305  0.00  0.00     0.017 A 
ATOM      5  C4  UNL d   1      -1.283  -0.129   1.191  0.00  0.00     0.017 A 
ATOM      6  C5  UNL d   1      -1.420  -1.242   2.027  0.00  0.00     0.034 A 
ATOM      7 Cl   UNL d   1      -2.479   1.113   1.301  0.00  0.00    -0.070 Cl
ATOM      8 Cl1  UNL d   1       0.036   1.287  -0.758  0.00  0.00    -0.070 Cl
ENDROOT
TORSDOF 0
ENDMDL
