MODEL 1
REMARK minimizedAffinity -1.1996696
REMARK minimizedRMSD -1
REMARK  0 active torsions:
REMARK  status: ('A' for Active; 'I' for Inactive)
ROOT
ATOM      1  C   UNL d   1       0.180  -2.237   1.339  0.00  0.00     0.020 A 
ATOM      2  C1  UNL d   1       1.142  -2.259   0.329  0.00  0.00     0.020 A 
ATOM      3  C2  UNL d   1       1.335  -1.134  -0.476  0.00  0.00     0.034 A 
ATOM      4  C3  UNL d   1       0.565   0.017  -0.273  0.00  0.00     0.017 A 
ATOM      5  C4  UNL d   1      -0.400   0.038   0.740  0.00  0.00     0.017 A 
ATOM      6  C5  UNL d   1      -0.589  -1.091   1.544  0.00  0.00     0.034 A 
ATOM      7 Cl   UNL d   1      -1.389   1.422   1.051  0.00  0.00    -0.070 Cl
ATOM      8 Cl1  UNL d   1       0.857   1.371  -1.305  0.00  0.00    -0.070 Cl
ENDROOT
TORSDOF 0
ENDMDL
