MODEL 1
REMARK minimizedAffinity -2.18749785
REMARK minimizedRMSD -1
REMARK  0 active torsions:
REMARK  status: ('A' for Active; 'I' for Inactive)
ROOT
ATOM      1  C   UNL d   1      -2.250  -0.382   2.071  0.00  0.00     0.020 A 
ATOM      2  C1  UNL d   1      -1.839  -1.682   2.363  0.00  0.00     0.020 A 
ATOM      3  C2  UNL d   1      -0.719  -2.220   1.725  0.00  0.00     0.034 A 
ATOM      4  C3  UNL d   1      -0.006  -1.457   0.793  0.00  0.00     0.017 A 
ATOM      5  C4  UNL d   1      -0.419  -0.153   0.500  0.00  0.00     0.017 A 
ATOM      6  C5  UNL d   1      -1.542   0.381   1.141  0.00  0.00     0.034 A 
ATOM      7 Cl   UNL d   1       0.410   0.849  -0.639  0.00  0.00    -0.070 Cl
ATOM      8 Cl1  UNL d   1       1.369  -2.186   0.043  0.00  0.00    -0.070 Cl
ENDROOT
TORSDOF 0
ENDMDL
