MODEL 1
REMARK minimizedAffinity -1.84544337
REMARK minimizedRMSD -1
REMARK  0 active torsions:
REMARK  status: ('A' for Active; 'I' for Inactive)
ROOT
ATOM      1  C   UNL d   1      -1.151  -1.932   1.970  0.00  0.00     0.020 A 
ATOM      2  C1  UNL d   1      -0.193  -2.245   1.007  0.00  0.00     0.020 A 
ATOM      3  C2  UNL d   1       0.323  -1.243   0.183  0.00  0.00     0.034 A 
ATOM      4  C3  UNL d   1      -0.120   0.078   0.320  0.00  0.00     0.017 A 
ATOM      5  C4  UNL d   1      -1.082   0.391   1.287  0.00  0.00     0.017 A 
ATOM      6  C5  UNL d   1      -1.595  -0.616   2.110  0.00  0.00     0.034 A 
ATOM      7 Cl   UNL d   1      -1.677   1.998   1.516  0.00  0.00    -0.070 Cl
ATOM      8 Cl1  UNL d   1       0.561   1.267  -0.732  0.00  0.00    -0.070 Cl
ENDROOT
TORSDOF 0
ENDMDL
