MODEL 1
REMARK minimizedAffinity -2.06991792
REMARK minimizedRMSD -1
REMARK  0 active torsions:
REMARK  status: ('A' for Active; 'I' for Inactive)
ROOT
ATOM      1  C   UNL d   1       0.359  -2.147   0.735  0.00  0.00     0.020 A 
ATOM      2  C1  UNL d   1       1.103  -1.171   0.073  0.00  0.00     0.020 A 
ATOM      3  C2  UNL d   1       0.703   0.166   0.124  0.00  0.00     0.034 A 
ATOM      4  C3  UNL d   1      -0.444   0.531   0.837  0.00  0.00     0.017 A 
ATOM      5  C4  UNL d   1      -1.191  -0.449   1.500  0.00  0.00     0.017 A 
ATOM      6  C5  UNL d   1      -0.786  -1.786   1.447  0.00  0.00     0.034 A 
ATOM      7 Cl   UNL d   1      -2.618  -0.075   2.400  0.00  0.00    -0.070 Cl
ATOM      8 Cl1  UNL d   1      -0.880   2.203   0.856  0.00  0.00    -0.070 Cl
ENDROOT
TORSDOF 0
ENDMDL
