MODEL 1
REMARK minimizedAffinity -3.43054342
REMARK minimizedRMSD -1
REMARK  0 active torsions:
REMARK  status: ('A' for Active; 'I' for Inactive)
ROOT
ATOM      1  C   UNL d   1       0.941  -0.782  -0.474  0.00  0.00     0.020 A 
ATOM      2  C1  UNL d   1       0.986  -2.066   0.069  0.00  0.00     0.020 A 
ATOM      3  C2  UNL d   1       0.156  -2.400   1.141  0.00  0.00     0.034 A 
ATOM      4  C3  UNL d   1      -0.723  -1.451   1.674  0.00  0.00     0.017 A 
ATOM      5  C4  UNL d   1      -0.768  -0.162   1.128  0.00  0.00     0.017 A 
ATOM      6  C5  UNL d   1       0.066   0.168   0.055  0.00  0.00     0.034 A 
ATOM      7 Cl   UNL d   1      -1.827   1.063   1.732  0.00  0.00    -0.070 Cl
ATOM      8 Cl1  UNL d   1      -1.721  -1.934   2.999  0.00  0.00    -0.070 Cl
ENDROOT
TORSDOF 0
ENDMDL
