MODEL 1
REMARK minimizedAffinity -1.62834668
REMARK minimizedRMSD -1
REMARK  0 active torsions:
REMARK  status: ('A' for Active; 'I' for Inactive)
ROOT
ATOM      1  C   UNL d   1       1.515  -0.552  -0.016  0.00  0.00     0.020 A 
ATOM      2  C1  UNL d   1       1.062   0.742  -0.267  0.00  0.00     0.020 A 
ATOM      3  C2  UNL d   1      -0.156   1.171   0.267  0.00  0.00     0.034 A 
ATOM      4  C3  UNL d   1      -0.923   0.305   1.054  0.00  0.00     0.017 A 
ATOM      5  C4  UNL d   1      -0.467  -0.994   1.305  0.00  0.00     0.017 A 
ATOM      6  C5  UNL d   1       0.752  -1.419   0.768  0.00  0.00     0.034 A 
ATOM      7 Cl   UNL d   1      -1.359  -2.121   2.266  0.00  0.00    -0.070 Cl
ATOM      8 Cl1  UNL d   1      -2.418   0.902   1.682  0.00  0.00    -0.070 Cl
ENDROOT
TORSDOF 0
ENDMDL
