MODEL 1
REMARK minimizedAffinity 0.84217006
REMARK minimizedRMSD -1
REMARK  0 active torsions:
REMARK  status: ('A' for Active; 'I' for Inactive)
ROOT
ATOM      1  C   UNL d   1       0.733   2.624  -2.527  0.00  0.00     0.020 A 
ATOM      2  C1  UNL d   1       1.943   1.942  -2.406  0.00  0.00     0.020 A 
ATOM      3  C2  UNL d   1       2.158   1.090  -1.320  0.00  0.00     0.034 A 
ATOM      4  C3  UNL d   1       1.163   0.919  -0.351  0.00  0.00     0.017 A 
ATOM      5  C4  UNL d   1      -0.051   1.605  -0.474  0.00  0.00     0.017 A 
ATOM      6  C5  UNL d   1      -0.262   2.456  -1.563  0.00  0.00     0.034 A 
ATOM      7 Cl   UNL d   1      -1.327   1.444   0.682  0.00  0.00    -0.070 Cl
ATOM      8 Cl1  UNL d   1       1.497  -0.150   0.965  0.00  0.00    -0.070 Cl
ENDROOT
TORSDOF 0
ENDMDL
