MODEL 1
REMARK minimizedAffinity 5.69361496
REMARK minimizedRMSD -1
REMARK  0 active torsions:
REMARK  status: ('A' for Active; 'I' for Inactive)
ROOT
ATOM      1  C   UNL d   1       4.778   6.000  -0.460  0.00  0.00     0.020 A 
ATOM      2  C1  UNL d   1       4.653   5.400  -1.713  0.00  0.00     0.020 A 
ATOM      3  C2  UNL d   1       4.440   4.024  -1.810  0.00  0.00     0.034 A 
ATOM      4  C3  UNL d   1       4.351   3.242  -0.652  0.00  0.00     0.017 A 
ATOM      5  C4  UNL d   1       4.477   3.844   0.605  0.00  0.00     0.017 A 
ATOM      6  C5  UNL d   1       4.690   5.223   0.696  0.00  0.00     0.034 A 
ATOM      7 Cl   UNL d   1       4.378   2.946   2.077  0.00  0.00    -0.070 Cl
ATOM      8 Cl1  UNL d   1       4.086   1.546  -0.847  0.00  0.00    -0.070 Cl
ENDROOT
TORSDOF 0
ENDMDL
