MODEL 1
REMARK minimizedAffinity -1.28869665
REMARK minimizedRMSD -1
REMARK  0 active torsions:
REMARK  status: ('A' for Active; 'I' for Inactive)
ROOT
ATOM      1  C   UNL d   1       0.381  -2.261   0.860  0.00  0.00     0.020 A 
ATOM      2  C1  UNL d   1       1.467  -1.947   0.043  0.00  0.00     0.020 A 
ATOM      3  C2  UNL d   1       1.546  -0.692  -0.563  0.00  0.00     0.034 A 
ATOM      4  C3  UNL d   1       0.537   0.255  -0.353  0.00  0.00     0.017 A 
ATOM      5  C4  UNL d   1      -0.553  -0.060   0.466  0.00  0.00     0.017 A 
ATOM      6  C5  UNL d   1      -0.627  -1.319   1.071  0.00  0.00     0.034 A 
ATOM      7 Cl   UNL d   1      -1.837   1.056   0.772  0.00  0.00    -0.070 Cl
ATOM      8 Cl1  UNL d   1       0.699   1.788  -1.134  0.00  0.00    -0.070 Cl
ENDROOT
TORSDOF 0
ENDMDL
