MODEL 1
REMARK minimizedAffinity -2.70991898
REMARK minimizedRMSD -1
REMARK  0 active torsions:
REMARK  status: ('A' for Active; 'I' for Inactive)
ROOT
ATOM      1  C   UNL d   1      -2.480  -1.104   2.541  0.00  0.00     0.020 A 
ATOM      2  C1  UNL d   1      -1.534  -2.121   2.426  0.00  0.00     0.020 A 
ATOM      3  C2  UNL d   1      -0.451  -1.972   1.557  0.00  0.00     0.034 A 
ATOM      4  C3  UNL d   1      -0.311  -0.803   0.800  0.00  0.00     0.017 A 
ATOM      5  C4  UNL d   1      -1.261   0.218   0.917  0.00  0.00     0.017 A 
ATOM      6  C5  UNL d   1      -2.344   0.063   1.788  0.00  0.00     0.034 A 
ATOM      7 Cl   UNL d   1      -1.156   1.689   0.016  0.00  0.00    -0.070 Cl
ATOM      8 Cl1  UNL d   1       1.054  -0.686  -0.253  0.00  0.00    -0.070 Cl
ENDROOT
TORSDOF 0
ENDMDL
