MODEL 1
REMARK minimizedAffinity -3.29167557
REMARK minimizedRMSD -1
REMARK  0 active torsions:
REMARK  status: ('A' for Active; 'I' for Inactive)
ROOT
ATOM      1  C   UNL d   1      -1.572  -1.812   2.093  0.00  0.00     0.020 A 
ATOM      2  C1  UNL d   1      -2.200  -0.567   2.050  0.00  0.00     0.020 A 
ATOM      3  C2  UNL d   1      -1.627   0.479   1.325  0.00  0.00     0.034 A 
ATOM      4  C3  UNL d   1      -0.423   0.283   0.638  0.00  0.00     0.017 A 
ATOM      5  C4  UNL d   1       0.206  -0.966   0.681  0.00  0.00     0.017 A 
ATOM      6  C5  UNL d   1      -0.372  -2.011   1.409  0.00  0.00     0.034 A 
ATOM      7 Cl   UNL d   1       1.693  -1.284  -0.140  0.00  0.00    -0.070 Cl
ATOM      8 Cl1  UNL d   1       0.228   1.621  -0.240  0.00  0.00    -0.070 Cl
ENDROOT
TORSDOF 0
ENDMDL
