MODEL 1
REMARK minimizedAffinity -0.945795298
REMARK minimizedRMSD -1
REMARK  0 active torsions:
REMARK  status: ('A' for Active; 'I' for Inactive)
ROOT
ATOM      1  C   UNL d   1       0.406   1.776  -0.436  0.00  0.00     0.020 A 
ATOM      2  C1  UNL d   1       1.020   0.530  -0.561  0.00  0.00     0.020 A 
ATOM      3  C2  UNL d   1       0.420  -0.603  -0.007  0.00  0.00     0.034 A 
ATOM      4  C3  UNL d   1      -0.797  -0.493   0.674  0.00  0.00     0.017 A 
ATOM      5  C4  UNL d   1      -1.413   0.758   0.799  0.00  0.00     0.017 A 
ATOM      6  C5  UNL d   1      -0.808   1.889   0.243  0.00  0.00     0.034 A 
ATOM      7 Cl   UNL d   1      -2.916   0.972   1.625  0.00  0.00    -0.070 Cl
ATOM      8 Cl1  UNL d   1      -1.483  -1.936   1.332  0.00  0.00    -0.070 Cl
ENDROOT
TORSDOF 0
ENDMDL
