MODEL 1
REMARK minimizedAffinity 2.72752476
REMARK minimizedRMSD -1
REMARK  0 active torsions:
REMARK  status: ('A' for Active; 'I' for Inactive)
ROOT
ATOM      1  C   UNL d   1      -3.410  -3.609  -6.000  0.00  0.00     0.020 A 
ATOM      2  C1  UNL d   1      -2.307  -4.309  -5.513  0.00  0.00     0.020 A 
ATOM      3  C2  UNL d   1      -1.785  -4.002  -4.255  0.00  0.00     0.034 A 
ATOM      4  C3  UNL d   1      -2.364  -2.990  -3.480  0.00  0.00     0.017 A 
ATOM      5  C4  UNL d   1      -3.471  -2.287  -3.970  0.00  0.00     0.017 A 
ATOM      6  C5  UNL d   1      -3.990  -2.600  -5.230  0.00  0.00     0.034 A 
ATOM      7 Cl   UNL d   1      -4.240  -1.027  -3.072  0.00  0.00    -0.070 Cl
ATOM      8 Cl1  UNL d   1      -1.666  -2.663  -1.934  0.00  0.00    -0.070 Cl
ENDROOT
TORSDOF 0
ENDMDL
