MODEL 1
REMARK minimizedAffinity -1.96216345
REMARK minimizedRMSD -1
REMARK  0 active torsions:
REMARK  status: ('A' for Active; 'I' for Inactive)
ROOT
ATOM      1  C   UNL d   1       1.424  -1.783   0.102  0.00  0.00     0.020 A 
ATOM      2  C1  UNL d   1       0.409  -2.493   0.742  0.00  0.00     0.020 A 
ATOM      3  C2  UNL d   1      -0.677  -1.813   1.295  0.00  0.00     0.034 A 
ATOM      4  C3  UNL d   1      -0.752  -0.418   1.208  0.00  0.00     0.017 A 
ATOM      5  C4  UNL d   1       0.267   0.294   0.565  0.00  0.00     0.017 A 
ATOM      6  C5  UNL d   1       1.353  -0.393   0.014  0.00  0.00     0.034 A 
ATOM      7 Cl   UNL d   1       0.245   2.016   0.419  0.00  0.00    -0.070 Cl
ATOM      8 Cl1  UNL d   1      -2.125   0.359   1.914  0.00  0.00    -0.070 Cl
ENDROOT
TORSDOF 0
ENDMDL
