MODEL 1
REMARK minimizedAffinity -1.81232607
REMARK minimizedRMSD -1
REMARK  0 active torsions:
REMARK  status: ('A' for Active; 'I' for Inactive)
ROOT
ATOM      1  C   UNL d   1       1.497   0.239   0.009  0.00  0.00     0.020 A 
ATOM      2  C1  UNL d   1       0.891   1.492   0.083  0.00  0.00     0.020 A 
ATOM      3  C2  UNL d   1      -0.367   1.625   0.675  0.00  0.00     0.034 A 
ATOM      4  C3  UNL d   1      -1.023   0.503   1.194  0.00  0.00     0.017 A 
ATOM      5  C4  UNL d   1      -0.413  -0.755   1.119  0.00  0.00     0.017 A 
ATOM      6  C5  UNL d   1       0.846  -0.882   0.526  0.00  0.00     0.034 A 
ATOM      7 Cl   UNL d   1      -1.160  -2.185   1.739  0.00  0.00    -0.070 Cl
ATOM      8 Cl1  UNL d   1      -2.576   0.741   1.912  0.00  0.00    -0.070 Cl
ENDROOT
TORSDOF 0
ENDMDL
