MODEL 1
REMARK minimizedAffinity 16.5362072
REMARK minimizedRMSD -1
REMARK  0 active torsions:
REMARK  status: ('A' for Active; 'I' for Inactive)
ROOT
ATOM      1  C1  DEN d   1       3.473   2.592   3.860  0.00  0.00     0.130 A 
ATOM      2  C2  DEN d   1       4.654   1.916   3.328  0.00  0.00    -0.031 A 
ATOM      3  C3  DEN d   1       5.849   2.644   3.803  0.00  0.00     0.027 A 
ATOM      4  C4  DEN d   1       5.984   4.736   5.304  0.00  0.00     0.027 A 
ATOM      5  C5  DEN d   1       5.246   5.674   5.992  0.00  0.00    -0.003 A 
ATOM      6  C6  DEN d   1       3.876   5.670   5.990  0.00  0.00     0.001 A 
ATOM      7  C7  DEN d   1       3.201   4.683   5.322  0.00  0.00     0.017 A 
ATOM      8  C8  DEN d   1       3.938   3.738   4.620  0.00  0.00    -0.094 A 
ATOM      9  C9  DEN d   1       5.323   3.752   4.645  0.00  0.00    -0.072 A 
ENDROOT
TORSDOF 0
ENDMDL
