MODEL 1
REMARK minimizedAffinity 9.76743126
REMARK minimizedRMSD -1
REMARK  0 active torsions:
REMARK  status: ('A' for Active; 'I' for Inactive)
ROOT
ATOM      1  C1  DEN d   1      -0.396  -2.603   0.443  0.00  0.00     0.130 A 
ATOM      2  C2  DEN d   1      -0.775  -3.126  -0.867  0.00  0.00    -0.031 A 
ATOM      3  C3  DEN d   1      -1.113  -4.555  -0.706  0.00  0.00     0.027 A 
ATOM      4  C4  DEN d   1      -1.091  -5.998   1.431  0.00  0.00     0.027 A 
ATOM      5  C5  DEN d   1      -0.827  -5.997   2.783  0.00  0.00    -0.003 A 
ATOM      6  C6  DEN d   1      -0.372  -4.884   3.438  0.00  0.00     0.001 A 
ATOM      7  C7  DEN d   1      -0.210  -3.710   2.750  0.00  0.00     0.017 A 
ATOM      8  C8  DEN d   1      -0.467  -3.705   1.385  0.00  0.00    -0.094 A 
ATOM      9  C9  DEN d   1      -0.938  -4.838   0.744  0.00  0.00    -0.072 A 
ENDROOT
TORSDOF 0
ENDMDL
