MODEL 1
REMARK minimizedAffinity 22.8586483
REMARK minimizedRMSD -1
REMARK  0 active torsions:
REMARK  status: ('A' for Active; 'I' for Inactive)
ROOT
ATOM      1  C1  DEN d   1      -0.682  -1.258  -2.706  0.00  0.00     0.130 A 
ATOM      2  C2  DEN d   1      -1.908  -1.393  -1.924  0.00  0.00    -0.031 A 
ATOM      3  C3  DEN d   1      -2.707  -0.166  -2.114  0.00  0.00     0.027 A 
ATOM      4  C4  DEN d   1      -2.171   1.917  -3.537  0.00  0.00     0.027 A 
ATOM      5  C5  DEN d   1      -1.240   2.497  -4.370  0.00  0.00    -0.003 A 
ATOM      6  C6  DEN d   1      -0.053   1.887  -4.677  0.00  0.00     0.001 A 
ATOM      7  C7  DEN d   1       0.215   0.638  -4.183  0.00  0.00     0.017 A 
ATOM      8  C8  DEN d   1      -0.715   0.049  -3.337  0.00  0.00    -0.094 A 
ATOM      9  C9  DEN d   1      -1.914   0.677  -3.048  0.00  0.00    -0.072 A 
ENDROOT
TORSDOF 0
ENDMDL
