MODEL 1
REMARK minimizedAffinity 18.497263
REMARK minimizedRMSD -1
REMARK  0 active torsions:
REMARK  status: ('A' for Active; 'I' for Inactive)
ROOT
ATOM      1  C1  DEN d   1       2.628   4.568   5.996  0.00  0.00     0.130 A 
ATOM      2  C2  DEN d   1       3.362   5.830   5.981  0.00  0.00    -0.031 A 
ATOM      3  C3  DEN d   1       4.804   5.520   5.928  0.00  0.00     0.027 A 
ATOM      4  C4  DEN d   1       5.967   3.218   5.863  0.00  0.00     0.027 A 
ATOM      5  C5  DEN d   1       5.762   1.856   5.869  0.00  0.00    -0.003 A 
ATOM      6  C6  DEN d   1       4.510   1.307   5.952  0.00  0.00     0.001 A 
ATOM      7  C7  DEN d   1       3.411   2.124   5.986  0.00  0.00     0.017 A 
ATOM      8  C8  DEN d   1       3.610   3.499   5.988  0.00  0.00    -0.094 A 
ATOM      9  C9  DEN d   1       4.883   4.034   5.891  0.00  0.00    -0.072 A 
ENDROOT
TORSDOF 0
ENDMDL
