MODEL 1
REMARK minimizedAffinity 11.3933172
REMARK minimizedRMSD -1
REMARK  0 active torsions:
REMARK  status: ('A' for Active; 'I' for Inactive)
ROOT
ATOM      1  C1  DEN d   1      -1.402  -3.343  -2.035  0.00  0.00     0.130 A 
ATOM      2  C2  DEN d   1      -2.075  -2.311  -2.819  0.00  0.00    -0.031 A 
ATOM      3  C3  DEN d   1      -2.500  -1.240  -1.896  0.00  0.00     0.027 A 
ATOM      4  C4  DEN d   1      -2.180  -1.078   0.659  0.00  0.00     0.027 A 
ATOM      5  C5  DEN d   1      -1.677  -1.718   1.770  0.00  0.00    -0.003 A 
ATOM      6  C6  DEN d   1      -1.083  -2.950   1.696  0.00  0.00     0.001 A 
ATOM      7  C7  DEN d   1      -0.935  -3.561   0.479  0.00  0.00     0.017 A 
ATOM      8  C8  DEN d   1      -1.446  -2.925  -0.645  0.00  0.00    -0.094 A 
ATOM      9  C9  DEN d   1      -2.033  -1.675  -0.552  0.00  0.00    -0.072 A 
ENDROOT
TORSDOF 0
ENDMDL
