MODEL 1
REMARK minimizedAffinity 13.19275
REMARK minimizedRMSD -1
REMARK  0 active torsions:
REMARK  status: ('A' for Active; 'I' for Inactive)
ROOT
ATOM      1  C1  DEN d   1       3.189   4.553   5.999  0.00  0.00     0.130 A 
ATOM      2  C2  DEN d   1       3.672   5.932   5.999  0.00  0.00    -0.031 A 
ATOM      3  C3  DEN d   1       4.863   5.998   5.130  0.00  0.00     0.027 A 
ATOM      4  C4  DEN d   1       5.999   4.112   3.787  0.00  0.00     0.027 A 
ATOM      5  C5  DEN d   1       5.958   2.769   3.482  0.00  0.00    -0.003 A 
ATOM      6  C6  DEN d   1       5.019   1.928   4.017  0.00  0.00     0.001 A 
ATOM      7  C7  DEN d   1       4.055   2.429   4.851  0.00  0.00     0.017 A 
ATOM      8  C8  DEN d   1       4.094   3.780   5.169  0.00  0.00    -0.094 A 
ATOM      9  C9  DEN d   1       5.044   4.617   4.608  0.00  0.00    -0.072 A 
ENDROOT
TORSDOF 0
ENDMDL
