MODEL 1
REMARK minimizedAffinity 25.2947845
REMARK minimizedRMSD -1
REMARK  0 active torsions:
REMARK  status: ('A' for Active; 'I' for Inactive)
ROOT
ATOM      1  C1  DEN d   1      -0.804  -0.822   0.601  0.00  0.00     0.130 A 
ATOM      2  C2  DEN d   1      -0.409  -2.206   0.848  0.00  0.00    -0.031 A 
ATOM      3  C3  DEN d   1      -0.394  -2.423   2.309  0.00  0.00     0.027 A 
ATOM      4  C4  DEN d   1      -0.948  -0.760   4.201  0.00  0.00     0.027 A 
ATOM      5  C5  DEN d   1      -1.323   0.534   4.484  0.00  0.00    -0.003 A 
ATOM      6  C6  DEN d   1      -1.518   1.469   3.502  0.00  0.00     0.001 A 
ATOM      7  C7  DEN d   1      -1.381   1.111   2.187  0.00  0.00     0.017 A 
ATOM      8  C8  DEN d   1      -0.995  -0.191   1.895  0.00  0.00    -0.094 A 
ATOM      9  C9  DEN d   1      -0.815  -1.124   2.901  0.00  0.00    -0.072 A 
ENDROOT
TORSDOF 0
ENDMDL
