MODEL 1
REMARK minimizedAffinity 18.4935837
REMARK minimizedRMSD -1
REMARK  0 active torsions:
REMARK  status: ('A' for Active; 'I' for Inactive)
ROOT
ATOM      1  C1  DEN d   1      -3.033  -1.273  -0.362  0.00  0.00     0.130 A 
ATOM      2  C2  DEN d   1      -3.177  -0.256  -1.400  0.00  0.00    -0.031 A 
ATOM      3  C3  DEN d   1      -2.539  -0.766  -2.631  0.00  0.00     0.027 A 
ATOM      4  C4  DEN d   1      -1.351  -3.021  -3.027  0.00  0.00     0.027 A 
ATOM      5  C5  DEN d   1      -0.968  -4.206  -2.440  0.00  0.00    -0.003 A 
ATOM      6  C6  DEN d   1      -1.215  -4.481  -1.121  0.00  0.00     0.001 A 
ATOM      7  C7  DEN d   1      -1.902  -3.576  -0.356  0.00  0.00     0.017 A 
ATOM      8  C8  DEN d   1      -2.285  -2.375  -0.939  0.00  0.00    -0.094 A 
ATOM      9  C9  DEN d   1      -2.037  -2.121  -2.278  0.00  0.00    -0.072 A 
ENDROOT
TORSDOF 0
ENDMDL
