MODEL 1
REMARK minimizedAffinity 19.4666672
REMARK minimizedRMSD -1
REMARK  0 active torsions:
REMARK  status: ('A' for Active; 'I' for Inactive)
ROOT
ATOM      1  C1  DEN d   1       2.725   1.347  -1.121  0.00  0.00     0.130 A 
ATOM      2  C2  DEN d   1       3.204   2.631  -0.618  0.00  0.00    -0.031 A 
ATOM      3  C3  DEN d   1       4.568   2.846  -1.140  0.00  0.00     0.027 A 
ATOM      4  C4  DEN d   1       5.977   1.325  -2.675  0.00  0.00     0.027 A 
ATOM      5  C5  DEN d   1       5.999   0.126  -3.352  0.00  0.00    -0.003 A 
ATOM      6  C6  DEN d   1       4.954  -0.759  -3.305  0.00  0.00     0.001 A 
ATOM      7  C7  DEN d   1       3.823  -0.437  -2.603  0.00  0.00     0.017 A 
ATOM      8  C8  DEN d   1       3.796   0.767  -1.911  0.00  0.00    -0.094 A 
ATOM      9  C9  DEN d   1       4.858   1.653  -1.981  0.00  0.00    -0.072 A 
ENDROOT
TORSDOF 0
ENDMDL
