MODEL 1
REMARK minimizedAffinity 18.9423752
REMARK minimizedRMSD -1
REMARK  0 active torsions:
REMARK  status: ('A' for Active; 'I' for Inactive)
ROOT
ATOM      1  C1  DEN d   1       2.990   1.656  -1.509  0.00  0.00     0.130 A 
ATOM      2  C2  DEN d   1       2.246   0.677  -0.721  0.00  0.00    -0.031 A 
ATOM      3  C3  DEN d   1       2.909  -0.634  -0.877  0.00  0.00     0.027 A 
ATOM      4  C4  DEN d   1       5.008  -1.237  -2.248  0.00  0.00     0.027 A 
ATOM      5  C5  DEN d   1       5.978  -0.743  -3.092  0.00  0.00    -0.003 A 
ATOM      6  C6  DEN d   1       6.000   0.567  -3.492  0.00  0.00     0.001 A 
ATOM      7  C7  DEN d   1       5.059   1.439  -3.010  0.00  0.00     0.017 A 
ATOM      8  C8  DEN d   1       4.074   0.947  -2.165  0.00  0.00    -0.094 A 
ATOM      9  C9  DEN d   1       4.076  -0.378  -1.763  0.00  0.00    -0.072 A 
ENDROOT
TORSDOF 0
ENDMDL
