MODEL 1
REMARK minimizedAffinity 14.3470411
REMARK minimizedRMSD -1
REMARK  0 active torsions:
REMARK  status: ('A' for Active; 'I' for Inactive)
ROOT
ATOM      1  C1  DEN d   1       2.512  -1.131  -2.547  0.00  0.00     0.130 A 
ATOM      2  C2  DEN d   1       1.873   0.060  -1.994  0.00  0.00    -0.031 A 
ATOM      3  C3  DEN d   1       2.758   1.214  -2.249  0.00  0.00     0.027 A 
ATOM      4  C4  DEN d   1       5.043   1.272  -3.445  0.00  0.00     0.027 A 
ATOM      5  C5  DEN d   1       6.000   0.508  -4.075  0.00  0.00    -0.003 A 
ATOM      6  C6  DEN d   1       5.878  -0.850  -4.209  0.00  0.00     0.001 A 
ATOM      7  C7  DEN d   1       4.753  -1.480  -3.745  0.00  0.00     0.017 A 
ATOM      8  C8  DEN d   1       3.788  -0.717  -3.102  0.00  0.00    -0.094 A 
ATOM      9  C9  DEN d   1       3.923   0.656  -2.988  0.00  0.00    -0.072 A 
ENDROOT
TORSDOF 0
ENDMDL
