MODEL 1
REMARK minimizedAffinity 21.0992031
REMARK minimizedRMSD -1
REMARK  0 active torsions:
REMARK  status: ('A' for Active; 'I' for Inactive)
ROOT
ATOM      1  C1  DEN d   1       5.934   4.827   5.617  0.00  0.00     0.130 A 
ATOM      2  C2  DEN d   1       5.071   5.988   5.815  0.00  0.00    -0.031 A 
ATOM      3  C3  DEN d   1       3.686   5.504   5.983  0.00  0.00     0.027 A 
ATOM      4  C4  DEN d   1       2.801   3.082   5.961  0.00  0.00     0.027 A 
ATOM      5  C5  DEN d   1       3.154   1.759   5.815  0.00  0.00    -0.003 A 
ATOM      6  C6  DEN d   1       4.443   1.371   5.561  0.00  0.00     0.001 A 
ATOM      7  C7  DEN d   1       5.434   2.314   5.490  0.00  0.00     0.017 A 
ATOM      8  C8  DEN d   1       5.084   3.651   5.629  0.00  0.00    -0.094 A 
ATOM      9  C9  DEN d   1       3.777   4.022   5.897  0.00  0.00    -0.072 A 
ENDROOT
TORSDOF 0
ENDMDL
