MODEL 1
REMARK minimizedAffinity 22.1431503
REMARK minimizedRMSD -1
REMARK  0 active torsions:
REMARK  status: ('A' for Active; 'I' for Inactive)
ROOT
ATOM      1  C1  DEN d   1       2.313   6.000   5.778  0.00  0.00     0.130 A 
ATOM      2  C2  DEN d   1       1.346   4.924   5.573  0.00  0.00    -0.031 A 
ATOM      3  C3  DEN d   1       2.090   3.651   5.496  0.00  0.00     0.027 A 
ATOM      4  C4  DEN d   1       4.630   3.242   5.678  0.00  0.00     0.027 A 
ATOM      5  C5  DEN d   1       5.856   3.849   5.842  0.00  0.00    -0.003 A 
ATOM      6  C6  DEN d   1       5.989   5.207   5.962  0.00  0.00     0.001 A 
ATOM      7  C7  DEN d   1       4.872   6.000   5.964  0.00  0.00     0.017 A 
ATOM      8  C8  DEN d   1       3.633   5.396   5.791  0.00  0.00    -0.094 A 
ATOM      9  C9  DEN d   1       3.519   4.021   5.684  0.00  0.00    -0.072 A 
ENDROOT
TORSDOF 0
ENDMDL
