MODEL 1
REMARK minimizedAffinity 23.2233486
REMARK minimizedRMSD -1
REMARK  0 active torsions:
REMARK  status: ('A' for Active; 'I' for Inactive)
ROOT
ATOM      1  C1  DEN d   1       2.093   3.576   5.727  0.00  0.00     0.130 A 
ATOM      2  C2  DEN d   1       1.318   4.807   5.858  0.00  0.00    -0.031 A 
ATOM      3  C3  DEN d   1       2.266   5.932   5.989  0.00  0.00     0.027 A 
ATOM      4  C4  DEN d   1       4.845   5.887   5.999  0.00  0.00     0.027 A 
ATOM      5  C5  DEN d   1       5.954   5.073   5.929  0.00  0.00    -0.003 A 
ATOM      6  C6  DEN d   1       5.854   3.711   5.821  0.00  0.00     0.001 A 
ATOM      7  C7  DEN d   1       4.619   3.125   5.735  0.00  0.00     0.017 A 
ATOM      8  C8  DEN d   1       3.496   3.939   5.813  0.00  0.00    -0.094 A 
ATOM      9  C9  DEN d   1       3.618   5.315   5.910  0.00  0.00    -0.072 A 
ENDROOT
TORSDOF 0
ENDMDL
