MODEL 1
REMARK minimizedAffinity -3.45116043
REMARK minimizedRMSD -1
REMARK  0 active torsions:
REMARK  status: ('A' for Active; 'I' for Inactive)
ROOT
ATOM      1  N1  IND d   1      -2.126   0.798   2.210  0.00  0.00    -0.196 N 
ATOM      2  C2  IND d   1      -1.383   1.420   3.175  0.00  0.00     0.054 A 
ATOM      3  C3  IND d   1      -0.070   1.385   2.853  0.00  0.00    -0.031 A 
ATOM      4  C4  IND d   1       1.073   0.447   0.746  0.00  0.00     0.051 A 
ATOM      5  C5  IND d   1       0.813  -0.250  -0.401  0.00  0.00    -0.031 A 
ATOM      6  C6  IND d   1      -0.466  -0.639  -0.744  0.00  0.00     0.015 A 
ATOM      7  C7  IND d   1      -1.539  -0.334   0.045  0.00  0.00    -0.016 A 
ATOM      8  C8  IND d   1      -1.278   0.368   1.213  0.00  0.00    -0.047 A 
ATOM      9  C9  IND d   1       0.023   0.728   1.588  0.00  0.00    -0.096 A 
ATOM     10  HN1 IND d   1      -2.979   0.692   2.224  0.00  0.00     0.298 HD
ENDROOT
TORSDOF 0
ENDMDL
