MODEL 1
REMARK minimizedAffinity -3.65760446
REMARK minimizedRMSD -1
REMARK  0 active torsions:
REMARK  status: ('A' for Active; 'I' for Inactive)
ROOT
ATOM      1  N1  IND d   1       0.056  -0.772  -0.843  0.00  0.00    -0.196 N 
ATOM      2  C2  IND d   1       1.397  -0.915  -0.621  0.00  0.00     0.054 A 
ATOM      3  C3  IND d   1       1.755  -0.287   0.521  0.00  0.00    -0.031 A 
ATOM      4  C4  IND d   1       0.288   0.952   2.235  0.00  0.00     0.051 A 
ATOM      5  C5  IND d   1      -0.994   1.378   2.449  0.00  0.00    -0.031 A 
ATOM      6  C6  IND d   1      -2.012   1.100   1.559  0.00  0.00     0.015 A 
ATOM      7  C7  IND d   1      -1.787   0.374   0.424  0.00  0.00    -0.016 A 
ATOM      8  C8  IND d   1      -0.486  -0.053   0.200  0.00  0.00    -0.047 A 
ATOM      9  C9  IND d   1       0.559   0.262   1.078  0.00  0.00    -0.096 A 
ATOM     10  HN1 IND d   1      -0.376  -1.079  -1.519  0.00  0.00     0.298 HD
ENDROOT
TORSDOF 0
ENDMDL
