MODEL 1
REMARK minimizedAffinity -5.016294
REMARK minimizedRMSD -1
REMARK  0 active torsions:
REMARK  status: ('A' for Active; 'I' for Inactive)
ROOT
ATOM      1  N1  IND d   1       1.086  -0.800  -0.716  0.00  0.00    -0.196 N 
ATOM      2  C2  IND d   1       2.314  -0.725  -0.119  0.00  0.00     0.054 A 
ATOM      3  C3  IND d   1       2.209  -0.159   1.104  0.00  0.00    -0.031 A 
ATOM      4  C4  IND d   1       0.108   0.625   2.368  0.00  0.00     0.051 A 
ATOM      5  C5  IND d   1      -1.240   0.792   2.218  0.00  0.00    -0.031 A 
ATOM      6  C6  IND d   1      -1.895   0.428   1.059  0.00  0.00     0.015 A 
ATOM      7  C7  IND d   1      -1.225  -0.131   0.008  0.00  0.00    -0.016 A 
ATOM      8  C8  IND d   1       0.145  -0.296   0.154  0.00  0.00    -0.047 A 
ATOM      9  C9  IND d   1       0.822   0.111   1.311  0.00  0.00    -0.096 A 
ATOM     10  HN1 IND d   1       0.929  -1.110  -1.502  0.00  0.00     0.298 HD
ENDROOT
TORSDOF 0
ENDMDL
