MODEL 1
REMARK minimizedAffinity -6.38712072
REMARK minimizedRMSD -1
REMARK  0 active torsions:
REMARK  status: ('A' for Active; 'I' for Inactive)
ROOT
ATOM      1  N1  IND d   1       0.783  -0.790  -0.179  0.00  0.00    -0.196 N 
ATOM      2  C2  IND d   1      -0.332  -0.545  -0.932  0.00  0.00     0.054 A 
ATOM      3  C3  IND d   1      -1.260   0.109  -0.198  0.00  0.00    -0.031 A 
ATOM      4  C4  IND d   1      -1.123   0.969   2.225  0.00  0.00     0.051 A 
ATOM      5  C5  IND d   1      -0.318   0.953   3.329  0.00  0.00    -0.031 A 
ATOM      6  C6  IND d   1       0.922   0.346   3.319  0.00  0.00     0.015 A 
ATOM      7  C7  IND d   1       1.409  -0.261   2.197  0.00  0.00    -0.016 A 
ATOM      8  C8  IND d   1       0.591  -0.253   1.075  0.00  0.00    -0.047 A 
ATOM      9  C9  IND d   1      -0.685   0.324   1.092  0.00  0.00    -0.096 A 
ATOM     10  HN1 IND d   1       1.485  -1.208  -0.445  0.00  0.00     0.298 HD
ENDROOT
TORSDOF 0
ENDMDL
