MODEL 1
REMARK minimizedAffinity 1.26245379
REMARK minimizedRMSD -1
REMARK  0 active torsions:
REMARK  status: ('A' for Active; 'I' for Inactive)
ROOT
ATOM      1  N1  IND d   1       0.474  -1.171  -0.366  0.00  0.00    -0.196 N 
ATOM      2  C2  IND d   1       0.038  -1.050  -1.656  0.00  0.00     0.054 A 
ATOM      3  C3  IND d   1      -1.047  -0.245  -1.712  0.00  0.00    -0.031 A 
ATOM      4  C4  IND d   1      -2.213   1.061   0.175  0.00  0.00     0.051 A 
ATOM      5  C5  IND d   1      -2.199   1.240   1.530  0.00  0.00    -0.031 A 
ATOM      6  C6  IND d   1      -1.273   0.613   2.339  0.00  0.00     0.015 A 
ATOM      7  C7  IND d   1      -0.314  -0.210   1.818  0.00  0.00    -0.016 A 
ATOM      8  C8  IND d   1      -0.330  -0.399   0.443  0.00  0.00    -0.047 A 
ATOM      9  C9  IND d   1      -1.294   0.201  -0.377  0.00  0.00    -0.096 A 
ATOM     10  HN1 IND d   1       1.139  -1.649  -0.104  0.00  0.00     0.298 HD
ENDROOT
TORSDOF 0
ENDMDL
