MODEL 1
REMARK minimizedAffinity -3.98107481
REMARK minimizedRMSD -1
REMARK  0 active torsions:
REMARK  status: ('A' for Active; 'I' for Inactive)
ROOT
ATOM      1  N1  IND d   1      -0.939  -1.034  -0.363  0.00  0.00    -0.196 N 
ATOM      2  C2  IND d   1       0.300  -1.173  -0.924  0.00  0.00     0.054 A 
ATOM      3  C3  IND d   1       1.149  -0.247  -0.425  0.00  0.00    -0.031 A 
ATOM      4  C4  IND d   1       0.748   1.527   1.397  0.00  0.00     0.051 A 
ATOM      5  C5  IND d   1      -0.235   2.063   2.181  0.00  0.00    -0.031 A 
ATOM      6  C6  IND d   1      -1.529   1.582   2.159  0.00  0.00     0.015 A 
ATOM      7  C7  IND d   1      -1.886   0.536   1.356  0.00  0.00    -0.016 A 
ATOM      8  C8  IND d   1      -0.892  -0.006   0.554  0.00  0.00    -0.047 A 
ATOM      9  C9  IND d   1       0.412   0.505   0.540  0.00  0.00    -0.096 A 
ATOM     10  HN1 IND d   1      -1.631  -1.508  -0.550  0.00  0.00     0.298 HD
ENDROOT
TORSDOF 0
ENDMDL
