MODEL 1
REMARK minimizedAffinity -3.44467592
REMARK minimizedRMSD -1
REMARK  0 active torsions:
REMARK  status: ('A' for Active; 'I' for Inactive)
ROOT
ATOM      1  N1  IND d   1       0.776   0.253   2.615  0.00  0.00    -0.196 N 
ATOM      2  C2  IND d   1      -0.273   0.999   3.077  0.00  0.00     0.054 A 
ATOM      3  C3  IND d   1      -1.090   1.344   2.056  0.00  0.00    -0.031 A 
ATOM      4  C4  IND d   1      -0.953   0.709  -0.435  0.00  0.00     0.051 A 
ATOM      5  C5  IND d   1      -0.153   0.072  -1.342  0.00  0.00    -0.031 A 
ATOM      6  C6  IND d   1       1.020  -0.551  -0.968  0.00  0.00     0.015 A 
ATOM      7  C7  IND d   1       1.433  -0.572   0.334  0.00  0.00    -0.016 A 
ATOM      8  C8  IND d   1       0.626   0.080   1.257  0.00  0.00    -0.047 A 
ATOM      9  C9  IND d   1      -0.543   0.751   0.877  0.00  0.00    -0.096 A 
ATOM     10  HN1 IND d   1       1.421  -0.055   3.093  0.00  0.00     0.298 HD
ENDROOT
TORSDOF 0
ENDMDL
