MODEL 1
REMARK minimizedAffinity -2.42946172
REMARK minimizedRMSD -1
REMARK  0 active torsions:
REMARK  status: ('A' for Active; 'I' for Inactive)
ROOT
ATOM      1  N1  IND d   1       1.178  -0.176  -0.587  0.00  0.00    -0.196 N 
ATOM      2  C2  IND d   1       0.027  -0.612   0.009  0.00  0.00     0.054 A 
ATOM      3  C3  IND d   1      -0.931  -0.827  -0.920  0.00  0.00    -0.031 A 
ATOM      4  C4  IND d   1      -0.799  -0.626  -3.483  0.00  0.00     0.051 A 
ATOM      5  C5  IND d   1       0.034  -0.228  -4.491  0.00  0.00    -0.031 A 
ATOM      6  C6  IND d   1       1.317   0.215  -4.244  0.00  0.00     0.015 A 
ATOM      7  C7  IND d   1       1.822   0.265  -2.976  0.00  0.00    -0.016 A 
ATOM      8  C8  IND d   1       0.977  -0.132  -1.949  0.00  0.00    -0.047 A 
ATOM      9  C9  IND d   1      -0.341  -0.542  -2.190  0.00  0.00    -0.096 A 
ATOM     10  HN1 IND d   1       1.905   0.036  -0.180  0.00  0.00     0.298 HD
ENDROOT
TORSDOF 0
ENDMDL
