MODEL 1
REMARK minimizedAffinity -4.49719715
REMARK minimizedRMSD -1
REMARK  0 active torsions:
REMARK  status: ('A' for Active; 'I' for Inactive)
ROOT
ATOM      1  N1  IND d   1       0.985  -0.071  -0.427  0.00  0.00    -0.196 N 
ATOM      2  C2  IND d   1      -0.096  -0.344  -1.217  0.00  0.00     0.054 A 
ATOM      3  C3  IND d   1      -1.227  -0.362  -0.477  0.00  0.00    -0.031 A 
ATOM      4  C4  IND d   1      -1.550   0.130   2.029  0.00  0.00     0.051 A 
ATOM      5  C5  IND d   1      -0.851   0.392   3.174  0.00  0.00    -0.031 A 
ATOM      6  C6  IND d   1       0.523   0.518   3.177  0.00  0.00     0.015 A 
ATOM      7  C7  IND d   1       1.252   0.398   2.028  0.00  0.00    -0.016 A 
ATOM      8  C8  IND d   1       0.546   0.125   0.864  0.00  0.00    -0.047 A 
ATOM      9  C9  IND d   1      -0.844  -0.047   0.862  0.00  0.00    -0.096 A 
ATOM     10  HN1 IND d   1       1.802  -0.029  -0.691  0.00  0.00     0.298 HD
ENDROOT
TORSDOF 0
ENDMDL
