MODEL 1
REMARK minimizedAffinity 13.8252535
REMARK minimizedRMSD -1
REMARK  0 active torsions:
REMARK  status: ('A' for Active; 'I' for Inactive)
ROOT
ATOM      1  C   UNL d   1      -1.681  -5.223  -3.993  0.00  0.00     0.078 C 
ATOM      2  C1  UNL d   1      -0.558  -4.740  -3.125  0.00  0.00    -0.077 A 
ATOM      3  C2  UNL d   1       0.710  -4.484  -3.663  0.00  0.00    -0.001 A 
ATOM      4  C3  UNL d   1       1.749  -4.044  -2.841  0.00  0.00     0.003 A 
ATOM      5  C4  UNL d   1       1.531  -3.857  -1.478  0.00  0.00    -0.005 A 
ATOM      6  C5  UNL d   1       0.274  -4.110  -0.934  0.00  0.00     0.003 A 
ATOM      7  C6  UNL d   1      -0.766  -4.550  -1.753  0.00  0.00    -0.001 A 
ENDROOT
TORSDOF 0
ENDMDL
