MODEL 1
REMARK minimizedAffinity 8.84465599
REMARK minimizedRMSD -1
REMARK  0 active torsions:
REMARK  status: ('A' for Active; 'I' for Inactive)
ROOT
ATOM      1  C   UNL d   1      -2.254   4.959  -3.010  0.00  0.00     0.078 C 
ATOM      2  C1  UNL d   1      -1.167   4.420  -2.128  0.00  0.00    -0.077 A 
ATOM      3  C2  UNL d   1       0.177   4.498  -2.511  0.00  0.00    -0.001 A 
ATOM      4  C3  UNL d   1       1.178   3.983  -1.685  0.00  0.00     0.003 A 
ATOM      5  C4  UNL d   1       0.844   3.386  -0.471  0.00  0.00    -0.005 A 
ATOM      6  C5  UNL d   1      -0.491   3.303  -0.082  0.00  0.00     0.003 A 
ATOM      7  C6  UNL d   1      -1.493   3.816  -0.907  0.00  0.00    -0.001 A 
ENDROOT
TORSDOF 0
ENDMDL
