MODEL 1
REMARK minimizedAffinity 2.87610078
REMARK minimizedRMSD -1
REMARK  0 active torsions:
REMARK  status: ('A' for Active; 'I' for Inactive)
ROOT
ATOM      1  C   UNL d   1      -0.349   1.842   2.437  0.00  0.00     0.078 C 
ATOM      2  C1  UNL d   1       0.191   2.531   1.219  0.00  0.00    -0.077 A 
ATOM      3  C2  UNL d   1      -0.593   2.682   0.069  0.00  0.00    -0.001 A 
ATOM      4  C3  UNL d   1      -0.074   3.317  -1.061  0.00  0.00     0.003 A 
ATOM      5  C4  UNL d   1       1.232   3.804  -1.052  0.00  0.00    -0.005 A 
ATOM      6  C5  UNL d   1       2.020   3.655   0.087  0.00  0.00     0.003 A 
ATOM      7  C6  UNL d   1       1.503   3.021   1.218  0.00  0.00    -0.001 A 
ENDROOT
TORSDOF 0
ENDMDL
