MODEL 1
REMARK minimizedAffinity 2.54674053
REMARK minimizedRMSD -1
REMARK  0 active torsions:
REMARK  status: ('A' for Active; 'I' for Inactive)
ROOT
ATOM      1  C   UNL d   1       0.375   1.104   3.349  0.00  0.00     0.078 C 
ATOM      2  C1  UNL d   1       0.092   1.858   2.084  0.00  0.00    -0.077 A 
ATOM      3  C2  UNL d   1      -1.153   2.464   1.869  0.00  0.00    -0.001 A 
ATOM      4  C3  UNL d   1      -1.406   3.155   0.684  0.00  0.00     0.003 A 
ATOM      5  C4  UNL d   1      -0.421   3.246  -0.297  0.00  0.00    -0.005 A 
ATOM      6  C5  UNL d   1       0.820   2.646  -0.093  0.00  0.00     0.003 A 
ATOM      7  C6  UNL d   1       1.075   1.954   1.092  0.00  0.00    -0.001 A 
ENDROOT
TORSDOF 0
ENDMDL
