MODEL 1
REMARK minimizedAffinity -1.05789697
REMARK minimizedRMSD -1
REMARK  0 active torsions:
REMARK  status: ('A' for Active; 'I' for Inactive)
ROOT
ATOM      1  C   UNL d   1      -4.702  -1.698  -5.997  0.00  0.00     0.078 C 
ATOM      2  C1  UNL d   1      -4.690  -3.197  -5.978  0.00  0.00    -0.077 A 
ATOM      3  C2  UNL d   1      -5.884  -3.928  -5.999  0.00  0.00    -0.001 A 
ATOM      4  C3  UNL d   1      -5.858  -5.324  -5.971  0.00  0.00     0.003 A 
ATOM      5  C4  UNL d   1      -4.640  -6.000  -5.922  0.00  0.00    -0.005 A 
ATOM      6  C5  UNL d   1      -3.447  -5.281  -5.899  0.00  0.00     0.003 A 
ATOM      7  C6  UNL d   1      -3.471  -3.886  -5.927  0.00  0.00    -0.001 A 
ENDROOT
TORSDOF 0
ENDMDL
