MODEL 1
REMARK minimizedAffinity 3.60724807
REMARK minimizedRMSD -1
REMARK  0 active torsions:
REMARK  status: ('A' for Active; 'I' for Inactive)
ROOT
ATOM      1  C   UNL d   1      -4.170   5.241  -2.587  0.00  0.00     0.078 C 
ATOM      2  C1  UNL d   1      -3.755   5.511  -1.171  0.00  0.00    -0.077 A 
ATOM      3  C2  UNL d   1      -2.404   5.509  -0.803  0.00  0.00    -0.001 A 
ATOM      4  C3  UNL d   1      -2.033   5.752   0.521  0.00  0.00     0.003 A 
ATOM      5  C4  UNL d   1      -3.007   5.998   1.486  0.00  0.00    -0.005 A 
ATOM      6  C5  UNL d   1      -4.354   6.000   1.130  0.00  0.00     0.003 A 
ATOM      7  C6  UNL d   1      -4.727   5.757  -0.193  0.00  0.00    -0.001 A 
ENDROOT
TORSDOF 0
ENDMDL
