MODEL 1
REMARK minimizedAffinity 7.86951399
REMARK minimizedRMSD -1
REMARK  0 active torsions:
REMARK  status: ('A' for Active; 'I' for Inactive)
ROOT
ATOM      1  C   UNL d   1       2.729  -4.934   0.036  0.00  0.00     0.078 C 
ATOM      2  C1  UNL d   1       3.827  -4.926  -0.985  0.00  0.00    -0.077 A 
ATOM      3  C2  UNL d   1       4.952  -4.106  -0.829  0.00  0.00    -0.001 A 
ATOM      4  C3  UNL d   1       5.962  -4.102  -1.792  0.00  0.00     0.003 A 
ATOM      5  C4  UNL d   1       5.856  -4.914  -2.920  0.00  0.00    -0.005 A 
ATOM      6  C5  UNL d   1       4.740  -5.731  -3.085  0.00  0.00     0.003 A 
ATOM      7  C6  UNL d   1       3.729  -5.737  -2.123  0.00  0.00    -0.001 A 
ENDROOT
TORSDOF 0
ENDMDL
