MODEL 1
REMARK minimizedAffinity 5.45271254
REMARK minimizedRMSD -1
REMARK  0 active torsions:
REMARK  status: ('A' for Active; 'I' for Inactive)
ROOT
ATOM      1  C   UNL d   1       1.626  -2.766  -4.627  0.00  0.00     0.078 C 
ATOM      2  C1  UNL d   1       1.548  -3.437  -3.289  0.00  0.00    -0.077 A 
ATOM      3  C2  UNL d   1       2.557  -4.307  -2.858  0.00  0.00    -0.001 A 
ATOM      4  C3  UNL d   1       2.466  -4.933  -1.614  0.00  0.00     0.003 A 
ATOM      5  C4  UNL d   1       1.367  -4.696  -0.790  0.00  0.00    -0.005 A 
ATOM      6  C5  UNL d   1       0.357  -3.833  -1.211  0.00  0.00     0.003 A 
ATOM      7  C6  UNL d   1       0.446  -3.207  -2.455  0.00  0.00    -0.001 A 
ENDROOT
TORSDOF 0
ENDMDL
