MODEL 1
REMARK minimizedAffinity 4.69612122
REMARK minimizedRMSD -1
REMARK  0 active torsions:
REMARK  status: ('A' for Active; 'I' for Inactive)
ROOT
ATOM      1  C   UNL d   1       1.605   0.478  -0.571  0.00  0.00     0.078 C 
ATOM      2  C1  UNL d   1       0.819   1.743  -0.400  0.00  0.00    -0.077 A 
ATOM      3  C2  UNL d   1       1.463   2.980  -0.267  0.00  0.00    -0.001 A 
ATOM      4  C3  UNL d   1       0.719   4.149  -0.099  0.00  0.00     0.003 A 
ATOM      5  C4  UNL d   1      -0.672   4.093  -0.062  0.00  0.00    -0.005 A 
ATOM      6  C5  UNL d   1      -1.322   2.867  -0.191  0.00  0.00     0.003 A 
ATOM      7  C6  UNL d   1      -0.580   1.697  -0.359  0.00  0.00    -0.001 A 
ENDROOT
TORSDOF 0
ENDMDL
