MODEL 1
REMARK minimizedAffinity 5.36474276
REMARK minimizedRMSD -1
REMARK  0 active torsions:
REMARK  status: ('A' for Active; 'I' for Inactive)
ROOT
ATOM      1  C   UNL d   1       1.109   4.710  -1.442  0.00  0.00     0.078 C 
ATOM      2  C1  UNL d   1       0.330   3.746  -0.598  0.00  0.00    -0.077 A 
ATOM      3  C2  UNL d   1       0.968   2.695   0.072  0.00  0.00    -0.001 A 
ATOM      4  C3  UNL d   1       0.229   1.799   0.847  0.00  0.00     0.003 A 
ATOM      5  C4  UNL d   1      -1.153   1.945   0.957  0.00  0.00    -0.005 A 
ATOM      6  C5  UNL d   1      -1.797   2.986   0.293  0.00  0.00     0.003 A 
ATOM      7  C6  UNL d   1      -1.059   3.883  -0.482  0.00  0.00    -0.001 A 
ENDROOT
TORSDOF 0
ENDMDL
