MODEL 1
REMARK minimizedAffinity 11.2637844
REMARK minimizedRMSD -1
REMARK  0 active torsions:
REMARK  status: ('A' for Active; 'I' for Inactive)
ROOT
ATOM      1  C   UNL d   1       1.860  -1.699   1.292  0.00  0.00    -0.002 A 
ATOM      2  C1  UNL d   1       1.701  -0.321   1.268  0.00  0.00     0.010 A 
ATOM      3  C2  UNL d   1       1.410   0.380   2.440  0.00  0.00     0.041 A 
ATOM      4  C3  UNL d   1       1.281  -0.334   3.648  0.00  0.00    -0.075 A 
ATOM      5  S   UNL d   1       0.928   0.314   5.206  0.00  0.00     0.015 SA
ATOM      6  C4  UNL d   1       0.981  -1.223   5.939  0.00  0.00     0.022 A 
ATOM      7  C5  UNL d   1       1.259  -2.218   5.032  0.00  0.00     0.026 A 
ATOM      8  C6  UNL d   1       1.437  -1.722   3.697  0.00  0.00    -0.082 A 
ATOM      9  C7  UNL d   1       1.732  -2.404   2.492  0.00  0.00     0.045 A 
ENDROOT
TORSDOF 0
ENDMDL
