MODEL 1
REMARK minimizedAffinity 16.8833313
REMARK minimizedRMSD -1
REMARK  0 active torsions:
REMARK  status: ('A' for Active; 'I' for Inactive)
ROOT
ATOM      1  C   UNL d   1      -5.991   4.019   1.685  0.00  0.00    -0.002 A 
ATOM      2  C1  UNL d   1      -5.999   4.290   0.324  0.00  0.00     0.010 A 
ATOM      3  C2  UNL d   1      -4.872   4.031  -0.458  0.00  0.00     0.041 A 
ATOM      4  C3  UNL d   1      -3.726   3.488   0.156  0.00  0.00    -0.075 A 
ATOM      5  S   UNL d   1      -2.231   3.089  -0.603  0.00  0.00     0.015 SA
ATOM      6  C4  UNL d   1      -1.546   2.548   0.861  0.00  0.00     0.022 A 
ATOM      7  C5  UNL d   1      -2.423   2.663   1.914  0.00  0.00     0.026 A 
ATOM      8  C6  UNL d   1      -3.694   3.206   1.525  0.00  0.00    -0.082 A 
ATOM      9  C7  UNL d   1      -4.852   3.481   2.291  0.00  0.00     0.045 A 
ENDROOT
TORSDOF 0
ENDMDL
