MODEL 1
REMARK minimizedAffinity 19.364439
REMARK minimizedRMSD -1
REMARK  0 active torsions:
REMARK  status: ('A' for Active; 'I' for Inactive)
ROOT
ATOM      1  C   UNL d   1      -1.715   1.224   0.537  0.00  0.00    -0.002 A 
ATOM      2  C1  UNL d   1      -2.026   2.549   0.265  0.00  0.00     0.010 A 
ATOM      3  C2  UNL d   1      -2.677   2.897  -0.920  0.00  0.00     0.041 A 
ATOM      4  C3  UNL d   1      -3.015   1.881  -1.836  0.00  0.00    -0.075 A 
ATOM      5  S   UNL d   1      -3.815   2.071  -3.351  0.00  0.00     0.015 SA
ATOM      6  C4  UNL d   1      -3.764   0.398  -3.673  0.00  0.00     0.022 A 
ATOM      7  C5  UNL d   1      -3.154  -0.304  -2.659  0.00  0.00     0.026 A 
ATOM      8  C6  UNL d   1      -2.713   0.539  -1.584  0.00  0.00    -0.082 A 
ATOM      9  C7  UNL d   1      -2.052   0.219  -0.374  0.00  0.00     0.045 A 
ENDROOT
TORSDOF 0
ENDMDL
