MODEL 1
REMARK minimizedAffinity 12.2881956
REMARK minimizedRMSD -1
REMARK  0 active torsions:
REMARK  status: ('A' for Active; 'I' for Inactive)
ROOT
ATOM      1  C   UNL d   1      -2.857   2.404   0.958  0.00  0.00    -0.002 A 
ATOM      2  C1  UNL d   1      -3.594   3.446   0.412  0.00  0.00     0.010 A 
ATOM      3  C2  UNL d   1      -4.060   3.373  -0.902  0.00  0.00     0.041 A 
ATOM      4  C3  UNL d   1      -3.772   2.224  -1.665  0.00  0.00    -0.075 A 
ATOM      5  S   UNL d   1      -4.241   1.915  -3.295  0.00  0.00     0.015 SA
ATOM      6  C4  UNL d   1      -3.476   0.392  -3.305  0.00  0.00     0.022 A 
ATOM      7  C5  UNL d   1      -2.872   0.111  -2.102  0.00  0.00     0.026 A 
ATOM      8  C6  UNL d   1      -3.034   1.162  -1.137  0.00  0.00    -0.082 A 
ATOM      9  C7  UNL d   1      -2.575   1.266   0.198  0.00  0.00     0.045 A 
ENDROOT
TORSDOF 0
ENDMDL
