MODEL 1
REMARK minimizedAffinity 15.8517809
REMARK minimizedRMSD -1
REMARK  0 active torsions:
REMARK  status: ('A' for Active; 'I' for Inactive)
ROOT
ATOM      1  C   UNL d   1      -5.649   4.148   1.634  0.00  0.00    -0.002 A 
ATOM      2  C1  UNL d   1      -6.000   4.480   0.333  0.00  0.00     0.010 A 
ATOM      3  C2  UNL d   1      -5.241   4.023  -0.746  0.00  0.00     0.041 A 
ATOM      4  C3  UNL d   1      -4.114   3.217  -0.494  0.00  0.00    -0.075 A 
ATOM      5  S   UNL d   1      -3.037   2.542  -1.659  0.00  0.00     0.015 SA
ATOM      6  C4  UNL d   1      -2.085   1.796  -0.458  0.00  0.00     0.022 A 
ATOM      7  C5  UNL d   1      -2.563   2.046   0.807  0.00  0.00     0.026 A 
ATOM      8  C6  UNL d   1      -3.740   2.868   0.807  0.00  0.00    -0.082 A 
ATOM      9  C7  UNL d   1      -4.529   3.348   1.880  0.00  0.00     0.045 A 
ENDROOT
TORSDOF 0
ENDMDL
