MODEL 1
REMARK minimizedAffinity 0.974292397
REMARK minimizedRMSD -1
REMARK  0 active torsions:
REMARK  status: ('A' for Active; 'I' for Inactive)
ROOT
ATOM      1  C   UNL d   1       5.282   4.277  -5.350  0.00  0.00    -0.002 A 
ATOM      2  C1  UNL d   1       5.998   5.437  -5.090  0.00  0.00     0.010 A 
ATOM      3  C2  UNL d   1       5.999   6.000  -3.812  0.00  0.00     0.041 A 
ATOM      4  C3  UNL d   1       5.264   5.369  -2.789  0.00  0.00    -0.075 A 
ATOM      5  S   UNL d   1       5.121   5.876  -1.147  0.00  0.00     0.015 SA
ATOM      6  C4  UNL d   1       4.108   4.564  -0.752  0.00  0.00     0.022 A 
ATOM      7  C5  UNL d   1       3.874   3.749  -1.834  0.00  0.00     0.026 A 
ATOM      8  C6  UNL d   1       4.537   4.199  -3.026  0.00  0.00    -0.082 A 
ATOM      9  C7  UNL d   1       4.554   3.654  -4.333  0.00  0.00     0.045 A 
ENDROOT
TORSDOF 0
ENDMDL
