MODEL 1
REMARK minimizedAffinity 10.4812469
REMARK minimizedRMSD -1
REMARK  0 active torsions:
REMARK  status: ('A' for Active; 'I' for Inactive)
ROOT
ATOM      1  C   UNL d   1       0.720  -3.435   3.637  0.00  0.00    -0.002 A 
ATOM      2  C1  UNL d   1       0.270  -2.360   4.390  0.00  0.00     0.010 A 
ATOM      3  C2  UNL d   1       0.610  -1.053   4.036  0.00  0.00     0.041 A 
ATOM      4  C3  UNL d   1       1.416  -0.842   2.900  0.00  0.00    -0.075 A 
ATOM      5  S   UNL d   1       1.957   0.671   2.275  0.00  0.00     0.015 SA
ATOM      6  C4  UNL d   1       2.798  -0.075   0.993  0.00  0.00     0.022 A 
ATOM      7  C5  UNL d   1       2.679  -1.444   1.026  0.00  0.00     0.026 A 
ATOM      8  C6  UNL d   1       1.880  -1.909   2.125  0.00  0.00    -0.082 A 
ATOM      9  C7  UNL d   1       1.519  -3.222   2.510  0.00  0.00     0.045 A 
ENDROOT
TORSDOF 0
ENDMDL
