MODEL 1
REMARK minimizedAffinity -2.92357993
REMARK minimizedRMSD -1
REMARK  0 active torsions:
REMARK  status: ('A' for Active; 'I' for Inactive)
ROOT
ATOM      1  N1  IND d   1       0.548   0.410  -1.463  0.00  0.00    -0.196 N 
ATOM      2  C2  IND d   1       0.778   0.270  -0.122  0.00  0.00     0.054 A 
ATOM      3  C3  IND d   1      -0.190   0.892   0.588  0.00  0.00    -0.031 A 
ATOM      4  C4  IND d   1      -2.300   2.112  -0.240  0.00  0.00     0.051 A 
ATOM      5  C5  IND d   1      -2.924   2.531  -1.382  0.00  0.00    -0.031 A 
ATOM      6  C6  IND d   1      -2.414   2.256  -2.634  0.00  0.00     0.015 A 
ATOM      7  C7  IND d   1      -1.261   1.539  -2.792  0.00  0.00    -0.016 A 
ATOM      8  C8  IND d   1      -0.621   1.119  -1.635  0.00  0.00    -0.047 A 
ATOM      9  C9  IND d   1      -1.112   1.431  -0.361  0.00  0.00    -0.096 A 
ATOM     10  HN1 IND d   1       1.049   0.107  -2.092  0.00  0.00     0.298 HD
ENDROOT
TORSDOF 0
ENDMDL
