MODEL 1
REMARK minimizedAffinity 1.41395867
REMARK minimizedRMSD -1
REMARK  0 active torsions:
REMARK  status: ('A' for Active; 'I' for Inactive)
ROOT
ATOM      1  N1  IND d   1      -0.176   1.718  -0.725  0.00  0.00    -0.196 N 
ATOM      2  C2  IND d   1       0.314   0.880  -1.687  0.00  0.00     0.054 A 
ATOM      3  C3  IND d   1       0.904  -0.195  -1.118  0.00  0.00    -0.031 A 
ATOM      4  C4  IND d   1       1.090  -0.834   1.369  0.00  0.00     0.051 A 
ATOM      5  C5  IND d   1       0.824  -0.364   2.625  0.00  0.00    -0.031 A 
ATOM      6  C6  IND d   1       0.196   0.847   2.832  0.00  0.00     0.015 A 
ATOM      7  C7  IND d   1      -0.202   1.632   1.786  0.00  0.00    -0.016 A 
ATOM      8  C8  IND d   1       0.073   1.161   0.510  0.00  0.00    -0.047 A 
ATOM      9  C9  IND d   1       0.748  -0.047   0.295  0.00  0.00    -0.096 A 
ATOM     10  HN1 IND d   1      -0.574   2.467  -0.867  0.00  0.00     0.298 HD
ENDROOT
TORSDOF 0
ENDMDL
