MODEL 1
REMARK minimizedAffinity 7.22028065
REMARK minimizedRMSD -1
REMARK  0 active torsions:
REMARK  status: ('A' for Active; 'I' for Inactive)
ROOT
ATOM      1  N1  IND d   1       0.609   0.578  -1.883  0.00  0.00    -0.196 N 
ATOM      2  C2  IND d   1       1.578  -0.282  -2.321  0.00  0.00     0.054 A 
ATOM      3  C3  IND d   1       2.056  -1.015  -1.290  0.00  0.00    -0.031 A 
ATOM      4  C4  IND d   1       1.322  -1.042   1.177  0.00  0.00     0.051 A 
ATOM      5  C5  IND d   1       0.498  -0.407   2.063  0.00  0.00    -0.031 A 
ATOM      6  C6  IND d   1      -0.351   0.608   1.670  0.00  0.00     0.015 A 
ATOM      7  C7  IND d   1      -0.415   1.019   0.369  0.00  0.00    -0.016 A 
ATOM      8  C8  IND d   1       0.426   0.381  -0.532  0.00  0.00    -0.047 A 
ATOM      9  C9  IND d   1       1.320  -0.620  -0.131  0.00  0.00    -0.096 A 
ATOM     10  HN1 IND d   1       0.186   1.146  -2.370  0.00  0.00     0.298 HD
ENDROOT
TORSDOF 0
ENDMDL
