MODEL 1
REMARK minimizedAffinity 6.26170158
REMARK minimizedRMSD -1
REMARK  0 active torsions:
REMARK  status: ('A' for Active; 'I' for Inactive)
ROOT
ATOM      1  N1  IND d   1      -0.131   0.825  -1.298  0.00  0.00    -0.196 N 
ATOM      2  C2  IND d   1       0.775   0.246  -2.142  0.00  0.00     0.054 A 
ATOM      3  C3  IND d   1       1.647  -0.516  -1.445  0.00  0.00    -0.031 A 
ATOM      4  C4  IND d   1       1.712  -1.039   1.075  0.00  0.00     0.051 A 
ATOM      5  C5  IND d   1       1.111  -0.713   2.258  0.00  0.00    -0.031 A 
ATOM      6  C6  IND d   1       0.042   0.158   2.318  0.00  0.00     0.015 A 
ATOM      7  C7  IND d   1      -0.475   0.729   1.190  0.00  0.00    -0.016 A 
ATOM      8  C8  IND d   1       0.137   0.405  -0.013  0.00  0.00    -0.047 A 
ATOM      9  C9  IND d   1       1.249  -0.445  -0.075  0.00  0.00    -0.096 A 
ATOM     10  HN1 IND d   1      -0.762   1.360  -1.530  0.00  0.00     0.298 HD
ENDROOT
TORSDOF 0
ENDMDL
