MODEL 1
REMARK minimizedAffinity 9.21324539
REMARK minimizedRMSD -1
REMARK  0 active torsions:
REMARK  status: ('A' for Active; 'I' for Inactive)
ROOT
ATOM      1  N1  IND d   1      -5.900   3.820  -5.244  0.00  0.00    -0.196 N 
ATOM      2  C2  IND d   1      -5.997   4.960  -5.991  0.00  0.00     0.054 A 
ATOM      3  C3  IND d   1      -5.376   5.986  -5.367  0.00  0.00    -0.031 A 
ATOM      4  C4  IND d   1      -4.046   5.995  -3.163  0.00  0.00     0.051 A 
ATOM      5  C5  IND d   1      -3.710   5.199  -2.104  0.00  0.00    -0.031 A 
ATOM      6  C6  IND d   1      -4.092   3.874  -2.038  0.00  0.00     0.015 A 
ATOM      7  C7  IND d   1      -4.818   3.292  -3.038  0.00  0.00    -0.016 A 
ATOM      8  C8  IND d   1      -5.167   4.099  -4.111  0.00  0.00    -0.047 A 
ATOM      9  C9  IND d   1      -4.819   5.455  -4.164  0.00  0.00    -0.096 A 
ATOM     10  HN1 IND d   1      -6.239   3.056  -5.447  0.00  0.00     0.298 HD
ENDROOT
TORSDOF 0
ENDMDL
