MODEL 1
REMARK minimizedAffinity 15.2339134
REMARK minimizedRMSD -1
REMARK  0 active torsions:
REMARK  status: ('A' for Active; 'I' for Inactive)
ROOT
ATOM      1  N1  IND d   1       0.774   2.226   2.248  0.00  0.00    -0.196 N 
ATOM      2  C2  IND d   1       1.945   1.632   1.868  0.00  0.00     0.054 A 
ATOM      3  C3  IND d   1       1.848   1.168   0.602  0.00  0.00    -0.031 A 
ATOM      4  C4  IND d   1      -0.102   1.364  -1.067  0.00  0.00     0.051 A 
ATOM      5  C5  IND d   1      -1.397   1.790  -1.165  0.00  0.00    -0.031 A 
ATOM      6  C6  IND d   1      -2.047   2.398  -0.111  0.00  0.00     0.015 A 
ATOM      7  C7  IND d   1      -1.419   2.614   1.084  0.00  0.00    -0.016 A 
ATOM      8  C8  IND d   1      -0.106   2.176   1.189  0.00  0.00    -0.047 A 
ATOM      9  C9  IND d   1       0.544   1.520   0.136  0.00  0.00    -0.096 A 
ATOM     10  HN1 IND d   1       0.614   2.572   3.018  0.00  0.00     0.298 HD
ENDROOT
TORSDOF 0
ENDMDL
