MODEL 1
REMARK minimizedAffinity 4.65572548
REMARK minimizedRMSD -1
REMARK  0 active torsions:
REMARK  status: ('A' for Active; 'I' for Inactive)
ROOT
ATOM      1  N1  IND d   1       0.420   1.721  -1.368  0.00  0.00    -0.196 N 
ATOM      2  C2  IND d   1      -0.589   1.881  -2.277  0.00  0.00     0.054 A 
ATOM      3  C3  IND d   1      -1.714   2.306  -1.660  0.00  0.00    -0.031 A 
ATOM      4  C4  IND d   1      -2.098   2.901   0.815  0.00  0.00     0.051 A 
ATOM      5  C5  IND d   1      -1.484   2.881   2.036  0.00  0.00    -0.031 A 
ATOM      6  C6  IND d   1      -0.176   2.468   2.187  0.00  0.00     0.015 A 
ATOM      7  C7  IND d   1       0.573   2.068   1.116  0.00  0.00    -0.016 A 
ATOM      8  C8  IND d   1      -0.050   2.080  -0.124  0.00  0.00    -0.047 A 
ATOM      9  C9  IND d   1      -1.390   2.458  -0.277  0.00  0.00    -0.096 A 
ATOM     10  HN1 IND d   1       1.214   1.443  -1.544  0.00  0.00     0.298 HD
ENDROOT
TORSDOF 0
ENDMDL
