MODEL 1
REMARK minimizedAffinity 10.0596247
REMARK minimizedRMSD -1
REMARK  0 active torsions:
REMARK  status: ('A' for Active; 'I' for Inactive)
ROOT
ATOM      1  N1  IND d   1      -2.670  -1.631  -1.142  0.00  0.00    -0.196 N 
ATOM      2  C2  IND d   1      -3.920  -1.096  -1.286  0.00  0.00     0.054 A 
ATOM      3  C3  IND d   1      -3.839   0.231  -1.528  0.00  0.00    -0.031 A 
ATOM      4  C4  IND d   1      -1.757   1.714  -1.832  0.00  0.00     0.051 A 
ATOM      5  C5  IND d   1      -0.393   1.684  -1.755  0.00  0.00    -0.031 A 
ATOM      6  C6  IND d   1       0.296   0.524  -1.467  0.00  0.00     0.015 A 
ATOM      7  C7  IND d   1      -0.356  -0.658  -1.255  0.00  0.00    -0.016 A 
ATOM      8  C8  IND d   1      -1.742  -0.630  -1.325  0.00  0.00    -0.047 A 
ATOM      9  C9  IND d   1      -2.448   0.554  -1.575  0.00  0.00    -0.096 A 
ATOM     10  HN1 IND d   1      -2.494  -2.454  -0.967  0.00  0.00     0.298 HD
ENDROOT
TORSDOF 0
ENDMDL
