MODEL 1
REMARK minimizedAffinity -4.27132416
REMARK minimizedRMSD -1
REMARK  0 active torsions:
REMARK  status: ('A' for Active; 'I' for Inactive)
ROOT
ATOM      1  N1  IND d   1       0.012  -0.053   0.755  0.00  0.00    -0.196 N 
ATOM      2  C2  IND d   1      -0.265  -0.442  -0.526  0.00  0.00     0.054 A 
ATOM      3  C3  IND d   1      -0.431   0.640  -1.320  0.00  0.00    -0.031 A 
ATOM      4  C4  IND d   1      -0.193   3.139  -0.750  0.00  0.00     0.051 A 
ATOM      5  C5  IND d   1       0.013   3.990   0.299  0.00  0.00    -0.031 A 
ATOM      6  C6  IND d   1       0.236   3.527   1.580  0.00  0.00     0.015 A 
ATOM      7  C7  IND d   1       0.273   2.190   1.858  0.00  0.00    -0.016 A 
ATOM      8  C8  IND d   1       0.058   1.323   0.796  0.00  0.00    -0.047 A 
ATOM      9  C9  IND d   1      -0.212   1.788  -0.498  0.00  0.00    -0.096 A 
ATOM     10  HN1 IND d   1       0.136  -0.580   1.423  0.00  0.00     0.298 HD
ENDROOT
TORSDOF 0
ENDMDL
