MODEL 1
REMARK minimizedAffinity 17.5868988
REMARK minimizedRMSD -1
REMARK  1 active torsions:
REMARK  status: ('A' for Active; 'I' for Inactive)
REMARK    1  A    between atoms: N_2  and  C1_3 
ROOT
ATOM      1  C1  UNL d   1       0.747  -1.995   3.060  0.00  0.00     0.143 A 
ATOM      2  C2  UNL d   1       0.097  -2.841   2.155  0.00  0.00    -0.057 A 
ATOM      3  C3  UNL d   1      -1.122  -2.477   1.568  0.00  0.00     0.033 A 
ATOM      4  C4  UNL d   1      -1.728  -1.270   1.901  0.00  0.00    -0.042 A 
ATOM      5  C5  UNL d   1      -1.112  -0.425   2.817  0.00  0.00     0.033 A 
ATOM      6  C6  UNL d   1       0.108  -0.791   3.394  0.00  0.00    -0.057 A 
ENDROOT
BRANCH   1   7
ATOM      7  N   UNL d   1       1.910  -2.343   3.751  0.00  0.00    -0.732 N 
ATOM      8  C   UNL d   1       3.207  -1.913   3.274  0.00  0.00     0.284 C 
ATOM      9  H3  UNL d   1       1.796  -2.279   4.760  0.00  0.00     0.395 HD
ENDBRANCH   1   7
TORSDOF 1
ENDMDL
