MODEL 1
REMARK minimizedAffinity 2.97064424
REMARK minimizedRMSD -1
REMARK  1 active torsions:
REMARK  status: ('A' for Active; 'I' for Inactive)
REMARK    1  A    between atoms: N_2  and  C1_3 
ROOT
ATOM      1  C1  UNL d   1       3.701   2.667   0.882  0.00  0.00     0.143 A 
ATOM      2  C2  UNL d   1       4.747   2.580  -0.042  0.00  0.00    -0.057 A 
ATOM      3  C3  UNL d   1       5.893   3.375   0.082  0.00  0.00     0.033 A 
ATOM      4  C4  UNL d   1       6.000   4.295   1.119  0.00  0.00    -0.042 A 
ATOM      5  C5  UNL d   1       4.961   4.416   2.035  0.00  0.00     0.033 A 
ATOM      6  C6  UNL d   1       3.822   3.614   1.910  0.00  0.00    -0.057 A 
ENDROOT
BRANCH   1   7
ATOM      7  N   UNL d   1       2.494   1.974   0.757  0.00  0.00    -0.732 N 
ATOM      8  C   UNL d   1       2.414   0.770  -0.041  0.00  0.00     0.284 C 
ATOM      9  H3  UNL d   1       1.981   1.926   1.635  0.00  0.00     0.395 HD
ENDBRANCH   1   7
TORSDOF 1
ENDMDL
