MODEL 1
REMARK minimizedAffinity 6.43850613
REMARK minimizedRMSD -1
REMARK  1 active torsions:
REMARK  status: ('A' for Active; 'I' for Inactive)
REMARK    1  A    between atoms: N_2  and  C1_3 
ROOT
ATOM      1  C1  UNL d   1      -0.292   4.258  -3.957  0.00  0.00     0.143 A 
ATOM      2  C2  UNL d   1       0.219   5.058  -2.930  0.00  0.00    -0.057 A 
ATOM      3  C3  UNL d   1       1.407   4.721  -2.270  0.00  0.00     0.033 A 
ATOM      4  C4  UNL d   1       2.092   3.558  -2.607  0.00  0.00    -0.042 A 
ATOM      5  C5  UNL d   1       1.589   2.735  -3.608  0.00  0.00     0.033 A 
ATOM      6  C6  UNL d   1       0.405   3.080  -4.268  0.00  0.00    -0.057 A 
ENDROOT
BRANCH   1   7
ATOM      7  N   UNL d   1      -1.519   4.487  -4.584  0.00  0.00    -0.732 N 
ATOM      8  C   UNL d   1      -1.573   4.900  -5.970  0.00  0.00     0.284 C 
ATOM      9  H3  UNL d   1      -2.221   3.796  -4.328  0.00  0.00     0.395 HD
ENDBRANCH   1   7
TORSDOF 1
ENDMDL
