MODEL 1
REMARK minimizedAffinity 11.5617704
REMARK minimizedRMSD -1
REMARK  1 active torsions:
REMARK  status: ('A' for Active; 'I' for Inactive)
REMARK    1  A    between atoms: N_2  and  C1_3 
ROOT
ATOM      1  C1  UNL d   1       1.780  -3.226   1.448  0.00  0.00     0.143 A 
ATOM      2  C2  UNL d   1       2.220  -2.129   2.196  0.00  0.00    -0.057 A 
ATOM      3  C3  UNL d   1       1.316  -1.190   2.708  0.00  0.00     0.033 A 
ATOM      4  C4  UNL d   1      -0.046  -1.317   2.456  0.00  0.00    -0.042 A 
ATOM      5  C5  UNL d   1      -0.503  -2.385   1.693  0.00  0.00     0.033 A 
ATOM      6  C6  UNL d   1       0.403  -3.323   1.190  0.00  0.00    -0.057 A 
ENDROOT
BRANCH   1   7
ATOM      7  N   UNL d   1       2.636  -4.139   0.828  0.00  0.00    -0.732 N 
ATOM      8  C   UNL d   1       3.382  -3.765  -0.354  0.00  0.00     0.284 C 
ATOM      9  H3  UNL d   1       3.169  -4.689   1.499  0.00  0.00     0.395 HD
ENDBRANCH   1   7
TORSDOF 1
ENDMDL
