MODEL 1
REMARK minimizedAffinity 13.3782644
REMARK minimizedRMSD -1
REMARK  1 active torsions:
REMARK  status: ('A' for Active; 'I' for Inactive)
REMARK    1  A    between atoms: N_2  and  C1_3 
ROOT
ATOM      1  C1  UNL d   1       3.377   3.072  -3.349  0.00  0.00     0.143 A 
ATOM      2  C2  UNL d   1       4.094   3.909  -2.487  0.00  0.00    -0.057 A 
ATOM      3  C3  UNL d   1       5.203   4.636  -2.937  0.00  0.00     0.033 A 
ATOM      4  C4  UNL d   1       5.633   4.515  -4.254  0.00  0.00    -0.042 A 
ATOM      5  C5  UNL d   1       4.951   3.670  -5.122  0.00  0.00     0.033 A 
ATOM      6  C6  UNL d   1       3.840   2.952  -4.668  0.00  0.00    -0.057 A 
ENDROOT
BRANCH   1   7
ATOM      7  N   UNL d   1       2.326   2.248  -2.937  0.00  0.00    -0.732 N 
ATOM      8  C   UNL d   1       2.502   1.322  -1.840  0.00  0.00     0.284 C 
ATOM      9  H3  UNL d   1       1.431   2.733  -2.933  0.00  0.00     0.395 HD
ENDBRANCH   1   7
TORSDOF 1
ENDMDL
