MODEL 1
REMARK minimizedAffinity 8.8750782
REMARK minimizedRMSD -1
REMARK  1 active torsions:
REMARK  status: ('A' for Active; 'I' for Inactive)
REMARK    1  A    between atoms: N_2  and  C1_3 
ROOT
ATOM      1  C1  UNL d   1       0.026   3.994  -4.047  0.00  0.00     0.143 A 
ATOM      2  C2  UNL d   1       0.263   5.066  -3.181  0.00  0.00    -0.057 A 
ATOM      3  C3  UNL d   1       1.372   5.078  -2.326  0.00  0.00     0.033 A 
ATOM      4  C4  UNL d   1       2.250   4.000  -2.301  0.00  0.00    -0.042 A 
ATOM      5  C5  UNL d   1       2.020   2.911  -3.135  0.00  0.00     0.033 A 
ATOM      6  C6  UNL d   1       0.915   2.909  -3.992  0.00  0.00    -0.057 A 
ENDROOT
BRANCH   1   7
ATOM      7  N   UNL d   1      -1.111   3.879  -4.850  0.00  0.00    -0.732 N 
ATOM      8  C   UNL d   1      -1.454   4.919  -5.796  0.00  0.00     0.284 C 
ATOM      9  H3  UNL d   1      -1.242   2.935  -5.206  0.00  0.00     0.395 HD
ENDBRANCH   1   7
TORSDOF 1
ENDMDL
