MODEL 1
REMARK minimizedAffinity 12.840107
REMARK minimizedRMSD -1
REMARK  1 active torsions:
REMARK  status: ('A' for Active; 'I' for Inactive)
REMARK    1  A    between atoms: N_2  and  C1_3 
ROOT
ATOM      1  C1  UNL d   1       0.170  -0.962   2.184  0.00  0.00     0.143 A 
ATOM      2  C2  UNL d   1      -0.539  -1.914   1.444  0.00  0.00    -0.057 A 
ATOM      3  C3  UNL d   1      -1.938  -1.954   1.462  0.00  0.00     0.033 A 
ATOM      4  C4  UNL d   1      -2.655  -1.057   2.247  0.00  0.00    -0.042 A 
ATOM      5  C5  UNL d   1      -1.971  -0.117   3.010  0.00  0.00     0.033 A 
ATOM      6  C6  UNL d   1      -0.573  -0.079   2.982  0.00  0.00    -0.057 A 
ENDROOT
BRANCH   1   7
ATOM      7  N   UNL d   1       1.563  -0.934   2.285  0.00  0.00    -0.732 N 
ATOM      8  C   UNL d   1       2.347  -0.065   1.433  0.00  0.00     0.284 C 
ATOM      9  H3  UNL d   1       1.884  -0.969   3.250  0.00  0.00     0.395 HD
ENDBRANCH   1   7
TORSDOF 1
ENDMDL
