MODEL 1
REMARK minimizedAffinity 12.0839281
REMARK minimizedRMSD -1
REMARK  1 active torsions:
REMARK  status: ('A' for Active; 'I' for Inactive)
REMARK    1  A    between atoms: N_2  and  C1_3 
ROOT
ATOM      1  C1  UNL d   1      -2.010  -0.490   2.348  0.00  0.00     0.143 A 
ATOM      2  C2  UNL d   1      -2.471   0.827   2.449  0.00  0.00    -0.057 A 
ATOM      3  C3  UNL d   1      -3.775   1.171   2.072  0.00  0.00     0.033 A 
ATOM      4  C4  UNL d   1      -4.635   0.205   1.558  0.00  0.00    -0.042 A 
ATOM      5  C5  UNL d   1      -4.190  -1.106   1.426  0.00  0.00     0.033 A 
ATOM      6  C6  UNL d   1      -2.888  -1.444   1.810  0.00  0.00    -0.057 A 
ENDROOT
BRANCH   1   7
ATOM      7  N   UNL d   1      -0.694  -0.876   2.613  0.00  0.00    -0.732 N 
ATOM      8  C   UNL d   1      -0.187  -2.144   2.135  0.00  0.00     0.284 C 
ATOM      9  H3  UNL d   1      -0.037  -0.104   2.522  0.00  0.00     0.395 HD
ENDBRANCH   1   7
TORSDOF 1
ENDMDL
