MODEL 1
REMARK minimizedAffinity 8.10920048
REMARK minimizedRMSD -1
REMARK  1 active torsions:
REMARK  status: ('A' for Active; 'I' for Inactive)
REMARK    1  A    between atoms: N_2  and  C1_3 
ROOT
ATOM      1  C1  UNL d   1       2.907   4.237  -3.214  0.00  0.00     0.143 A 
ATOM      2  C2  UNL d   1       2.701   3.500  -4.384  0.00  0.00    -0.057 A 
ATOM      3  C3  UNL d   1       3.710   3.366  -5.345  0.00  0.00     0.033 A 
ATOM      4  C4  UNL d   1       4.938   3.993  -5.165  0.00  0.00    -0.042 A 
ATOM      5  C5  UNL d   1       5.157   4.753  -4.021  0.00  0.00     0.033 A 
ATOM      6  C6  UNL d   1       4.147   4.877  -3.062  0.00  0.00    -0.057 A 
ENDROOT
BRANCH   1   7
ATOM      7  N   UNL d   1       1.910   4.489  -2.268  0.00  0.00    -0.732 N 
ATOM      8  C   UNL d   1       1.163   5.728  -2.296  0.00  0.00     0.284 C 
ATOM      9  H3  UNL d   1       1.344   3.667  -2.071  0.00  0.00     0.395 HD
ENDBRANCH   1   7
TORSDOF 1
ENDMDL
