MODEL 1
REMARK minimizedAffinity 13.8409958
REMARK minimizedRMSD -1
REMARK  1 active torsions:
REMARK  status: ('A' for Active; 'I' for Inactive)
REMARK    1  A    between atoms: N_2  and  C1_3 
ROOT
ATOM      1  C1  UNL d   1       5.375   3.264   1.322  0.00  0.00     0.143 A 
ATOM      2  C2  UNL d   1       4.114   2.776   1.681  0.00  0.00    -0.057 A 
ATOM      3  C3  UNL d   1       3.519   1.719   0.982  0.00  0.00     0.033 A 
ATOM      4  C4  UNL d   1       4.164   1.149  -0.110  0.00  0.00    -0.042 A 
ATOM      5  C5  UNL d   1       5.407   1.635  -0.500  0.00  0.00     0.033 A 
ATOM      6  C6  UNL d   1       5.999   2.686   0.206  0.00  0.00    -0.057 A 
ENDROOT
BRANCH   1   7
ATOM      7  N   UNL d   1       5.976   4.377   1.916  0.00  0.00    -0.732 N 
ATOM      8  C   UNL d   1       5.266   5.634   2.014  0.00  0.00     0.284 C 
ATOM      9  H3  UNL d   1       6.507   4.134   2.749  0.00  0.00     0.395 HD
ENDBRANCH   1   7
TORSDOF 1
ENDMDL
