MODEL 1
REMARK minimizedAffinity 16.2972546
REMARK minimizedRMSD -1
REMARK  1 active torsions:
REMARK  status: ('A' for Active; 'I' for Inactive)
REMARK    1  A    between atoms: N_2  and  C1_3 
ROOT
ATOM      1  C1  UNL d   1       4.789   4.048  -3.811  0.00  0.00     0.143 A 
ATOM      2  C2  UNL d   1       4.144   4.152  -2.574  0.00  0.00    -0.057 A 
ATOM      3  C3  UNL d   1       2.888   3.573  -2.359  0.00  0.00     0.033 A 
ATOM      4  C4  UNL d   1       2.239   2.903  -3.390  0.00  0.00    -0.042 A 
ATOM      5  C5  UNL d   1       2.850   2.808  -4.636  0.00  0.00     0.033 A 
ATOM      6  C6  UNL d   1       4.108   3.383  -4.842  0.00  0.00    -0.057 A 
ENDROOT
BRANCH   1   7
ATOM      7  N   UNL d   1       5.994   4.686  -4.116  0.00  0.00    -0.732 N 
ATOM      8  C   UNL d   1       6.000   6.000  -4.722  0.00  0.00     0.284 C 
ATOM      9  H3  UNL d   1       6.695   4.560  -3.389  0.00  0.00     0.395 HD
ENDBRANCH   1   7
TORSDOF 1
ENDMDL
