MODEL 1
REMARK minimizedAffinity 10.5906992
REMARK minimizedRMSD -1
REMARK  1 active torsions:
REMARK  status: ('A' for Active; 'I' for Inactive)
REMARK    1  A    between atoms: N_2  and  C1_3 
ROOT
ATOM      1  C1  UNL d   1      -0.386  -1.407   2.935  0.00  0.00     0.143 A 
ATOM      2  C2  UNL d   1      -0.602  -0.443   3.925  0.00  0.00    -0.057 A 
ATOM      3  C3  UNL d   1      -1.542   0.580   3.749  0.00  0.00     0.033 A 
ATOM      4  C4  UNL d   1      -2.264   0.673   2.564  0.00  0.00    -0.042 A 
ATOM      5  C5  UNL d   1      -2.048  -0.260   1.556  0.00  0.00     0.033 A 
ATOM      6  C6  UNL d   1      -1.112  -1.283   1.741  0.00  0.00    -0.057 A 
ENDROOT
BRANCH   1   7
ATOM      7  N   UNL d   1       0.604  -2.390   3.010  0.00  0.00    -0.732 N 
ATOM      8  C   UNL d   1       1.432  -2.514   4.191  0.00  0.00     0.284 C 
ATOM      9  H3  UNL d   1       0.299  -3.280   2.622  0.00  0.00     0.395 HD
ENDBRANCH   1   7
TORSDOF 1
ENDMDL
