MODEL 1
REMARK minimizedAffinity 6.13033962
REMARK minimizedRMSD -1
REMARK  1 active torsions:
REMARK  status: ('A' for Active; 'I' for Inactive)
REMARK    1  A    between atoms: N_2  and  C1_3 
ROOT
ATOM      1  C1  UNL d   1      -1.292   0.802   2.932  0.00  0.00     0.143 A 
ATOM      2  C2  UNL d   1       0.033   0.494   2.605  0.00  0.00    -0.057 A 
ATOM      3  C3  UNL d   1       0.336  -0.496   1.663  0.00  0.00     0.033 A 
ATOM      4  C4  UNL d   1      -0.683  -1.219   1.051  0.00  0.00    -0.042 A 
ATOM      5  C5  UNL d   1      -2.006  -0.947   1.379  0.00  0.00     0.033 A 
ATOM      6  C6  UNL d   1      -2.303   0.048   2.316  0.00  0.00    -0.057 A 
ENDROOT
BRANCH   1   7
ATOM      7  N   UNL d   1      -1.656   1.707   3.932  0.00  0.00    -0.732 N 
ATOM      8  C   UNL d   1      -1.671   1.303   5.322  0.00  0.00     0.284 C 
ATOM      9  H3  UNL d   1      -1.272   2.636   3.774  0.00  0.00     0.395 HD
ENDBRANCH   1   7
TORSDOF 1
ENDMDL
