MODEL 1
REMARK minimizedAffinity 9.01105881
REMARK minimizedRMSD -1
REMARK  1 active torsions:
REMARK  status: ('A' for Active; 'I' for Inactive)
REMARK    1  A    between atoms: N_2  and  C1_3 
ROOT
ATOM      1  C1  UNL d   1       3.299   3.458  -3.191  0.00  0.00     0.143 A 
ATOM      2  C2  UNL d   1       4.106   4.065  -2.223  0.00  0.00    -0.057 A 
ATOM      3  C3  UNL d   1       5.439   4.399  -2.493  0.00  0.00     0.033 A 
ATOM      4  C4  UNL d   1       5.998   4.103  -3.732  0.00  0.00    -0.042 A 
ATOM      5  C5  UNL d   1       5.222   3.477  -4.701  0.00  0.00     0.033 A 
ATOM      6  C6  UNL d   1       3.890   3.152  -4.427  0.00  0.00    -0.057 A 
ENDROOT
BRANCH   1   7
ATOM      7  N   UNL d   1       1.997   3.012  -2.950  0.00  0.00    -0.732 N 
ATOM      8  C   UNL d   1       1.760   1.806  -2.187  0.00  0.00     0.284 C 
ATOM      9  H3  UNL d   1       1.360   3.775  -2.731  0.00  0.00     0.395 HD
ENDBRANCH   1   7
TORSDOF 1
ENDMDL
