MODEL 1
REMARK minimizedAffinity -3.05496597
REMARK minimizedRMSD -1
REMARK  0 active torsions:
REMARK  status: ('A' for Active; 'I' for Inactive)
ROOT
ATOM      1  C1  BNZ d   1       1.409   0.580   0.659  0.00  0.00     0.000 A 
ATOM      2  C2  BNZ d   1       0.535   1.592   0.362  0.00  0.00     0.000 A 
ATOM      3  C3  BNZ d   1      -0.652   1.331  -0.265  0.00  0.00     0.000 A 
ATOM      4  C4  BNZ d   1      -0.944   0.066  -0.630  0.00  0.00     0.000 A 
ATOM      5  C5  BNZ d   1      -0.069  -0.964  -0.346  0.00  0.00     0.000 A 
ATOM      6  C6  BNZ d   1       1.106  -0.702   0.320  0.00  0.00     0.000 A 
ENDROOT
TORSDOF 0
ENDMDL
