MODEL 1
REMARK minimizedAffinity -0.491076678
REMARK minimizedRMSD -1
REMARK  0 active torsions:
REMARK  status: ('A' for Active; 'I' for Inactive)
ROOT
ATOM      1  C1  BNZ d   1       0.204  -0.595   0.127  0.00  0.00     0.000 A 
ATOM      2  C2  BNZ d   1      -0.251  -1.610  -0.672  0.00  0.00     0.000 A 
ATOM      3  C3  BNZ d   1       0.612  -2.541  -1.181  0.00  0.00     0.000 A 
ATOM      4  C4  BNZ d   1       1.931  -2.432  -0.923  0.00  0.00     0.000 A 
ATOM      5  C5  BNZ d   1       2.406  -1.409  -0.127  0.00  0.00     0.000 A 
ATOM      6  C6  BNZ d   1       1.530  -0.497   0.416  0.00  0.00     0.000 A 
ENDROOT
TORSDOF 0
ENDMDL
