MODEL 1
REMARK minimizedAffinity -5.04620695
REMARK minimizedRMSD -1
REMARK  0 active torsions:
REMARK  status: ('A' for Active; 'I' for Inactive)
ROOT
ATOM      1  C1  BNZ d   1       1.128  -1.070  -0.003  0.00  0.00     0.000 A 
ATOM      2  C2  BNZ d   1       2.342  -1.594   0.354  0.00  0.00     0.000 A 
ATOM      3  C3  BNZ d   1       3.400  -0.776   0.639  0.00  0.00     0.000 A 
ATOM      4  C4  BNZ d   1       3.254   0.560   0.530  0.00  0.00     0.000 A 
ATOM      5  C5  BNZ d   1       2.038   1.103   0.162  0.00  0.00     0.000 A 
ATOM      6  C6  BNZ d   1       0.965   0.278  -0.087  0.00  0.00     0.000 A 
ENDROOT
TORSDOF 0
ENDMDL
