MODEL 1
REMARK minimizedAffinity -3.95096636
REMARK minimizedRMSD -1
REMARK  0 active torsions:
REMARK  status: ('A' for Active; 'I' for Inactive)
ROOT
ATOM      1  C1  BNZ d   1       2.146  -2.212  -0.124  0.00  0.00     0.000 A 
ATOM      2  C2  BNZ d   1       2.782  -2.027   1.074  0.00  0.00     0.000 A 
ATOM      3  C3  BNZ d   1       2.573  -0.894   1.809  0.00  0.00     0.000 A 
ATOM      4  C4  BNZ d   1       1.760   0.069   1.328  0.00  0.00     0.000 A 
ATOM      5  C5  BNZ d   1       1.119  -0.099   0.117  0.00  0.00     0.000 A 
ATOM      6  C6  BNZ d   1       1.301  -1.258  -0.602  0.00  0.00     0.000 A 
ENDROOT
TORSDOF 0
ENDMDL
