MODEL 1
REMARK minimizedAffinity -4.56390047
REMARK minimizedRMSD -1
REMARK  0 active torsions:
REMARK  status: ('A' for Active; 'I' for Inactive)
ROOT
ATOM      1  C1  BNZ d   1       0.904  -0.223   0.966  0.00  0.00     0.000 A 
ATOM      2  C2  BNZ d   1       2.172  -0.694   1.180  0.00  0.00     0.000 A 
ATOM      3  C3  BNZ d   1       2.651  -1.762   0.474  0.00  0.00     0.000 A 
ATOM      4  C4  BNZ d   1       1.848  -2.382  -0.415  0.00  0.00     0.000 A 
ATOM      5  C5  BNZ d   1       0.564  -1.925  -0.636  0.00  0.00     0.000 A 
ATOM      6  C6  BNZ d   1       0.099  -0.826   0.049  0.00  0.00     0.000 A 
ENDROOT
TORSDOF 0
ENDMDL
