MODEL 1
REMARK minimizedAffinity -3.15363503
REMARK minimizedRMSD -1
REMARK  0 active torsions:
REMARK  status: ('A' for Active; 'I' for Inactive)
ROOT
ATOM      1  C1  BNZ d   1       1.661  -0.688   1.162  0.00  0.00     0.000 A 
ATOM      2  C2  BNZ d   1       2.097  -1.936   0.803  0.00  0.00     0.000 A 
ATOM      3  C3  BNZ d   1       1.659  -2.525  -0.350  0.00  0.00     0.000 A 
ATOM      4  C4  BNZ d   1       0.757  -1.884  -1.121  0.00  0.00     0.000 A 
ATOM      5  C5  BNZ d   1       0.301  -0.629  -0.768  0.00  0.00     0.000 A 
ATOM      6  C6  BNZ d   1       0.774  -0.023   0.374  0.00  0.00     0.000 A 
ENDROOT
TORSDOF 0
ENDMDL
