MODEL 1
REMARK minimizedAffinity -4.69487572
REMARK minimizedRMSD -1
REMARK  0 active torsions:
REMARK  status: ('A' for Active; 'I' for Inactive)
ROOT
ATOM      1  C1  BNZ d   1       1.987  -2.094  -0.277  0.00  0.00     0.000 A 
ATOM      2  C2  BNZ d   1       2.759  -1.623   0.750  0.00  0.00     0.000 A 
ATOM      3  C3  BNZ d   1       2.372  -0.528   1.472  0.00  0.00     0.000 A 
ATOM      4  C4  BNZ d   1       1.235   0.116   1.139  0.00  0.00     0.000 A 
ATOM      5  C5  BNZ d   1       0.450  -0.341   0.099  0.00  0.00     0.000 A 
ATOM      6  C6  BNZ d   1       0.823  -1.466  -0.599  0.00  0.00     0.000 A 
ENDROOT
TORSDOF 0
ENDMDL
