MODEL 1
REMARK minimizedAffinity -3.69994831
REMARK minimizedRMSD -1
REMARK  0 active torsions:
REMARK  status: ('A' for Active; 'I' for Inactive)
ROOT
ATOM      1  C1  BNZ d   1       1.457  -0.381   1.097  0.00  0.00     0.000 A 
ATOM      2  C2  BNZ d   1       0.304   0.026   0.479  0.00  0.00     0.000 A 
ATOM      3  C3  BNZ d   1      -0.121  -0.573  -0.674  0.00  0.00     0.000 A 
ATOM      4  C4  BNZ d   1       0.626  -1.549  -1.228  0.00  0.00     0.000 A 
ATOM      5  C5  BNZ d   1       1.795  -1.965  -0.622  0.00  0.00     0.000 A 
ATOM      6  C6  BNZ d   1       2.200  -1.386   0.559  0.00  0.00     0.000 A 
ENDROOT
TORSDOF 0
ENDMDL
