MODEL 1
REMARK minimizedAffinity -3.04011655
REMARK minimizedRMSD -1
REMARK  0 active torsions:
REMARK  status: ('A' for Active; 'I' for Inactive)
ROOT
ATOM      1  C1  BNZ d   1      -0.728  -0.664  -0.954  0.00  0.00     0.000 A 
ATOM      2  C2  BNZ d   1       0.453  -1.165  -0.474  0.00  0.00     0.000 A 
ATOM      3  C3  BNZ d   1       1.312  -0.373   0.235  0.00  0.00     0.000 A 
ATOM      4  C4  BNZ d   1       1.008   0.926   0.431  0.00  0.00     0.000 A 
ATOM      5  C5  BNZ d   1      -0.174   1.448  -0.054  0.00  0.00     0.000 A 
ATOM      6  C6  BNZ d   1      -1.055   0.638  -0.735  0.00  0.00     0.000 A 
ENDROOT
TORSDOF 0
ENDMDL
