MODEL 1
REMARK minimizedAffinity 5.14887285
REMARK minimizedRMSD -1
REMARK  0 active torsions:
REMARK  status: ('A' for Active; 'I' for Inactive)
ROOT
ATOM      1  C   UNL d   1       0.218  -0.556   0.389  0.00  0.00     0.124 A 
ATOM      2  C1  UNL d   1      -0.615   0.473  -0.026  0.00  0.00     0.062 A 
ATOM      3  C2  UNL d   1      -1.439   1.120   0.890  0.00  0.00     0.162 A 
ATOM      4  C3  UNL d   1      -1.432   0.741   2.233  0.00  0.00    -0.034 A 
ATOM      5  C4  UNL d   1      -0.592  -0.295   2.643  0.00  0.00     0.162 A 
ATOM      6  C5  UNL d   1       0.229  -0.939   1.723  0.00  0.00     0.062 A 
ATOM      7  F   UNL d   1       1.033  -1.934   2.127  0.00  0.00    -0.097 F 
ATOM      8  F1  UNL d   1      -0.561  -0.685   3.926  0.00  0.00    -0.096 F 
ATOM      9  I   UNL d   1      -2.662   1.707   3.606  0.00  0.00    -0.060 I 
ATOM     10  F2  UNL d   1      -2.234   2.112   0.460  0.00  0.00    -0.096 F 
ATOM     11  F3  UNL d   1      -0.628   0.844  -1.315  0.00  0.00    -0.097 F 
ATOM     12  F4  UNL d   1       1.008  -1.179  -0.495  0.00  0.00    -0.092 F 
ENDROOT
TORSDOF 0
ENDMDL
