MODEL 1
REMARK minimizedAffinity -0.135649368
REMARK minimizedRMSD -1
REMARK  0 active torsions:
REMARK  status: ('A' for Active; 'I' for Inactive)
ROOT
ATOM      1  C   UNL d   1      -1.253   0.724   1.020  0.00  0.00     0.124 A 
ATOM      2  C1  UNL d   1      -0.969   1.123  -0.278  0.00  0.00     0.062 A 
ATOM      3  C2  UNL d   1       0.198   0.693  -0.904  0.00  0.00     0.162 A 
ATOM      4  C3  UNL d   1       1.089  -0.143  -0.232  0.00  0.00    -0.034 A 
ATOM      5  C4  UNL d   1       0.797  -0.540   1.075  0.00  0.00     0.162 A 
ATOM      6  C5  UNL d   1      -0.370  -0.107   1.695  0.00  0.00     0.062 A 
ATOM      7  F   UNL d   1      -0.642  -0.493   2.950  0.00  0.00    -0.097 F 
ATOM      8  F1  UNL d   1       1.633  -1.343   1.750  0.00  0.00    -0.096 F 
ATOM      9  I   UNL d   1       2.835  -0.789  -1.163  0.00  0.00    -0.060 I 
ATOM     10  F2  UNL d   1       0.446   1.094  -2.159  0.00  0.00    -0.096 F 
ATOM     11  F3  UNL d   1      -1.820   1.927  -0.933  0.00  0.00    -0.097 F 
ATOM     12  F4  UNL d   1      -2.375   1.141   1.620  0.00  0.00    -0.092 F 
ENDROOT
TORSDOF 0
ENDMDL
