MODEL 1
REMARK minimizedAffinity 0.697447419
REMARK minimizedRMSD -1
REMARK  0 active torsions:
REMARK  status: ('A' for Active; 'I' for Inactive)
ROOT
ATOM      1  C   UNL d   1      -1.150  -1.138   0.848  0.00  0.00     0.124 A 
ATOM      2  C1  UNL d   1      -0.662  -2.189   0.084  0.00  0.00     0.062 A 
ATOM      3  C2  UNL d   1       0.218  -1.941  -0.965  0.00  0.00     0.162 A 
ATOM      4  C3  UNL d   1       0.617  -0.637  -1.256  0.00  0.00    -0.034 A 
ATOM      5  C4  UNL d   1       0.121   0.415  -0.483  0.00  0.00     0.162 A 
ATOM      6  C5  UNL d   1      -0.759   0.162   0.564  0.00  0.00     0.062 A 
ATOM      7  F   UNL d   1      -1.230   1.179   1.301  0.00  0.00    -0.097 F 
ATOM      8  F1  UNL d   1       0.484   1.681  -0.736  0.00  0.00    -0.096 F 
ATOM      9  I   UNL d   1       1.933  -0.262  -2.824  0.00  0.00    -0.060 I 
ATOM     10  F2  UNL d   1       0.674  -2.976  -1.687  0.00  0.00    -0.096 F 
ATOM     11  F3  UNL d   1      -1.040  -3.446   0.356  0.00  0.00    -0.097 F 
ATOM     12  F4  UNL d   1      -1.998  -1.380   1.857  0.00  0.00    -0.092 F 
ENDROOT
TORSDOF 0
ENDMDL
