MODEL 1
REMARK minimizedAffinity -1.8038249
REMARK minimizedRMSD -1
REMARK  0 active torsions:
REMARK  status: ('A' for Active; 'I' for Inactive)
ROOT
ATOM      1  C   UNL d   1       2.082  -0.273  -1.618  0.00  0.00     0.124 A 
ATOM      2  C1  UNL d   1       1.675  -1.390  -0.902  0.00  0.00     0.062 A 
ATOM      3  C2  UNL d   1       0.598  -1.305  -0.025  0.00  0.00     0.162 A 
ATOM      4  C3  UNL d   1      -0.081  -0.098   0.140  0.00  0.00    -0.034 A 
ATOM      5  C4  UNL d   1       0.335   1.021  -0.583  0.00  0.00     0.162 A 
ATOM      6  C5  UNL d   1       1.412   0.931  -1.458  0.00  0.00     0.062 A 
ATOM      7  F   UNL d   1       1.804   2.011  -2.149  0.00  0.00    -0.097 F 
ATOM      8  F1  UNL d   1      -0.296   2.198  -0.448  0.00  0.00    -0.096 F 
ATOM      9  I   UNL d   1      -1.693   0.034   1.451  0.00  0.00    -0.060 I 
ATOM     10  F2  UNL d   1       0.226  -2.401   0.654  0.00  0.00    -0.096 F 
ATOM     11  F3  UNL d   1       2.322  -2.555  -1.054  0.00  0.00    -0.097 F 
ATOM     12  F4  UNL d   1       3.120  -0.358  -2.461  0.00  0.00    -0.092 F 
ENDROOT
TORSDOF 0
ENDMDL
