MODEL 1
REMARK minimizedAffinity -5.58607674
REMARK minimizedRMSD -1
REMARK  0 active torsions:
REMARK  status: ('A' for Active; 'I' for Inactive)
ROOT
ATOM      1  C   UNL d   1      -1.874   1.030   3.506  0.00  0.00     0.124 A 
ATOM      2  C1  UNL d   1      -0.500   1.020   3.700  0.00  0.00     0.062 A 
ATOM      3  C2  UNL d   1       0.354   0.734   2.639  0.00  0.00     0.162 A 
ATOM      4  C3  UNL d   1      -0.164   0.456   1.374  0.00  0.00    -0.034 A 
ATOM      5  C4  UNL d   1      -1.547   0.467   1.187  0.00  0.00     0.162 A 
ATOM      6  C5  UNL d   1      -2.397   0.754   2.251  0.00  0.00     0.062 A 
ATOM      7  F   UNL d   1      -3.724   0.764   2.062  0.00  0.00    -0.097 F 
ATOM      8  F1  UNL d   1      -2.079   0.205  -0.016  0.00  0.00    -0.096 F 
ATOM      9  I   UNL d   1       1.110   0.027  -0.216  0.00  0.00    -0.060 I 
ATOM     10  F2  UNL d   1       1.678   0.730   2.854  0.00  0.00    -0.096 F 
ATOM     11  F3  UNL d   1       0.007   1.286   4.912  0.00  0.00    -0.097 F 
ATOM     12  F4  UNL d   1      -2.694   1.305   4.529  0.00  0.00    -0.092 F 
ENDROOT
TORSDOF 0
ENDMDL
