MODEL 1
REMARK minimizedAffinity -3.482651
REMARK minimizedRMSD -1
REMARK  0 active torsions:
REMARK  status: ('A' for Active; 'I' for Inactive)
ROOT
ATOM      1  C   UNL d   1       1.809   0.378  -2.761  0.00  0.00     0.124 A 
ATOM      2  C1  UNL d   1       0.844   1.372  -2.677  0.00  0.00     0.062 A 
ATOM      3  C2  UNL d   1      -0.131   1.319  -1.685  0.00  0.00     0.162 A 
ATOM      4  C3  UNL d   1      -0.145   0.268  -0.768  0.00  0.00    -0.034 A 
ATOM      5  C4  UNL d   1       0.828  -0.728  -0.859  0.00  0.00     0.162 A 
ATOM      6  C5  UNL d   1       1.800  -0.671  -1.853  0.00  0.00     0.062 A 
ATOM      7  F   UNL d   1       2.732  -1.632  -1.933  0.00  0.00    -0.097 F 
ATOM      8  F1  UNL d   1       0.844  -1.753   0.006  0.00  0.00    -0.096 F 
ATOM      9  I   UNL d   1      -1.601   0.185   0.717  0.00  0.00    -0.060 I 
ATOM     10  F2  UNL d   1      -1.051   2.293  -1.627  0.00  0.00    -0.096 F 
ATOM     11  F3  UNL d   1       0.849   2.386  -3.554  0.00  0.00    -0.097 F 
ATOM     12  F4  UNL d   1       2.745   0.431  -3.718  0.00  0.00    -0.092 F 
ENDROOT
TORSDOF 0
ENDMDL
