MODEL 1
REMARK minimizedAffinity -5.49500179
REMARK minimizedRMSD -1
REMARK  0 active torsions:
REMARK  status: ('A' for Active; 'I' for Inactive)
ROOT
ATOM      1  C   UNL d   1       1.121   0.986  -2.386  0.00  0.00     0.124 A 
ATOM      2  C1  UNL d   1       2.227   0.221  -2.040  0.00  0.00     0.062 A 
ATOM      3  C2  UNL d   1       2.229  -0.509  -0.854  0.00  0.00     0.162 A 
ATOM      4  C3  UNL d   1       1.122  -0.478  -0.007  0.00  0.00    -0.034 A 
ATOM      5  C4  UNL d   1       0.014   0.294  -0.362  0.00  0.00     0.162 A 
ATOM      6  C5  UNL d   1       0.017   1.021  -1.547  0.00  0.00     0.062 A 
ATOM      7  F   UNL d   1      -1.052   1.760  -1.881  0.00  0.00    -0.097 F 
ATOM      8  F1  UNL d   1      -1.067   0.346   0.430  0.00  0.00    -0.096 F 
ATOM      9  I   UNL d   1       1.122  -1.568   1.766  0.00  0.00    -0.060 I 
ATOM     10  F2  UNL d   1       3.311  -1.239  -0.545  0.00  0.00    -0.096 F 
ATOM     11  F3  UNL d   1       3.296   0.185  -2.848  0.00  0.00    -0.097 F 
ATOM     12  F4  UNL d   1       1.122   1.687  -3.527  0.00  0.00    -0.092 F 
ENDROOT
TORSDOF 0
ENDMDL
