MODEL 1
REMARK minimizedAffinity -1.14181519
REMARK minimizedRMSD -1
REMARK  0 active torsions:
REMARK  status: ('A' for Active; 'I' for Inactive)
ROOT
ATOM      1  C   UNL d   1       1.802  -0.094  -2.241  0.00  0.00     0.124 A 
ATOM      2  C1  UNL d   1       1.652  -1.091  -1.287  0.00  0.00     0.062 A 
ATOM      3  C2  UNL d   1       0.588  -1.046  -0.390  0.00  0.00     0.162 A 
ATOM      4  C3  UNL d   1      -0.334  -0.001  -0.444  0.00  0.00    -0.034 A 
ATOM      5  C4  UNL d   1      -0.175   0.998  -1.406  0.00  0.00     0.162 A 
ATOM      6  C5  UNL d   1       0.889   0.949  -2.300  0.00  0.00     0.062 A 
ATOM      7  F   UNL d   1       1.033   1.912  -3.222  0.00  0.00    -0.097 F 
ATOM      8  F1  UNL d   1      -1.044   2.017  -1.485  0.00  0.00    -0.096 F 
ATOM      9  I   UNL d   1      -1.925   0.070   0.896  0.00  0.00    -0.060 I 
ATOM     10  F2  UNL d   1       0.468  -2.022   0.522  0.00  0.00    -0.096 F 
ATOM     11  F3  UNL d   1       2.533  -2.099  -1.227  0.00  0.00    -0.097 F 
ATOM     12  F4  UNL d   1       2.827  -0.140  -3.103  0.00  0.00    -0.092 F 
ENDROOT
TORSDOF 0
ENDMDL
