MODEL 1
REMARK minimizedAffinity 1.23717928
REMARK minimizedRMSD -1
REMARK  0 active torsions:
REMARK  status: ('A' for Active; 'I' for Inactive)
ROOT
ATOM      1  C   UNL d   1       1.429  -1.410  -0.703  0.00  0.00     0.124 A 
ATOM      2  C1  UNL d   1       2.202  -0.406  -0.135  0.00  0.00     0.062 A 
ATOM      3  C2  UNL d   1       1.616   0.537   0.704  0.00  0.00     0.162 A 
ATOM      4  C3  UNL d   1       0.250   0.481   0.982  0.00  0.00    -0.034 A 
ATOM      5  C4  UNL d   1      -0.520  -0.531   0.406  0.00  0.00     0.162 A 
ATOM      6  C5  UNL d   1       0.070  -1.471  -0.432  0.00  0.00     0.062 A 
ATOM      7  F   UNL d   1      -0.678  -2.441  -0.979  0.00  0.00    -0.097 F 
ATOM      8  F1  UNL d   1      -1.836  -0.614   0.652  0.00  0.00    -0.096 F 
ATOM      9  I   UNL d   1      -0.629   1.890   2.236  0.00  0.00    -0.060 I 
ATOM     10  F2  UNL d   1       2.387   1.496   1.239  0.00  0.00    -0.096 F 
ATOM     11  F3  UNL d   1       3.515  -0.344  -0.396  0.00  0.00    -0.097 F 
ATOM     12  F4  UNL d   1       1.995  -2.316  -1.510  0.00  0.00    -0.092 F 
ENDROOT
TORSDOF 0
ENDMDL
