MODEL 1
REMARK minimizedAffinity -1.43764412
REMARK minimizedRMSD -1
REMARK  0 active torsions:
REMARK  status: ('A' for Active; 'I' for Inactive)
ROOT
ATOM      1  C   UNL d   1       1.744   0.020  -0.975  0.00  0.00     0.124 A 
ATOM      2  C1  UNL d   1       1.803  -0.730   0.191  0.00  0.00     0.062 A 
ATOM      3  C2  UNL d   1       0.721  -0.750   1.067  0.00  0.00     0.162 A 
ATOM      4  C3  UNL d   1      -0.431  -0.017   0.779  0.00  0.00    -0.034 A 
ATOM      5  C4  UNL d   1      -0.482   0.736  -0.396  0.00  0.00     0.162 A 
ATOM      6  C5  UNL d   1       0.602   0.752  -1.267  0.00  0.00     0.062 A 
ATOM      7  F   UNL d   1       0.543   1.478  -2.393  0.00  0.00    -0.097 F 
ATOM      8  F1  UNL d   1      -1.574   1.452  -0.703  0.00  0.00    -0.096 F 
ATOM      9  I   UNL d   1      -2.051  -0.044   2.085  0.00  0.00    -0.060 I 
ATOM     10  F2  UNL d   1       0.805  -1.484   2.186  0.00  0.00    -0.096 F 
ATOM     11  F3  UNL d   1       2.905  -1.438   0.476  0.00  0.00    -0.097 F 
ATOM     12  F4  UNL d   1       2.787   0.038  -1.815  0.00  0.00    -0.092 F 
ENDROOT
TORSDOF 0
ENDMDL
