MODEL 1
REMARK minimizedAffinity -3.76455188
REMARK minimizedRMSD -1
REMARK  0 active torsions:
REMARK  status: ('A' for Active; 'I' for Inactive)
ROOT
ATOM      1  C   UNL d   1       2.587   0.271  -1.951  0.00  0.00     0.124 A 
ATOM      2  C1  UNL d   1       1.633   1.271  -2.081  0.00  0.00     0.062 A 
ATOM      3  C2  UNL d   1       0.449   1.207  -1.354  0.00  0.00     0.162 A 
ATOM      4  C3  UNL d   1       0.210   0.140  -0.488  0.00  0.00    -0.034 A 
ATOM      5  C4  UNL d   1       1.174  -0.863  -0.363  0.00  0.00     0.162 A 
ATOM      6  C5  UNL d   1       2.356  -0.795  -1.092  0.00  0.00     0.062 A 
ATOM      7  F   UNL d   1       3.276  -1.762  -0.965  0.00  0.00    -0.097 F 
ATOM      8  F1  UNL d   1       0.977  -1.904   0.460  0.00  0.00    -0.096 F 
ATOM      9  I   UNL d   1      -1.560   0.041   0.602  0.00  0.00    -0.060 I 
ATOM     10  F2  UNL d   1      -0.455   2.188  -1.499  0.00  0.00    -0.096 F 
ATOM     11  F3  UNL d   1       1.853   2.301  -2.911  0.00  0.00    -0.097 F 
ATOM     12  F4  UNL d   1       3.726   0.334  -2.653  0.00  0.00    -0.092 F 
ENDROOT
TORSDOF 0
ENDMDL
