MODEL 1
REMARK minimizedAffinity 7.15919304
REMARK minimizedRMSD -1
REMARK  0 active torsions:
REMARK  status: ('A' for Active; 'I' for Inactive)
ROOT
ATOM      1  C   UNL d   1      -1.505   0.679   3.629  0.00  0.00     0.124 A 
ATOM      2  C1  UNL d   1      -1.961   0.011   2.501  0.00  0.00     0.062 A 
ATOM      3  C2  UNL d   1      -1.285   0.139   1.291  0.00  0.00     0.162 A 
ATOM      4  C3  UNL d   1      -0.145   0.938   1.203  0.00  0.00    -0.034 A 
ATOM      5  C4  UNL d   1       0.307   1.608   2.342  0.00  0.00     0.162 A 
ATOM      6  C5  UNL d   1      -0.372   1.476   3.549  0.00  0.00     0.062 A 
ATOM      7  F   UNL d   1       0.070   2.122   4.638  0.00  0.00    -0.097 F 
ATOM      8  F1  UNL d   1       1.400   2.384   2.292  0.00  0.00    -0.096 F 
ATOM      9  I   UNL d   1       0.868   1.133  -0.605  0.00  0.00    -0.060 I 
ATOM     10  F2  UNL d   1      -1.748  -0.517   0.217  0.00  0.00    -0.096 F 
ATOM     11  F3  UNL d   1      -3.056  -0.759   2.576  0.00  0.00    -0.097 F 
ATOM     12  F4  UNL d   1      -2.158   0.555   4.792  0.00  0.00    -0.092 F 
ENDROOT
TORSDOF 0
ENDMDL
