MODEL 1
REMARK minimizedAffinity -0.628965437
REMARK minimizedRMSD -1
REMARK  0 active torsions:
REMARK  status: ('A' for Active; 'I' for Inactive)
ROOT
ATOM      1  C   UNL d   1      -1.315  -0.644   0.255  0.00  0.00     0.124 A 
ATOM      2  C1  UNL d   1      -0.757   0.582  -0.078  0.00  0.00     0.062 A 
ATOM      3  C2  UNL d   1       0.572   0.659  -0.484  0.00  0.00     0.162 A 
ATOM      4  C3  UNL d   1       1.353  -0.494  -0.559  0.00  0.00    -0.034 A 
ATOM      5  C4  UNL d   1       0.786  -1.724  -0.221  0.00  0.00     0.162 A 
ATOM      6  C5  UNL d   1      -0.543  -1.796   0.183  0.00  0.00     0.062 A 
ATOM      7  F   UNL d   1      -1.081  -2.982   0.504  0.00  0.00    -0.097 F 
ATOM      8  F1  UNL d   1       1.508  -2.852  -0.283  0.00  0.00    -0.096 F 
ATOM      9  I   UNL d   1       3.342  -0.382  -1.164  0.00  0.00    -0.060 I 
ATOM     10  F2  UNL d   1       1.085   1.858  -0.800  0.00  0.00    -0.096 F 
ATOM     11  F3  UNL d   1      -1.500   1.696  -0.009  0.00  0.00    -0.097 F 
ATOM     12  F4  UNL d   1      -2.594  -0.716   0.645  0.00  0.00    -0.092 F 
ENDROOT
TORSDOF 0
ENDMDL
