MODEL 1
REMARK minimizedAffinity 5.09511709
REMARK minimizedRMSD -1
REMARK  0 active torsions:
REMARK  status: ('A' for Active; 'I' for Inactive)
ROOT
ATOM      1  C   UNL d   1       0.342  -2.236  -0.407  0.00  0.00    -0.002 A 
ATOM      2  C1  UNL d   1       1.642  -2.630  -0.690  0.00  0.00     0.010 A 
ATOM      3  C2  UNL d   1       2.682  -1.698  -0.692  0.00  0.00     0.041 A 
ATOM      4  C3  UNL d   1       2.391  -0.351  -0.400  0.00  0.00    -0.075 A 
ATOM      5  S   UNL d   1       3.504   0.964  -0.343  0.00  0.00     0.015 SA
ATOM      6  C4  UNL d   1       2.281   2.080   0.059  0.00  0.00     0.022 A 
ATOM      7  C5  UNL d   1       1.047   1.481   0.152  0.00  0.00     0.026 A 
ATOM      8  C6  UNL d   1       1.090   0.070  -0.111  0.00  0.00    -0.082 A 
ATOM      9  C7  UNL d   1       0.057  -0.899  -0.117  0.00  0.00     0.045 A 
ENDROOT
TORSDOF 0
ENDMDL
