MODEL 1
REMARK minimizedAffinity -0.397150338
REMARK minimizedRMSD -1
REMARK  0 active torsions:
REMARK  status: ('A' for Active; 'I' for Inactive)
ROOT
ATOM      1  C   UNL d   1       1.263  -1.873  -0.373  0.00  0.00    -0.002 A 
ATOM      2  C1  UNL d   1       0.366  -0.833  -0.174  0.00  0.00     0.010 A 
ATOM      3  C2  UNL d   1       0.811   0.490  -0.133  0.00  0.00     0.041 A 
ATOM      4  C3  UNL d   1       2.186   0.752  -0.298  0.00  0.00    -0.075 A 
ATOM      5  S   UNL d   1       2.959   2.293  -0.285  0.00  0.00     0.015 SA
ATOM      6  C4  UNL d   1       4.497   1.607  -0.545  0.00  0.00     0.022 A 
ATOM      7  C5  UNL d   1       4.441   0.236  -0.641  0.00  0.00     0.026 A 
ATOM      8  C6  UNL d   1       3.107  -0.279  -0.501  0.00  0.00    -0.082 A 
ATOM      9  C7  UNL d   1       2.625  -1.609  -0.537  0.00  0.00     0.045 A 
ENDROOT
TORSDOF 0
ENDMDL
