MODEL 1
REMARK minimizedAffinity 6.25098324
REMARK minimizedRMSD -1
REMARK  0 active torsions:
REMARK  status: ('A' for Active; 'I' for Inactive)
ROOT
ATOM      1  C   UNL d   1       1.172  -1.788  -0.806  0.00  0.00    -0.002 A 
ATOM      2  C1  UNL d   1       0.397  -0.808  -0.201  0.00  0.00     0.010 A 
ATOM      3  C2  UNL d   1       0.896   0.484  -0.025  0.00  0.00     0.041 A 
ATOM      4  C3  UNL d   1       2.200   0.778  -0.472  0.00  0.00    -0.075 A 
ATOM      5  S   UNL d   1       3.020   2.290  -0.363  0.00  0.00     0.015 SA
ATOM      6  C4  UNL d   1       4.418   1.672  -1.116  0.00  0.00     0.022 A 
ATOM      7  C5  UNL d   1       4.279   0.345  -1.450  0.00  0.00     0.026 A 
ATOM      8  C6  UNL d   1       2.999  -0.192  -1.084  0.00  0.00    -0.082 A 
ATOM      9  C7  UNL d   1       2.464  -1.493  -1.248  0.00  0.00     0.045 A 
ENDROOT
TORSDOF 0
ENDMDL
