MODEL 1
REMARK minimizedAffinity -2.12782359
REMARK minimizedRMSD -1
REMARK  0 active torsions:
REMARK  status: ('A' for Active; 'I' for Inactive)
ROOT
ATOM      1  C2' OXE d   1       0.532  -1.671   1.683  0.00  0.00     0.078 C 
ATOM      2  C1' OXE d   1       2.187   0.597   1.650  0.00  0.00     0.078 C 
ATOM      3  C1  OXE d   1       0.991   0.585   0.731  0.00  0.00    -0.078 A 
ATOM      4  C2  OXE d   1       0.213  -0.548   0.720  0.00  0.00    -0.078 A 
ATOM      5  C3  OXE d   1      -0.933  -0.589  -0.069  0.00  0.00     0.003 A 
ATOM      6  C4  OXE d   1      -1.215   0.449  -0.964  0.00  0.00    -0.002 A 
ATOM      7  C5  OXE d   1      -0.414   1.595  -0.998  0.00  0.00    -0.002 A 
ATOM      8  C6  OXE d   1       0.666   1.697  -0.128  0.00  0.00     0.003 A 
ENDROOT
TORSDOF 0
ENDMDL
