MODEL 1
REMARK minimizedAffinity -1.07578397
REMARK minimizedRMSD -1
REMARK  0 active torsions:
REMARK  status: ('A' for Active; 'I' for Inactive)
ROOT
ATOM      1  C2' OXE d   1       2.690   0.618   1.486  0.00  0.00     0.078 C 
ATOM      2  C1' OXE d   1       0.932   2.384   0.193  0.00  0.00     0.078 C 
ATOM      3  C1  OXE d   1       0.473   0.962   0.403  0.00  0.00    -0.078 A 
ATOM      4  C2  OXE d   1       1.359   0.093   0.994  0.00  0.00    -0.078 A 
ATOM      5  C3  OXE d   1       0.966  -1.215   1.261  0.00  0.00     0.003 A 
ATOM      6  C4  OXE d   1      -0.264  -1.695   0.795  0.00  0.00    -0.002 A 
ATOM      7  C5  OXE d   1      -1.164  -0.837   0.155  0.00  0.00    -0.002 A 
ATOM      8  C6  OXE d   1      -0.829   0.502  -0.011  0.00  0.00     0.003 A 
ENDROOT
TORSDOF 0
ENDMDL
