MODEL 1
REMARK minimizedAffinity -4.61707544
REMARK minimizedRMSD -1
REMARK  0 active torsions:
REMARK  status: ('A' for Active; 'I' for Inactive)
ROOT
ATOM      1  C2' OXE d   1      -0.017   0.628  -0.041  0.00  0.00     0.078 C 
ATOM      2  C1' OXE d   1       1.091   0.757  -2.617  0.00  0.00     0.078 C 
ATOM      3  C1  OXE d   1      -0.381   0.448  -2.499  0.00  0.00    -0.078 A 
ATOM      4  C2  OXE d   1      -0.904   0.340  -1.233  0.00  0.00    -0.078 A 
ATOM      5  C3  OXE d   1      -2.267   0.111  -1.068  0.00  0.00     0.003 A 
ATOM      6  C4  OXE d   1      -3.079  -0.164  -2.175  0.00  0.00    -0.002 A 
ATOM      7  C5  OXE d   1      -2.558  -0.098  -3.471  0.00  0.00    -0.002 A 
ATOM      8  C6  OXE d   1      -1.223   0.247  -3.652  0.00  0.00     0.003 A 
ENDROOT
TORSDOF 0
ENDMDL
