MODEL 1
REMARK minimizedAffinity 0.971570611
REMARK minimizedRMSD -1
REMARK  0 active torsions:
REMARK  status: ('A' for Active; 'I' for Inactive)
ROOT
ATOM      1  C2' OXE d   1       2.412   0.986   1.005  0.00  0.00     0.078 C 
ATOM      2  C1' OXE d   1       1.124   2.867  -0.633  0.00  0.00     0.078 C 
ATOM      3  C1  OXE d   1       0.414   1.563  -0.366  0.00  0.00    -0.078 A 
ATOM      4  C2  OXE d   1       1.072   0.630   0.398  0.00  0.00    -0.078 A 
ATOM      5  C3  OXE d   1       0.439  -0.567   0.720  0.00  0.00     0.003 A 
ATOM      6  C4  OXE d   1      -0.796  -0.893   0.146  0.00  0.00    -0.002 A 
ATOM      7  C5  OXE d   1      -1.465   0.027  -0.668  0.00  0.00    -0.002 A 
ATOM      8  C6  OXE d   1      -0.895   1.274  -0.899  0.00  0.00     0.003 A 
ENDROOT
TORSDOF 0
ENDMDL
