MODEL 1
REMARK minimizedAffinity -1.50230372
REMARK minimizedRMSD -1
REMARK  0 active torsions:
REMARK  status: ('A' for Active; 'I' for Inactive)
ROOT
ATOM      1  C2' OXE d   1       2.918  -0.511   0.214  0.00  0.00     0.078 C 
ATOM      2  C1' OXE d   1       1.673   1.973   0.607  0.00  0.00     0.078 C 
ATOM      3  C1  OXE d   1       0.793   0.786   0.303  0.00  0.00    -0.078 A 
ATOM      4  C2  OXE d   1       1.415  -0.416   0.066  0.00  0.00    -0.078 A 
ATOM      5  C3  OXE d   1       0.648  -1.555  -0.165  0.00  0.00     0.003 A 
ATOM      6  C4  OXE d   1      -0.741  -1.456  -0.310  0.00  0.00    -0.002 A 
ATOM      7  C5  OXE d   1      -1.391  -0.233  -0.112  0.00  0.00    -0.002 A 
ATOM      8  C6  OXE d   1      -0.644   0.887   0.237  0.00  0.00     0.003 A 
ENDROOT
TORSDOF 0
ENDMDL
