MODEL 1
REMARK minimizedAffinity -4.04713678
REMARK minimizedRMSD -1
REMARK  0 active torsions:
REMARK  status: ('A' for Active; 'I' for Inactive)
ROOT
ATOM      1  C2' OXE d   1       1.313   1.830   0.082  0.00  0.00     0.078 C 
ATOM      2  C1' OXE d   1      -1.068   0.353  -0.082  0.00  0.00     0.078 C 
ATOM      3  C1  OXE d   1       0.029  -0.178   0.806  0.00  0.00    -0.078 A 
ATOM      4  C2  OXE d   1       1.208   0.527   0.844  0.00  0.00    -0.078 A 
ATOM      5  C3  OXE d   1       2.234   0.111   1.689  0.00  0.00     0.003 A 
ATOM      6  C4  OXE d   1       2.133  -1.101   2.382  0.00  0.00    -0.002 A 
ATOM      7  C5  OXE d   1       0.956  -1.855   2.327  0.00  0.00    -0.002 A 
ATOM      8  C6  OXE d   1      -0.119  -1.387   1.579  0.00  0.00     0.003 A 
ENDROOT
TORSDOF 0
ENDMDL
