MODEL 1
REMARK minimizedAffinity -0.12178009
REMARK minimizedRMSD -1
REMARK  0 active torsions:
REMARK  status: ('A' for Active; 'I' for Inactive)
ROOT
ATOM      1  C2' OXE d   1      -2.626  -1.885  -2.145  0.00  0.00     0.078 C 
ATOM      2  C1' OXE d   1      -1.910  -0.170  -0.041  0.00  0.00     0.078 C 
ATOM      3  C1  OXE d   1      -2.512   0.448  -1.279  0.00  0.00    -0.078 A 
ATOM      4  C2  OXE d   1      -2.817  -0.394  -2.321  0.00  0.00    -0.078 A 
ATOM      5  C3  OXE d   1      -3.425   0.117  -3.464  0.00  0.00     0.003 A 
ATOM      6  C4  OXE d   1      -3.589   1.499  -3.623  0.00  0.00    -0.002 A 
ATOM      7  C5  OXE d   1      -3.249   2.377  -2.589  0.00  0.00    -0.002 A 
ATOM      8  C6  OXE d   1      -2.750   1.865  -1.396  0.00  0.00     0.003 A 
ENDROOT
TORSDOF 0
ENDMDL
