MODEL 1
REMARK minimizedAffinity -2.23395276
REMARK minimizedRMSD -1
REMARK  0 active torsions:
REMARK  status: ('A' for Active; 'I' for Inactive)
ROOT
ATOM      1  C2' OXE d   1      -2.605  -1.328  -2.799  0.00  0.00     0.078 C 
ATOM      2  C1' OXE d   1      -2.664   1.472  -2.607  0.00  0.00     0.078 C 
ATOM      3  C1  OXE d   1      -1.677   0.729  -1.743  0.00  0.00    -0.078 A 
ATOM      4  C2  OXE d   1      -1.687  -0.644  -1.809  0.00  0.00    -0.078 A 
ATOM      5  C3  OXE d   1      -0.759  -1.376  -1.074  0.00  0.00     0.003 A 
ATOM      6  C4  OXE d   1       0.079  -0.737  -0.153  0.00  0.00    -0.002 A 
ATOM      7  C5  OXE d   1       0.078   0.657  -0.041  0.00  0.00    -0.002 A 
ATOM      8  C6  OXE d   1      -0.762   1.406  -0.857  0.00  0.00     0.003 A 
ENDROOT
TORSDOF 0
ENDMDL
