MODEL 1
REMARK minimizedAffinity -3.82003903
REMARK minimizedRMSD -1
REMARK  0 active torsions:
REMARK  status: ('A' for Active; 'I' for Inactive)
ROOT
ATOM      1  C2' OXE d   1      -1.708  -0.788   1.101  0.00  0.00     0.078 C 
ATOM      2  C1' OXE d   1      -1.689   0.994  -1.069  0.00  0.00     0.078 C 
ATOM      3  C1  OXE d   1      -0.373   0.689  -0.397  0.00  0.00    -0.078 A 
ATOM      4  C2  OXE d   1      -0.399  -0.147   0.693  0.00  0.00    -0.078 A 
ATOM      5  C3  OXE d   1       0.794  -0.505   1.316  0.00  0.00     0.003 A 
ATOM      6  C4  OXE d   1       1.999   0.100   0.940  0.00  0.00    -0.002 A 
ATOM      7  C5  OXE d   1       2.041   0.985  -0.143  0.00  0.00    -0.002 A 
ATOM      8  C6  OXE d   1       0.874   1.257  -0.847  0.00  0.00     0.003 A 
ENDROOT
TORSDOF 0
ENDMDL
