MODEL 1
REMARK minimizedAffinity -1.30858994
REMARK minimizedRMSD -1
REMARK  0 active torsions:
REMARK  status: ('A' for Active; 'I' for Inactive)
ROOT
ATOM      1  C2' OXE d   1      -0.254  -1.542  -1.097  0.00  0.00     0.078 C 
ATOM      2  C1' OXE d   1      -0.989   0.735   0.372  0.00  0.00     0.078 C 
ATOM      3  C1  OXE d   1      -1.712   0.471  -0.925  0.00  0.00    -0.078 A 
ATOM      4  C2  OXE d   1      -1.314  -0.620  -1.661  0.00  0.00    -0.078 A 
ATOM      5  C3  OXE d   1      -1.984  -0.939  -2.838  0.00  0.00     0.003 A 
ATOM      6  C4  OXE d   1      -2.956  -0.076  -3.357  0.00  0.00    -0.002 A 
ATOM      7  C5  OXE d   1      -3.349   1.062  -2.644  0.00  0.00    -0.002 A 
ATOM      8  C6  OXE d   1      -2.768   1.326  -1.408  0.00  0.00     0.003 A 
ENDROOT
TORSDOF 0
ENDMDL
