MODEL 1
REMARK minimizedAffinity -1.92311704
REMARK minimizedRMSD -1
REMARK  0 active torsions:
REMARK  status: ('A' for Active; 'I' for Inactive)
ROOT
ATOM      1  C2' OXE d   1       0.660   2.409  -0.025  0.00  0.00     0.078 C 
ATOM      2  C1' OXE d   1       2.427   0.629   1.235  0.00  0.00     0.078 C 
ATOM      3  C1  OXE d   1       1.031   0.142   0.936  0.00  0.00    -0.078 A 
ATOM      4  C2  OXE d   1       0.159   1.035   0.362  0.00  0.00    -0.078 A 
ATOM      5  C3  OXE d   1      -1.124   0.620   0.015  0.00  0.00     0.003 A 
ATOM      6  C4  OXE d   1      -1.583  -0.650   0.386  0.00  0.00    -0.002 A 
ATOM      7  C5  OXE d   1      -0.723  -1.562   1.008  0.00  0.00    -0.002 A 
ATOM      8  C6  OXE d   1       0.597  -1.197   1.251  0.00  0.00     0.003 A 
ENDROOT
TORSDOF 0
ENDMDL
