MODEL 1
REMARK minimizedAffinity -2.72493577
REMARK minimizedRMSD -1
REMARK  0 active torsions:
REMARK  status: ('A' for Active; 'I' for Inactive)
ROOT
ATOM      1  C2' OXE d   1      -0.828   1.685  -0.898  0.00  0.00     0.078 C 
ATOM      2  C1' OXE d   1       1.824   2.440  -1.426  0.00  0.00     0.078 C 
ATOM      3  C1  OXE d   1       1.597   1.254  -0.522  0.00  0.00    -0.078 A 
ATOM      4  C2  OXE d   1       0.296   0.921  -0.232  0.00  0.00    -0.078 A 
ATOM      5  C3  OXE d   1       0.030  -0.198   0.553  0.00  0.00     0.003 A 
ATOM      6  C4  OXE d   1       1.075  -0.894   1.173  0.00  0.00    -0.002 A 
ATOM      7  C5  OXE d   1       2.407  -0.546   0.922  0.00  0.00    -0.002 A 
ATOM      8  C6  OXE d   1       2.685   0.497   0.046  0.00  0.00     0.003 A 
ENDROOT
TORSDOF 0
ENDMDL
