MODEL 1
REMARK minimizedAffinity -5.23707962
REMARK minimizedRMSD -1
REMARK  1 active torsions:
REMARK  status: ('A' for Active; 'I' for Inactive)
REMARK    1  A    between atoms: C3_4  and  O_7 
ROOT
ATOM      1  C   UNL d   1      -1.115   3.135   0.674  0.00  0.00    -0.033 A 
ATOM      2  C1  UNL d   1      -1.067   2.914  -0.704  0.00  0.00     0.039 A 
ATOM      3  C2  UNL d   1      -0.704   1.660  -1.199  0.00  0.00    -0.080 A 
ATOM      4  C3  UNL d   1      -0.393   0.637  -0.308  0.00  0.00     0.150 A 
ATOM      5  C4  UNL d   1      -0.442   0.849   1.066  0.00  0.00    -0.007 A 
ATOM      6  C5  UNL d   1      -0.804   2.102   1.559  0.00  0.00     0.039 A 
ENDROOT
BRANCH   4   7
ATOM      7  O   UNL d   1      -0.029  -0.603  -0.744  0.00  0.00    -0.526 OA
ATOM      8  H5  UNL d   1      -0.011  -0.594  -1.716  0.00  0.00     0.418 HD
ENDBRANCH   4   7
TORSDOF 1
ENDMDL
