MODEL 1
REMARK minimizedAffinity -4.91682529
REMARK minimizedRMSD -1
REMARK  1 active torsions:
REMARK  status: ('A' for Active; 'I' for Inactive)
REMARK    1  A    between atoms: C3_4  and  O_7 
ROOT
ATOM      1  C   UNL d   1      -0.942   1.994   1.863  0.00  0.00    -0.033 A 
ATOM      2  C1  UNL d   1      -0.184   1.008   2.498  0.00  0.00     0.039 A 
ATOM      3  C2  UNL d   1       0.335  -0.059   1.761  0.00  0.00    -0.080 A 
ATOM      4  C3  UNL d   1       0.090  -0.127   0.392  0.00  0.00     0.150 A 
ATOM      5  C4  UNL d   1      -0.660   0.854  -0.248  0.00  0.00    -0.007 A 
ATOM      6  C5  UNL d   1      -1.179   1.918   0.490  0.00  0.00     0.039 A 
ENDROOT
BRANCH   4   7
ATOM      7  O   UNL d   1       0.572  -1.151  -0.368  0.00  0.00    -0.526 OA
ATOM      8  H5  UNL d   1       1.047  -1.768   0.213  0.00  0.00     0.418 HD
ENDBRANCH   4   7
TORSDOF 1
ENDMDL
