MODEL 1
REMARK minimizedAffinity -4.21990871
REMARK minimizedRMSD -1
REMARK  1 active torsions:
REMARK  status: ('A' for Active; 'I' for Inactive)
REMARK    1  A    between atoms: C3_4  and  O_7 
ROOT
ATOM      1  C   UNL d   1      -1.169   2.415   0.370  0.00  0.00    -0.033 A 
ATOM      2  C1  UNL d   1      -0.486   2.724   1.548  0.00  0.00     0.039 A 
ATOM      3  C2  UNL d   1       0.408   1.805   2.100  0.00  0.00    -0.080 A 
ATOM      4  C3  UNL d   1       0.611   0.583   1.465  0.00  0.00     0.150 A 
ATOM      5  C4  UNL d   1      -0.063   0.270   0.289  0.00  0.00    -0.007 A 
ATOM      6  C5  UNL d   1      -0.957   1.188  -0.260  0.00  0.00     0.039 A 
ENDROOT
BRANCH   4   7
ATOM      7  O   UNL d   1       1.471  -0.348   1.968  0.00  0.00    -0.526 OA
ATOM      8  H5  UNL d   1       1.843  -0.006   2.798  0.00  0.00     0.418 HD
ENDBRANCH   4   7
TORSDOF 1
ENDMDL
