MODEL 1
REMARK minimizedAffinity -5.0262394
REMARK minimizedRMSD -1
REMARK  1 active torsions:
REMARK  status: ('A' for Active; 'I' for Inactive)
REMARK    1  A    between atoms: C3_4  and  O_7 
ROOT
ATOM      1  C   UNL d   1      -1.077   2.181   1.176  0.00  0.00    -0.033 A 
ATOM      2  C1  UNL d   1      -0.407   1.227   1.944  0.00  0.00     0.039 A 
ATOM      3  C2  UNL d   1       0.052   0.048   1.353  0.00  0.00    -0.080 A 
ATOM      4  C3  UNL d   1      -0.165  -0.164  -0.006  0.00  0.00     0.150 A 
ATOM      5  C4  UNL d   1      -0.828   0.784  -0.778  0.00  0.00    -0.007 A 
ATOM      6  C5  UNL d   1      -1.286   1.960  -0.186  0.00  0.00     0.039 A 
ENDROOT
BRANCH   4   7
ATOM      7  O   UNL d   1       0.260  -1.301  -0.627  0.00  0.00    -0.526 OA
ATOM      8  H5  UNL d   1       0.676  -1.876   0.037  0.00  0.00     0.418 HD
ENDBRANCH   4   7
TORSDOF 1
ENDMDL
