MODEL 1
REMARK minimizedAffinity -2.34015512
REMARK minimizedRMSD -1
REMARK  1 active torsions:
REMARK  status: ('A' for Active; 'I' for Inactive)
REMARK    1  A    between atoms: C3_4  and  O_7 
ROOT
ATOM      1  C   UNL d   1       0.073   1.869   2.790  0.00  0.00    -0.033 A 
ATOM      2  C1  UNL d   1       0.142   2.267   1.454  0.00  0.00     0.039 A 
ATOM      3  C2  UNL d   1       0.251   1.309   0.443  0.00  0.00    -0.080 A 
ATOM      4  C3  UNL d   1       0.290  -0.040   0.782  0.00  0.00     0.150 A 
ATOM      5  C4  UNL d   1       0.219  -0.444   2.111  0.00  0.00    -0.007 A 
ATOM      6  C5  UNL d   1       0.110   0.513   3.119  0.00  0.00     0.039 A 
ENDROOT
BRANCH   4   7
ATOM      7  O   UNL d   1       0.401  -1.011  -0.169  0.00  0.00    -0.526 OA
ATOM      8  H5  UNL d   1       0.470  -0.583  -1.039  0.00  0.00     0.418 HD
ENDBRANCH   4   7
TORSDOF 1
ENDMDL
