MODEL 1
REMARK minimizedAffinity 28.3756447
REMARK minimizedRMSD -1
REMARK  0 active torsions:
REMARK  status: ('A' for Active; 'I' for Inactive)
ROOT
ATOM      1  C   UNL d   1      -1.288  -0.566   1.895  0.00  0.00     0.124 A 
ATOM      2  C1  UNL d   1      -2.181   0.424   2.281  0.00  0.00     0.062 A 
ATOM      3  C2  UNL d   1      -3.526   0.326   1.937  0.00  0.00     0.162 A 
ATOM      4  C3  UNL d   1      -3.988  -0.767   1.204  0.00  0.00    -0.034 A 
ATOM      5  C4  UNL d   1      -3.083  -1.758   0.818  0.00  0.00     0.162 A 
ATOM      6  C5  UNL d   1      -1.740  -1.656   1.164  0.00  0.00     0.062 A 
ATOM      7  F   UNL d   1      -0.879  -2.613   0.790  0.00  0.00    -0.097 F 
ATOM      8  F1  UNL d   1      -3.493  -2.823   0.112  0.00  0.00    -0.096 F 
ATOM      9  I   UNL d   1      -5.998  -0.917   0.687  0.00  0.00    -0.060 I 
ATOM     10  F2  UNL d   1      -4.367   1.298   2.323  0.00  0.00    -0.096 F 
ATOM     11  F3  UNL d   1      -1.747   1.478   2.986  0.00  0.00    -0.097 F 
ATOM     12  F4  UNL d   1       0.006  -0.469   2.226  0.00  0.00    -0.092 F 
ENDROOT
TORSDOF 0
ENDMDL
