MODEL 1
REMARK minimizedAffinity -0.780325711
REMARK minimizedRMSD -1
REMARK  0 active torsions:
REMARK  status: ('A' for Active; 'I' for Inactive)
ROOT
ATOM      1  C   UNL d   1      -0.112  -1.836   1.683  0.00  0.00     0.124 A 
ATOM      2  C1  UNL d   1      -0.196  -3.210   1.862  0.00  0.00     0.062 A 
ATOM      3  C2  UNL d   1       0.838  -4.036   1.431  0.00  0.00     0.162 A 
ATOM      4  C3  UNL d   1       1.965  -3.491   0.816  0.00  0.00    -0.034 A 
ATOM      5  C4  UNL d   1       2.041  -2.109   0.638  0.00  0.00     0.162 A 
ATOM      6  C5  UNL d   1       1.006  -1.287   1.071  0.00  0.00     0.062 A 
ATOM      7  F   UNL d   1       1.088   0.040   0.897  0.00  0.00    -0.097 F 
ATOM      8  F1  UNL d   1       3.111  -1.551   0.051  0.00  0.00    -0.096 F 
ATOM      9  I   UNL d   1       3.512  -4.723   0.170  0.00  0.00    -0.060 I 
ATOM     10  F2  UNL d   1       0.730  -5.360   1.617  0.00  0.00    -0.096 F 
ATOM     11  F3  UNL d   1      -1.276  -3.743   2.452  0.00  0.00    -0.097 F 
ATOM     12  F4  UNL d   1      -1.109  -1.043   2.098  0.00  0.00    -0.092 F 
ENDROOT
TORSDOF 0
ENDMDL
