MODEL 1
REMARK minimizedAffinity 7.70859957
REMARK minimizedRMSD -1
REMARK  0 active torsions:
REMARK  status: ('A' for Active; 'I' for Inactive)
ROOT
ATOM      1  C   UNL d   1       2.396  -3.587   0.092  0.00  0.00     0.124 A 
ATOM      2  C1  UNL d   1       1.134  -3.904   0.572  0.00  0.00     0.062 A 
ATOM      3  C2  UNL d   1       0.250  -2.894   0.941  0.00  0.00     0.162 A 
ATOM      4  C3  UNL d   1       0.626  -1.555   0.829  0.00  0.00    -0.034 A 
ATOM      5  C4  UNL d   1       1.898  -1.244   0.346  0.00  0.00     0.162 A 
ATOM      6  C5  UNL d   1       2.777  -2.257  -0.021  0.00  0.00     0.062 A 
ATOM      7  F   UNL d   1       3.997  -1.948  -0.485  0.00  0.00    -0.097 F 
ATOM      8  F1  UNL d   1       2.291   0.033   0.225  0.00  0.00    -0.096 F 
ATOM      9  I   UNL d   1      -0.693  -0.042   1.378  0.00  0.00    -0.060 I 
ATOM     10  F2  UNL d   1      -0.964  -3.230   1.402  0.00  0.00    -0.096 F 
ATOM     11  F3  UNL d   1       0.764  -5.188   0.683  0.00  0.00    -0.097 F 
ATOM     12  F4  UNL d   1       3.245  -4.561  -0.261  0.00  0.00    -0.092 F 
ENDROOT
TORSDOF 0
ENDMDL
