MODEL 1
REMARK minimizedAffinity 1.398821
REMARK minimizedRMSD -1
REMARK  0 active torsions:
REMARK  status: ('A' for Active; 'I' for Inactive)
ROOT
ATOM      1  C   UNL d   1       2.120  -3.632   0.039  0.00  0.00     0.124 A 
ATOM      2  C1  UNL d   1       1.007  -4.022   0.772  0.00  0.00     0.062 A 
ATOM      3  C2  UNL d   1       0.131  -3.065   1.275  0.00  0.00     0.162 A 
ATOM      4  C3  UNL d   1       0.363  -1.708   1.047  0.00  0.00    -0.034 A 
ATOM      5  C4  UNL d   1       1.485  -1.324   0.310  0.00  0.00     0.162 A 
ATOM      6  C5  UNL d   1       2.357  -2.285  -0.192  0.00  0.00     0.062 A 
ATOM      7  F   UNL d   1       3.432  -1.907  -0.899  0.00  0.00    -0.097 F 
ATOM      8  F1  UNL d   1       1.738  -0.029   0.072  0.00  0.00    -0.096 F 
ATOM      9  I   UNL d   1      -0.945  -0.275   1.799  0.00  0.00    -0.060 I 
ATOM     10  F2  UNL d   1      -0.936  -3.470   1.980  0.00  0.00    -0.096 F 
ATOM     11  F3  UNL d   1       0.776  -5.323   0.996  0.00  0.00    -0.097 F 
ATOM     12  F4  UNL d   1       2.962  -4.555  -0.444  0.00  0.00    -0.092 F 
ENDROOT
TORSDOF 0
ENDMDL
