MODEL 1
REMARK minimizedAffinity 7.22836637
REMARK minimizedRMSD -1
REMARK  0 active torsions:
REMARK  status: ('A' for Active; 'I' for Inactive)
ROOT
ATOM      1  C   UNL d   1      -0.128  -2.797   1.936  0.00  0.00     0.124 A 
ATOM      2  C1  UNL d   1       0.841  -3.523   1.257  0.00  0.00     0.062 A 
ATOM      3  C2  UNL d   1       1.812  -2.865   0.508  0.00  0.00     0.162 A 
ATOM      4  C3  UNL d   1       1.820  -1.472   0.434  0.00  0.00    -0.034 A 
ATOM      5  C4  UNL d   1       0.842  -0.749   1.118  0.00  0.00     0.162 A 
ATOM      6  C5  UNL d   1      -0.127  -1.411   1.866  0.00  0.00     0.062 A 
ATOM      7  F   UNL d   1      -1.062  -0.708   2.521  0.00  0.00    -0.097 F 
ATOM      8  F1  UNL d   1       0.820   0.591   1.069  0.00  0.00    -0.096 F 
ATOM      9  I   UNL d   1       3.270  -0.484  -0.685  0.00  0.00    -0.060 I 
ATOM     10  F2  UNL d   1       2.737  -3.592  -0.138  0.00  0.00    -0.096 F 
ATOM     11  F3  UNL d   1       0.842  -4.862   1.322  0.00  0.00    -0.097 F 
ATOM     12  F4  UNL d   1      -1.061  -3.433   2.655  0.00  0.00    -0.092 F 
ENDROOT
TORSDOF 0
ENDMDL
