MODEL 1
REMARK minimizedAffinity 7.74368429
REMARK minimizedRMSD -1
REMARK  0 active torsions:
REMARK  status: ('A' for Active; 'I' for Inactive)
ROOT
ATOM      1  C   UNL d   1      -0.545  -1.556   1.810  0.00  0.00     0.124 A 
ATOM      2  C1  UNL d   1       0.443  -1.083   0.958  0.00  0.00     0.062 A 
ATOM      3  C2  UNL d   1       1.547  -1.877   0.658  0.00  0.00     0.162 A 
ATOM      4  C3  UNL d   1       1.668  -3.152   1.211  0.00  0.00    -0.034 A 
ATOM      5  C4  UNL d   1       0.671  -3.619   2.068  0.00  0.00     0.162 A 
ATOM      6  C5  UNL d   1      -0.430  -2.823   2.365  0.00  0.00     0.062 A 
ATOM      7  F   UNL d   1      -1.384  -3.281   3.189  0.00  0.00    -0.097 F 
ATOM      8  F1  UNL d   1       0.756  -4.840   2.617  0.00  0.00    -0.096 F 
ATOM      9  I   UNL d   1       3.317  -4.341   0.765  0.00  0.00    -0.060 I 
ATOM     10  F2  UNL d   1       2.486  -1.395  -0.169  0.00  0.00    -0.096 F 
ATOM     11  F3  UNL d   1       0.335   0.141   0.422  0.00  0.00    -0.097 F 
ATOM     12  F4  UNL d   1      -1.606  -0.790   2.098  0.00  0.00    -0.092 F 
ENDROOT
TORSDOF 0
ENDMDL
