MODEL 1
REMARK minimizedAffinity 19.4790897
REMARK minimizedRMSD -1
REMARK  0 active torsions:
REMARK  status: ('A' for Active; 'I' for Inactive)
ROOT
ATOM      1  C   UNL d   1       1.868  -2.482   0.356  0.00  0.00     0.124 A 
ATOM      2  C1  UNL d   1       3.099  -1.918   0.048  0.00  0.00     0.062 A 
ATOM      3  C2  UNL d   1       4.217  -2.729  -0.123  0.00  0.00     0.162 A 
ATOM      4  C3  UNL d   1       4.111  -4.113   0.013  0.00  0.00    -0.034 A 
ATOM      5  C4  UNL d   1       2.870  -4.673   0.325  0.00  0.00     0.162 A 
ATOM      6  C5  UNL d   1       1.755  -3.858   0.494  0.00  0.00     0.062 A 
ATOM      7  F   UNL d   1       0.568  -4.405   0.793  0.00  0.00    -0.097 F 
ATOM      8  F1  UNL d   1       2.733  -6.000   0.463  0.00  0.00    -0.096 F 
ATOM      9  I   UNL d   1       5.781  -5.328  -0.242  0.00  0.00    -0.060 I 
ATOM     10  F2  UNL d   1       5.393  -2.157  -0.421  0.00  0.00    -0.096 F 
ATOM     11  F3  UNL d   1       3.210  -0.589  -0.085  0.00  0.00    -0.097 F 
ATOM     12  F4  UNL d   1       0.794  -1.700   0.521  0.00  0.00    -0.092 F 
ENDROOT
TORSDOF 0
ENDMDL
