MODEL 1
REMARK minimizedAffinity 19.9975643
REMARK minimizedRMSD -1
REMARK  0 active torsions:
REMARK  status: ('A' for Active; 'I' for Inactive)
ROOT
ATOM      1  C   UNL d   1       0.233  -2.418   1.390  0.00  0.00     0.124 A 
ATOM      2  C1  UNL d   1       1.500  -2.594   0.852  0.00  0.00     0.062 A 
ATOM      3  C2  UNL d   1       2.340  -1.500   0.665  0.00  0.00     0.162 A 
ATOM      4  C3  UNL d   1       1.916  -0.219   1.018  0.00  0.00    -0.034 A 
ATOM      5  C4  UNL d   1       0.640  -0.049   1.558  0.00  0.00     0.162 A 
ATOM      6  C5  UNL d   1      -0.196  -1.146   1.743  0.00  0.00     0.062 A 
ATOM      7  F   UNL d   1      -1.420  -0.973   2.263  0.00  0.00    -0.097 F 
ATOM      8  F1  UNL d   1       0.201   1.169   1.908  0.00  0.00    -0.096 F 
ATOM      9  I   UNL d   1       3.169   1.419   0.740  0.00  0.00    -0.060 I 
ATOM     10  F2  UNL d   1       3.559  -1.701   0.143  0.00  0.00    -0.096 F 
ATOM     11  F3  UNL d   1       1.916  -3.822   0.510  0.00  0.00    -0.097 F 
ATOM     12  F4  UNL d   1      -0.574  -3.472   1.568  0.00  0.00    -0.092 F 
ENDROOT
TORSDOF 0
ENDMDL
