MODEL 1
REMARK minimizedAffinity 9.7401762
REMARK minimizedRMSD -1
REMARK  0 active torsions:
REMARK  status: ('A' for Active; 'I' for Inactive)
ROOT
ATOM      1  C   UNL d   1      -0.035  -1.204   1.539  0.00  0.00     0.124 A 
ATOM      2  C1  UNL d   1       1.132  -0.740   0.947  0.00  0.00     0.062 A 
ATOM      3  C2  UNL d   1       2.112  -1.637   0.533  0.00  0.00     0.162 A 
ATOM      4  C3  UNL d   1       1.930  -3.009   0.709  0.00  0.00    -0.034 A 
ATOM      5  C4  UNL d   1       0.755  -3.468   1.307  0.00  0.00     0.162 A 
ATOM      6  C5  UNL d   1      -0.222  -2.567   1.718  0.00  0.00     0.062 A 
ATOM      7  F   UNL d   1      -1.348  -3.018   2.290  0.00  0.00    -0.097 F 
ATOM      8  F1  UNL d   1       0.547  -4.781   1.491  0.00  0.00    -0.096 F 
ATOM      9  I   UNL d   1       3.393  -4.354   0.093  0.00  0.00    -0.060 I 
ATOM     10  F2  UNL d   1       3.229  -1.161  -0.036  0.00  0.00    -0.096 F 
ATOM     11  F3  UNL d   1       1.316   0.577   0.773  0.00  0.00    -0.097 F 
ATOM     12  F4  UNL d   1      -0.976  -0.338   1.937  0.00  0.00    -0.092 F 
ENDROOT
TORSDOF 0
ENDMDL
