MODEL 1
REMARK minimizedAffinity 3.79197335
REMARK minimizedRMSD -1
REMARK  3 active torsions:
REMARK  status: ('A' for Active; 'I' for Inactive)
REMARK    1  A    between atoms: C3'_2  and  C2'_3 
REMARK    2  A    between atoms: C2'_3  and  C1'_4 
REMARK    3  A    between atoms: C1'_4  and  C1_5 
ROOT
ATOM      1  C1  N4B d   1      -2.690  -4.326  -4.106  0.00  0.00    -0.075 A 
ATOM      2  C2  N4B d   1      -3.273  -5.189  -5.059  0.00  0.00     0.002 A 
ATOM      3  C3  N4B d   1      -4.140  -4.689  -6.000  0.00  0.00     0.002 A 
ATOM      4  C4  N4B d   1      -4.451  -3.338  -5.995  0.00  0.00    -0.004 A 
ATOM      5  C5  N4B d   1      -3.864  -2.506  -5.088  0.00  0.00     0.002 A 
ATOM      6  C6  N4B d   1      -2.988  -2.994  -4.139  0.00  0.00     0.002 A 
ENDROOT
BRANCH   1   7
ATOM      7  C1' N4B d   1      -1.803  -4.841  -3.005  0.00  0.00     0.057 C 
BRANCH   7   8
ATOM      8  C2' N4B d   1      -0.507  -4.037  -2.989  0.00  0.00     0.009 C 
BRANCH   8   9
ATOM      9  C3' N4B d   1       0.718  -4.935  -2.964  0.00  0.00     0.004 C 
ATOM     10  C4' N4B d   1       1.871  -4.325  -2.224  0.00  0.00     0.003 C 
ENDBRANCH   8   9
ENDBRANCH   7   8
ENDBRANCH   1   7
TORSDOF 3
ENDMDL
