MODEL 1
REMARK minimizedAffinity 12.3769054
REMARK minimizedRMSD -1
REMARK  3 active torsions:
REMARK  status: ('A' for Active; 'I' for Inactive)
REMARK    1  A    between atoms: C3'_2  and  C2'_3 
REMARK    2  A    between atoms: C2'_3  and  C1'_4 
REMARK    3  A    between atoms: C1'_4  and  C1_5 
ROOT
ATOM      1  C1  N4B d   1       2.313  -2.806  -2.520  0.00  0.00    -0.075 A 
ATOM      2  C2  N4B d   1       1.689  -4.073  -2.538  0.00  0.00     0.002 A 
ATOM      3  C3  N4B d   1       1.831  -4.924  -1.470  0.00  0.00     0.002 A 
ATOM      4  C4  N4B d   1       2.604  -4.539  -0.385  0.00  0.00    -0.004 A 
ATOM      5  C5  N4B d   1       3.183  -3.304  -0.364  0.00  0.00     0.002 A 
ATOM      6  C6  N4B d   1       3.046  -2.437  -1.429  0.00  0.00     0.002 A 
ENDROOT
BRANCH   1   7
ATOM      7  C1' N4B d   1       2.257  -1.877  -3.701  0.00  0.00     0.057 C 
BRANCH   7   8
ATOM      8  C2' N4B d   1       2.656  -2.641  -4.960  0.00  0.00     0.009 C 
BRANCH   8   9
ATOM      9  C3' N4B d   1       3.493  -1.791  -5.900  0.00  0.00     0.004 C 
ATOM     10  C4' N4B d   1       4.913  -2.263  -6.000  0.00  0.00     0.003 C 
ENDBRANCH   8   9
ENDBRANCH   7   8
ENDBRANCH   1   7
TORSDOF 3
ENDMDL
