MODEL 1
REMARK minimizedAffinity 17.2413349
REMARK minimizedRMSD -1
REMARK  3 active torsions:
REMARK  status: ('A' for Active; 'I' for Inactive)
REMARK    1  A    between atoms: C3'_2  and  C2'_3 
REMARK    2  A    between atoms: C2'_3  and  C1'_4 
REMARK    3  A    between atoms: C1'_4  and  C1_5 
ROOT
ATOM      1  C1  N4B d   1       2.345  -2.409  -0.804  0.00  0.00    -0.075 A 
ATOM      2  C2  N4B d   1       1.972  -2.005  -2.104  0.00  0.00     0.002 A 
ATOM      3  C3  N4B d   1       1.419  -2.914  -2.973  0.00  0.00     0.002 A 
ATOM      4  C4  N4B d   1       1.249  -4.231  -2.572  0.00  0.00    -0.004 A 
ATOM      5  C5  N4B d   1       1.589  -4.607  -1.306  0.00  0.00     0.002 A 
ATOM      6  C6  N4B d   1       2.142  -3.703  -0.420  0.00  0.00     0.002 A 
ENDROOT
BRANCH   1   7
ATOM      7  C1' N4B d   1       3.031  -1.472   0.153  0.00  0.00     0.057 C 
BRANCH   7   8
ATOM      8  C2' N4B d   1       2.455  -0.070  -0.020  0.00  0.00     0.009 C 
BRANCH   8   9
ATOM      9  C3' N4B d   1       3.409   1.002   0.480  0.00  0.00     0.004 C 
ATOM     10  C4' N4B d   1       2.778   1.916   1.487  0.00  0.00     0.003 C 
ENDBRANCH   8   9
ENDBRANCH   7   8
ENDBRANCH   1   7
TORSDOF 3
ENDMDL
