MODEL 1
REMARK minimizedAffinity 8.68227482
REMARK minimizedRMSD -1
REMARK  3 active torsions:
REMARK  status: ('A' for Active; 'I' for Inactive)
REMARK    1  A    between atoms: C3'_2  and  C2'_3 
REMARK    2  A    between atoms: C2'_3  and  C1'_4 
REMARK    3  A    between atoms: C1'_4  and  C1_5 
ROOT
ATOM      1  C1  N4B d   1      -2.024   5.244  -4.102  0.00  0.00    -0.075 A 
ATOM      2  C2  N4B d   1      -2.189   3.843  -4.035  0.00  0.00     0.002 A 
ATOM      3  C3  N4B d   1      -2.988   3.202  -4.950  0.00  0.00     0.002 A 
ATOM      4  C4  N4B d   1      -3.643   3.939  -5.925  0.00  0.00    -0.004 A 
ATOM      5  C5  N4B d   1      -3.458   5.289  -5.997  0.00  0.00     0.002 A 
ATOM      6  C6  N4B d   1      -2.655   5.946  -5.087  0.00  0.00     0.002 A 
ENDROOT
BRANCH   1   7
ATOM      7  C1' N4B d   1      -1.230   5.999  -3.072  0.00  0.00     0.057 C 
BRANCH   7   8
ATOM      8  C2' N4B d   1      -0.167   5.076  -2.482  0.00  0.00     0.009 C 
BRANCH   8   9
ATOM      9  C3' N4B d   1       1.061   5.843  -2.024  0.00  0.00     0.004 C 
ATOM     10  C4' N4B d   1       1.318   5.703  -0.553  0.00  0.00     0.003 C 
ENDBRANCH   8   9
ENDBRANCH   7   8
ENDBRANCH   1   7
TORSDOF 3
ENDMDL
