MODEL 1
REMARK minimizedAffinity 16.6248512
REMARK minimizedRMSD -1
REMARK  3 active torsions:
REMARK  status: ('A' for Active; 'I' for Inactive)
REMARK    1  A    between atoms: C3'_2  and  C2'_3 
REMARK    2  A    between atoms: C2'_3  and  C1'_4 
REMARK    3  A    between atoms: C1'_4  and  C1_5 
ROOT
ATOM      1  C1  N4B d   1      -3.547   1.122   3.018  0.00  0.00    -0.075 A 
ATOM      2  C2  N4B d   1      -3.567   2.352   3.711  0.00  0.00     0.002 A 
ATOM      3  C3  N4B d   1      -4.765   2.908   4.088  0.00  0.00     0.002 A 
ATOM      4  C4  N4B d   1      -5.951   2.265   3.767  0.00  0.00    -0.004 A 
ATOM      5  C5  N4B d   1      -5.922   1.065   3.119  0.00  0.00     0.002 A 
ATOM      6  C6  N4B d   1      -4.725   0.492   2.738  0.00  0.00     0.002 A 
ENDROOT
BRANCH   1   7
ATOM      7  C1' N4B d   1      -2.266   0.517   2.510  0.00  0.00     0.057 C 
BRANCH   7   8
ATOM      8  C2' N4B d   1      -1.137   1.531   2.666  0.00  0.00     0.009 C 
BRANCH   8   9
ATOM      9  C3' N4B d   1       0.193   0.860   2.961  0.00  0.00     0.004 C 
ATOM     10  C4' N4B d   1       1.369   1.688   2.536  0.00  0.00     0.003 C 
ENDBRANCH   8   9
ENDBRANCH   7   8
ENDBRANCH   1   7
TORSDOF 3
ENDMDL
