MODEL 1
REMARK minimizedAffinity 8.30247307
REMARK minimizedRMSD -1
REMARK  3 active torsions:
REMARK  status: ('A' for Active; 'I' for Inactive)
REMARK    1  A    between atoms: C3'_2  and  C2'_3 
REMARK    2  A    between atoms: C2'_3  and  C1'_4 
REMARK    3  A    between atoms: C1'_4  and  C1_5 
ROOT
ATOM      1  C1  N4B d   1      -3.186  -4.397  -5.873  0.00  0.00    -0.075 A 
ATOM      2  C2  N4B d   1      -4.390  -5.135  -5.921  0.00  0.00     0.002 A 
ATOM      3  C3  N4B d   1      -5.594  -4.479  -5.993  0.00  0.00     0.002 A 
ATOM      4  C4  N4B d   1      -5.621  -3.093  -6.000  0.00  0.00    -0.004 A 
ATOM      5  C5  N4B d   1      -4.453  -2.388  -5.979  0.00  0.00     0.002 A 
ATOM      6  C6  N4B d   1      -3.235  -3.034  -5.910  0.00  0.00     0.002 A 
ENDROOT
BRANCH   1   7
ATOM      7  C1' N4B d   1      -1.850  -5.067  -5.707  0.00  0.00     0.057 C 
BRANCH   7   8
ATOM      8  C2' N4B d   1      -1.279  -4.714  -4.337  0.00  0.00     0.009 C 
BRANCH   8   9
ATOM      9  C3' N4B d   1      -1.872  -5.575  -3.235  0.00  0.00     0.004 C 
ATOM     10  C4' N4B d   1      -2.419  -4.766  -2.096  0.00  0.00     0.003 C 
ENDBRANCH   8   9
ENDBRANCH   7   8
ENDBRANCH   1   7
TORSDOF 3
ENDMDL
