MODEL 1
REMARK minimizedAffinity 13.5312605
REMARK minimizedRMSD -1
REMARK  3 active torsions:
REMARK  status: ('A' for Active; 'I' for Inactive)
REMARK    1  A    between atoms: C3'_2  and  C2'_3 
REMARK    2  A    between atoms: C2'_3  and  C1'_4 
REMARK    3  A    between atoms: C1'_4  and  C1_5 
ROOT
ATOM      1  C1  N4B d   1      -3.604  -4.619  -4.319  0.00  0.00    -0.075 A 
ATOM      2  C2  N4B d   1      -4.436  -5.396  -5.155  0.00  0.00     0.002 A 
ATOM      3  C3  N4B d   1      -5.333  -4.782  -5.993  0.00  0.00     0.002 A 
ATOM      4  C4  N4B d   1      -5.430  -3.399  -6.000  0.00  0.00    -0.004 A 
ATOM      5  C5  N4B d   1      -4.605  -2.654  -5.208  0.00  0.00     0.002 A 
ATOM      6  C6  N4B d   1      -3.695  -3.258  -4.364  0.00  0.00     0.002 A 
ENDROOT
BRANCH   1   7
ATOM      7  C1' N4B d   1      -2.668  -5.248  -3.324  0.00  0.00     0.057 C 
BRANCH   7   8
ATOM      8  C2' N4B d   1      -1.741  -4.175  -2.761  0.00  0.00     0.009 C 
BRANCH   8   9
ATOM      9  C3' N4B d   1      -0.278  -4.506  -2.997  0.00  0.00     0.004 C 
ATOM     10  C4' N4B d   1       0.597  -4.131  -1.838  0.00  0.00     0.003 C 
ENDBRANCH   8   9
ENDBRANCH   7   8
ENDBRANCH   1   7
TORSDOF 3
ENDMDL
