MODEL 1
REMARK minimizedAffinity -4.40987444
REMARK minimizedRMSD -1
REMARK  2 active torsions:
REMARK  status: ('A' for Active; 'I' for Inactive)
REMARK    1  A    between atoms: C1_2  and  C2_3 
REMARK    2  A    between atoms: C2_3  and  C3_4 
ROOT
ATOM      1  C3  UNL d   1       0.418  -0.444   0.155  0.00  0.00    -0.075 A 
ATOM      2  C4  UNL d   1       1.631  -0.829   0.745  0.00  0.00     0.002 A 
ATOM      3  C5  UNL d   1       1.704  -1.077   2.116  0.00  0.00     0.002 A 
ATOM      4  C6  UNL d   1       0.572  -0.933   2.915  0.00  0.00    -0.004 A 
ATOM      5  C7  UNL d   1      -0.634  -0.534   2.342  0.00  0.00     0.002 A 
ATOM      6  C8  UNL d   1      -0.711  -0.290   0.970  0.00  0.00     0.002 A 
ENDROOT
BRANCH   1   7
ATOM      7  C2  UNL d   1       0.325  -0.203  -1.333  0.00  0.00     0.056 C 
BRANCH   7   8
ATOM      8  C1  UNL d   1      -1.001   0.422  -1.781  0.00  0.00     0.007 C 
ATOM      9  C   UNL d   1      -0.844   1.834  -2.329  0.00  0.00     0.009 C 
ENDBRANCH   7   8
ENDBRANCH   1   7
TORSDOF 2
ENDMDL
