MODEL 1
REMARK minimizedAffinity -5.51360655
REMARK minimizedRMSD -1
REMARK  2 active torsions:
REMARK  status: ('A' for Active; 'I' for Inactive)
REMARK    1  A    between atoms: C1_2  and  C2_3 
REMARK    2  A    between atoms: C2_3  and  C3_4 
ROOT
ATOM      1  C3  UNL d   1      -0.545   0.918   0.138  0.00  0.00    -0.075 A 
ATOM      2  C4  UNL d   1      -0.077   2.240   0.157  0.00  0.00     0.002 A 
ATOM      3  C5  UNL d   1      -0.027   2.991  -1.017  0.00  0.00     0.002 A 
ATOM      4  C6  UNL d   1      -0.434   2.428  -2.225  0.00  0.00    -0.004 A 
ATOM      5  C7  UNL d   1      -0.885   1.110  -2.259  0.00  0.00     0.002 A 
ATOM      6  C8  UNL d   1      -0.940   0.358  -1.084  0.00  0.00     0.002 A 
ENDROOT
BRANCH   1   7
ATOM      7  C2  UNL d   1      -0.630   0.109   1.411  0.00  0.00     0.056 C 
BRANCH   7   8
ATOM      8  C1  UNL d   1       0.372  -1.047   1.482  0.00  0.00     0.007 C 
ATOM      9  C   UNL d   1       0.808  -1.378   2.904  0.00  0.00     0.009 C 
ENDBRANCH   7   8
ENDBRANCH   1   7
TORSDOF 2
ENDMDL
