MODEL 1
REMARK minimizedAffinity -2.07269645
REMARK minimizedRMSD -1
REMARK  2 active torsions:
REMARK  status: ('A' for Active; 'I' for Inactive)
REMARK    1  A    between atoms: C1_2  and  C2_3 
REMARK    2  A    between atoms: C2_3  and  C3_4 
ROOT
ATOM      1  C3  UNL d   1      -0.169  -0.015   0.513  0.00  0.00    -0.075 A 
ATOM      2  C4  UNL d   1      -0.789   0.954  -0.290  0.00  0.00     0.002 A 
ATOM      3  C5  UNL d   1      -0.514   1.022  -1.657  0.00  0.00     0.002 A 
ATOM      4  C6  UNL d   1       0.389   0.132  -2.234  0.00  0.00    -0.004 A 
ATOM      5  C7  UNL d   1       1.023  -0.823  -1.442  0.00  0.00     0.002 A 
ATOM      6  C8  UNL d   1       0.747  -0.897  -0.076  0.00  0.00     0.002 A 
ENDROOT
BRANCH   1   7
ATOM      7  C2  UNL d   1      -0.485  -0.113   1.986  0.00  0.00     0.056 C 
BRANCH   7   8
ATOM      8  C1  UNL d   1      -0.039  -1.428   2.633  0.00  0.00     0.007 C 
ATOM      9  C   UNL d   1       1.288  -1.316   3.371  0.00  0.00     0.009 C 
ENDBRANCH   7   8
ENDBRANCH   1   7
TORSDOF 2
ENDMDL
