MODEL 1
REMARK minimizedAffinity -4.93946123
REMARK minimizedRMSD -1
REMARK  2 active torsions:
REMARK  status: ('A' for Active; 'I' for Inactive)
REMARK    1  A    between atoms: C1_2  and  C2_3 
REMARK    2  A    between atoms: C2_3  and  C3_4 
ROOT
ATOM      1  C3  UNL d   1      -1.251  -0.341   1.173  0.00  0.00    -0.075 A 
ATOM      2  C4  UNL d   1      -0.736  -0.327  -0.131  0.00  0.00     0.002 A 
ATOM      3  C5  UNL d   1       0.567  -0.759  -0.383  0.00  0.00     0.002 A 
ATOM      4  C6  UNL d   1       1.373  -1.200   0.664  0.00  0.00    -0.004 A 
ATOM      5  C7  UNL d   1       0.877  -1.203   1.966  0.00  0.00     0.002 A 
ATOM      6  C8  UNL d   1      -0.427  -0.776   2.221  0.00  0.00     0.002 A 
ENDROOT
BRANCH   1   7
ATOM      7  C2  UNL d   1      -2.669   0.097   1.448  0.00  0.00     0.056 C 
BRANCH   7   8
ATOM      8  C1  UNL d   1      -3.665  -0.285   0.348  0.00  0.00     0.007 C 
ATOM      9  C   UNL d   1      -5.069  -0.551   0.874  0.00  0.00     0.009 C 
ENDBRANCH   7   8
ENDBRANCH   1   7
TORSDOF 2
ENDMDL
