MODEL 1
REMARK minimizedAffinity -1.65805602
REMARK minimizedRMSD -1
REMARK  2 active torsions:
REMARK  status: ('A' for Active; 'I' for Inactive)
REMARK    1  A    between atoms: C1_2  and  C2_3 
REMARK    2  A    between atoms: C2_3  and  C3_4 
ROOT
ATOM      1  C3  UNL d   1      -0.149   0.262  -0.143  0.00  0.00    -0.075 A 
ATOM      2  C4  UNL d   1       0.098   1.608   0.165  0.00  0.00     0.002 A 
ATOM      3  C5  UNL d   1      -0.317   2.620  -0.701  0.00  0.00     0.002 A 
ATOM      4  C6  UNL d   1      -0.973   2.301  -1.887  0.00  0.00    -0.004 A 
ATOM      5  C7  UNL d   1      -1.209   0.967  -2.212  0.00  0.00     0.002 A 
ATOM      6  C8  UNL d   1      -0.799  -0.048  -1.345  0.00  0.00     0.002 A 
ENDROOT
BRANCH   1   7
ATOM      7  C2  UNL d   1       0.271  -0.837   0.804  0.00  0.00     0.056 C 
BRANCH   7   8
ATOM      8  C1  UNL d   1      -0.330  -0.714   2.208  0.00  0.00     0.007 C 
ATOM      9  C   UNL d   1       0.705  -0.400   3.279  0.00  0.00     0.009 C 
ENDBRANCH   7   8
ENDBRANCH   1   7
TORSDOF 2
ENDMDL
