MODEL 1
REMARK minimizedAffinity -0.0692895725
REMARK minimizedRMSD -1
REMARK  2 active torsions:
REMARK  status: ('A' for Active; 'I' for Inactive)
REMARK    1  A    between atoms: C1_2  and  C2_3 
REMARK    2  A    between atoms: C2_3  and  C3_4 
ROOT
ATOM      1  C3  UNL d   1      -0.082  -0.760   1.646  0.00  0.00    -0.075 A 
ATOM      2  C4  UNL d   1       0.329  -0.642   2.982  0.00  0.00     0.002 A 
ATOM      3  C5  UNL d   1       1.686  -0.607   3.305  0.00  0.00     0.002 A 
ATOM      4  C6  UNL d   1       2.647  -0.699   2.301  0.00  0.00    -0.004 A 
ATOM      5  C7  UNL d   1       2.250  -0.833   0.972  0.00  0.00     0.002 A 
ATOM      6  C8  UNL d   1       0.893  -0.864   0.645  0.00  0.00     0.002 A 
ENDROOT
BRANCH   1   7
ATOM      7  C2  UNL d   1      -1.549  -0.768   1.287  0.00  0.00     0.056 C 
BRANCH   7   8
ATOM      8  C1  UNL d   1      -2.354   0.368   1.926  0.00  0.00     0.007 C 
ATOM      9  C   UNL d   1      -3.580   0.765   1.115  0.00  0.00     0.009 C 
ENDBRANCH   7   8
ENDBRANCH   1   7
TORSDOF 2
ENDMDL
