MODEL 1
REMARK minimizedAffinity 4.09486341
REMARK minimizedRMSD -1
REMARK  0 active torsions:
REMARK  status: ('A' for Active; 'I' for Inactive)
ROOT
ATOM      1  N1  IND d   1       5.998   3.996  -4.675  0.00  0.00    -0.196 N 
ATOM      2  C2  IND d   1       5.118   3.811  -5.705  0.00  0.00     0.054 A 
ATOM      3  C3  IND d   1       3.910   4.327  -5.389  0.00  0.00    -0.031 A 
ATOM      4  C4  IND d   1       3.180   5.611  -3.280  0.00  0.00     0.051 A 
ATOM      5  C5  IND d   1       3.624   5.997  -2.046  0.00  0.00    -0.031 A 
ATOM      6  C6  IND d   1       4.909   5.733  -1.618  0.00  0.00     0.015 A 
ATOM      7  C7  IND d   1       5.805   5.080  -2.416  0.00  0.00    -0.016 A 
ATOM      8  C8  IND d   1       5.356   4.680  -3.667  0.00  0.00    -0.047 A 
ATOM      9  C9  IND d   1       4.040   4.907  -4.090  0.00  0.00    -0.096 A 
ATOM     10  HN1 IND d   1       6.816   3.730  -4.660  0.00  0.00     0.298 HD
ENDROOT
TORSDOF 0
ENDMDL
