MODEL 1
REMARK minimizedAffinity 1.26148033
REMARK minimizedRMSD -1
REMARK  0 active torsions:
REMARK  status: ('A' for Active; 'I' for Inactive)
ROOT
ATOM      1  N1  IND d   1       3.872   3.857  -4.872  0.00  0.00    -0.196 N 
ATOM      2  C2  IND d   1       5.012   3.833  -5.627  0.00  0.00     0.054 A 
ATOM      3  C3  IND d   1       6.000   4.518  -5.009  0.00  0.00    -0.031 A 
ATOM      4  C4  IND d   1       5.998   5.672  -2.708  0.00  0.00     0.051 A 
ATOM      5  C5  IND d   1       5.176   5.992  -1.664  0.00  0.00    -0.031 A 
ATOM      6  C6  IND d   1       3.851   5.607  -1.635  0.00  0.00     0.015 A 
ATOM      7  C7  IND d   1       3.300   4.874  -2.647  0.00  0.00    -0.016 A 
ATOM      8  C8  IND d   1       4.130   4.553  -3.712  0.00  0.00    -0.047 A 
ATOM      9  C9  IND d   1       5.464   4.977  -3.767  0.00  0.00    -0.096 A 
ATOM     10  HN1 IND d   1       3.121   3.498  -5.086  0.00  0.00     0.298 HD
ENDROOT
TORSDOF 0
ENDMDL
