MODEL 1
REMARK minimizedAffinity 19.6892605
REMARK minimizedRMSD -1
REMARK  0 active torsions:
REMARK  status: ('A' for Active; 'I' for Inactive)
ROOT
ATOM      1  N1  IND d   1       4.228  -1.464   3.829  0.00  0.00    -0.196 N 
ATOM      2  C2  IND d   1       3.016  -1.800   3.293  0.00  0.00     0.054 A 
ATOM      3  C3  IND d   1       2.663  -3.048   3.674  0.00  0.00    -0.031 A 
ATOM      4  C4  IND d   1       3.872  -4.679   5.256  0.00  0.00     0.051 A 
ATOM      5  C5  IND d   1       5.031  -4.833   5.964  0.00  0.00    -0.031 A 
ATOM      6  C6  IND d   1       6.000  -3.851   6.000  0.00  0.00     0.015 A 
ATOM      7  C7  IND d   1       5.840  -2.668   5.335  0.00  0.00    -0.016 A 
ATOM      8  C8  IND d   1       4.668  -2.511   4.609  0.00  0.00    -0.047 A 
ATOM      9  C9  IND d   1       3.700  -3.521   4.535  0.00  0.00    -0.096 A 
ATOM     10  HN1 IND d   1       4.645  -0.723   3.701  0.00  0.00     0.298 HD
ENDROOT
TORSDOF 0
ENDMDL
