MODEL 1
REMARK minimizedAffinity 7.10637474
REMARK minimizedRMSD -1
REMARK  0 active torsions:
REMARK  status: ('A' for Active; 'I' for Inactive)
ROOT
ATOM      1  N1  IND d   1       4.669   4.197  -5.120  0.00  0.00    -0.196 N 
ATOM      2  C2  IND d   1       3.787   5.173  -5.494  0.00  0.00     0.054 A 
ATOM      3  C3  IND d   1       3.533   6.000  -4.456  0.00  0.00    -0.031 A 
ATOM      4  C4  IND d   1       4.529   6.000  -2.082  0.00  0.00     0.051 A 
ATOM      5  C5  IND d   1       5.349   5.281  -1.258  0.00  0.00    -0.031 A 
ATOM      6  C6  IND d   1       6.000   4.143  -1.689  0.00  0.00     0.015 A 
ATOM      7  C7  IND d   1       5.862   3.685  -2.969  0.00  0.00    -0.016 A 
ATOM      8  C8  IND d   1       5.025   4.409  -3.806  0.00  0.00    -0.047 A 
ATOM      9  C9  IND d   1       4.329   5.540  -3.362  0.00  0.00    -0.096 A 
ATOM     10  HN1 IND d   1       4.953   3.559  -5.621  0.00  0.00     0.298 HD
ENDROOT
TORSDOF 0
ENDMDL
