MODEL 1
REMARK minimizedAffinity 14.8724613
REMARK minimizedRMSD -1
REMARK  0 active torsions:
REMARK  status: ('A' for Active; 'I' for Inactive)
ROOT
ATOM      1  N1  IND d   1      -0.119  -1.332  -3.429  0.00  0.00    -0.196 N 
ATOM      2  C2  IND d   1       1.101  -1.858  -3.753  0.00  0.00     0.054 A 
ATOM      3  C3  IND d   1       1.632  -2.505  -2.691  0.00  0.00    -0.031 A 
ATOM      4  C4  IND d   1       0.628  -2.912  -0.355  0.00  0.00     0.051 A 
ATOM      5  C5  IND d   1      -0.448  -2.595   0.425  0.00  0.00    -0.031 A 
ATOM      6  C6  IND d   1      -1.492  -1.827  -0.049  0.00  0.00     0.015 A 
ATOM      7  C7  IND d   1      -1.504  -1.355  -1.332  0.00  0.00    -0.016 A 
ATOM      8  C8  IND d   1      -0.409  -1.670  -2.125  0.00  0.00    -0.047 A 
ATOM      9  C9  IND d   1       0.673  -2.413  -1.636  0.00  0.00    -0.096 A 
ATOM     10  HN1 IND d   1      -0.620  -0.869  -3.951  0.00  0.00     0.298 HD
ENDROOT
TORSDOF 0
ENDMDL
