MODEL 1
REMARK minimizedAffinity 23.3519001
REMARK minimizedRMSD -1
REMARK  0 active torsions:
REMARK  status: ('A' for Active; 'I' for Inactive)
ROOT
ATOM      1  N1  IND d   1      -5.216  -4.205  -4.440  0.00  0.00    -0.196 N 
ATOM      2  C2  IND d   1      -5.916  -5.207  -5.053  0.00  0.00     0.054 A 
ATOM      3  C3  IND d   1      -5.082  -5.994  -5.768  0.00  0.00    -0.031 A 
ATOM      4  C4  IND d   1      -2.520  -5.884  -5.991  0.00  0.00     0.051 A 
ATOM      5  C5  IND d   1      -1.440  -5.122  -5.644  0.00  0.00    -0.031 A 
ATOM      6  C6  IND d   1      -1.566  -3.994  -4.860  0.00  0.00     0.015 A 
ATOM      7  C7  IND d   1      -2.781  -3.590  -4.382  0.00  0.00    -0.016 A 
ATOM      8  C8  IND d   1      -3.880  -4.358  -4.738  0.00  0.00    -0.047 A 
ATOM      9  C9  IND d   1      -3.764  -5.480  -5.569  0.00  0.00    -0.096 A 
ATOM     10  HN1 IND d   1      -5.554  -3.584  -3.950  0.00  0.00     0.298 HD
ENDROOT
TORSDOF 0
ENDMDL
