MODEL 1
REMARK minimizedAffinity 15.2048454
REMARK minimizedRMSD -1
REMARK  0 active torsions:
REMARK  status: ('A' for Active; 'I' for Inactive)
ROOT
ATOM      1  N1  IND d   1      -1.010  -0.601  -2.682  0.00  0.00    -0.196 N 
ATOM      2  C2  IND d   1      -1.273   0.210  -1.613  0.00  0.00     0.054 A 
ATOM      3  C3  IND d   1      -0.914  -0.398  -0.461  0.00  0.00    -0.031 A 
ATOM      4  C4  IND d   1       0.217  -2.682  -0.101  0.00  0.00     0.051 A 
ATOM      5  C5  IND d   1       0.623  -3.801  -0.772  0.00  0.00    -0.031 A 
ATOM      6  C6  IND d   1       0.505  -3.912  -2.143  0.00  0.00     0.015 A 
ATOM      7  C7  IND d   1      -0.015  -2.899  -2.897  0.00  0.00    -0.016 A 
ATOM      8  C8  IND d   1      -0.434  -1.764  -2.218  0.00  0.00    -0.047 A 
ATOM      9  C9  IND d   1      -0.356  -1.662  -0.823  0.00  0.00    -0.096 A 
ATOM     10  HN1 IND d   1      -1.176  -0.417  -3.505  0.00  0.00     0.298 HD
ENDROOT
TORSDOF 0
ENDMDL
