MODEL 1
REMARK minimizedAffinity 17.1468811
REMARK minimizedRMSD -1
REMARK  0 active torsions:
REMARK  status: ('A' for Active; 'I' for Inactive)
ROOT
ATOM      1  N1  IND d   1       6.000  -0.477  -3.383  0.00  0.00    -0.196 N 
ATOM      2  C2  IND d   1       5.999   0.707  -4.066  0.00  0.00     0.054 A 
ATOM      3  C3  IND d   1       4.917   0.783  -4.873  0.00  0.00    -0.031 A 
ATOM      4  C4  IND d   1       2.966  -0.873  -5.155  0.00  0.00     0.051 A 
ATOM      5  C5  IND d   1       2.542  -2.114  -4.769  0.00  0.00    -0.031 A 
ATOM      6  C6  IND d   1       3.262  -2.887  -3.881  0.00  0.00     0.015 A 
ATOM      7  C7  IND d   1       4.432  -2.441  -3.335  0.00  0.00    -0.016 A 
ATOM      8  C8  IND d   1       4.870  -1.185  -3.730  0.00  0.00    -0.047 A 
ATOM      9  C9  IND d   1       4.165  -0.413  -4.664  0.00  0.00    -0.096 A 
ATOM     10  HN1 IND d   1       6.604  -0.737  -2.829  0.00  0.00     0.298 HD
ENDROOT
TORSDOF 0
ENDMDL
