MODEL 1
REMARK minimizedAffinity 12.1156092
REMARK minimizedRMSD -1
REMARK  0 active torsions:
REMARK  status: ('A' for Active; 'I' for Inactive)
ROOT
ATOM      1  N1  IND d   1       0.692   5.982  -2.156  0.00  0.00    -0.196 N 
ATOM      2  C2  IND d   1       1.499   5.146  -2.875  0.00  0.00     0.054 A 
ATOM      3  C3  IND d   1       1.955   4.143  -2.092  0.00  0.00    -0.031 A 
ATOM      4  C4  IND d   1       1.423   3.622   0.373  0.00  0.00     0.051 A 
ATOM      5  C5  IND d   1       0.765   4.121   1.462  0.00  0.00    -0.031 A 
ATOM      6  C6  IND d   1       0.032   5.288   1.398  0.00  0.00     0.015 A 
ATOM      7  C7  IND d   1      -0.081   5.997   0.236  0.00  0.00    -0.016 A 
ATOM      8  C8  IND d   1       0.592   5.497  -0.870  0.00  0.00    -0.047 A 
ATOM      9  C9  IND d   1       1.373   4.336  -0.801  0.00  0.00    -0.096 A 
ATOM     10  HN1 IND d   1       0.311   6.692  -2.455  0.00  0.00     0.298 HD
ENDROOT
TORSDOF 0
ENDMDL
