MODEL 1
REMARK minimizedAffinity 15.0823097
REMARK minimizedRMSD -1
REMARK  0 active torsions:
REMARK  status: ('A' for Active; 'I' for Inactive)
ROOT
ATOM      1  N1  IND d   1      -2.652  -2.409  -3.455  0.00  0.00    -0.196 N 
ATOM      2  C2  IND d   1      -2.540  -3.549  -4.200  0.00  0.00     0.054 A 
ATOM      3  C3  IND d   1      -1.492  -4.289  -3.772  0.00  0.00    -0.031 A 
ATOM      4  C4  IND d   1       0.111  -3.869  -1.802  0.00  0.00     0.051 A 
ATOM      5  C5  IND d   1       0.427  -2.942  -0.850  0.00  0.00    -0.031 A 
ATOM      6  C6  IND d   1      -0.283  -1.767  -0.712  0.00  0.00     0.015 A 
ATOM      7  C7  IND d   1      -1.348  -1.479  -1.519  0.00  0.00    -0.016 A 
ATOM      8  C8  IND d   1      -1.667  -2.416  -2.492  0.00  0.00    -0.047 A 
ATOM      9  C9  IND d   1      -0.924  -3.590  -2.663  0.00  0.00    -0.096 A 
ATOM     10  HN1 IND d   1      -3.239  -1.791  -3.568  0.00  0.00     0.298 HD
ENDROOT
TORSDOF 0
ENDMDL
