MODEL 1
REMARK minimizedAffinity 18.2773628
REMARK minimizedRMSD -1
REMARK  0 active torsions:
REMARK  status: ('A' for Active; 'I' for Inactive)
ROOT
ATOM      1  N1  IND d   1      -2.048  -4.105  -6.000  0.00  0.00    -0.196 N 
ATOM      2  C2  IND d   1      -1.874  -2.894  -5.390  0.00  0.00     0.054 A 
ATOM      3  C3  IND d   1      -2.963  -2.577  -4.654  0.00  0.00    -0.031 A 
ATOM      4  C4  IND d   1      -5.102  -3.945  -4.226  0.00  0.00     0.051 A 
ATOM      5  C5  IND d   1      -5.735  -5.098  -4.597  0.00  0.00    -0.031 A 
ATOM      6  C6  IND d   1      -5.159  -5.998  -5.470  0.00  0.00     0.015 A 
ATOM      7  C7  IND d   1      -3.918  -5.784  -5.998  0.00  0.00    -0.016 A 
ATOM      8  C8  IND d   1      -3.274  -4.611  -5.629  0.00  0.00    -0.047 A 
ATOM      9  C9  IND d   1      -3.872  -3.673  -4.777  0.00  0.00    -0.096 A 
ATOM     10  HN1 IND d   1      -1.485  -4.487  -6.526  0.00  0.00     0.298 HD
ENDROOT
TORSDOF 0
ENDMDL
