MODEL 1
REMARK minimizedAffinity 8.35437679
REMARK minimizedRMSD -1
REMARK  0 active torsions:
REMARK  status: ('A' for Active; 'I' for Inactive)
ROOT
ATOM      1  N1  IND d   1      -2.816  -1.888  -2.948  0.00  0.00    -0.196 N 
ATOM      2  C2  IND d   1      -2.397  -2.684  -3.977  0.00  0.00     0.054 A 
ATOM      3  C3  IND d   1      -1.181  -3.208  -3.703  0.00  0.00    -0.031 A 
ATOM      4  C4  IND d   1       0.259  -2.974  -1.582  0.00  0.00     0.051 A 
ATOM      5  C5  IND d   1       0.314  -2.320  -0.384  0.00  0.00    -0.031 A 
ATOM      6  C6  IND d   1      -0.694  -1.473   0.031  0.00  0.00     0.015 A 
ATOM      7  C7  IND d   1      -1.804  -1.257  -0.736  0.00  0.00    -0.016 A 
ATOM      8  C8  IND d   1      -1.859  -1.914  -1.957  0.00  0.00    -0.047 A 
ATOM      9  C9  IND d   1      -0.820  -2.742  -2.402  0.00  0.00    -0.096 A 
ATOM     10  HN1 IND d   1      -3.552  -1.445  -2.923  0.00  0.00     0.298 HD
ENDROOT
TORSDOF 0
ENDMDL
