MODEL 1
REMARK minimizedAffinity 3.18062806
REMARK minimizedRMSD -1
REMARK  0 active torsions:
REMARK  status: ('A' for Active; 'I' for Inactive)
ROOT
ATOM      1  N1  IND d   1      -1.433  -1.704  -2.645  0.00  0.00    -0.196 N 
ATOM      2  C2  IND d   1      -0.514  -1.819  -1.639  0.00  0.00     0.054 A 
ATOM      3  C3  IND d   1       0.595  -2.449  -2.086  0.00  0.00    -0.031 A 
ATOM      4  C4  IND d   1       1.159  -3.288  -4.454  0.00  0.00     0.051 A 
ATOM      5  C5  IND d   1       0.618  -3.440  -5.699  0.00  0.00    -0.031 A 
ATOM      6  C6  IND d   1      -0.659  -3.010  -5.998  0.00  0.00     0.015 A 
ATOM      7  C7  IND d   1      -1.442  -2.399  -5.060  0.00  0.00    -0.016 A 
ATOM      8  C8  IND d   1      -0.899  -2.250  -3.791  0.00  0.00    -0.047 A 
ATOM      9  C9  IND d   1       0.380  -2.722  -3.472  0.00  0.00    -0.096 A 
ATOM     10  HN1 IND d   1      -2.214  -1.352  -2.573  0.00  0.00     0.298 HD
ENDROOT
TORSDOF 0
ENDMDL
