MODEL 1
REMARK minimizedAffinity 8.79139137
REMARK minimizedRMSD -1
REMARK  0 active torsions:
REMARK  status: ('A' for Active; 'I' for Inactive)
ROOT
ATOM      1  N1  IND d   1       0.430  -4.759  -0.037  0.00  0.00    -0.196 N 
ATOM      2  C2  IND d   1       0.651  -5.999  -0.568  0.00  0.00     0.054 A 
ATOM      3  C3  IND d   1       0.381  -5.999  -1.893  0.00  0.00    -0.031 A 
ATOM      4  C4  IND d   1      -0.340  -4.051  -3.414  0.00  0.00     0.051 A 
ATOM      5  C5  IND d   1      -0.706  -2.735  -3.378  0.00  0.00    -0.031 A 
ATOM      6  C6  IND d   1      -0.709  -2.011  -2.203  0.00  0.00     0.015 A 
ATOM      7  C7  IND d   1      -0.334  -2.576  -1.017  0.00  0.00    -0.016 A 
ATOM      8  C8  IND d   1       0.031  -3.914  -1.049  0.00  0.00    -0.047 A 
ATOM      9  C9  IND d   1      -0.004  -4.665  -2.231  0.00  0.00    -0.096 A 
ATOM     10  HN1 IND d   1       0.524  -4.544   0.790  0.00  0.00     0.298 HD
ENDROOT
TORSDOF 0
ENDMDL
