MODEL 1
REMARK minimizedAffinity 13.5507765
REMARK minimizedRMSD -1
REMARK  0 active torsions:
REMARK  status: ('A' for Active; 'I' for Inactive)
ROOT
ATOM      1  N1  IND d   1       0.218  -2.625  -0.008  0.00  0.00    -0.196 N 
ATOM      2  C2  IND d   1      -0.735  -1.771   0.475  0.00  0.00     0.054 A 
ATOM      3  C3  IND d   1      -1.539  -1.348  -0.525  0.00  0.00    -0.031 A 
ATOM      4  C4  IND d   1      -1.539  -2.008  -3.014  0.00  0.00     0.051 A 
ATOM      5  C5  IND d   1      -0.835  -2.730  -3.937  0.00  0.00    -0.031 A 
ATOM      6  C6  IND d   1       0.276  -3.471  -3.590  0.00  0.00     0.015 A 
ATOM      7  C7  IND d   1       0.720  -3.527  -2.299  0.00  0.00    -0.016 A 
ATOM      8  C8  IND d   1       0.013  -2.789  -1.361  0.00  0.00    -0.047 A 
ATOM      9  C9  IND d   1      -1.091  -2.002  -1.714  0.00  0.00    -0.096 A 
ATOM     10  HN1 IND d   1       0.840  -2.996   0.454  0.00  0.00     0.298 HD
ENDROOT
TORSDOF 0
ENDMDL
