MODEL 1
REMARK minimizedAffinity 15.7581797
REMARK minimizedRMSD -1
REMARK  0 active torsions:
REMARK  status: ('A' for Active; 'I' for Inactive)
ROOT
ATOM      1  N1  IND d   1      -2.451  -2.406  -3.863  0.00  0.00    -0.196 N 
ATOM      2  C2  IND d   1      -2.172  -3.525  -4.596  0.00  0.00     0.054 A 
ATOM      3  C3  IND d   1      -1.008  -4.077  -4.187  0.00  0.00    -0.031 A 
ATOM      4  C4  IND d   1       0.552  -3.369  -2.266  0.00  0.00     0.051 A 
ATOM      5  C5  IND d   1       0.735  -2.386  -1.334  0.00  0.00    -0.031 A 
ATOM      6  C6  IND d   1      -0.154  -1.340  -1.193  0.00  0.00     0.015 A 
ATOM      7  C7  IND d   1      -1.270  -1.243  -1.974  0.00  0.00    -0.016 A 
ATOM      8  C8  IND d   1      -1.456  -2.236  -2.926  0.00  0.00    -0.047 A 
ATOM      9  C9  IND d   1      -0.535  -3.276  -3.103  0.00  0.00    -0.096 A 
ATOM     10  HN1 IND d   1      -3.134  -1.894  -3.969  0.00  0.00     0.298 HD
ENDROOT
TORSDOF 0
ENDMDL
