MODEL 1
REMARK minimizedAffinity 18.5102005
REMARK minimizedRMSD -1
REMARK  0 active torsions:
REMARK  status: ('A' for Active; 'I' for Inactive)
ROOT
ATOM      1  N1  IND d   1       4.845  -0.611  -5.995  0.00  0.00    -0.196 N 
ATOM      2  C2  IND d   1       5.061   0.576  -5.352  0.00  0.00     0.054 A 
ATOM      3  C3  IND d   1       5.113   0.384  -4.015  0.00  0.00    -0.031 A 
ATOM      4  C4  IND d   1       4.972  -1.806  -2.670  0.00  0.00     0.051 A 
ATOM      5  C5  IND d   1       4.741  -3.146  -2.814  0.00  0.00    -0.031 A 
ATOM      6  C6  IND d   1       4.531  -3.721  -4.050  0.00  0.00     0.015 A 
ATOM      7  C7  IND d   1       4.556  -2.976  -5.196  0.00  0.00    -0.016 A 
ATOM      8  C8  IND d   1       4.783  -1.615  -5.053  0.00  0.00    -0.047 A 
ATOM      9  C9  IND d   1       4.954  -1.019  -3.797  0.00  0.00    -0.096 A 
ATOM     10  HN1 IND d   1       4.762  -0.714  -6.844  0.00  0.00     0.298 HD
ENDROOT
TORSDOF 0
ENDMDL
