MODEL 1
REMARK minimizedAffinity 18.5746231
REMARK minimizedRMSD -1
REMARK  0 active torsions:
REMARK  status: ('A' for Active; 'I' for Inactive)
ROOT
ATOM      1  N1  IND d   1      -5.985   1.275  -4.104  0.00  0.00    -0.196 N 
ATOM      2  C2  IND d   1      -5.455   2.005  -5.132  0.00  0.00     0.054 A 
ATOM      3  C3  IND d   1      -4.809   1.194  -5.999  0.00  0.00    -0.031 A 
ATOM      4  C4  IND d   1      -4.580  -1.370  -5.982  0.00  0.00     0.051 A 
ATOM      5  C5  IND d   1      -4.865  -2.472  -5.225  0.00  0.00    -0.031 A 
ATOM      6  C6  IND d   1      -5.553  -2.379  -4.033  0.00  0.00     0.015 A 
ATOM      7  C7  IND d   1      -5.995  -1.177  -3.557  0.00  0.00    -0.016 A 
ATOM      8  C8  IND d   1      -5.702  -0.055  -4.320  0.00  0.00    -0.047 A 
ATOM      9  C9  IND d   1      -4.966  -0.138  -5.509  0.00  0.00    -0.096 A 
ATOM     10  HN1 IND d   1      -6.421   1.594  -3.435  0.00  0.00     0.298 HD
ENDROOT
TORSDOF 0
ENDMDL
