MODEL 1
REMARK minimizedAffinity 10.7607279
REMARK minimizedRMSD -1
REMARK  0 active torsions:
REMARK  status: ('A' for Active; 'I' for Inactive)
ROOT
ATOM      1  N1  IND d   1       3.978   4.118   5.167  0.00  0.00    -0.196 N 
ATOM      2  C2  IND d   1       3.967   5.316   5.824  0.00  0.00     0.054 A 
ATOM      3  C3  IND d   1       2.836   6.000   5.537  0.00  0.00    -0.031 A 
ATOM      4  C4  IND d   1       0.823   5.298   4.095  0.00  0.00     0.051 A 
ATOM      5  C5  IND d   1       0.388   4.305   3.262  0.00  0.00    -0.031 A 
ATOM      6  C6  IND d   1       1.142   3.175   3.018  0.00  0.00     0.015 A 
ATOM      7  C7  IND d   1       2.359   2.990   3.611  0.00  0.00    -0.016 A 
ATOM      8  C8  IND d   1       2.807   3.999   4.452  0.00  0.00    -0.047 A 
ATOM      9  C9  IND d   1       2.065   5.167   4.669  0.00  0.00    -0.096 A 
ATOM     10  HN1 IND d   1       4.610   3.535   5.196  0.00  0.00     0.298 HD
ENDROOT
TORSDOF 0
ENDMDL
