MODEL 1
REMARK minimizedAffinity 16.5548897
REMARK minimizedRMSD -1
REMARK  0 active torsions:
REMARK  status: ('A' for Active; 'I' for Inactive)
ROOT
ATOM      1  N1  IND d   1      -2.322   2.886  -2.704  0.00  0.00    -0.196 N 
ATOM      2  C2  IND d   1      -1.593   2.756  -3.853  0.00  0.00     0.054 A 
ATOM      3  C3  IND d   1      -1.218   1.469  -4.029  0.00  0.00    -0.031 A 
ATOM      4  C4  IND d   1      -1.775  -0.605  -2.609  0.00  0.00     0.051 A 
ATOM      5  C5  IND d   1      -2.383  -0.982  -1.444  0.00  0.00    -0.031 A 
ATOM      6  C6  IND d   1      -3.016  -0.070  -0.625  0.00  0.00     0.015 A 
ATOM      7  C7  IND d   1      -3.076   1.256  -0.947  0.00  0.00    -0.016 A 
ATOM      8  C8  IND d   1      -2.454   1.643  -2.125  0.00  0.00    -0.047 A 
ATOM      9  C9  IND d   1      -1.773   0.729  -2.940  0.00  0.00    -0.096 A 
ATOM     10  HN1 IND d   1      -2.644   3.621  -2.395  0.00  0.00     0.298 HD
ENDROOT
TORSDOF 0
ENDMDL
