MODEL 1
REMARK minimizedAffinity 14.4255867
REMARK minimizedRMSD -1
REMARK  0 active torsions:
REMARK  status: ('A' for Active; 'I' for Inactive)
ROOT
ATOM      1  N1  IND d   1       1.792  -0.999   1.919  0.00  0.00    -0.196 N 
ATOM      2  C2  IND d   1       0.473  -1.333   2.049  0.00  0.00     0.054 A 
ATOM      3  C3  IND d   1       0.205  -2.465   1.360  0.00  0.00    -0.031 A 
ATOM      4  C4  IND d   1       1.801  -3.989   0.034  0.00  0.00     0.051 A 
ATOM      5  C5  IND d   1       3.094  -4.078  -0.400  0.00  0.00    -0.031 A 
ATOM      6  C6  IND d   1       4.039  -3.126  -0.075  0.00  0.00     0.015 A 
ATOM      7  C7  IND d   1       3.727  -2.052   0.710  0.00  0.00    -0.016 A 
ATOM      8  C8  IND d   1       2.413  -1.956   1.147  0.00  0.00    -0.047 A 
ATOM      9  C9  IND d   1       1.440  -2.896   0.785  0.00  0.00    -0.096 A 
ATOM     10  HN1 IND d   1       2.170  -0.307   2.262  0.00  0.00     0.298 HD
ENDROOT
TORSDOF 0
ENDMDL
