MODEL 1
REMARK minimizedAffinity 12.0356541
REMARK minimizedRMSD -1
REMARK  0 active torsions:
REMARK  status: ('A' for Active; 'I' for Inactive)
ROOT
ATOM      1  N1  IND d   1       0.453  -2.719   1.200  0.00  0.00    -0.196 N 
ATOM      2  C2  IND d   1       0.693  -1.399   1.462  0.00  0.00     0.054 A 
ATOM      3  C3  IND d   1       2.023  -1.163   1.507  0.00  0.00    -0.031 A 
ATOM      4  C4  IND d   1       3.986  -2.772   1.079  0.00  0.00     0.051 A 
ATOM      5  C5  IND d   1       4.267  -4.088   0.839  0.00  0.00    -0.031 A 
ATOM      6  C6  IND d   1       3.272  -5.034   0.702  0.00  0.00     0.015 A 
ATOM      7  C7  IND d   1       1.951  -4.695   0.788  0.00  0.00    -0.016 A 
ATOM      8  C8  IND d   1       1.662  -3.361   1.039  0.00  0.00    -0.047 A 
ATOM      9  C9  IND d   1       2.669  -2.405   1.221  0.00  0.00    -0.096 A 
ATOM     10  HN1 IND d   1      -0.322  -3.087   1.145  0.00  0.00     0.298 HD
ENDROOT
TORSDOF 0
ENDMDL
