MODEL 1
REMARK minimizedAffinity 11.0371857
REMARK minimizedRMSD -1
REMARK  0 active torsions:
REMARK  status: ('A' for Active; 'I' for Inactive)
ROOT
ATOM      1  N1  IND d   1       5.337  -3.067  -0.971  0.00  0.00    -0.196 N 
ATOM      2  C2  IND d   1       6.000  -1.910  -0.668  0.00  0.00     0.054 A 
ATOM      3  C3  IND d   1       5.183  -1.059  -0.008  0.00  0.00    -0.031 A 
ATOM      4  C4  IND d   1       2.752  -1.398   0.769  0.00  0.00     0.051 A 
ATOM      5  C5  IND d   1       1.710  -2.278   0.693  0.00  0.00    -0.031 A 
ATOM      6  C6  IND d   1       1.826  -3.492   0.048  0.00  0.00     0.015 A 
ATOM      7  C7  IND d   1       2.999  -3.878  -0.538  0.00  0.00    -0.016 A 
ATOM      8  C8  IND d   1       4.057  -2.983  -0.469  0.00  0.00    -0.047 A 
ATOM      9  C9  IND d   1       3.932  -1.732   0.148  0.00  0.00    -0.096 A 
ATOM     10  HN1 IND d   1       5.665  -3.735  -1.402  0.00  0.00     0.298 HD
ENDROOT
TORSDOF 0
ENDMDL
