MODEL 1
REMARK minimizedAffinity 16.0667782
REMARK minimizedRMSD -1
REMARK  0 active torsions:
REMARK  status: ('A' for Active; 'I' for Inactive)
ROOT
ATOM      1  N1  IND d   1      -2.625   2.688  -3.000  0.00  0.00    -0.196 N 
ATOM      2  C2  IND d   1      -1.462   2.974  -3.660  0.00  0.00     0.054 A 
ATOM      3  C3  IND d   1      -0.520   2.047  -3.376  0.00  0.00    -0.031 A 
ATOM      4  C4  IND d   1      -0.700  -0.079  -1.934  0.00  0.00     0.051 A 
ATOM      5  C5  IND d   1      -1.552  -0.745  -1.099  0.00  0.00    -0.031 A 
ATOM      6  C6  IND d   1      -2.833  -0.293  -0.852  0.00  0.00     0.015 A 
ATOM      7  C7  IND d   1      -3.314   0.841  -1.443  0.00  0.00    -0.016 A 
ATOM      8  C8  IND d   1      -2.449   1.524  -2.286  0.00  0.00    -0.047 A 
ATOM      9  C9  IND d   1      -1.134   1.093  -2.507  0.00  0.00    -0.096 A 
ATOM     10  HN1 IND d   1      -3.345   3.158  -3.027  0.00  0.00     0.298 HD
ENDROOT
TORSDOF 0
ENDMDL
