MODEL 1
REMARK minimizedAffinity 15.5580549
REMARK minimizedRMSD -1
REMARK  0 active torsions:
REMARK  status: ('A' for Active; 'I' for Inactive)
ROOT
ATOM      1  N1  IND d   1       0.382  -3.350   1.198  0.00  0.00    -0.196 N 
ATOM      2  C2  IND d   1       1.114  -4.056   0.285  0.00  0.00     0.054 A 
ATOM      3  C3  IND d   1       2.235  -3.375  -0.046  0.00  0.00    -0.031 A 
ATOM      4  C4  IND d   1       3.116  -1.134   0.864  0.00  0.00     0.051 A 
ATOM      5  C5  IND d   1       2.776  -0.097   1.688  0.00  0.00    -0.031 A 
ATOM      6  C6  IND d   1       1.598  -0.093   2.407  0.00  0.00     0.015 A 
ATOM      7  C7  IND d   1       0.718  -1.136   2.337  0.00  0.00    -0.016 A 
ATOM      8  C8  IND d   1       1.056  -2.187   1.496  0.00  0.00    -0.047 A 
ATOM      9  C9  IND d   1       2.230  -2.177   0.732  0.00  0.00    -0.096 A 
ATOM     10  HN1 IND d   1      -0.374  -3.592   1.530  0.00  0.00     0.298 HD
ENDROOT
TORSDOF 0
ENDMDL
