MODEL 1
REMARK minimizedAffinity 16.8169804
REMARK minimizedRMSD -1
REMARK  0 active torsions:
REMARK  status: ('A' for Active; 'I' for Inactive)
ROOT
ATOM      1  N1  IND d   1       1.435  -2.616  -0.689  0.00  0.00    -0.196 N 
ATOM      2  C2  IND d   1       1.865  -3.843  -0.267  0.00  0.00     0.054 A 
ATOM      3  C3  IND d   1       2.238  -3.790   1.031  0.00  0.00    -0.031 A 
ATOM      4  C4  IND d   1       2.131  -1.819   2.684  0.00  0.00     0.051 A 
ATOM      5  C5  IND d   1       1.844  -0.485   2.752  0.00  0.00    -0.031 A 
ATOM      6  C6  IND d   1       1.395   0.221   1.655  0.00  0.00     0.015 A 
ATOM      7  C7  IND d   1       1.204  -0.386   0.446  0.00  0.00    -0.016 A 
ATOM      8  C8  IND d   1       1.501  -1.740   0.372  0.00  0.00    -0.047 A 
ATOM      9  C9  IND d   1       1.997  -2.452   1.471  0.00  0.00    -0.096 A 
ATOM     10  HN1 IND d   1       1.169  -2.423  -1.484  0.00  0.00     0.298 HD
ENDROOT
TORSDOF 0
ENDMDL
