MODEL 1
REMARK minimizedAffinity 7.50628471
REMARK minimizedRMSD -1
REMARK  0 active torsions:
REMARK  status: ('A' for Active; 'I' for Inactive)
ROOT
ATOM      1  N1  IND d   1      -0.421   2.353  -2.593  0.00  0.00    -0.196 N 
ATOM      2  C2  IND d   1       0.630   2.487  -3.456  0.00  0.00     0.054 A 
ATOM      3  C3  IND d   1       0.207   2.369  -4.734  0.00  0.00    -0.031 A 
ATOM      4  C4  IND d   1      -2.180   2.054  -5.645  0.00  0.00     0.051 A 
ATOM      5  C5  IND d   1      -3.468   1.842  -5.240  0.00  0.00    -0.031 A 
ATOM      6  C6  IND d   1      -3.814   1.790  -3.905  0.00  0.00     0.015 A 
ATOM      7  C7  IND d   1      -2.882   1.962  -2.921  0.00  0.00    -0.016 A 
ATOM      8  C8  IND d   1      -1.572   2.171  -3.328  0.00  0.00    -0.047 A 
ATOM      9  C9  IND d   1      -1.208   2.182  -4.681  0.00  0.00    -0.096 A 
ATOM     10  HN1 IND d   1      -0.372   2.378  -1.734  0.00  0.00     0.298 HD
ENDROOT
TORSDOF 0
ENDMDL
