MODEL 1
REMARK minimizedAffinity 6.92231894
REMARK minimizedRMSD -1
REMARK  0 active torsions:
REMARK  status: ('A' for Active; 'I' for Inactive)
ROOT
ATOM      1  C   UNL d   1       3.765   1.209   1.801  0.00  0.00     0.023 A 
ATOM      2  C1  UNL d   1       2.884   1.591   0.789  0.00  0.00     0.003 A 
ATOM      3  C2  UNL d   1       2.319   0.626  -0.047  0.00  0.00     0.048 A 
ATOM      4  C3  UNL d   1       2.639  -0.719   0.134  0.00  0.00     0.023 A 
ATOM      5  C4  UNL d   1       3.520  -1.106   1.145  0.00  0.00     0.048 A 
ATOM      6  C5  UNL d   1       4.082  -0.137   1.979  0.00  0.00     0.003 A 
ATOM      7  I   UNL d   1       1.800  -2.157  -1.110  0.00  0.00    -0.146 I 
ENDROOT
TORSDOF 0
ENDMDL
