MODEL 1
REMARK minimizedAffinity 1.64254236
REMARK minimizedRMSD -1
REMARK  0 active torsions:
REMARK  status: ('A' for Active; 'I' for Inactive)
ROOT
ATOM      1  C   UNL d   1       0.885   0.547   0.146  0.00  0.00     0.023 A 
ATOM      2  C1  UNL d   1       1.100   1.925   0.163  0.00  0.00     0.003 A 
ATOM      3  C2  UNL d   1       2.385   2.435  -0.029  0.00  0.00     0.048 A 
ATOM      4  C3  UNL d   1       3.452   1.561  -0.238  0.00  0.00     0.023 A 
ATOM      5  C4  UNL d   1       3.241   0.181  -0.257  0.00  0.00     0.048 A 
ATOM      6  C5  UNL d   1       1.954  -0.324  -0.064  0.00  0.00     0.003 A 
ATOM      7  I   UNL d   1       5.366   2.317  -0.524  0.00  0.00    -0.146 I 
ENDROOT
TORSDOF 0
ENDMDL
