MODEL 1
REMARK minimizedAffinity 4.42782927
REMARK minimizedRMSD -1
REMARK  0 active torsions:
REMARK  status: ('A' for Active; 'I' for Inactive)
ROOT
ATOM      1  C   UNL d   1       4.055   0.115  -0.140  0.00  0.00     0.023 A 
ATOM      2  C1  UNL d   1       3.014  -0.800   0.022  0.00  0.00     0.003 A 
ATOM      3  C2  UNL d   1       1.707  -0.346   0.208  0.00  0.00     0.048 A 
ATOM      4  C3  UNL d   1       1.447   1.024   0.229  0.00  0.00     0.023 A 
ATOM      5  C4  UNL d   1       2.485   1.943   0.067  0.00  0.00     0.048 A 
ATOM      6  C5  UNL d   1       3.791   1.484  -0.118  0.00  0.00     0.003 A 
ATOM      7  I   UNL d   1      -0.498   1.702   0.505  0.00  0.00    -0.146 I 
ENDROOT
TORSDOF 0
ENDMDL
