MODEL 1
REMARK minimizedAffinity 2.90120864
REMARK minimizedRMSD -1
REMARK  0 active torsions:
REMARK  status: ('A' for Active; 'I' for Inactive)
ROOT
ATOM      1  C   UNL d   1       4.361   0.223   0.538  0.00  0.00     0.023 A 
ATOM      2  C1  UNL d   1       3.274  -0.647   0.610  0.00  0.00     0.003 A 
ATOM      3  C2  UNL d   1       1.974  -0.140   0.665  0.00  0.00     0.048 A 
ATOM      4  C3  UNL d   1       1.769   1.239   0.647  0.00  0.00     0.023 A 
ATOM      5  C4  UNL d   1       2.854   2.114   0.575  0.00  0.00     0.048 A 
ATOM      6  C5  UNL d   1       4.151   1.602   0.521  0.00  0.00     0.003 A 
ATOM      7  I   UNL d   1      -0.165   1.996   0.729  0.00  0.00    -0.146 I 
ENDROOT
TORSDOF 0
ENDMDL
