MODEL 1
REMARK minimizedAffinity 3.88150096
REMARK minimizedRMSD -1
REMARK  0 active torsions:
REMARK  status: ('A' for Active; 'I' for Inactive)
ROOT
ATOM      1  C   UNL d   1      -0.239  -2.976  -0.982  0.00  0.00     0.023 A 
ATOM      2  C1  UNL d   1       1.041  -3.075  -0.436  0.00  0.00     0.003 A 
ATOM      3  C2  UNL d   1       1.799  -1.924  -0.217  0.00  0.00     0.048 A 
ATOM      4  C3  UNL d   1       1.271  -0.675  -0.544  0.00  0.00     0.023 A 
ATOM      5  C4  UNL d   1      -0.010  -0.571  -1.089  0.00  0.00     0.048 A 
ATOM      6  C5  UNL d   1      -0.764  -1.726  -1.308  0.00  0.00     0.003 A 
ATOM      7  I   UNL d   1       2.397   1.041  -0.218  0.00  0.00    -0.146 I 
ENDROOT
TORSDOF 0
ENDMDL
