MODEL 1
REMARK minimizedAffinity 9.04491615
REMARK minimizedRMSD -1
REMARK  0 active torsions:
REMARK  status: ('A' for Active; 'I' for Inactive)
ROOT
ATOM      1  C   UNL d   1       0.674   0.021   3.086  0.00  0.00     0.023 A 
ATOM      2  C1  UNL d   1       1.204   1.227   3.545  0.00  0.00     0.003 A 
ATOM      3  C2  UNL d   1       1.179   2.359   2.727  0.00  0.00     0.048 A 
ATOM      4  C3  UNL d   1       0.621   2.278   1.451  0.00  0.00     0.023 A 
ATOM      5  C4  UNL d   1       0.089   1.073   0.988  0.00  0.00     0.048 A 
ATOM      6  C5  UNL d   1       0.117  -0.055   1.809  0.00  0.00     0.003 A 
ATOM      7  I   UNL d   1       0.582   3.961   0.232  0.00  0.00    -0.146 I 
ENDROOT
TORSDOF 0
ENDMDL
