MODEL 1
REMARK minimizedAffinity 2.25098205
REMARK minimizedRMSD -1
REMARK  0 active torsions:
REMARK  status: ('A' for Active; 'I' for Inactive)
ROOT
ATOM      1  C   UNL d   1       5.033  -2.770  -2.612  0.00  0.00     0.023 A 
ATOM      2  C1  UNL d   1       3.825  -2.255  -2.142  0.00  0.00     0.003 A 
ATOM      3  C2  UNL d   1       2.773  -3.118  -1.825  0.00  0.00     0.048 A 
ATOM      4  C3  UNL d   1       2.937  -4.494  -1.981  0.00  0.00     0.023 A 
ATOM      5  C4  UNL d   1       4.144  -5.013  -2.450  0.00  0.00     0.048 A 
ATOM      6  C5  UNL d   1       5.192  -4.147  -2.766  0.00  0.00     0.003 A 
ATOM      7  I   UNL d   1       1.373  -5.779  -1.510  0.00  0.00    -0.146 I 
ENDROOT
TORSDOF 0
ENDMDL
