MODEL 1
REMARK minimizedAffinity 8.03256226
REMARK minimizedRMSD -1
REMARK  0 active torsions:
REMARK  status: ('A' for Active; 'I' for Inactive)
ROOT
ATOM      1  C   UNL d   1      -2.480  -0.172  -1.188  0.00  0.00     0.023 A 
ATOM      2  C1  UNL d   1      -1.233   0.045  -0.601  0.00  0.00     0.003 A 
ATOM      3  C2  UNL d   1      -0.646   1.310  -0.653  0.00  0.00     0.048 A 
ATOM      4  C3  UNL d   1      -1.311   2.355  -1.294  0.00  0.00     0.023 A 
ATOM      5  C4  UNL d   1      -2.559   2.143  -1.882  0.00  0.00     0.048 A 
ATOM      6  C5  UNL d   1      -3.142   0.876  -1.828  0.00  0.00     0.003 A 
ATOM      7  I   UNL d   1      -0.439   4.240  -1.373  0.00  0.00    -0.146 I 
ENDROOT
TORSDOF 0
ENDMDL
