MODEL 1
REMARK minimizedAffinity 11.3502703
REMARK minimizedRMSD -1
REMARK  0 active torsions:
REMARK  status: ('A' for Active; 'I' for Inactive)
ROOT
ATOM      1  C   UNL d   1       0.656   2.880  -0.391  0.00  0.00     0.023 A 
ATOM      2  C1  UNL d   1       1.110   4.159  -0.712  0.00  0.00     0.003 A 
ATOM      3  C2  UNL d   1       0.269   5.054  -1.376  0.00  0.00     0.048 A 
ATOM      4  C3  UNL d   1      -1.026   4.663  -1.716  0.00  0.00     0.023 A 
ATOM      5  C4  UNL d   1      -1.485   3.384  -1.396  0.00  0.00     0.048 A 
ATOM      6  C5  UNL d   1      -0.640   2.493  -0.732  0.00  0.00     0.003 A 
ATOM      7  I   UNL d   1      -2.280   5.993  -2.704  0.00  0.00    -0.146 I 
ENDROOT
TORSDOF 0
ENDMDL
