MODEL 1
REMARK minimizedAffinity -1.20519054
REMARK minimizedRMSD -1
REMARK  0 active torsions:
REMARK  status: ('A' for Active; 'I' for Inactive)
ROOT
ATOM      1  C   UNL d   1       3.684  -2.813  -3.175  0.00  0.00     0.023 A 
ATOM      2  C1  UNL d   1       4.155  -2.231  -1.998  0.00  0.00     0.003 A 
ATOM      3  C2  UNL d   1       4.819  -3.011  -1.048  0.00  0.00     0.048 A 
ATOM      4  C3  UNL d   1       5.010  -4.372  -1.283  0.00  0.00     0.023 A 
ATOM      5  C4  UNL d   1       4.542  -4.959  -2.460  0.00  0.00     0.048 A 
ATOM      6  C5  UNL d   1       3.878  -4.175  -3.406  0.00  0.00     0.003 A 
ATOM      7  I   UNL d   1       5.998  -5.535   0.128  0.00  0.00    -0.146 I 
ENDROOT
TORSDOF 0
ENDMDL
