MODEL 1
REMARK minimizedAffinity 6.97093344
REMARK minimizedRMSD -1
REMARK  1 active torsions:
REMARK  status: ('A' for Active; 'I' for Inactive)
REMARK    1  A    between atoms: C1_2  and  C2_3 
ROOT
ATOM      1  C2  UNL d   1       0.396   2.581   1.121  0.00  0.00    -0.076 A 
ATOM      2  C3  UNL d   1      -0.666   2.599   0.199  0.00  0.00     0.004 A 
ATOM      3  C4  UNL d   1      -0.514   3.178  -1.059  0.00  0.00    -0.003 A 
ATOM      4  C5  UNL d   1       0.703   3.748  -1.417  0.00  0.00     0.000 A 
ATOM      5  C6  UNL d   1       1.772   3.724  -0.522  0.00  0.00     0.000 A 
ATOM      6  C7  UNL d   1       1.640   3.130   0.745  0.00  0.00    -0.073 A 
ATOM      7  C8  UNL d   1       2.824   3.137   1.672  0.00  0.00     0.078 C 
ENDROOT
BRANCH   1   8
ATOM      8  C1  UNL d   1       0.163   1.963   2.481  0.00  0.00     0.053 C 
ATOM      9  C   UNL d   1      -1.284   1.548   2.693  0.00  0.00     0.018 C 
ENDBRANCH   1   8
TORSDOF 1
ENDMDL
