MODEL 1
REMARK minimizedAffinity 9.12388611
REMARK minimizedRMSD -1
REMARK  1 active torsions:
REMARK  status: ('A' for Active; 'I' for Inactive)
REMARK    1  A    between atoms: C1_2  and  C2_3 
ROOT
ATOM      1  C2  UNL d   1      -2.391   5.506  -0.597  0.00  0.00    -0.076 A 
ATOM      2  C3  UNL d   1      -2.170   5.754   0.769  0.00  0.00     0.004 A 
ATOM      3  C4  UNL d   1      -3.234   6.000   1.635  0.00  0.00    -0.003 A 
ATOM      4  C5  UNL d   1      -4.537   6.000   1.150  0.00  0.00     0.000 A 
ATOM      5  C6  UNL d   1      -4.776   5.738  -0.199  0.00  0.00     0.000 A 
ATOM      6  C7  UNL d   1      -3.716   5.473  -1.082  0.00  0.00    -0.073 A 
ATOM      7  C8  UNL d   1      -4.031   5.203  -2.528  0.00  0.00     0.078 C 
ENDROOT
BRANCH   1   8
ATOM      8  C1  UNL d   1      -1.196   5.274  -1.493  0.00  0.00     0.053 C 
ATOM      9  C   UNL d   1      -0.368   4.074  -1.061  0.00  0.00     0.018 C 
ENDBRANCH   1   8
TORSDOF 1
ENDMDL
