MODEL 1
REMARK minimizedAffinity 11.3884993
REMARK minimizedRMSD -1
REMARK  1 active torsions:
REMARK  status: ('A' for Active; 'I' for Inactive)
REMARK    1  A    between atoms: C1_2  and  C2_3 
ROOT
ATOM      1  C2  UNL d   1       4.307  -4.870  -1.236  0.00  0.00    -0.076 A 
ATOM      2  C3  UNL d   1       3.835  -5.837  -2.141  0.00  0.00     0.004 A 
ATOM      3  C4  UNL d   1       4.428  -6.000  -3.392  0.00  0.00    -0.003 A 
ATOM      4  C5  UNL d   1       5.505  -5.199  -3.757  0.00  0.00     0.000 A 
ATOM      5  C6  UNL d   1       5.998  -4.247  -2.866  0.00  0.00     0.000 A 
ATOM      6  C7  UNL d   1       5.421  -4.081  -1.595  0.00  0.00    -0.073 A 
ATOM      7  C8  UNL d   1       5.990  -3.035  -0.675  0.00  0.00     0.078 C 
ENDROOT
BRANCH   1   8
ATOM      8  C1  UNL d   1       3.606  -4.720   0.095  0.00  0.00     0.053 C 
ATOM      9  C   UNL d   1       2.112  -4.481  -0.057  0.00  0.00     0.018 C 
ENDBRANCH   1   8
TORSDOF 1
ENDMDL
