MODEL 1
REMARK minimizedAffinity -3.82057452
REMARK minimizedRMSD -1
REMARK  0 active torsions:
REMARK  status: ('A' for Active; 'I' for Inactive)
ROOT
ATOM      1  C   UNL d   1       1.490  -0.371  -3.204  0.00  0.00     0.077 C 
ATOM      2  C1  UNL d   1       1.091   0.271  -1.908  0.00  0.00    -0.074 A 
ATOM      3  C2  UNL d   1       1.813   1.350  -1.388  0.00  0.00    -0.005 A 
ATOM      4  C3  UNL d   1       1.424   1.943  -0.187  0.00  0.00     0.006 A 
ATOM      5  C4  UNL d   1       0.312   1.463   0.506  0.00  0.00    -0.005 A 
ATOM      6  C5  UNL d   1      -0.422   0.385   0.002  0.00  0.00    -0.074 A 
ATOM      7  C6  UNL d   1      -1.625  -0.137   0.729  0.00  0.00     0.077 C 
ATOM      8  C7  UNL d   1      -0.030  -0.201  -1.210  0.00  0.00    -0.001 A 
ENDROOT
TORSDOF 0
ENDMDL
