MODEL 1
REMARK minimizedAffinity -4.90369606
REMARK minimizedRMSD -1
REMARK  0 active torsions:
REMARK  status: ('A' for Active; 'I' for Inactive)
ROOT
ATOM      1  C   UNL d   1      -0.958  -0.172   0.857  0.00  0.00     0.077 C 
ATOM      2  C1  UNL d   1       0.081  -0.246  -0.221  0.00  0.00    -0.074 A 
ATOM      3  C2  UNL d   1       0.584   0.916  -0.815  0.00  0.00    -0.005 A 
ATOM      4  C3  UNL d   1       1.558   0.832  -1.811  0.00  0.00     0.006 A 
ATOM      5  C4  UNL d   1       2.037  -0.413  -2.221  0.00  0.00    -0.005 A 
ATOM      6  C5  UNL d   1       1.547  -1.585  -1.638  0.00  0.00    -0.074 A 
ATOM      7  C6  UNL d   1       2.059  -2.930  -2.061  0.00  0.00     0.077 C 
ATOM      8  C7  UNL d   1       0.574  -1.492  -0.634  0.00  0.00    -0.001 A 
ENDROOT
TORSDOF 0
ENDMDL
