MODEL 1
REMARK minimizedAffinity -3.51542401
REMARK minimizedRMSD -1
REMARK  0 active torsions:
REMARK  status: ('A' for Active; 'I' for Inactive)
ROOT
ATOM      1  C   UNL d   1      -0.432   0.780   0.752  0.00  0.00     0.077 C 
ATOM      2  C1  UNL d   1       0.396   0.178  -0.344  0.00  0.00    -0.074 A 
ATOM      3  C2  UNL d   1       1.223   0.976  -1.141  0.00  0.00    -0.005 A 
ATOM      4  C3  UNL d   1       1.995   0.400  -2.150  0.00  0.00     0.006 A 
ATOM      5  C4  UNL d   1       1.948  -0.977  -2.372  0.00  0.00    -0.005 A 
ATOM      6  C5  UNL d   1       1.128  -1.791  -1.584  0.00  0.00    -0.074 A 
ATOM      7  C6  UNL d   1       1.073  -3.273  -1.802  0.00  0.00     0.077 C 
ATOM      8  C7  UNL d   1       0.360  -1.205  -0.567  0.00  0.00    -0.001 A 
ENDROOT
TORSDOF 0
ENDMDL
