MODEL 1
REMARK minimizedAffinity -4.56782532
REMARK minimizedRMSD -1
REMARK  0 active torsions:
REMARK  status: ('A' for Active; 'I' for Inactive)
ROOT
ATOM      1  C   UNL d   1       1.639  -2.838  -2.276  0.00  0.00     0.077 C 
ATOM      2  C1  UNL d   1       1.408  -1.470  -1.707  0.00  0.00    -0.074 A 
ATOM      3  C2  UNL d   1       2.196  -0.384  -2.104  0.00  0.00    -0.005 A 
ATOM      4  C3  UNL d   1       1.963   0.885  -1.573  0.00  0.00     0.006 A 
ATOM      5  C4  UNL d   1       0.942   1.081  -0.643  0.00  0.00    -0.005 A 
ATOM      6  C5  UNL d   1       0.143   0.008  -0.235  0.00  0.00    -0.074 A 
ATOM      7  C6  UNL d   1      -0.965   0.203   0.756  0.00  0.00     0.077 C 
ATOM      8  C7  UNL d   1       0.379  -1.263  -0.778  0.00  0.00    -0.001 A 
ENDROOT
TORSDOF 0
ENDMDL
