MODEL 1
REMARK minimizedAffinity -4.98304462
REMARK minimizedRMSD -1
REMARK  0 active torsions:
REMARK  status: ('A' for Active; 'I' for Inactive)
ROOT
ATOM      1  C   UNL d   1      -0.532  -0.726   1.696  0.00  0.00     0.077 C 
ATOM      2  C1  UNL d   1      -0.412   0.002   0.390  0.00  0.00    -0.074 A 
ATOM      3  C2  UNL d   1      -1.300   1.030   0.056  0.00  0.00    -0.005 A 
ATOM      4  C3  UNL d   1      -1.171   1.705  -1.158  0.00  0.00     0.006 A 
ATOM      5  C4  UNL d   1      -0.155   1.359  -2.049  0.00  0.00    -0.005 A 
ATOM      6  C5  UNL d   1       0.743   0.334  -1.732  0.00  0.00    -0.074 A 
ATOM      7  C6  UNL d   1       1.847  -0.044  -2.675  0.00  0.00     0.077 C 
ATOM      8  C7  UNL d   1       0.611  -0.334  -0.507  0.00  0.00    -0.001 A 
ENDROOT
TORSDOF 0
ENDMDL
