MODEL 1
REMARK minimizedAffinity -4.74482203
REMARK minimizedRMSD -1
REMARK  0 active torsions:
REMARK  status: ('A' for Active; 'I' for Inactive)
ROOT
ATOM      1  C   UNL d   1       1.227  -3.418  -1.268  0.00  0.00     0.077 C 
ATOM      2  C1  UNL d   1       1.311  -1.950  -1.566  0.00  0.00    -0.074 A 
ATOM      3  C2  UNL d   1       1.895  -1.490  -2.751  0.00  0.00    -0.005 A 
ATOM      4  C3  UNL d   1       1.958  -0.122  -3.018  0.00  0.00     0.006 A 
ATOM      5  C4  UNL d   1       1.440   0.797  -2.106  0.00  0.00    -0.005 A 
ATOM      6  C5  UNL d   1       0.851   0.355  -0.916  0.00  0.00    -0.074 A 
ATOM      7  C6  UNL d   1       0.280   1.329   0.070  0.00  0.00     0.077 C 
ATOM      8  C7  UNL d   1       0.785  -1.021  -0.658  0.00  0.00    -0.001 A 
ENDROOT
TORSDOF 0
ENDMDL
