MODEL 1
REMARK minimizedAffinity -1.10346735
REMARK minimizedRMSD -1
REMARK  0 active torsions:
REMARK  status: ('A' for Active; 'I' for Inactive)
ROOT
ATOM      1  C   UNL d   1       0.877   0.347  -2.767  0.00  0.00     0.077 C 
ATOM      2  C1  UNL d   1       0.490   0.286  -1.319  0.00  0.00    -0.074 A 
ATOM      3  C2  UNL d   1       1.404   0.628  -0.316  0.00  0.00    -0.005 A 
ATOM      4  C3  UNL d   1       1.027   0.576   1.026  0.00  0.00     0.006 A 
ATOM      5  C4  UNL d   1      -0.264   0.182   1.378  0.00  0.00    -0.005 A 
ATOM      6  C5  UNL d   1      -1.192  -0.162   0.390  0.00  0.00    -0.074 A 
ATOM      7  C6  UNL d   1      -2.587  -0.578   0.751  0.00  0.00     0.077 C 
ATOM      8  C7  UNL d   1      -0.808  -0.100  -0.957  0.00  0.00    -0.001 A 
ENDROOT
TORSDOF 0
ENDMDL
