MODEL 1
REMARK minimizedAffinity -5.43741322
REMARK minimizedRMSD -1
REMARK  0 active torsions:
REMARK  status: ('A' for Active; 'I' for Inactive)
ROOT
ATOM      1  C   UNL d   1      -1.589   0.235   0.192  0.00  0.00     0.077 C 
ATOM      2  C1  UNL d   1      -0.395   0.033  -0.694  0.00  0.00    -0.074 A 
ATOM      3  C2  UNL d   1       0.028   1.037  -1.570  0.00  0.00    -0.005 A 
ATOM      4  C3  UNL d   1       1.146   0.838  -2.381  0.00  0.00     0.006 A 
ATOM      5  C4  UNL d   1       1.850  -0.365  -2.324  0.00  0.00    -0.005 A 
ATOM      6  C5  UNL d   1       1.442  -1.381  -1.453  0.00  0.00    -0.074 A 
ATOM      7  C6  UNL d   1       2.193  -2.676  -1.372  0.00  0.00     0.077 C 
ATOM      8  C7  UNL d   1       0.322  -1.171  -0.637  0.00  0.00    -0.001 A 
ENDROOT
TORSDOF 0
ENDMDL
