MODEL 1
REMARK minimizedAffinity -5.29812002
REMARK minimizedRMSD -1
REMARK  0 active torsions:
REMARK  status: ('A' for Active; 'I' for Inactive)
ROOT
ATOM      1  C   UNL d   1      -3.034   1.220   1.211  0.00  0.00     0.077 C 
ATOM      2  C1  UNL d   1      -1.725   0.527   0.971  0.00  0.00    -0.074 A 
ATOM      3  C2  UNL d   1      -1.236  -0.419   1.878  0.00  0.00    -0.005 A 
ATOM      4  C3  UNL d   1      -0.022  -1.062   1.637  0.00  0.00     0.006 A 
ATOM      5  C4  UNL d   1       0.714  -0.766   0.489  0.00  0.00    -0.005 A 
ATOM      6  C5  UNL d   1       0.241   0.177  -0.429  0.00  0.00    -0.074 A 
ATOM      7  C6  UNL d   1       1.015   0.500  -1.672  0.00  0.00     0.077 C 
ATOM      8  C7  UNL d   1      -0.983   0.814  -0.183  0.00  0.00    -0.001 A 
ENDROOT
TORSDOF 0
ENDMDL
