MODEL 1
REMARK minimizedAffinity -4.7469511
REMARK minimizedRMSD -1
REMARK  0 active torsions:
REMARK  status: ('A' for Active; 'I' for Inactive)
ROOT
ATOM      1  C   UNL d   1       0.292   0.745  -1.273  0.00  0.00     0.077 C 
ATOM      2  C1  UNL d   1      -0.568   0.477  -0.074  0.00  0.00    -0.074 A 
ATOM      3  C2  UNL d   1      -0.066  -0.221   1.030  0.00  0.00    -0.005 A 
ATOM      4  C3  UNL d   1      -0.875  -0.454   2.142  0.00  0.00     0.006 A 
ATOM      5  C4  UNL d   1      -2.192   0.008   2.162  0.00  0.00    -0.005 A 
ATOM      6  C5  UNL d   1      -2.711   0.708   1.068  0.00  0.00    -0.074 A 
ATOM      7  C6  UNL d   1      -4.121   1.220   1.078  0.00  0.00     0.077 C 
ATOM      8  C7  UNL d   1      -1.889   0.945  -0.043  0.00  0.00    -0.001 A 
ENDROOT
TORSDOF 0
ENDMDL
