MODEL 1
REMARK minimizedAffinity -4.18465948
REMARK minimizedRMSD -1
REMARK  0 active torsions:
REMARK  status: ('A' for Active; 'I' for Inactive)
ROOT
ATOM      1  C   UNL d   1       1.112   2.307   0.806  0.00  0.00     0.077 C 
ATOM      2  C1  UNL d   1       0.913   1.000   0.098  0.00  0.00    -0.074 A 
ATOM      3  C2  UNL d   1       0.127  -0.010   0.661  0.00  0.00    -0.005 A 
ATOM      4  C3  UNL d   1      -0.057  -1.217  -0.014  0.00  0.00     0.006 A 
ATOM      5  C4  UNL d   1       0.541  -1.425  -1.257  0.00  0.00    -0.005 A 
ATOM      6  C5  UNL d   1       1.329  -0.426  -1.837  0.00  0.00    -0.074 A 
ATOM      7  C6  UNL d   1       1.971  -0.629  -3.177  0.00  0.00     0.077 C 
ATOM      8  C7  UNL d   1       1.504   0.787  -1.156  0.00  0.00    -0.001 A 
ENDROOT
TORSDOF 0
ENDMDL
