MODEL 1
REMARK minimizedAffinity -0.109519489
REMARK minimizedRMSD -1
REMARK  0 active torsions:
REMARK  status: ('A' for Active; 'I' for Inactive)
ROOT
ATOM      1  C   UNL d   1       0.048  -2.810   0.254  0.00  0.00     0.077 C 
ATOM      2  C1  UNL d   1       0.378  -1.364   0.035  0.00  0.00    -0.074 A 
ATOM      3  C2  UNL d   1      -0.247  -0.362   0.784  0.00  0.00    -0.005 A 
ATOM      4  C3  UNL d   1       0.077   0.978   0.575  0.00  0.00     0.006 A 
ATOM      5  C4  UNL d   1       1.028   1.330  -0.383  0.00  0.00    -0.005 A 
ATOM      6  C5  UNL d   1       1.665   0.342  -1.141  0.00  0.00    -0.074 A 
ATOM      7  C6  UNL d   1       2.697   0.702  -2.168  0.00  0.00     0.077 C 
ATOM      8  C7  UNL d   1       1.339  -1.003  -0.921  0.00  0.00    -0.001 A 
ENDROOT
TORSDOF 0
ENDMDL
