MODEL 1
REMARK minimizedAffinity -5.864995
REMARK minimizedRMSD -1
REMARK  0 active torsions:
REMARK  status: ('A' for Active; 'I' for Inactive)
ROOT
ATOM      1  C   UNL d   1       1.889  -0.082  -2.926  0.00  0.00     0.077 C 
ATOM      2  C1  UNL d   1       1.340  -0.219  -1.537  0.00  0.00    -0.074 A 
ATOM      3  C2  UNL d   1       0.940  -1.464  -1.041  0.00  0.00    -0.005 A 
ATOM      4  C3  UNL d   1       0.440  -1.577   0.256  0.00  0.00     0.006 A 
ATOM      5  C4  UNL d   1       0.337  -0.448   1.070  0.00  0.00    -0.005 A 
ATOM      6  C5  UNL d   1       0.733   0.805   0.592  0.00  0.00    -0.074 A 
ATOM      7  C6  UNL d   1       0.638   2.026   1.457  0.00  0.00     0.077 C 
ATOM      8  C7  UNL d   1       1.240   0.909  -0.710  0.00  0.00    -0.001 A 
ENDROOT
TORSDOF 0
ENDMDL
