MODEL 1
REMARK minimizedAffinity -2.86219144
REMARK minimizedRMSD -1
REMARK  0 active torsions:
REMARK  status: ('A' for Active; 'I' for Inactive)
ROOT
ATOM      1  C   UNL d   1      -1.809   0.723   1.612  0.00  0.00     0.077 C 
ATOM      2  C1  UNL d   1      -0.732   0.115   0.763  0.00  0.00    -0.074 A 
ATOM      3  C2  UNL d   1      -0.503  -1.265   0.772  0.00  0.00    -0.005 A 
ATOM      4  C3  UNL d   1       0.496  -1.817  -0.029  0.00  0.00     0.006 A 
ATOM      5  C4  UNL d   1       1.275  -0.997  -0.846  0.00  0.00    -0.005 A 
ATOM      6  C5  UNL d   1       1.060   0.385  -0.869  0.00  0.00    -0.074 A 
ATOM      7  C6  UNL d   1       1.882   1.279  -1.749  0.00  0.00     0.077 C 
ATOM      8  C7  UNL d   1       0.050   0.932  -0.066  0.00  0.00    -0.001 A 
ENDROOT
TORSDOF 0
ENDMDL
