MODEL 1
REMARK minimizedAffinity -4.70581198
REMARK minimizedRMSD -1
REMARK  0 active torsions:
REMARK  status: ('A' for Active; 'I' for Inactive)
ROOT
ATOM      1  C   UNL d   1       1.520  -0.787  -3.114  0.00  0.00     0.077 C 
ATOM      2  C1  UNL d   1       1.016  -0.176  -1.841  0.00  0.00    -0.074 A 
ATOM      3  C2  UNL d   1       1.670   0.915  -1.259  0.00  0.00    -0.005 A 
ATOM      4  C3  UNL d   1       1.183   1.479  -0.080  0.00  0.00     0.006 A 
ATOM      5  C4  UNL d   1       0.040   0.960   0.528  0.00  0.00    -0.005 A 
ATOM      6  C5  UNL d   1      -0.628  -0.130  -0.040  0.00  0.00    -0.074 A 
ATOM      7  C6  UNL d   1      -1.864  -0.694   0.595  0.00  0.00     0.077 C 
ATOM      8  C7  UNL d   1      -0.137  -0.687  -1.229  0.00  0.00    -0.001 A 
ENDROOT
TORSDOF 0
ENDMDL
