MODEL 1
REMARK minimizedAffinity -5.00031185
REMARK minimizedRMSD -1
REMARK  0 active torsions:
REMARK  status: ('A' for Active; 'I' for Inactive)
ROOT
ATOM      1  C   UNL d   1      -3.396   0.642  -0.723  0.00  0.00     0.077 C 
ATOM      2  C1  UNL d   1      -1.952   0.648  -0.316  0.00  0.00    -0.074 A 
ATOM      3  C2  UNL d   1      -0.992   1.315  -1.084  0.00  0.00    -0.005 A 
ATOM      4  C3  UNL d   1       0.345   1.320  -0.688  0.00  0.00     0.006 A 
ATOM      5  C4  UNL d   1       0.736   0.660   0.477  0.00  0.00    -0.005 A 
ATOM      6  C5  UNL d   1      -0.210  -0.012   1.258  0.00  0.00    -0.074 A 
ATOM      7  C6  UNL d   1       0.191  -0.718   2.519  0.00  0.00     0.077 C 
ATOM      8  C7  UNL d   1      -1.553  -0.006   0.858  0.00  0.00    -0.001 A 
ENDROOT
TORSDOF 0
ENDMDL
