MODEL 1
REMARK minimizedAffinity -4.24381685
REMARK minimizedRMSD -1
REMARK  0 active torsions:
REMARK  status: ('A' for Active; 'I' for Inactive)
ROOT
ATOM      1  C   UNL d   1       2.177   1.171  -2.362  0.00  0.00     0.077 C 
ATOM      2  C1  UNL d   1       1.367   0.208  -1.546  0.00  0.00    -0.074 A 
ATOM      3  C2  UNL d   1       1.527  -1.173  -1.696  0.00  0.00    -0.005 A 
ATOM      4  C3  UNL d   1       0.773  -2.056  -0.923  0.00  0.00     0.006 A 
ATOM      5  C4  UNL d   1      -0.147  -1.568   0.006  0.00  0.00    -0.005 A 
ATOM      6  C5  UNL d   1      -0.319  -0.190   0.171  0.00  0.00    -0.074 A 
ATOM      7  C6  UNL d   1      -1.296   0.351   1.172  0.00  0.00     0.077 C 
ATOM      8  C7  UNL d   1       0.447   0.691  -0.604  0.00  0.00    -0.001 A 
ENDROOT
TORSDOF 0
ENDMDL
