MODEL 1
REMARK minimizedAffinity -4.43531942
REMARK minimizedRMSD -1
REMARK  0 active torsions:
REMARK  status: ('A' for Active; 'I' for Inactive)
ROOT
ATOM      1  C4' PXY d   1       1.916   1.070   1.728  0.00  0.00     0.077 C 
ATOM      2  C1' PXY d   1      -2.412  -1.876  -0.722  0.00  0.00     0.077 C 
ATOM      3  C1  PXY d   1      -1.277  -1.112  -0.070  0.00  0.00    -0.082 A 
ATOM      4  C2  PXY d   1      -1.064   0.152  -0.400  0.00  0.00     0.003 A 
ATOM      5  C3  PXY d   1      -0.023   0.848   0.156  0.00  0.00     0.003 A 
ATOM      6  C4  PXY d   1       0.776   0.262   1.101  0.00  0.00    -0.082 A 
ATOM      7  C5  PXY d   1       0.559  -1.023   1.452  0.00  0.00     0.003 A 
ATOM      8  C6  PXY d   1      -0.478  -1.726   0.845  0.00  0.00     0.003 A 
ENDROOT
TORSDOF 0
ENDMDL
