MODEL 1
REMARK minimizedAffinity 0.214846253
REMARK minimizedRMSD -1
REMARK  0 active torsions:
REMARK  status: ('A' for Active; 'I' for Inactive)
ROOT
ATOM      1  C4' PXY d   1       4.324   4.037  -0.898  0.00  0.00     0.077 C 
ATOM      2  C1' PXY d   1       3.001   2.732   4.576  0.00  0.00     0.077 C 
ATOM      3  C1  PXY d   1       3.338   3.067   3.137  0.00  0.00    -0.082 A 
ATOM      4  C2  PXY d   1       4.563   3.461   2.826  0.00  0.00     0.003 A 
ATOM      5  C3  PXY d   1       4.876   3.798   1.535  0.00  0.00     0.003 A 
ATOM      6  C4  PXY d   1       3.941   3.679   0.541  0.00  0.00    -0.082 A 
ATOM      7  C5  PXY d   1       2.693   3.268   0.848  0.00  0.00     0.003 A 
ATOM      8  C6  PXY d   1       2.383   2.970   2.172  0.00  0.00     0.003 A 
ENDROOT
TORSDOF 0
ENDMDL
