MODEL 1
REMARK minimizedAffinity -5.80647182
REMARK minimizedRMSD -1
REMARK  0 active torsions:
REMARK  status: ('A' for Active; 'I' for Inactive)
ROOT
ATOM      1  C4' PXY d   1      -2.234  -1.499  -0.005  0.00  0.00     0.077 C 
ATOM      2  C1' PXY d   1       2.436   1.830   0.713  0.00  0.00     0.077 C 
ATOM      3  C1  PXY d   1       1.218   0.947   0.529  0.00  0.00    -0.082 A 
ATOM      4  C2  PXY d   1       0.261   1.318  -0.306  0.00  0.00     0.003 A 
ATOM      5  C3  PXY d   1      -0.862   0.547  -0.461  0.00  0.00     0.003 A 
ATOM      6  C4  PXY d   1      -0.982  -0.643   0.206  0.00  0.00    -0.082 A 
ATOM      7  C5  PXY d   1      -0.005  -1.034   1.051  0.00  0.00     0.003 A 
ATOM      8  C6  PXY d   1       1.108  -0.217   1.225  0.00  0.00     0.003 A 
ENDROOT
TORSDOF 0
ENDMDL
