MODEL 1
REMARK minimizedAffinity 3.42967701
REMARK minimizedRMSD -1
REMARK  0 active torsions:
REMARK  status: ('A' for Active; 'I' for Inactive)
ROOT
ATOM      1  C4' PXY d   1       2.874   2.174   2.304  0.00  0.00     0.077 C 
ATOM      2  C1' PXY d   1      -1.001  -2.104   1.986  0.00  0.00     0.077 C 
ATOM      3  C1  PXY d   1       0.006  -0.974   2.072  0.00  0.00    -0.082 A 
ATOM      4  C2  PXY d   1       1.146  -1.061   1.407  0.00  0.00     0.003 A 
ATOM      5  C3  PXY d   1       2.081  -0.063   1.499  0.00  0.00     0.003 A 
ATOM      6  C4  PXY d   1       1.824   1.061   2.238  0.00  0.00    -0.082 A 
ATOM      7  C5  PXY d   1       0.658   1.162   2.911  0.00  0.00     0.003 A 
ATOM      8  C6  PXY d   1      -0.260   0.119   2.837  0.00  0.00     0.003 A 
ENDROOT
TORSDOF 0
ENDMDL
