MODEL 1
REMARK minimizedAffinity 8.64807224
REMARK minimizedRMSD -1
REMARK  0 active torsions:
REMARK  status: ('A' for Active; 'I' for Inactive)
ROOT
ATOM      1  C4' PXY d   1      -3.758  -2.402   4.822  0.00  0.00     0.077 C 
ATOM      2  C1' PXY d   1       1.208  -1.793   1.926  0.00  0.00     0.077 C 
ATOM      3  C1  PXY d   1      -0.095  -1.940   2.687  0.00  0.00    -0.082 A 
ATOM      4  C2  PXY d   1      -0.367  -3.077   3.306  0.00  0.00     0.003 A 
ATOM      5  C3  PXY d   1      -1.555  -3.238   3.972  0.00  0.00     0.003 A 
ATOM      6  C4  PXY d   1      -2.451  -2.206   4.050  0.00  0.00    -0.082 A 
ATOM      7  C5  PXY d   1      -2.176  -1.039   3.430  0.00  0.00     0.003 A 
ATOM      8  C6  PXY d   1      -0.983  -0.910   2.724  0.00  0.00     0.003 A 
ENDROOT
TORSDOF 0
ENDMDL
