MODEL 1
REMARK minimizedAffinity 7.50764132
REMARK minimizedRMSD -1
REMARK  0 active torsions:
REMARK  status: ('A' for Active; 'I' for Inactive)
ROOT
ATOM      1  C4' PXY d   1      -4.176  -1.579   0.244  0.00  0.00     0.077 C 
ATOM      2  C1' PXY d   1      -1.104   1.882  -3.220  0.00  0.00     0.077 C 
ATOM      3  C1  PXY d   1      -1.905   0.964  -2.318  0.00  0.00    -0.082 A 
ATOM      4  C2  PXY d   1      -3.003   1.415  -1.735  0.00  0.00     0.003 A 
ATOM      5  C3  PXY d   1      -3.722   0.608  -0.890  0.00  0.00     0.003 A 
ATOM      6  C4  PXY d   1      -3.342  -0.690  -0.682  0.00  0.00    -0.082 A 
ATOM      7  C5  PXY d   1      -2.228  -1.162  -1.282  0.00  0.00     0.003 A 
ATOM      8  C6  PXY d   1      -1.490  -0.314  -2.103  0.00  0.00     0.003 A 
ENDROOT
TORSDOF 0
ENDMDL
