MODEL 1
REMARK minimizedAffinity -3.57092333
REMARK minimizedRMSD -1
REMARK  0 active torsions:
REMARK  status: ('A' for Active; 'I' for Inactive)
ROOT
ATOM      1  C4' PXY d   1      -1.108  -1.988   1.076  0.00  0.00     0.077 C 
ATOM      2  C1' PXY d   1      -2.337   1.757  -3.153  0.00  0.00     0.077 C 
ATOM      3  C1  PXY d   1      -2.023   0.781  -2.036  0.00  0.00    -0.082 A 
ATOM      4  C2  PXY d   1      -0.851   0.167  -2.014  0.00  0.00     0.003 A 
ATOM      5  C3  PXY d   1      -0.563  -0.742  -1.029  0.00  0.00     0.003 A 
ATOM      6  C4  PXY d   1      -1.464  -0.987  -0.027  0.00  0.00    -0.082 A 
ATOM      7  C5  PXY d   1      -2.658  -0.357  -0.037  0.00  0.00     0.003 A 
ATOM      8  C6  PXY d   1      -2.947   0.531  -1.069  0.00  0.00     0.003 A 
ENDROOT
TORSDOF 0
ENDMDL
