MODEL 1
REMARK minimizedAffinity 3.96711111
REMARK minimizedRMSD -1
REMARK  0 active torsions:
REMARK  status: ('A' for Active; 'I' for Inactive)
ROOT
ATOM      1  C4' PXY d   1      -0.853   1.946  -4.054  0.00  0.00     0.077 C 
ATOM      2  C1' PXY d   1      -2.813  -2.032  -0.347  0.00  0.00     0.077 C 
ATOM      3  C1  PXY d   1      -2.288  -0.996  -1.322  0.00  0.00    -0.082 A 
ATOM      4  C2  PXY d   1      -2.657   0.268  -1.194  0.00  0.00     0.003 A 
ATOM      5  C3  PXY d   1      -2.218   1.212  -2.086  0.00  0.00     0.003 A 
ATOM      6  C4  PXY d   1      -1.350   0.868  -3.087  0.00  0.00    -0.082 A 
ATOM      7  C5  PXY d   1      -0.961  -0.418  -3.218  0.00  0.00     0.003 A 
ATOM      8  C6  PXY d   1      -1.451  -1.368  -2.327  0.00  0.00     0.003 A 
ENDROOT
TORSDOF 0
ENDMDL
