MODEL 1
REMARK minimizedAffinity -6.14787483
REMARK minimizedRMSD -1
REMARK  0 active torsions:
REMARK  status: ('A' for Active; 'I' for Inactive)
ROOT
ATOM      1  C4' PXY d   1       2.166   0.933   0.205  0.00  0.00     0.077 C 
ATOM      2  C1' PXY d   1      -3.328  -0.851  -0.001  0.00  0.00     0.077 C 
ATOM      3  C1  PXY d   1      -1.888  -0.383   0.066  0.00  0.00    -0.082 A 
ATOM      4  C2  PXY d   1      -1.345   0.216  -0.982  0.00  0.00     0.003 A 
ATOM      5  C3  PXY d   1      -0.035   0.618  -0.950  0.00  0.00     0.003 A 
ATOM      6  C4  PXY d   1       0.713   0.452   0.185  0.00  0.00    -0.082 A 
ATOM      7  C5  PXY d   1       0.163  -0.148   1.262  0.00  0.00     0.003 A 
ATOM      8  C6  PXY d   1      -1.156  -0.585   1.195  0.00  0.00     0.003 A 
ENDROOT
TORSDOF 0
ENDMDL
