MODEL 1
REMARK minimizedAffinity -0.368694305
REMARK minimizedRMSD -1
REMARK  0 active torsions:
REMARK  status: ('A' for Active; 'I' for Inactive)
ROOT
ATOM      1  C4' PXY d   1      -0.227   0.387   0.704  0.00  0.00     0.077 C 
ATOM      2  C1' PXY d   1      -3.421  -4.311  -0.366  0.00  0.00     0.077 C 
ATOM      3  C1  PXY d   1      -2.579  -3.079  -0.098  0.00  0.00    -0.082 A 
ATOM      4  C2  PXY d   1      -2.227  -2.785   1.143  0.00  0.00     0.003 A 
ATOM      5  C3  PXY d   1      -1.492  -1.658   1.407  0.00  0.00     0.003 A 
ATOM      6  C4  PXY d   1      -1.069  -0.852   0.385  0.00  0.00    -0.082 A 
ATOM      7  C5  PXY d   1      -1.415  -1.151  -0.885  0.00  0.00     0.003 A 
ATOM      8  C6  PXY d   1      -2.195  -2.277  -1.128  0.00  0.00     0.003 A 
ENDROOT
TORSDOF 0
ENDMDL
