MODEL 1
REMARK minimizedAffinity 3.27051115
REMARK minimizedRMSD -1
REMARK  0 active torsions:
REMARK  status: ('A' for Active; 'I' for Inactive)
ROOT
ATOM      1  C4' PXY d   1      -3.373  -3.462   4.268  0.00  0.00     0.077 C 
ATOM      2  C1' PXY d   1      -2.231   2.117   5.257  0.00  0.00     0.077 C 
ATOM      3  C1  PXY d   1      -2.535   0.657   4.985  0.00  0.00    -0.082 A 
ATOM      4  C2  PXY d   1      -2.721  -0.172   6.000  0.00  0.00     0.003 A 
ATOM      5  C3  PXY d   1      -2.965  -1.502   5.773  0.00  0.00     0.003 A 
ATOM      6  C4  PXY d   1      -3.073  -1.978   4.494  0.00  0.00    -0.082 A 
ATOM      7  C5  PXY d   1      -2.895  -1.137   3.454  0.00  0.00     0.003 A 
ATOM      8  C6  PXY d   1      -2.607   0.202   3.705  0.00  0.00     0.003 A 
ENDROOT
TORSDOF 0
ENDMDL
