MODEL 1
REMARK minimizedAffinity 4.48036623
REMARK minimizedRMSD -1
REMARK  0 active torsions:
REMARK  status: ('A' for Active; 'I' for Inactive)
ROOT
ATOM      1  C4' PXY d   1      -1.829  -0.263   2.253  0.00  0.00     0.077 C 
ATOM      2  C1' PXY d   1       0.029   0.351  -3.187  0.00  0.00     0.077 C 
ATOM      3  C1  PXY d   1      -0.470   0.185  -1.765  0.00  0.00    -0.082 A 
ATOM      4  C2  PXY d   1       0.038   0.937  -0.802  0.00  0.00     0.003 A 
ATOM      5  C3  PXY d   1      -0.378   0.778   0.495  0.00  0.00     0.003 A 
ATOM      6  C4  PXY d   1      -1.362  -0.123   0.801  0.00  0.00    -0.082 A 
ATOM      7  C5  PXY d   1      -1.893  -0.887  -0.177  0.00  0.00     0.003 A 
ATOM      8  C6  PXY d   1      -1.427  -0.739  -1.481  0.00  0.00     0.003 A 
ENDROOT
TORSDOF 0
ENDMDL
