MODEL 1
REMARK minimizedAffinity 13.0101042
REMARK minimizedRMSD -1
REMARK  0 active torsions:
REMARK  status: ('A' for Active; 'I' for Inactive)
ROOT
ATOM      1  C4' PXY d   1      -3.130  -4.504   0.667  0.00  0.00     0.077 C 
ATOM      2  C1' PXY d   1      -2.617  -2.448  -4.711  0.00  0.00     0.077 C 
ATOM      3  C1  PXY d   1      -2.747  -2.976  -3.296  0.00  0.00    -0.082 A 
ATOM      4  C2  PXY d   1      -2.696  -4.280  -3.077  0.00  0.00     0.003 A 
ATOM      5  C3  PXY d   1      -2.845  -4.776  -1.807  0.00  0.00     0.003 A 
ATOM      6  C4  PXY d   1      -2.993  -3.926  -0.744  0.00  0.00    -0.082 A 
ATOM      7  C5  PXY d   1      -3.036  -2.594  -0.958  0.00  0.00     0.003 A 
ATOM      8  C6  PXY d   1      -2.925  -2.112  -2.259  0.00  0.00     0.003 A 
ENDROOT
TORSDOF 0
ENDMDL
