MODEL 1
REMARK minimizedAffinity 1.82989168
REMARK minimizedRMSD -1
REMARK  0 active torsions:
REMARK  status: ('A' for Active; 'I' for Inactive)
ROOT
ATOM      1  C4' PXY d   1      -2.795  -0.202   3.844  0.00  0.00     0.077 C 
ATOM      2  C1' PXY d   1       0.505   0.386  -0.865  0.00  0.00     0.077 C 
ATOM      3  C1  PXY d   1      -0.350   0.228   0.377  0.00  0.00    -0.082 A 
ATOM      4  C2  PXY d   1      -1.644  -0.021   0.253  0.00  0.00     0.003 A 
ATOM      5  C3  PXY d   1      -2.437  -0.135   1.366  0.00  0.00     0.003 A 
ATOM      6  C4  PXY d   1      -1.892  -0.045   2.618  0.00  0.00    -0.082 A 
ATOM      7  C5  PXY d   1      -0.571   0.198   2.753  0.00  0.00     0.003 A 
ATOM      8  C6  PXY d   1       0.210   0.352   1.611  0.00  0.00     0.003 A 
ENDROOT
TORSDOF 0
ENDMDL
