MODEL 1
REMARK minimizedAffinity -1.21278834
REMARK minimizedRMSD -1
REMARK  0 active torsions:
REMARK  status: ('A' for Active; 'I' for Inactive)
ROOT
ATOM      1  C4' PXY d   1      -4.995   4.016  -0.359  0.00  0.00     0.077 C 
ATOM      2  C1' PXY d   1      -5.998   5.426   5.156  0.00  0.00     0.077 C 
ATOM      3  C1  PXY d   1      -5.736   5.069   3.707  0.00  0.00    -0.082 A 
ATOM      4  C2  PXY d   1      -5.999   3.845   3.276  0.00  0.00     0.003 A 
ATOM      5  C3  PXY d   1      -5.738   3.496   1.976  0.00  0.00     0.003 A 
ATOM      6  C4  PXY d   1      -5.253   4.424   1.094  0.00  0.00    -0.082 A 
ATOM      7  C5  PXY d   1      -4.991   5.677   1.523  0.00  0.00     0.003 A 
ATOM      8  C6  PXY d   1      -5.224   6.000   2.856  0.00  0.00     0.003 A 
ENDROOT
TORSDOF 0
ENDMDL
