MODEL 1
REMARK minimizedAffinity -1.5555476
REMARK minimizedRMSD -1
REMARK  0 active torsions:
REMARK  status: ('A' for Active; 'I' for Inactive)
ROOT
ATOM      1  C4' PXY d   1      -2.405  -1.456  -2.308  0.00  0.00     0.077 C 
ATOM      2  C1' PXY d   1       1.096  -1.347   2.290  0.00  0.00     0.077 C 
ATOM      3  C1  PXY d   1       0.176  -1.388   1.086  0.00  0.00    -0.082 A 
ATOM      4  C2  PXY d   1       0.286  -0.463   0.146  0.00  0.00     0.003 A 
ATOM      5  C3  PXY d   1      -0.559  -0.467  -0.933  0.00  0.00     0.003 A 
ATOM      6  C4  PXY d   1      -1.491  -1.459  -1.080  0.00  0.00    -0.082 A 
ATOM      7  C5  PXY d   1      -1.603  -2.413  -0.131  0.00  0.00     0.003 A 
ATOM      8  C6  PXY d   1      -0.763  -2.367   0.978  0.00  0.00     0.003 A 
ENDROOT
TORSDOF 0
ENDMDL
