MODEL 1
REMARK minimizedAffinity -4.28899622
REMARK minimizedRMSD -1
REMARK  0 active torsions:
REMARK  status: ('A' for Active; 'I' for Inactive)
ROOT
ATOM      1  C4' PXY d   1      -0.635  -3.540   2.493  0.00  0.00     0.077 C 
ATOM      2  C1' PXY d   1      -2.096   0.223  -1.645  0.00  0.00     0.077 C 
ATOM      3  C1  PXY d   1      -1.701  -0.759  -0.560  0.00  0.00    -0.082 A 
ATOM      4  C2  PXY d   1      -2.409  -1.863  -0.388  0.00  0.00     0.003 A 
ATOM      5  C3  PXY d   1      -2.084  -2.747   0.609  0.00  0.00     0.003 A 
ATOM      6  C4  PXY d   1      -0.992  -2.524   1.404  0.00  0.00    -0.082 A 
ATOM      7  C5  PXY d   1      -0.258  -1.405   1.228  0.00  0.00     0.003 A 
ATOM      8  C6  PXY d   1      -0.628  -0.500   0.237  0.00  0.00     0.003 A 
ENDROOT
TORSDOF 0
ENDMDL
