MODEL 1
REMARK minimizedAffinity -5.00834417
REMARK minimizedRMSD -1
REMARK  0 active torsions:
REMARK  status: ('A' for Active; 'I' for Inactive)
ROOT
ATOM      1  C4' PXY d   1       2.888   2.952   0.768  0.00  0.00     0.077 C 
ATOM      2  C1' PXY d   1      -0.139  -1.863   1.801  0.00  0.00     0.077 C 
ATOM      3  C1  PXY d   1       0.650  -0.595   1.542  0.00  0.00    -0.082 A 
ATOM      4  C2  PXY d   1       0.993  -0.280   0.303  0.00  0.00     0.003 A 
ATOM      5  C3  PXY d   1       1.734   0.846   0.053  0.00  0.00     0.003 A 
ATOM      6  C4  PXY d   1       2.083   1.687   1.077  0.00  0.00    -0.082 A 
ATOM      7  C5  PXY d   1       1.728   1.378   2.342  0.00  0.00     0.003 A 
ATOM      8  C6  PXY d   1       1.011   0.208   2.579  0.00  0.00     0.003 A 
ENDROOT
TORSDOF 0
ENDMDL
