MODEL 1
REMARK minimizedAffinity -0.708310485
REMARK minimizedRMSD -1
REMARK  0 active torsions:
REMARK  status: ('A' for Active; 'I' for Inactive)
ROOT
ATOM      1  C4' PXY d   1       2.674   2.300   1.206  0.00  0.00     0.077 C 
ATOM      2  C1' PXY d   1      -0.556  -2.441   1.915  0.00  0.00     0.077 C 
ATOM      3  C1  PXY d   1       0.282  -1.191   1.734  0.00  0.00    -0.082 A 
ATOM      4  C2  PXY d   1       1.225  -1.164   0.807  0.00  0.00     0.003 A 
ATOM      5  C3  PXY d   1       2.013  -0.052   0.652  0.00  0.00     0.003 A 
ATOM      6  C4  PXY d   1       1.798   1.062   1.417  0.00  0.00    -0.082 A 
ATOM      7  C5  PXY d   1       0.830   1.046   2.358  0.00  0.00     0.003 A 
ATOM      8  C6  PXY d   1       0.069  -0.106   2.528  0.00  0.00     0.003 A 
ENDROOT
TORSDOF 0
ENDMDL
