MODEL 1
REMARK minimizedAffinity -1.61814857
REMARK minimizedRMSD -1
REMARK  0 active torsions:
REMARK  status: ('A' for Active; 'I' for Inactive)
ROOT
ATOM      1  C1  BNZ d   1      -3.530   4.047  -5.996  0.00  0.00     0.000 A 
ATOM      2  C2  BNZ d   1      -4.669   3.287  -5.992  0.00  0.00     0.000 A 
ATOM      3  C3  BNZ d   1      -5.903   3.875  -6.000  0.00  0.00     0.000 A 
ATOM      4  C4  BNZ d   1      -5.997   5.220  -5.971  0.00  0.00     0.000 A 
ATOM      5  C5  BNZ d   1      -4.858   6.000  -5.965  0.00  0.00     0.000 A 
ATOM      6  C6  BNZ d   1      -3.617   5.405  -5.996  0.00  0.00     0.000 A 
ENDROOT
TORSDOF 0
ENDMDL
