MODEL 1
REMARK minimizedAffinity -3.74908113
REMARK minimizedRMSD -1
REMARK  0 active torsions:
REMARK  status: ('A' for Active; 'I' for Inactive)
ROOT
ATOM      1  C1  BNZ d   1       0.541   1.621  -0.045  0.00  0.00     0.000 A 
ATOM      2  C2  BNZ d   1       1.189   1.180  -1.168  0.00  0.00     0.000 A 
ATOM      3  C3  BNZ d   1       1.035  -0.106  -1.605  0.00  0.00     0.000 A 
ATOM      4  C4  BNZ d   1       0.267  -0.960  -0.897  0.00  0.00     0.000 A 
ATOM      5  C5  BNZ d   1      -0.385  -0.533   0.242  0.00  0.00     0.000 A 
ATOM      6  C6  BNZ d   1      -0.260   0.773   0.657  0.00  0.00     0.000 A 
ENDROOT
TORSDOF 0
ENDMDL
