MODEL 1
REMARK minimizedAffinity -4.10694599
REMARK minimizedRMSD -1
REMARK  0 active torsions:
REMARK  status: ('A' for Active; 'I' for Inactive)
ROOT
ATOM      1  C1  BNZ d   1       2.077  -1.425  -2.997  0.00  0.00     0.000 A 
ATOM      2  C2  BNZ d   1       1.786  -2.553  -2.277  0.00  0.00     0.000 A 
ATOM      3  C3  BNZ d   1       0.922  -2.505  -1.219  0.00  0.00     0.000 A 
ATOM      4  C4  BNZ d   1       0.382  -1.323  -0.857  0.00  0.00     0.000 A 
ATOM      5  C5  BNZ d   1       0.672  -0.175  -1.567  0.00  0.00     0.000 A 
ATOM      6  C6  BNZ d   1       1.512  -0.235  -2.656  0.00  0.00     0.000 A 
ENDROOT
TORSDOF 0
ENDMDL
