MODEL 1
REMARK minimizedAffinity -4.39380789
REMARK minimizedRMSD -1
REMARK  0 active torsions:
REMARK  status: ('A' for Active; 'I' for Inactive)
ROOT
ATOM      1  C1  BNZ d   1       1.972  -0.406  -2.515  0.00  0.00     0.000 A 
ATOM      2  C2  BNZ d   1       2.537  -1.652  -2.577  0.00  0.00     0.000 A 
ATOM      3  C3  BNZ d   1       1.913  -2.732  -2.019  0.00  0.00     0.000 A 
ATOM      4  C4  BNZ d   1       0.745  -2.559  -1.366  0.00  0.00     0.000 A 
ATOM      5  C5  BNZ d   1       0.167  -1.308  -1.288  0.00  0.00     0.000 A 
ATOM      6  C6  BNZ d   1       0.779  -0.229  -1.884  0.00  0.00     0.000 A 
ENDROOT
TORSDOF 0
ENDMDL
