MODEL 1
REMARK minimizedAffinity -1.78911757
REMARK minimizedRMSD -1
REMARK  0 active torsions:
REMARK  status: ('A' for Active; 'I' for Inactive)
ROOT
ATOM      1  C1  BNZ d   1      -2.393  -0.678   0.992  0.00  0.00     0.000 A 
ATOM      2  C2  BNZ d   1      -3.745  -0.495   1.111  0.00  0.00     0.000 A 
ATOM      3  C3  BNZ d   1      -4.258   0.717   1.477  0.00  0.00     0.000 A 
ATOM      4  C4  BNZ d   1      -3.419   1.734   1.763  0.00  0.00     0.000 A 
ATOM      5  C5  BNZ d   1      -2.053   1.563   1.657  0.00  0.00     0.000 A 
ATOM      6  C6  BNZ d   1      -1.541   0.352   1.251  0.00  0.00     0.000 A 
ENDROOT
TORSDOF 0
ENDMDL
