MODEL 1
REMARK minimizedAffinity -3.98681998
REMARK minimizedRMSD -1
REMARK  0 active torsions:
REMARK  status: ('A' for Active; 'I' for Inactive)
ROOT
ATOM      1  C1  BNZ d   1       0.421  -1.091  -2.161  0.00  0.00     0.000 A 
ATOM      2  C2  BNZ d   1      -0.137  -1.271  -0.923  0.00  0.00     0.000 A 
ATOM      3  C3  BNZ d   1       0.118  -0.393   0.093  0.00  0.00     0.000 A 
ATOM      4  C4  BNZ d   1       0.960   0.639  -0.117  0.00  0.00     0.000 A 
ATOM      5  C5  BNZ d   1       1.537   0.829  -1.357  0.00  0.00     0.000 A 
ATOM      6  C6  BNZ d   1       1.247  -0.034  -2.389  0.00  0.00     0.000 A 
ENDROOT
TORSDOF 0
ENDMDL
