MODEL 1
REMARK minimizedAffinity -4.66638184
REMARK minimizedRMSD -1
REMARK  0 active torsions:
REMARK  status: ('A' for Active; 'I' for Inactive)
ROOT
ATOM      1  C1  BNZ d   1       1.212   1.363  -0.371  0.00  0.00     0.000 A 
ATOM      2  C2  BNZ d   1       1.925   1.054  -1.499  0.00  0.00     0.000 A 
ATOM      3  C3  BNZ d   1       1.549   0.014  -2.302  0.00  0.00     0.000 A 
ATOM      4  C4  BNZ d   1       0.486  -0.741  -1.955  0.00  0.00     0.000 A 
ATOM      5  C5  BNZ d   1      -0.237  -0.448  -0.815  0.00  0.00     0.000 A 
ATOM      6  C6  BNZ d   1       0.121   0.624  -0.031  0.00  0.00     0.000 A 
ENDROOT
TORSDOF 0
ENDMDL
