MODEL 1
REMARK minimizedAffinity -2.03656363
REMARK minimizedRMSD -1
REMARK  0 active torsions:
REMARK  status: ('A' for Active; 'I' for Inactive)
ROOT
ATOM      1  C1  BNZ d   1       0.720  -0.739  -0.366  0.00  0.00     0.000 A 
ATOM      2  C2  BNZ d   1       1.144  -0.537  -1.653  0.00  0.00     0.000 A 
ATOM      3  C3  BNZ d   1       1.120   0.710  -2.210  0.00  0.00     0.000 A 
ATOM      4  C4  BNZ d   1       0.636   1.747  -1.495  0.00  0.00     0.000 A 
ATOM      5  C5  BNZ d   1       0.197   1.558  -0.200  0.00  0.00     0.000 A 
ATOM      6  C6  BNZ d   1       0.259   0.308   0.371  0.00  0.00     0.000 A 
ENDROOT
TORSDOF 0
ENDMDL
