MODEL 1
REMARK minimizedAffinity -2.5619359
REMARK minimizedRMSD -1
REMARK  0 active torsions:
REMARK  status: ('A' for Active; 'I' for Inactive)
ROOT
ATOM      1  C1  BNZ d   1       0.114  -2.433   0.272  0.00  0.00     0.000 A 
ATOM      2  C2  BNZ d   1      -0.138  -1.395   1.129  0.00  0.00     0.000 A 
ATOM      3  C3  BNZ d   1      -0.346  -0.130   0.654  0.00  0.00     0.000 A 
ATOM      4  C4  BNZ d   1      -0.262   0.102  -0.671  0.00  0.00     0.000 A 
ATOM      5  C5  BNZ d   1       0.001  -0.932  -1.547  0.00  0.00     0.000 A 
ATOM      6  C6  BNZ d   1       0.171  -2.211  -1.069  0.00  0.00     0.000 A 
ENDROOT
TORSDOF 0
ENDMDL
