MODEL 1
REMARK minimizedAffinity -4.0562582
REMARK minimizedRMSD -1
REMARK  0 active torsions:
REMARK  status: ('A' for Active; 'I' for Inactive)
ROOT
ATOM      1  C1  BNZ d   1       1.280  -0.269  -2.268  0.00  0.00     0.000 A 
ATOM      2  C2  BNZ d   1       0.503  -1.054  -1.459  0.00  0.00     0.000 A 
ATOM      3  C3  BNZ d   1      -0.216  -0.507  -0.434  0.00  0.00     0.000 A 
ATOM      4  C4  BNZ d   1      -0.126   0.818  -0.194  0.00  0.00     0.000 A 
ATOM      5  C5  BNZ d   1       0.660   1.621  -0.995  0.00  0.00     0.000 A 
ATOM      6  C6  BNZ d   1       1.352   1.073  -2.050  0.00  0.00     0.000 A 
ENDROOT
TORSDOF 0
ENDMDL
