MODEL 1
REMARK minimizedAffinity -3.64444518
REMARK minimizedRMSD -1
REMARK  0 active torsions:
REMARK  status: ('A' for Active; 'I' for Inactive)
ROOT
ATOM      1  C1  BNZ d   1       1.492  -2.561  -2.188  0.00  0.00     0.000 A 
ATOM      2  C2  BNZ d   1       2.163  -1.474  -2.680  0.00  0.00     0.000 A 
ATOM      3  C3  BNZ d   1       1.831  -0.208  -2.286  0.00  0.00     0.000 A 
ATOM      4  C4  BNZ d   1       0.803  -0.028  -1.432  0.00  0.00     0.000 A 
ATOM      5  C5  BNZ d   1       0.110  -1.114  -0.933  0.00  0.00     0.000 A 
ATOM      6  C6  BNZ d   1       0.473  -2.389  -1.303  0.00  0.00     0.000 A 
ENDROOT
TORSDOF 0
ENDMDL
