MODEL 1
REMARK minimizedAffinity -4.45916462
REMARK minimizedRMSD -1
REMARK  0 active torsions:
REMARK  status: ('A' for Active; 'I' for Inactive)
ROOT
ATOM      1  C1  BNZ d   1       0.660   1.419  -0.629  0.00  0.00     0.000 A 
ATOM      2  C2  BNZ d   1      -0.125   0.600   0.138  0.00  0.00     0.000 A 
ATOM      3  C3  BNZ d   1      -0.289  -0.718  -0.187  0.00  0.00     0.000 A 
ATOM      4  C4  BNZ d   1       0.299  -1.205  -1.298  0.00  0.00     0.000 A 
ATOM      5  C5  BNZ d   1       1.086  -0.390  -2.087  0.00  0.00     0.000 A 
ATOM      6  C6  BNZ d   1       1.280   0.927  -1.736  0.00  0.00     0.000 A 
ENDROOT
TORSDOF 0
ENDMDL
