MODEL 1
REMARK minimizedAffinity -2.99581099
REMARK minimizedRMSD -1
REMARK  0 active torsions:
REMARK  status: ('A' for Active; 'I' for Inactive)
ROOT
ATOM      1  C1  BNZ d   1       0.468  -1.078  -1.412  0.00  0.00     0.000 A 
ATOM      2  C2  BNZ d   1      -0.183  -0.888  -0.222  0.00  0.00     0.000 A 
ATOM      3  C3  BNZ d   1      -0.083   0.299   0.448  0.00  0.00     0.000 A 
ATOM      4  C4  BNZ d   1       0.697   1.279  -0.051  0.00  0.00     0.000 A 
ATOM      5  C5  BNZ d   1       1.368   1.099  -1.244  0.00  0.00     0.000 A 
ATOM      6  C6  BNZ d   1       1.234  -0.083  -1.936  0.00  0.00     0.000 A 
ENDROOT
TORSDOF 0
ENDMDL
