MODEL 1
REMARK minimizedAffinity -4.53336
REMARK minimizedRMSD -1
REMARK  0 active torsions:
REMARK  status: ('A' for Active; 'I' for Inactive)
ROOT
ATOM      1  C1  BNZ d   1       0.429  -1.320  -1.060  0.00  0.00     0.000 A 
ATOM      2  C2  BNZ d   1      -0.025  -1.902   0.093  0.00  0.00     0.000 A 
ATOM      3  C3  BNZ d   1      -0.374  -1.139   1.172  0.00  0.00     0.000 A 
ATOM      4  C4  BNZ d   1      -0.230   0.201   1.110  0.00  0.00     0.000 A 
ATOM      5  C5  BNZ d   1       0.236   0.802  -0.042  0.00  0.00     0.000 A 
ATOM      6  C6  BNZ d   1       0.549   0.033  -1.139  0.00  0.00     0.000 A 
ENDROOT
TORSDOF 0
ENDMDL
