MODEL 1
REMARK minimizedAffinity -2.8292973
REMARK minimizedRMSD -1
REMARK  0 active torsions:
REMARK  status: ('A' for Active; 'I' for Inactive)
ROOT
ATOM      1  C1  BNZ d   1      -1.782  -1.074   2.564  0.00  0.00     0.000 A 
ATOM      2  C2  BNZ d   1      -0.665  -1.277   1.799  0.00  0.00     0.000 A 
ATOM      3  C3  BNZ d   1      -0.492  -0.605   0.622  0.00  0.00     0.000 A 
ATOM      4  C4  BNZ d   1      -1.452   0.239   0.192  0.00  0.00     0.000 A 
ATOM      5  C5  BNZ d   1      -2.589   0.447   0.948  0.00  0.00     0.000 A 
ATOM      6  C6  BNZ d   1      -2.742  -0.202   2.151  0.00  0.00     0.000 A 
ENDROOT
TORSDOF 0
ENDMDL
