MODEL 1
REMARK minimizedAffinity 11.3029661
REMARK minimizedRMSD -1
REMARK  1 active torsions:
REMARK  status: ('A' for Active; 'I' for Inactive)
REMARK    1  A    between atoms: C1_2  and  C2_3 
ROOT
ATOM      1  C2  UNL d   1       4.322   2.062   2.594  0.00  0.00    -0.076 A 
ATOM      2  C3  UNL d   1       3.825   3.055   1.732  0.00  0.00     0.004 A 
ATOM      3  C4  UNL d   1       4.370   3.241   0.463  0.00  0.00    -0.003 A 
ATOM      4  C5  UNL d   1       5.421   2.438   0.035  0.00  0.00     0.000 A 
ATOM      5  C6  UNL d   1       5.915   1.436   0.871  0.00  0.00     0.000 A 
ATOM      6  C7  UNL d   1       5.366   1.224   2.147  0.00  0.00    -0.073 A 
ATOM      7  C8  UNL d   1       5.941   0.133   3.008  0.00  0.00     0.078 C 
ENDROOT
BRANCH   1   8
ATOM      8  C1  UNL d   1       3.709   1.924   3.970  0.00  0.00     0.053 C 
ATOM      9  C   UNL d   1       4.221   2.973   4.944  0.00  0.00     0.018 C 
ENDBRANCH   1   8
TORSDOF 1
ENDMDL
