MODEL 1
REMARK minimizedAffinity 16.712904
REMARK minimizedRMSD -1
REMARK  1 active torsions:
REMARK  status: ('A' for Active; 'I' for Inactive)
REMARK    1  A    between atoms: C1_2  and  C2_3 
ROOT
ATOM      1  C2  UNL d   1      -1.169  -3.560   1.310  0.00  0.00    -0.076 A 
ATOM      2  C3  UNL d   1      -0.613  -3.503   0.020  0.00  0.00     0.004 A 
ATOM      3  C4  UNL d   1      -0.941  -2.471  -0.857  0.00  0.00    -0.003 A 
ATOM      4  C5  UNL d   1      -1.829  -1.478  -0.459  0.00  0.00     0.000 A 
ATOM      5  C6  UNL d   1      -2.376  -1.509   0.824  0.00  0.00     0.000 A 
ATOM      6  C7  UNL d   1      -2.044  -2.534   1.726  0.00  0.00    -0.073 A 
ATOM      7  C8  UNL d   1      -2.669  -2.521   3.094  0.00  0.00     0.078 C 
ENDROOT
BRANCH   1   8
ATOM      8  C1  UNL d   1      -0.799  -4.719   2.208  0.00  0.00     0.053 C 
ATOM      9  C   UNL d   1      -0.459  -5.978   1.425  0.00  0.00     0.018 C 
ENDBRANCH   1   8
TORSDOF 1
ENDMDL
