MODEL 1
REMARK minimizedAffinity 8.21821022
REMARK minimizedRMSD -1
REMARK  1 active torsions:
REMARK  status: ('A' for Active; 'I' for Inactive)
REMARK    1  A    between atoms: C1_2  and  C2_3 
ROOT
ATOM      1  C2  UNL d   1      -3.341  -3.594   0.671  0.00  0.00    -0.076 A 
ATOM      2  C3  UNL d   1      -4.743  -3.622   0.766  0.00  0.00     0.004 A 
ATOM      3  C4  UNL d   1      -5.449  -4.814   0.617  0.00  0.00    -0.003 A 
ATOM      4  C5  UNL d   1      -4.764  -5.999   0.372  0.00  0.00     0.000 A 
ATOM      5  C6  UNL d   1      -3.371  -5.993   0.292  0.00  0.00     0.000 A 
ATOM      6  C7  UNL d   1      -2.644  -4.802   0.456  0.00  0.00    -0.073 A 
ATOM      7  C8  UNL d   1      -1.144  -4.853   0.355  0.00  0.00     0.078 C 
ENDROOT
BRANCH   1   8
ATOM      8  C1  UNL d   1      -2.631  -2.267   0.815  0.00  0.00     0.053 C 
ATOM      9  C   UNL d   1      -1.533  -2.078  -0.221  0.00  0.00     0.018 C 
ENDBRANCH   1   8
TORSDOF 1
ENDMDL
