MODEL 1
REMARK minimizedAffinity 10.056078
REMARK minimizedRMSD -1
REMARK  1 active torsions:
REMARK  status: ('A' for Active; 'I' for Inactive)
REMARK    1  A    between atoms: C1_2  and  C2_3 
ROOT
ATOM      1  C2  UNL d   1       3.865   2.420   1.524  0.00  0.00    -0.076 A 
ATOM      2  C3  UNL d   1       3.047   1.278   1.493  0.00  0.00     0.004 A 
ATOM      3  C4  UNL d   1       2.353   0.924   0.338  0.00  0.00    -0.003 A 
ATOM      4  C5  UNL d   1       2.465   1.707  -0.806  0.00  0.00     0.000 A 
ATOM      5  C6  UNL d   1       3.286   2.834  -0.798  0.00  0.00     0.000 A 
ATOM      6  C7  UNL d   1       4.006   3.196   0.354  0.00  0.00    -0.073 A 
ATOM      7  C8  UNL d   1       4.872   4.425   0.308  0.00  0.00     0.078 C 
ENDROOT
BRANCH   1   8
ATOM      8  C1  UNL d   1       4.573   2.769   2.814  0.00  0.00     0.053 C 
ATOM      9  C   UNL d   1       3.861   2.214   4.038  0.00  0.00     0.018 C 
ENDBRANCH   1   8
TORSDOF 1
ENDMDL
