MODEL 1
REMARK minimizedAffinity 15.108283
REMARK minimizedRMSD -1
REMARK  1 active torsions:
REMARK  status: ('A' for Active; 'I' for Inactive)
REMARK    1  A    between atoms: C1_2  and  C2_3 
ROOT
ATOM      1  C2  UNL d   1       4.820   1.059  -3.154  0.00  0.00    -0.076 A 
ATOM      2  C3  UNL d   1       3.785   1.730  -2.480  0.00  0.00     0.004 A 
ATOM      3  C4  UNL d   1       2.671   1.040  -2.006  0.00  0.00    -0.003 A 
ATOM      4  C5  UNL d   1       2.574  -0.334  -2.197  0.00  0.00     0.000 A 
ATOM      5  C6  UNL d   1       3.600  -1.019  -2.848  0.00  0.00     0.000 A 
ATOM      6  C7  UNL d   1       4.738  -0.341  -3.318  0.00  0.00    -0.073 A 
ATOM      7  C8  UNL d   1       5.811  -1.128  -4.017  0.00  0.00     0.078 C 
ENDROOT
BRANCH   1   8
ATOM      8  C1  UNL d   1       5.991   1.865  -3.670  0.00  0.00     0.053 C 
ATOM      9  C   UNL d   1       5.678   2.576  -4.977  0.00  0.00     0.018 C 
ENDBRANCH   1   8
TORSDOF 1
ENDMDL
