MODEL 1
REMARK minimizedAffinity 8.25078773
REMARK minimizedRMSD -1
REMARK  1 active torsions:
REMARK  status: ('A' for Active; 'I' for Inactive)
REMARK    1  A    between atoms: C1_2  and  C2_3 
ROOT
ATOM      1  C2  UNL d   1      -1.658  -1.934   0.073  0.00  0.00    -0.076 A 
ATOM      2  C3  UNL d   1      -2.110  -0.833   0.821  0.00  0.00     0.004 A 
ATOM      3  C4  UNL d   1      -2.112  -0.864   2.214  0.00  0.00    -0.003 A 
ATOM      4  C5  UNL d   1      -1.663  -1.998   2.883  0.00  0.00     0.000 A 
ATOM      5  C6  UNL d   1      -1.194  -3.093   2.157  0.00  0.00     0.000 A 
ATOM      6  C7  UNL d   1      -1.170  -3.071   0.752  0.00  0.00    -0.073 A 
ATOM      7  C8  UNL d   1      -0.660  -4.282   0.020  0.00  0.00     0.078 C 
ENDROOT
BRANCH   1   8
ATOM      8  C1  UNL d   1      -1.704  -1.852  -1.436  0.00  0.00     0.053 C 
ATOM      9  C   UNL d   1      -2.920  -1.092  -1.942  0.00  0.00     0.018 C 
ENDBRANCH   1   8
TORSDOF 1
ENDMDL
