MODEL 1
REMARK minimizedAffinity 11.453228
REMARK minimizedRMSD -1
REMARK  1 active torsions:
REMARK  status: ('A' for Active; 'I' for Inactive)
REMARK    1  A    between atoms: C1_2  and  C2_3 
ROOT
ATOM      1  C2  UNL d   1      -1.976  -3.352   1.202  0.00  0.00    -0.076 A 
ATOM      2  C3  UNL d   1      -1.241  -4.205   0.360  0.00  0.00     0.004 A 
ATOM      3  C4  UNL d   1      -0.631  -5.354   0.859  0.00  0.00    -0.003 A 
ATOM      4  C5  UNL d   1      -0.746  -5.670   2.209  0.00  0.00     0.000 A 
ATOM      5  C6  UNL d   1      -1.485  -4.844   3.055  0.00  0.00     0.000 A 
ATOM      6  C7  UNL d   1      -2.121  -3.690   2.564  0.00  0.00    -0.073 A 
ATOM      7  C8  UNL d   1      -2.901  -2.833   3.523  0.00  0.00     0.078 C 
ENDROOT
BRANCH   1   8
ATOM      8  C1  UNL d   1      -2.593  -2.105   0.610  0.00  0.00     0.053 C 
ATOM      9  C   UNL d   1      -1.740  -1.501  -0.495  0.00  0.00     0.018 C 
ENDBRANCH   1   8
TORSDOF 1
ENDMDL
