MODEL 1
REMARK minimizedAffinity 5.1833849
REMARK minimizedRMSD -1
REMARK  1 active torsions:
REMARK  status: ('A' for Active; 'I' for Inactive)
REMARK    1  A    between atoms: C1_2  and  C2_3 
ROOT
ATOM      1  C2  UNL d   1      -4.406   4.899  -0.160  0.00  0.00    -0.076 A 
ATOM      2  C3  UNL d   1      -5.225   5.996   0.161  0.00  0.00     0.004 A 
ATOM      3  C4  UNL d   1      -5.999   5.998   1.319  0.00  0.00    -0.003 A 
ATOM      4  C5  UNL d   1      -5.967   4.904   2.177  0.00  0.00     0.000 A 
ATOM      5  C6  UNL d   1      -5.147   3.815   1.883  0.00  0.00     0.000 A 
ATOM      6  C7  UNL d   1      -4.348   3.804   0.727  0.00  0.00    -0.073 A 
ATOM      7  C8  UNL d   1      -3.487   2.600   0.457  0.00  0.00     0.078 C 
ENDROOT
BRANCH   1   8
ATOM      8  C1  UNL d   1      -3.609   4.942  -1.445  0.00  0.00     0.053 C 
ATOM      9  C   UNL d   1      -4.119   5.999  -2.412  0.00  0.00     0.018 C 
ENDBRANCH   1   8
TORSDOF 1
ENDMDL
