MODEL 1
REMARK minimizedAffinity 12.1984997
REMARK minimizedRMSD -1
REMARK  1 active torsions:
REMARK  status: ('A' for Active; 'I' for Inactive)
REMARK    1  A    between atoms: C1_2  and  C2_3 
ROOT
ATOM      1  C2  UNL d   1      -2.000  -2.511   1.592  0.00  0.00    -0.076 A 
ATOM      2  C3  UNL d   1      -2.532  -1.326   1.055  0.00  0.00     0.004 A 
ATOM      3  C4  UNL d   1      -2.122  -0.856  -0.191  0.00  0.00    -0.003 A 
ATOM      4  C5  UNL d   1      -1.173  -1.564  -0.921  0.00  0.00     0.000 A 
ATOM      5  C6  UNL d   1      -0.648  -2.751  -0.411  0.00  0.00     0.000 A 
ATOM      6  C7  UNL d   1      -1.063  -3.247   0.836  0.00  0.00    -0.073 A 
ATOM      7  C8  UNL d   1      -0.459  -4.529   1.341  0.00  0.00     0.078 C 
ENDROOT
BRANCH   1   8
ATOM      8  C1  UNL d   1      -2.463  -2.957   2.961  0.00  0.00     0.053 C 
ATOM      9  C   UNL d   1      -2.042  -1.995   4.061  0.00  0.00     0.018 C 
ENDBRANCH   1   8
TORSDOF 1
ENDMDL
