MODEL 1
REMARK minimizedAffinity 10.7762384
REMARK minimizedRMSD -1
REMARK  1 active torsions:
REMARK  status: ('A' for Active; 'I' for Inactive)
REMARK    1  A    between atoms: C1_2  and  C2_3 
ROOT
ATOM      1  C2  UNL d   1       0.154  -0.181  -1.782  0.00  0.00    -0.076 A 
ATOM      2  C3  UNL d   1      -0.427  -0.293  -0.507  0.00  0.00     0.004 A 
ATOM      3  C4  UNL d   1      -1.442  -1.216  -0.260  0.00  0.00    -0.003 A 
ATOM      4  C5  UNL d   1      -1.892  -2.042  -1.284  0.00  0.00     0.000 A 
ATOM      5  C6  UNL d   1      -1.315  -1.957  -2.550  0.00  0.00     0.000 A 
ATOM      6  C7  UNL d   1      -0.279  -1.043  -2.812  0.00  0.00    -0.073 A 
ATOM      7  C8  UNL d   1       0.303  -0.990  -4.198  0.00  0.00     0.078 C 
ENDROOT
BRANCH   1   8
ATOM      8  C1  UNL d   1       1.232   0.857  -1.998  0.00  0.00     0.053 C 
ATOM      9  C   UNL d   1       2.633   0.277  -1.870  0.00  0.00     0.018 C 
ENDBRANCH   1   8
TORSDOF 1
ENDMDL
