MODEL 1
REMARK minimizedAffinity 8.69638538
REMARK minimizedRMSD -1
REMARK  1 active torsions:
REMARK  status: ('A' for Active; 'I' for Inactive)
REMARK    1  A    between atoms: C1_2  and  C2_3 
ROOT
ATOM      1  C2  UNL d   1      -0.382  -1.223  -1.491  0.00  0.00    -0.076 A 
ATOM      2  C3  UNL d   1       0.359  -2.033  -0.613  0.00  0.00     0.004 A 
ATOM      3  C4  UNL d   1      -0.275  -2.804   0.359  0.00  0.00    -0.003 A 
ATOM      4  C5  UNL d   1      -1.661  -2.780   0.469  0.00  0.00     0.000 A 
ATOM      5  C6  UNL d   1      -2.413  -1.997  -0.406  0.00  0.00     0.000 A 
ATOM      6  C7  UNL d   1      -1.791  -1.225  -1.402  0.00  0.00    -0.073 A 
ATOM      7  C8  UNL d   1      -2.651  -0.394  -2.314  0.00  0.00     0.078 C 
ENDROOT
BRANCH   1   8
ATOM      8  C1  UNL d   1       0.362  -0.387  -2.508  0.00  0.00     0.053 C 
ATOM      9  C   UNL d   1       1.800  -0.112  -2.096  0.00  0.00     0.018 C 
ENDBRANCH   1   8
TORSDOF 1
ENDMDL
