MODEL 1
REMARK minimizedAffinity 23.2940369
REMARK minimizedRMSD -1
REMARK  1 active torsions:
REMARK  status: ('A' for Active; 'I' for Inactive)
REMARK    1  A    between atoms: C1_2  and  C2_3 
ROOT
ATOM      1  C2  UNL d   1       3.787   3.014   0.348  0.00  0.00    -0.076 A 
ATOM      2  C3  UNL d   1       4.275   3.826  -0.690  0.00  0.00     0.004 A 
ATOM      3  C4  UNL d   1       4.851   5.067  -0.420  0.00  0.00    -0.003 A 
ATOM      4  C5  UNL d   1       4.949   5.514   0.892  0.00  0.00     0.000 A 
ATOM      5  C6  UNL d   1       4.486   4.714   1.936  0.00  0.00     0.000 A 
ATOM      6  C7  UNL d   1       3.917   3.453   1.682  0.00  0.00    -0.073 A 
ATOM      7  C8  UNL d   1       3.429   2.634   2.846  0.00  0.00     0.078 C 
ENDROOT
BRANCH   1   8
ATOM      8  C1  UNL d   1       3.148   1.690  -0.008  0.00  0.00     0.053 C 
ATOM      9  C   UNL d   1       2.721   1.622  -1.466  0.00  0.00     0.018 C 
ENDBRANCH   1   8
TORSDOF 1
ENDMDL
