MODEL 1
REMARK minimizedAffinity 16.450161
REMARK minimizedRMSD -1
REMARK  1 active torsions:
REMARK  status: ('A' for Active; 'I' for Inactive)
REMARK    1  A    between atoms: C1_2  and  C2_3 
ROOT
ATOM      1  C2  UNL d   1       4.464   3.605   0.727  0.00  0.00    -0.076 A 
ATOM      2  C3  UNL d   1       3.775   3.179   1.876  0.00  0.00     0.004 A 
ATOM      3  C4  UNL d   1       3.809   1.846   2.280  0.00  0.00    -0.003 A 
ATOM      4  C5  UNL d   1       4.533   0.916   1.542  0.00  0.00     0.000 A 
ATOM      5  C6  UNL d   1       5.237   1.324   0.409  0.00  0.00     0.000 A 
ATOM      6  C7  UNL d   1       5.227   2.668  -0.002  0.00  0.00    -0.073 A 
ATOM      7  C8  UNL d   1       5.999   3.052  -1.235  0.00  0.00     0.078 C 
ENDROOT
BRANCH   1   8
ATOM      8  C1  UNL d   1       4.369   5.059   0.323  0.00  0.00     0.053 C 
ATOM      9  C   UNL d   1       4.871   6.000   1.407  0.00  0.00     0.018 C 
ENDBRANCH   1   8
TORSDOF 1
ENDMDL
