MODEL 1
REMARK minimizedAffinity 12.1838512
REMARK minimizedRMSD -1
REMARK  1 active torsions:
REMARK  status: ('A' for Active; 'I' for Inactive)
REMARK    1  A    between atoms: C1_2  and  C2_3 
ROOT
ATOM      1  C2  UNL d   1      -1.099  -3.213   0.353  0.00  0.00    -0.076 A 
ATOM      2  C3  UNL d   1      -0.824  -2.741  -0.942  0.00  0.00     0.004 A 
ATOM      3  C4  UNL d   1      -1.436  -1.588  -1.430  0.00  0.00    -0.003 A 
ATOM      4  C5  UNL d   1      -2.334  -0.888  -0.631  0.00  0.00     0.000 A 
ATOM      5  C6  UNL d   1      -2.606  -1.333   0.662  0.00  0.00     0.000 A 
ATOM      6  C7  UNL d   1      -1.984  -2.484   1.176  0.00  0.00    -0.073 A 
ATOM      7  C8  UNL d   1      -2.319  -2.922   2.575  0.00  0.00     0.078 C 
ENDROOT
BRANCH   1   8
ATOM      8  C1  UNL d   1      -0.426  -4.485   0.818  0.00  0.00     0.053 C 
ATOM      9  C   UNL d   1      -0.501  -5.596  -0.217  0.00  0.00     0.018 C 
ENDBRANCH   1   8
TORSDOF 1
ENDMDL
