MODEL 1
REMARK minimizedAffinity 3.39795518
REMARK minimizedRMSD -1
REMARK  0 active torsions:
REMARK  status: ('A' for Active; 'I' for Inactive)
ROOT
ATOM      1  C4' PXY d   1      -5.545   0.781   0.971  0.00  0.00     0.077 C 
ATOM      2  C1' PXY d   1      -0.091   2.398  -0.056  0.00  0.00     0.077 C 
ATOM      3  C1  PXY d   1      -1.517   1.962   0.216  0.00  0.00    -0.082 A 
ATOM      4  C2  PXY d   1      -2.519   2.606  -0.360  0.00  0.00     0.003 A 
ATOM      5  C3  PXY d   1      -3.816   2.245  -0.099  0.00  0.00     0.003 A 
ATOM      6  C4  PXY d   1      -4.088   1.180   0.717  0.00  0.00    -0.082 A 
ATOM      7  C5  PXY d   1      -3.071   0.512   1.301  0.00  0.00     0.003 A 
ATOM      8  C6  PXY d   1      -1.763   0.920   1.056  0.00  0.00     0.003 A 
ENDROOT
TORSDOF 0
ENDMDL
