MODEL 1
REMARK minimizedAffinity -5.73630762
REMARK minimizedRMSD -1
REMARK  0 active torsions:
REMARK  status: ('A' for Active; 'I' for Inactive)
ROOT
ATOM      1  C4' PXY d   1      -4.253   1.133   0.715  0.00  0.00     0.077 C 
ATOM      2  C1' PXY d   1       1.527   1.126   0.782  0.00  0.00     0.077 C 
ATOM      3  C1  PXY d   1       0.011   1.115   0.766  0.00  0.00    -0.082 A 
ATOM      4  C2  PXY d   1      -0.644   2.084   0.148  0.00  0.00     0.003 A 
ATOM      5  C3  PXY d   1      -2.015   2.107   0.151  0.00  0.00     0.003 A 
ATOM      6  C4  PXY d   1      -2.723   1.099   0.748  0.00  0.00    -0.082 A 
ATOM      7  C5  PXY d   1      -2.062   0.100   1.372  0.00  0.00     0.003 A 
ATOM      8  C6  PXY d   1      -0.671   0.117   1.392  0.00  0.00     0.003 A 
ENDROOT
TORSDOF 0
ENDMDL
