MODEL 1
REMARK minimizedAffinity 8.11829758
REMARK minimizedRMSD -1
REMARK  0 active torsions:
REMARK  status: ('A' for Active; 'I' for Inactive)
ROOT
ATOM      1  C4' PXY d   1       0.607   1.981   0.121  0.00  0.00     0.077 C 
ATOM      2  C1' PXY d   1      -5.161   1.985  -0.260  0.00  0.00     0.077 C 
ATOM      3  C1  PXY d   1      -3.648   1.993  -0.170  0.00  0.00    -0.082 A 
ATOM      4  C2  PXY d   1      -3.019   0.958   0.363  0.00  0.00     0.003 A 
ATOM      5  C3  PXY d   1      -1.653   0.962   0.481  0.00  0.00     0.003 A 
ATOM      6  C4  PXY d   1      -0.919   2.013   0.001  0.00  0.00    -0.082 A 
ATOM      7  C5  PXY d   1      -1.552   3.068  -0.554  0.00  0.00     0.003 A 
ATOM      8  C6  PXY d   1      -2.942   3.063  -0.627  0.00  0.00     0.003 A 
ENDROOT
TORSDOF 0
ENDMDL
