MODEL 1
REMARK minimizedAffinity -0.529399276
REMARK minimizedRMSD -1
REMARK  0 active torsions:
REMARK  status: ('A' for Active; 'I' for Inactive)
ROOT
ATOM      1  C4' PXY d   1      -4.127   2.196  -0.778  0.00  0.00     0.077 C 
ATOM      2  C1' PXY d   1       0.932   0.456   1.412  0.00  0.00     0.077 C 
ATOM      3  C1  PXY d   1      -0.398   0.900   0.837  0.00  0.00    -0.082 A 
ATOM      4  C2  PXY d   1      -0.486   2.064   0.214  0.00  0.00     0.003 A 
ATOM      5  C3  PXY d   1      -1.689   2.496  -0.284  0.00  0.00     0.003 A 
ATOM      6  C4  PXY d   1      -2.801   1.703  -0.190  0.00  0.00    -0.082 A 
ATOM      7  C5  PXY d   1      -2.718   0.510   0.434  0.00  0.00     0.003 A 
ATOM      8  C6  PXY d   1      -1.497   0.109   0.969  0.00  0.00     0.003 A 
ENDROOT
TORSDOF 0
ENDMDL
