MODEL 1
REMARK minimizedAffinity -0.334573299
REMARK minimizedRMSD -1
REMARK  0 active torsions:
REMARK  status: ('A' for Active; 'I' for Inactive)
ROOT
ATOM      1  C4' PXY d   1       1.396   1.344   1.005  0.00  0.00     0.077 C 
ATOM      2  C1' PXY d   1      -4.241   1.263  -0.275  0.00  0.00     0.077 C 
ATOM      3  C1  PXY d   1      -2.760   1.293   0.052  0.00  0.00    -0.082 A 
ATOM      4  C2  PXY d   1      -2.183   0.223   0.574  0.00  0.00     0.003 A 
ATOM      5  C3  PXY d   1      -0.853   0.244   0.905  0.00  0.00     0.003 A 
ATOM      6  C4  PXY d   1      -0.093   1.355   0.650  0.00  0.00    -0.082 A 
ATOM      7  C5  PXY d   1      -0.672   2.447   0.108  0.00  0.00     0.003 A 
ATOM      8  C6  PXY d   1      -2.033   2.419  -0.183  0.00  0.00     0.003 A 
ENDROOT
TORSDOF 0
ENDMDL
