MODEL 1
REMARK minimizedAffinity -0.678044558
REMARK minimizedRMSD -1
REMARK  0 active torsions:
REMARK  status: ('A' for Active; 'I' for Inactive)
ROOT
ATOM      1  C4' PXY d   1       1.390   0.759   0.798  0.00  0.00     0.077 C 
ATOM      2  C1' PXY d   1      -4.067   2.378  -0.208  0.00  0.00     0.077 C 
ATOM      3  C1  PXY d   1      -2.640   1.944   0.064  0.00  0.00    -0.082 A 
ATOM      4  C2  PXY d   1      -1.647   2.795  -0.142  0.00  0.00     0.003 A 
ATOM      5  C3  PXY d   1      -0.349   2.409   0.068  0.00  0.00     0.003 A 
ATOM      6  C4  PXY d   1      -0.067   1.157   0.545  0.00  0.00    -0.082 A 
ATOM      7  C5  PXY d   1      -1.074   0.287   0.768  0.00  0.00     0.003 A 
ATOM      8  C6  PXY d   1      -2.383   0.684   0.509  0.00  0.00     0.003 A 
ENDROOT
TORSDOF 0
ENDMDL
