MODEL 1
REMARK minimizedAffinity -2.69927382
REMARK minimizedRMSD -1
REMARK  0 active torsions:
REMARK  status: ('A' for Active; 'I' for Inactive)
ROOT
ATOM      1  C4' PXY d   1       0.709   1.455  -0.003  0.00  0.00     0.077 C 
ATOM      2  C1' PXY d   1      -4.651  -0.047   1.554  0.00  0.00     0.077 C 
ATOM      3  C1  PXY d   1      -3.250   0.355   1.137  0.00  0.00    -0.082 A 
ATOM      4  C2  PXY d   1      -2.237  -0.462   1.375  0.00  0.00     0.003 A 
ATOM      5  C3  PXY d   1      -0.960  -0.101   1.033  0.00  0.00     0.003 A 
ATOM      6  C4  PXY d   1      -0.723   1.086   0.393  0.00  0.00    -0.082 A 
ATOM      7  C5  PXY d   1      -1.753   1.920   0.137  0.00  0.00     0.003 A 
ATOM      8  C6  PXY d   1      -3.037   1.553   0.529  0.00  0.00     0.003 A 
ENDROOT
TORSDOF 0
ENDMDL
