MODEL 1
REMARK minimizedAffinity 4.60994959
REMARK minimizedRMSD -1
REMARK  0 active torsions:
REMARK  status: ('A' for Active; 'I' for Inactive)
ROOT
ATOM      1  C4' PXY d   1      -1.640  -5.882   0.394  0.00  0.00     0.077 C 
ATOM      2  C1' PXY d   1      -2.516  -1.413  -3.168  0.00  0.00     0.077 C 
ATOM      3  C1  PXY d   1      -2.283  -2.593  -2.244  0.00  0.00    -0.082 A 
ATOM      4  C2  PXY d   1      -2.881  -2.627  -1.064  0.00  0.00     0.003 A 
ATOM      5  C3  PXY d   1      -2.656  -3.670  -0.203  0.00  0.00     0.003 A 
ATOM      6  C4  PXY d   1      -1.853  -4.715  -0.575  0.00  0.00    -0.082 A 
ATOM      7  C5  PXY d   1      -1.249  -4.693  -1.782  0.00  0.00     0.003 A 
ATOM      8  C6  PXY d   1      -1.457  -3.605  -2.625  0.00  0.00     0.003 A 
ENDROOT
TORSDOF 0
ENDMDL
