MODEL 1
REMARK minimizedAffinity -0.0486898459
REMARK minimizedRMSD -1
REMARK  0 active torsions:
REMARK  status: ('A' for Active; 'I' for Inactive)
ROOT
ATOM      1  C4' PXY d   1      -3.765  -0.286   1.079  0.00  0.00     0.077 C 
ATOM      2  C1' PXY d   1       1.111   2.673   0.138  0.00  0.00     0.077 C 
ATOM      3  C1  PXY d   1      -0.174   1.908   0.384  0.00  0.00    -0.082 A 
ATOM      4  C2  PXY d   1      -0.132   0.742   1.007  0.00  0.00     0.003 A 
ATOM      5  C3  PXY d   1      -1.282   0.021   1.209  0.00  0.00     0.003 A 
ATOM      6  C4  PXY d   1      -2.493   0.525   0.817  0.00  0.00    -0.082 A 
ATOM      7  C5  PXY d   1      -2.545   1.720   0.190  0.00  0.00     0.003 A 
ATOM      8  C6  PXY d   1      -1.363   2.416  -0.042  0.00  0.00     0.003 A 
ENDROOT
TORSDOF 0
ENDMDL
