MODEL 1
REMARK minimizedAffinity -1.56230831
REMARK minimizedRMSD -1
REMARK  0 active torsions:
REMARK  status: ('A' for Active; 'I' for Inactive)
ROOT
ATOM      1  C4' PXY d   1      -4.580   1.510   0.354  0.00  0.00     0.077 C 
ATOM      2  C1' PXY d   1       1.163   0.929   0.670  0.00  0.00     0.077 C 
ATOM      3  C1  PXY d   1      -0.342   1.093   0.592  0.00  0.00    -0.082 A 
ATOM      4  C2  PXY d   1      -1.119   0.023   0.615  0.00  0.00     0.003 A 
ATOM      5  C3  PXY d   1      -2.480   0.151   0.513  0.00  0.00     0.003 A 
ATOM      6  C4  PXY d   1      -3.055   1.392   0.440  0.00  0.00    -0.082 A 
ATOM      7  C5  PXY d   1      -2.270   2.490   0.427  0.00  0.00     0.003 A 
ATOM      8  C6  PXY d   1      -0.888   2.335   0.490  0.00  0.00     0.003 A 
ENDROOT
TORSDOF 0
ENDMDL
