MODEL 1
REMARK minimizedAffinity -3.07559967
REMARK minimizedRMSD -1
REMARK  0 active torsions:
REMARK  status: ('A' for Active; 'I' for Inactive)
ROOT
ATOM      1  C4' PXY d   1      -4.698   1.502   0.245  0.00  0.00     0.077 C 
ATOM      2  C1' PXY d   1       1.044   1.086   0.766  0.00  0.00     0.077 C 
ATOM      3  C1  PXY d   1      -0.463   1.182   0.630  0.00  0.00    -0.082 A 
ATOM      4  C2  PXY d   1      -1.001   2.237   0.040  0.00  0.00     0.003 A 
ATOM      5  C3  PXY d   1      -2.363   2.355  -0.063  0.00  0.00     0.003 A 
ATOM      6  C4  PXY d   1      -3.181   1.358   0.396  0.00  0.00    -0.082 A 
ATOM      7  C5  PXY d   1      -2.640   0.273   0.989  0.00  0.00     0.003 A 
ATOM      8  C6  PXY d   1      -1.257   0.192   1.121  0.00  0.00     0.003 A 
ENDROOT
TORSDOF 0
ENDMDL
