MODEL 1
REMARK minimizedAffinity 1.31395757
REMARK minimizedRMSD -1
REMARK  0 active torsions:
REMARK  status: ('A' for Active; 'I' for Inactive)
ROOT
ATOM      1  C4' PXY d   1      -4.620   0.810   0.901  0.00  0.00     0.077 C 
ATOM      2  C1' PXY d   1       0.846   2.577   0.251  0.00  0.00     0.077 C 
ATOM      3  C1  PXY d   1      -0.592   2.125   0.417  0.00  0.00    -0.082 A 
ATOM      4  C2  PXY d   1      -0.875   1.138   1.251  0.00  0.00     0.003 A 
ATOM      5  C3  PXY d   1      -2.165   0.695   1.390  0.00  0.00     0.003 A 
ATOM      6  C4  PXY d   1      -3.184   1.305   0.708  0.00  0.00    -0.082 A 
ATOM      7  C5  PXY d   1      -2.905   2.320  -0.136  0.00  0.00     0.003 A 
ATOM      8  C6  PXY d   1      -1.583   2.727  -0.294  0.00  0.00     0.003 A 
ENDROOT
TORSDOF 0
ENDMDL
