MODEL 1
REMARK minimizedAffinity 2.12762594
REMARK minimizedRMSD -1
REMARK  0 active torsions:
REMARK  status: ('A' for Active; 'I' for Inactive)
ROOT
ATOM      1  C4' PXY d   1       4.390   2.236   1.506  0.00  0.00     0.077 C 
ATOM      2  C1' PXY d   1      -1.129   0.725   0.687  0.00  0.00     0.077 C 
ATOM      3  C1  PXY d   1       0.315   1.132   0.907  0.00  0.00    -0.082 A 
ATOM      4  C2  PXY d   1       1.267   0.597   0.160  0.00  0.00     0.003 A 
ATOM      5  C3  PXY d   1       2.580   0.930   0.367  0.00  0.00     0.003 A 
ATOM      6  C4  PXY d   1       2.918   1.861   1.313  0.00  0.00    -0.082 A 
ATOM      7  C5  PXY d   1       1.952   2.420   2.071  0.00  0.00     0.003 A 
ATOM      8  C6  PXY d   1       0.628   2.038   1.873  0.00  0.00     0.003 A 
ENDROOT
TORSDOF 0
ENDMDL
