MODEL 1
REMARK minimizedAffinity 5.92979717
REMARK minimizedRMSD -1
REMARK  0 active torsions:
REMARK  status: ('A' for Active; 'I' for Inactive)
ROOT
ATOM      1  C4' PXY d   1      -2.280  -0.987   3.610  0.00  0.00     0.077 C 
ATOM      2  C1' PXY d   1      -3.216   2.513  -0.894  0.00  0.00     0.077 C 
ATOM      3  C1  PXY d   1      -2.984   1.593   0.289  0.00  0.00    -0.082 A 
ATOM      4  C2  PXY d   1      -1.856   1.683   0.975  0.00  0.00     0.003 A 
ATOM      5  C3  PXY d   1      -1.615   0.837   2.027  0.00  0.00     0.003 A 
ATOM      6  C4  PXY d   1      -2.562  -0.073   2.415  0.00  0.00    -0.082 A 
ATOM      7  C5  PXY d   1      -3.720  -0.163   1.727  0.00  0.00     0.003 A 
ATOM      8  C6  PXY d   1      -3.927   0.676   0.636  0.00  0.00     0.003 A 
ENDROOT
TORSDOF 0
ENDMDL
