MODEL 1
REMARK minimizedAffinity -1.50031507
REMARK minimizedRMSD -1
REMARK  0 active torsions:
REMARK  status: ('A' for Active; 'I' for Inactive)
ROOT
ATOM      1  C4' PXY d   1      -1.855   0.162   0.144  0.00  0.00     0.077 C 
ATOM      2  C1' PXY d   1       2.264   3.560   2.359  0.00  0.00     0.077 C 
ATOM      3  C1  PXY d   1       1.192   2.665   1.769  0.00  0.00    -0.082 A 
ATOM      4  C2  PXY d   1      -0.084   2.953   1.968  0.00  0.00     0.003 A 
ATOM      5  C3  PXY d   1      -1.066   2.137   1.469  0.00  0.00     0.003 A 
ATOM      6  C4  PXY d   1      -0.739   1.043   0.713  0.00  0.00    -0.082 A 
ATOM      7  C5  PXY d   1       0.560   0.748   0.496  0.00  0.00     0.003 A 
ATOM      8  C6  PXY d   1       1.542   1.567   1.046  0.00  0.00     0.003 A 
ENDROOT
TORSDOF 0
ENDMDL
