MODEL 1
REMARK minimizedAffinity 0.187411353
REMARK minimizedRMSD -1
REMARK  0 active torsions:
REMARK  status: ('A' for Active; 'I' for Inactive)
ROOT
ATOM      1  C4' PXY d   1       1.804   1.137  -1.715  0.00  0.00     0.077 C 
ATOM      2  C1' PXY d   1      -0.826   2.321   3.294  0.00  0.00     0.077 C 
ATOM      3  C1  PXY d   1      -0.147   2.003   1.977  0.00  0.00    -0.082 A 
ATOM      4  C2  PXY d   1       1.165   2.136   1.869  0.00  0.00     0.003 A 
ATOM      5  C3  PXY d   1       1.793   1.883   0.677  0.00  0.00     0.003 A 
ATOM      6  C4  PXY d   1       1.076   1.438  -0.402  0.00  0.00    -0.082 A 
ATOM      7  C5  PXY d   1      -0.261   1.289  -0.297  0.00  0.00     0.003 A 
ATOM      8  C6  PXY d   1      -0.884   1.591   0.911  0.00  0.00     0.003 A 
ENDROOT
TORSDOF 0
ENDMDL
