MODEL 1
REMARK minimizedAffinity 9.12596607
REMARK minimizedRMSD -1
REMARK  0 active torsions:
REMARK  status: ('A' for Active; 'I' for Inactive)
ROOT
ATOM      1  C4' PXY d   1       1.508   1.480  -0.377  0.00  0.00     0.077 C 
ATOM      2  C1' PXY d   1      -1.777  -2.921   1.427  0.00  0.00     0.077 C 
ATOM      3  C1  PXY d   1      -0.906  -1.771   0.962  0.00  0.00    -0.082 A 
ATOM      4  C2  PXY d   1      -1.469  -0.694   0.438  0.00  0.00     0.003 A 
ATOM      5  C3  PXY d   1      -0.695   0.342  -0.017  0.00  0.00     0.003 A 
ATOM      6  C4  PXY d   1       0.668   0.298   0.115  0.00  0.00    -0.082 A 
ATOM      7  C5  PXY d   1       1.249  -0.792   0.658  0.00  0.00     0.003 A 
ATOM      8  C6  PXY d   1       0.448  -1.850   1.076  0.00  0.00     0.003 A 
ENDROOT
TORSDOF 0
ENDMDL
