MODEL 1
REMARK minimizedAffinity -5.07795143
REMARK minimizedRMSD -1
REMARK  1 active torsions:
REMARK  status: ('A' for Active; 'I' for Inactive)
REMARK    1  A    between atoms: C1_2  and  C2_3 
ROOT
ATOM      1  C2  UNL d   1      -0.956   1.042  -0.177  0.00  0.00    -0.073 A 
ATOM      2  C3  UNL d   1      -0.107   2.149  -0.058  0.00  0.00    -0.002 A 
ATOM      3  C4  UNL d   1       1.272   1.969   0.065  0.00  0.00     0.004 A 
ATOM      4  C5  UNL d   1       1.816   0.685   0.062  0.00  0.00    -0.004 A 
ATOM      5  C6  UNL d   1       0.985  -0.433  -0.068  0.00  0.00    -0.075 A 
ATOM      6  C7  UNL d   1       1.554  -1.821  -0.070  0.00  0.00     0.076 C 
ATOM      7  C8  UNL d   1      -0.399  -0.245  -0.187  0.00  0.00     0.001 A 
ENDROOT
BRANCH   1   8
ATOM      8  C1  UNL d   1      -2.444   1.231  -0.316  0.00  0.00     0.053 C 
ATOM      9  C   UNL d   1      -2.991   2.221   0.701  0.00  0.00     0.018 C 
ENDBRANCH   1   8
TORSDOF 1
ENDMDL
