MODEL 1
REMARK minimizedAffinity -3.21393394
REMARK minimizedRMSD -1
REMARK  1 active torsions:
REMARK  status: ('A' for Active; 'I' for Inactive)
REMARK    1  A    between atoms: C1_2  and  C2_3 
ROOT
ATOM      1  C2  UNL d   1       0.816  -0.173  -0.059  0.00  0.00    -0.073 A 
ATOM      2  C3  UNL d   1       1.398   1.099  -0.111  0.00  0.00    -0.002 A 
ATOM      3  C4  UNL d   1       0.604   2.231  -0.299  0.00  0.00     0.004 A 
ATOM      4  C5  UNL d   1      -0.779   2.104  -0.429  0.00  0.00    -0.004 A 
ATOM      5  C6  UNL d   1      -1.381   0.844  -0.367  0.00  0.00    -0.075 A 
ATOM      6  C7  UNL d   1      -2.867   0.690  -0.508  0.00  0.00     0.076 C 
ATOM      7  C8  UNL d   1      -0.576  -0.289  -0.181  0.00  0.00     0.001 A 
ENDROOT
BRANCH   1   8
ATOM      8  C1  UNL d   1       1.668  -1.397   0.150  0.00  0.00     0.053 C 
ATOM      9  C   UNL d   1       3.123  -1.148  -0.215  0.00  0.00     0.018 C 
ENDBRANCH   1   8
TORSDOF 1
ENDMDL
