MODEL 1
REMARK minimizedAffinity -4.36762047
REMARK minimizedRMSD -1
REMARK  1 active torsions:
REMARK  status: ('A' for Active; 'I' for Inactive)
REMARK    1  A    between atoms: C1_2  and  C2_3 
ROOT
ATOM      1  C2  UNL d   1      -0.308  -0.491  -0.026  0.00  0.00    -0.073 A 
ATOM      2  C3  UNL d   1      -0.142   0.426  -1.071  0.00  0.00    -0.002 A 
ATOM      3  C4  UNL d   1      -1.141   1.358  -1.356  0.00  0.00     0.004 A 
ATOM      4  C5  UNL d   1      -2.311   1.387  -0.597  0.00  0.00    -0.004 A 
ATOM      5  C6  UNL d   1      -2.490   0.487   0.458  0.00  0.00    -0.075 A 
ATOM      6  C7  UNL d   1      -3.744   0.505   1.282  0.00  0.00     0.076 C 
ATOM      7  C8  UNL d   1      -1.484  -0.447   0.737  0.00  0.00     0.001 A 
ENDROOT
BRANCH   1   8
ATOM      8  C1  UNL d   1       0.770  -1.495   0.290  0.00  0.00     0.053 C 
ATOM      9  C   UNL d   1       2.152  -0.983  -0.083  0.00  0.00     0.018 C 
ENDBRANCH   1   8
TORSDOF 1
ENDMDL
