MODEL 1
REMARK minimizedAffinity -1.40446436
REMARK minimizedRMSD -1
REMARK  1 active torsions:
REMARK  status: ('A' for Active; 'I' for Inactive)
REMARK    1  A    between atoms: C1_2  and  C2_3 
ROOT
ATOM      1  C2  UNL d   1      -0.310  -0.792   0.044  0.00  0.00    -0.073 A 
ATOM      2  C3  UNL d   1       0.136   0.336  -0.654  0.00  0.00    -0.002 A 
ATOM      3  C4  UNL d   1      -0.612   1.514  -0.640  0.00  0.00     0.004 A 
ATOM      4  C5  UNL d   1      -1.807   1.579   0.075  0.00  0.00    -0.004 A 
ATOM      5  C6  UNL d   1      -2.264   0.465   0.789  0.00  0.00    -0.075 A 
ATOM      6  C7  UNL d   1      -3.549   0.518   1.561  0.00  0.00     0.076 C 
ATOM      7  C8  UNL d   1      -1.509  -0.715   0.768  0.00  0.00     0.001 A 
ENDROOT
BRANCH   1   8
ATOM      8  C1  UNL d   1       0.497  -2.065   0.038  0.00  0.00     0.053 C 
ATOM      9  C   UNL d   1       1.848  -1.880  -0.635  0.00  0.00     0.018 C 
ENDBRANCH   1   8
TORSDOF 1
ENDMDL
