MODEL 1
REMARK minimizedAffinity -2.24804306
REMARK minimizedRMSD -1
REMARK  1 active torsions:
REMARK  status: ('A' for Active; 'I' for Inactive)
REMARK    1  A    between atoms: C1_2  and  C2_3 
ROOT
ATOM      1  C2  UNL d   1      -0.731   0.251  -0.226  0.00  0.00    -0.073 A 
ATOM      2  C3  UNL d   1      -0.085   1.492  -0.263  0.00  0.00    -0.002 A 
ATOM      3  C4  UNL d   1       1.308   1.563  -0.237  0.00  0.00     0.004 A 
ATOM      4  C5  UNL d   1       2.069   0.396  -0.181  0.00  0.00    -0.004 A 
ATOM      5  C6  UNL d   1       1.443  -0.855  -0.156  0.00  0.00    -0.075 A 
ATOM      6  C7  UNL d   1       2.248  -2.120  -0.095  0.00  0.00     0.076 C 
ATOM      7  C8  UNL d   1       0.043  -0.917  -0.180  0.00  0.00     0.001 A 
ENDROOT
BRANCH   1   8
ATOM      8  C1  UNL d   1      -2.235   0.169  -0.261  0.00  0.00     0.053 C 
ATOM      9  C   UNL d   1      -2.864   0.691   1.022  0.00  0.00     0.018 C 
ENDBRANCH   1   8
TORSDOF 1
ENDMDL
