MODEL 1
REMARK minimizedAffinity -1.65641725
REMARK minimizedRMSD -1
REMARK  1 active torsions:
REMARK  status: ('A' for Active; 'I' for Inactive)
REMARK    1  A    between atoms: C1_2  and  C2_3 
ROOT
ATOM      1  C2  UNL d   1      -0.090   0.712  -0.478  0.00  0.00    -0.073 A 
ATOM      2  C3  UNL d   1       0.586   1.913  -0.235  0.00  0.00    -0.002 A 
ATOM      3  C4  UNL d   1       1.979   1.935  -0.158  0.00  0.00     0.004 A 
ATOM      4  C5  UNL d   1       2.710   0.760  -0.331  0.00  0.00    -0.004 A 
ATOM      5  C6  UNL d   1       2.053  -0.448  -0.587  0.00  0.00    -0.075 A 
ATOM      6  C7  UNL d   1       2.825  -1.722  -0.773  0.00  0.00     0.076 C 
ATOM      7  C8  UNL d   1       0.654  -0.462  -0.660  0.00  0.00     0.001 A 
ENDROOT
BRANCH   1   8
ATOM      8  C1  UNL d   1      -1.594   0.685  -0.568  0.00  0.00     0.053 C 
ATOM      9  C   UNL d   1      -2.245   0.579   0.801  0.00  0.00     0.018 C 
ENDBRANCH   1   8
TORSDOF 1
ENDMDL
