MODEL 1
REMARK minimizedAffinity -0.0322337709
REMARK minimizedRMSD -1
REMARK  0 active torsions:
REMARK  status: ('A' for Active; 'I' for Inactive)
ROOT
ATOM      1  C   UNL d   1      -0.725   1.606   2.835  0.00  0.00     0.023 A 
ATOM      2  C1  UNL d   1      -1.352   1.800   1.604  0.00  0.00     0.003 A 
ATOM      3  C2  UNL d   1      -1.100   0.925   0.545  0.00  0.00     0.048 A 
ATOM      4  C3  UNL d   1      -0.220  -0.142   0.725  0.00  0.00     0.023 A 
ATOM      5  C4  UNL d   1       0.408  -0.340   1.955  0.00  0.00     0.048 A 
ATOM      6  C5  UNL d   1       0.154   0.538   3.010  0.00  0.00     0.003 A 
ATOM      7  I   UNL d   1       0.157  -1.446  -0.849  0.00  0.00    -0.146 I 
ENDROOT
TORSDOF 0
ENDMDL
