MODEL 1
REMARK minimizedAffinity -1.7818799
REMARK minimizedRMSD -1
REMARK  0 active torsions:
REMARK  status: ('A' for Active; 'I' for Inactive)
ROOT
ATOM      1  C   UNL d   1      -0.914   0.546   1.484  0.00  0.00     0.023 A 
ATOM      2  C1  UNL d   1       0.325   0.801   0.897  0.00  0.00     0.003 A 
ATOM      3  C2  UNL d   1       0.903  -0.142   0.044  0.00  0.00     0.048 A 
ATOM      4  C3  UNL d   1       0.235  -1.338  -0.218  0.00  0.00     0.023 A 
ATOM      5  C4  UNL d   1      -1.005  -1.597   0.367  0.00  0.00     0.048 A 
ATOM      6  C5  UNL d   1      -1.578  -0.652   1.220  0.00  0.00     0.003 A 
ATOM      7  I   UNL d   1       1.093  -2.742  -1.487  0.00  0.00    -0.146 I 
ENDROOT
TORSDOF 0
ENDMDL
