MODEL 1
REMARK minimizedAffinity -3.51893854
REMARK minimizedRMSD -1
REMARK  0 active torsions:
REMARK  status: ('A' for Active; 'I' for Inactive)
ROOT
ATOM      1  C   UNL d   1      -0.562   0.261   1.293  0.00  0.00     0.023 A 
ATOM      2  C1  UNL d   1      -1.297  -0.911   1.116  0.00  0.00     0.003 A 
ATOM      3  C2  UNL d   1      -0.969  -1.794   0.085  0.00  0.00     0.048 A 
ATOM      4  C3  UNL d   1       0.097  -1.500  -0.765  0.00  0.00     0.023 A 
ATOM      5  C4  UNL d   1       0.836  -0.329  -0.591  0.00  0.00     0.048 A 
ATOM      6  C5  UNL d   1       0.504   0.552   0.440  0.00  0.00     0.003 A 
ATOM      7  I   UNL d   1       0.588  -2.812  -2.299  0.00  0.00    -0.146 I 
ENDROOT
TORSDOF 0
ENDMDL
