MODEL 1
REMARK minimizedAffinity -2.1632123
REMARK minimizedRMSD -1
REMARK  0 active torsions:
REMARK  status: ('A' for Active; 'I' for Inactive)
ROOT
ATOM      1  C   UNL d   1      -0.931  -0.153   1.803  0.00  0.00     0.023 A 
ATOM      2  C1  UNL d   1       0.262   0.210   1.177  0.00  0.00     0.003 A 
ATOM      3  C2  UNL d   1       0.762  -0.560   0.125  0.00  0.00     0.048 A 
ATOM      4  C3  UNL d   1       0.064  -1.690  -0.298  0.00  0.00     0.023 A 
ATOM      5  C4  UNL d   1      -1.131  -2.057   0.324  0.00  0.00     0.048 A 
ATOM      6  C5  UNL d   1      -1.627  -1.285   1.376  0.00  0.00     0.003 A 
ATOM      7  I   UNL d   1       0.807  -2.837  -1.864  0.00  0.00    -0.146 I 
ENDROOT
TORSDOF 0
ENDMDL
