MODEL 1
REMARK minimizedAffinity -4.37072086
REMARK minimizedRMSD -1
REMARK  0 active torsions:
REMARK  status: ('A' for Active; 'I' for Inactive)
ROOT
ATOM      1  C   UNL d   1      -1.797   2.672   0.879  0.00  0.00     0.023 A 
ATOM      2  C1  UNL d   1      -1.854   1.374   1.388  0.00  0.00     0.003 A 
ATOM      3  C2  UNL d   1      -0.910   0.425   0.991  0.00  0.00     0.048 A 
ATOM      4  C3  UNL d   1       0.090   0.781   0.087  0.00  0.00     0.023 A 
ATOM      5  C4  UNL d   1       0.152   2.078  -0.424  0.00  0.00     0.048 A 
ATOM      6  C5  UNL d   1      -0.795   3.024  -0.025  0.00  0.00     0.003 A 
ATOM      7  I   UNL d   1       1.497  -0.630  -0.505  0.00  0.00    -0.146 I 
ENDROOT
TORSDOF 0
ENDMDL
