MODEL 1
REMARK minimizedAffinity -1.28185177
REMARK minimizedRMSD -1
REMARK  0 active torsions:
REMARK  status: ('A' for Active; 'I' for Inactive)
ROOT
ATOM      1  C   UNL d   1      -0.976   0.559   1.863  0.00  0.00     0.023 A 
ATOM      2  C1  UNL d   1       0.399   0.325   1.846  0.00  0.00     0.003 A 
ATOM      3  C2  UNL d   1       0.954  -0.521   0.884  0.00  0.00     0.048 A 
ATOM      4  C3  UNL d   1       0.127  -1.130  -0.060  0.00  0.00     0.023 A 
ATOM      5  C4  UNL d   1      -1.249  -0.898  -0.048  0.00  0.00     0.048 A 
ATOM      6  C5  UNL d   1      -1.799  -0.051   0.916  0.00  0.00     0.003 A 
ATOM      7  I   UNL d   1       0.950  -2.390  -1.494  0.00  0.00    -0.146 I 
ENDROOT
TORSDOF 0
ENDMDL
