MODEL 1
REMARK minimizedAffinity -1.07857764
REMARK minimizedRMSD -1
REMARK  0 active torsions:
REMARK  status: ('A' for Active; 'I' for Inactive)
ROOT
ATOM      1  C   UNL d   1       0.079  -0.880   1.551  0.00  0.00     0.023 A 
ATOM      2  C1  UNL d   1       0.960  -0.657   0.492  0.00  0.00     0.003 A 
ATOM      3  C2  UNL d   1       1.023   0.600  -0.112  0.00  0.00     0.048 A 
ATOM      4  C3  UNL d   1       0.203   1.631   0.348  0.00  0.00     0.023 A 
ATOM      5  C4  UNL d   1      -0.679   1.412   1.407  0.00  0.00     0.048 A 
ATOM      6  C5  UNL d   1      -0.739   0.153   2.008  0.00  0.00     0.003 A 
ATOM      7  I   UNL d   1       0.296   3.503  -0.550  0.00  0.00    -0.146 I 
ENDROOT
TORSDOF 0
ENDMDL
