MODEL 1
REMARK minimizedAffinity -1.92107093
REMARK minimizedRMSD -1
REMARK  0 active torsions:
REMARK  status: ('A' for Active; 'I' for Inactive)
ROOT
ATOM      1  C   UNL d   1      -1.025   0.212   2.601  0.00  0.00     0.023 A 
ATOM      2  C1  UNL d   1      -0.824   0.991   1.461  0.00  0.00     0.003 A 
ATOM      3  C2  UNL d   1      -0.332   0.407   0.293  0.00  0.00     0.048 A 
ATOM      4  C3  UNL d   1      -0.043  -0.958   0.270  0.00  0.00     0.023 A 
ATOM      5  C4  UNL d   1      -0.243  -1.741   1.408  0.00  0.00     0.048 A 
ATOM      6  C5  UNL d   1      -0.735  -1.153   2.574  0.00  0.00     0.003 A 
ATOM      7  I   UNL d   1       0.690  -1.829  -1.469  0.00  0.00    -0.146 I 
ENDROOT
TORSDOF 0
ENDMDL
