MODEL 1
REMARK minimizedAffinity -0.471479356
REMARK minimizedRMSD -1
REMARK  0 active torsions:
REMARK  status: ('A' for Active; 'I' for Inactive)
ROOT
ATOM      1  C   UNL d   1      -1.545   1.816   1.466  0.00  0.00     0.023 A 
ATOM      2  C1  UNL d   1      -0.650   2.332   0.528  0.00  0.00     0.003 A 
ATOM      3  C2  UNL d   1       0.135   1.470  -0.239  0.00  0.00     0.048 A 
ATOM      4  C3  UNL d   1       0.020   0.091  -0.065  0.00  0.00     0.023 A 
ATOM      5  C4  UNL d   1      -0.874  -0.431   0.872  0.00  0.00     0.048 A 
ATOM      6  C5  UNL d   1      -1.656   0.436   1.637  0.00  0.00     0.003 A 
ATOM      7  I   UNL d   1       1.187  -1.195  -1.206  0.00  0.00    -0.146 I 
ENDROOT
TORSDOF 0
ENDMDL
