MODEL 1
REMARK minimizedAffinity -2.55642962
REMARK minimizedRMSD -1
REMARK  0 active torsions:
REMARK  status: ('A' for Active; 'I' for Inactive)
ROOT
ATOM      1  C   UNL d   1      -0.409  -0.026   1.372  0.00  0.00     0.023 A 
ATOM      2  C1  UNL d   1      -1.442  -0.571   0.608  0.00  0.00     0.003 A 
ATOM      3  C2  UNL d   1      -1.152  -1.242  -0.581  0.00  0.00     0.048 A 
ATOM      4  C3  UNL d   1       0.172  -1.366  -1.001  0.00  0.00     0.023 A 
ATOM      5  C4  UNL d   1       1.208  -0.823  -0.240  0.00  0.00     0.048 A 
ATOM      6  C5  UNL d   1       0.914  -0.153   0.949  0.00  0.00     0.003 A 
ATOM      7  I   UNL d   1       0.605  -2.365  -2.772  0.00  0.00    -0.146 I 
ENDROOT
TORSDOF 0
ENDMDL
