MODEL 1
REMARK minimizedAffinity -3.69853401
REMARK minimizedRMSD -1
REMARK  0 active torsions:
REMARK  status: ('A' for Active; 'I' for Inactive)
ROOT
ATOM      1  C   UNL d   1      -0.776   2.989   1.052  0.00  0.00     0.023 A 
ATOM      2  C1  UNL d   1      -1.041   1.867   1.838  0.00  0.00     0.003 A 
ATOM      3  C2  UNL d   1      -0.590   0.608   1.436  0.00  0.00     0.048 A 
ATOM      4  C3  UNL d   1       0.126   0.478   0.247  0.00  0.00     0.023 A 
ATOM      5  C4  UNL d   1       0.394   1.597  -0.543  0.00  0.00     0.048 A 
ATOM      6  C5  UNL d   1      -0.060   2.854  -0.138  0.00  0.00     0.003 A 
ATOM      7  I   UNL d   1       0.799  -1.395  -0.353  0.00  0.00    -0.146 I 
ENDROOT
TORSDOF 0
ENDMDL
