MODEL 1
REMARK minimizedAffinity -3.624614
REMARK minimizedRMSD -1
REMARK  0 active torsions:
REMARK  status: ('A' for Active; 'I' for Inactive)
ROOT
ATOM      1  C   UNL d   1      -0.374   4.159   1.328  0.00  0.00     0.023 A 
ATOM      2  C1  UNL d   1      -0.587   3.133   2.249  0.00  0.00     0.003 A 
ATOM      3  C2  UNL d   1      -0.525   1.800   1.839  0.00  0.00     0.048 A 
ATOM      4  C3  UNL d   1      -0.247   1.499   0.506  0.00  0.00     0.023 A 
ATOM      5  C4  UNL d   1      -0.032   2.522  -0.419  0.00  0.00     0.048 A 
ATOM      6  C5  UNL d   1      -0.096   3.853  -0.004  0.00  0.00     0.003 A 
ATOM      7  I   UNL d   1      -0.153  -0.485  -0.107  0.00  0.00    -0.146 I 
ENDROOT
TORSDOF 0
ENDMDL
