MODEL 1
REMARK minimizedAffinity 6.50322628
REMARK minimizedRMSD -1
REMARK  1 active torsions:
REMARK  status: ('A' for Active; 'I' for Inactive)
REMARK    1  A    between atoms: C3_4  and  O_7 
ROOT
ATOM      1  C   UNL d   1       0.892   4.084   3.836  0.00  0.00    -0.033 A 
ATOM      2  C1  UNL d   1       0.967   5.382   3.327  0.00  0.00     0.039 A 
ATOM      3  C2  UNL d   1       2.190   5.894   2.890  0.00  0.00    -0.080 A 
ATOM      4  C3  UNL d   1       3.330   5.098   2.967  0.00  0.00     0.150 A 
ATOM      5  C4  UNL d   1       3.263   3.803   3.469  0.00  0.00    -0.007 A 
ATOM      6  C5  UNL d   1       2.040   3.294   3.906  0.00  0.00     0.039 A 
ENDROOT
BRANCH   4   7
ATOM      7  O   UNL d   1       4.547   5.556   2.557  0.00  0.00    -0.526 OA
ATOM      8  H5  UNL d   1       4.446   6.476   2.261  0.00  0.00     0.418 HD
ENDBRANCH   4   7
TORSDOF 1
ENDMDL
