MODEL 1
REMARK minimizedAffinity 4.59566402
REMARK minimizedRMSD -1
REMARK  1 active torsions:
REMARK  status: ('A' for Active; 'I' for Inactive)
REMARK    1  A    between atoms: C3_4  and  O_7 
ROOT
ATOM      1  C   UNL d   1       1.783  -1.388   0.990  0.00  0.00    -0.033 A 
ATOM      2  C1  UNL d   1       1.983  -1.372  -0.392  0.00  0.00     0.039 A 
ATOM      3  C2  UNL d   1       2.302  -0.176  -1.039  0.00  0.00    -0.080 A 
ATOM      4  C3  UNL d   1       2.420   0.994  -0.293  0.00  0.00     0.150 A 
ATOM      5  C4  UNL d   1       2.226   0.984   1.084  0.00  0.00    -0.007 A 
ATOM      6  C5  UNL d   1       1.906  -0.211   1.728  0.00  0.00     0.039 A 
ENDROOT
BRANCH   4   7
ATOM      7  O   UNL d   1       2.725   2.185  -0.881  0.00  0.00    -0.526 OA
ATOM      8  H5  UNL d   1       2.802   2.045  -1.839  0.00  0.00     0.418 HD
ENDBRANCH   4   7
TORSDOF 1
ENDMDL
