MODEL 1
REMARK minimizedAffinity 1.5516094
REMARK minimizedRMSD -1
REMARK  1 active torsions:
REMARK  status: ('A' for Active; 'I' for Inactive)
REMARK    1  A    between atoms: C3_4  and  O_7 
ROOT
ATOM      1  C   UNL d   1       3.788   4.213   5.856  0.00  0.00    -0.033 A 
ATOM      2  C1  UNL d   1       4.580   5.354   5.997  0.00  0.00     0.039 A 
ATOM      3  C2  UNL d   1       5.129   5.969   4.870  0.00  0.00    -0.080 A 
ATOM      4  C3  UNL d   1       4.877   5.434   3.609  0.00  0.00     0.150 A 
ATOM      5  C4  UNL d   1       4.086   4.300   3.461  0.00  0.00    -0.007 A 
ATOM      6  C5  UNL d   1       3.540   3.687   4.588  0.00  0.00     0.039 A 
ENDROOT
BRANCH   4   7
ATOM      7  O   UNL d   1       5.395   5.997   2.481  0.00  0.00    -0.526 OA
ATOM      8  H5  UNL d   1       5.944   6.756   2.739  0.00  0.00     0.418 HD
ENDBRANCH   4   7
TORSDOF 1
ENDMDL
