MODEL 1
REMARK minimizedAffinity 3.37453866
REMARK minimizedRMSD -1
REMARK  1 active torsions:
REMARK  status: ('A' for Active; 'I' for Inactive)
REMARK    1  A    between atoms: C3_4  and  O_7 
ROOT
ATOM      1  C   UNL d   1      -4.966   5.999   5.477  0.00  0.00    -0.033 A 
ATOM      2  C1  UNL d   1      -3.957   5.982   4.512  0.00  0.00     0.039 A 
ATOM      3  C2  UNL d   1      -3.964   5.010   3.510  0.00  0.00    -0.080 A 
ATOM      4  C3  UNL d   1      -4.985   4.064   3.483  0.00  0.00     0.150 A 
ATOM      5  C4  UNL d   1      -5.995   4.078   4.439  0.00  0.00    -0.007 A 
ATOM      6  C5  UNL d   1      -5.986   5.048   5.440  0.00  0.00     0.039 A 
ENDROOT
BRANCH   4   7
ATOM      7  O   UNL d   1      -5.032   3.093   2.526  0.00  0.00    -0.526 OA
ATOM      8  H5  UNL d   1      -4.254   3.190   1.951  0.00  0.00     0.418 HD
ENDBRANCH   4   7
TORSDOF 1
ENDMDL
