MODEL 1
REMARK minimizedAffinity 12.3632412
REMARK minimizedRMSD -1
REMARK  1 active torsions:
REMARK  status: ('A' for Active; 'I' for Inactive)
REMARK    1  A    between atoms: C3_4  and  O_7 
ROOT
ATOM      1  C   UNL d   1       1.826  -3.284  -0.656  0.00  0.00    -0.033 A 
ATOM      2  C1  UNL d   1       2.036  -2.678   0.585  0.00  0.00     0.039 A 
ATOM      3  C2  UNL d   1       2.723  -1.465   0.664  0.00  0.00    -0.080 A 
ATOM      4  C3  UNL d   1       3.193  -0.869  -0.502  0.00  0.00     0.150 A 
ATOM      5  C4  UNL d   1       2.985  -1.464  -1.742  0.00  0.00    -0.007 A 
ATOM      6  C5  UNL d   1       2.299  -2.676  -1.819  0.00  0.00     0.039 A 
ENDROOT
BRANCH   4   7
ATOM      7  O   UNL d   1       3.873   0.313  -0.474  0.00  0.00    -0.526 OA
ATOM      8  H5  UNL d   1       3.967   0.592   0.452  0.00  0.00     0.418 HD
ENDBRANCH   4   7
TORSDOF 1
ENDMDL
