MODEL 1
REMARK minimizedAffinity 6.01976919
REMARK minimizedRMSD -1
REMARK  1 active torsions:
REMARK  status: ('A' for Active; 'I' for Inactive)
REMARK    1  A    between atoms: C3_4  and  O_7 
ROOT
ATOM      1  C   UNL d   1       3.591   1.669  -0.052  0.00  0.00    -0.033 A 
ATOM      2  C1  UNL d   1       4.603   0.748  -0.333  0.00  0.00     0.039 A 
ATOM      3  C2  UNL d   1       4.312  -0.616  -0.394  0.00  0.00    -0.080 A 
ATOM      4  C3  UNL d   1       3.006  -1.046  -0.174  0.00  0.00     0.150 A 
ATOM      5  C4  UNL d   1       1.992  -0.134   0.102  0.00  0.00    -0.007 A 
ATOM      6  C5  UNL d   1       2.286   1.227   0.164  0.00  0.00     0.039 A 
ENDROOT
BRANCH   4   7
ATOM      7  O   UNL d   1       2.674  -2.367  -0.219  0.00  0.00    -0.526 OA
ATOM      8  H5  UNL d   1       3.480  -2.881  -0.391  0.00  0.00     0.418 HD
ENDBRANCH   4   7
TORSDOF 1
ENDMDL
