MODEL 1
REMARK minimizedAffinity -0.122185379
REMARK minimizedRMSD -1
REMARK  0 active torsions:
REMARK  status: ('A' for Active; 'I' for Inactive)
ROOT
ATOM      1  C4' PXY d   1       4.486  -1.453   0.381  0.00  0.00     0.077 C 
ATOM      2  C1' PXY d   1       4.424  -5.500  -3.746  0.00  0.00     0.077 C 
ATOM      3  C1  PXY d   1       4.440  -4.429  -2.673  0.00  0.00    -0.082 A 
ATOM      4  C2  PXY d   1       4.965  -4.698  -1.489  0.00  0.00     0.003 A 
ATOM      5  C3  PXY d   1       4.958  -3.752  -0.496  0.00  0.00     0.003 A 
ATOM      6  C4  PXY d   1       4.457  -2.500  -0.736  0.00  0.00    -0.082 A 
ATOM      7  C5  PXY d   1       3.930  -2.215  -1.945  0.00  0.00     0.003 A 
ATOM      8  C6  PXY d   1       3.908  -3.202  -2.926  0.00  0.00     0.003 A 
ENDROOT
TORSDOF 0
ENDMDL
