MODEL 1
REMARK minimizedAffinity -0.252782047
REMARK minimizedRMSD -1
REMARK  0 active torsions:
REMARK  status: ('A' for Active; 'I' for Inactive)
ROOT
ATOM      1  C4' PXY d   1       5.448  -5.997  -3.783  0.00  0.00     0.077 C 
ATOM      2  C1' PXY d   1       3.783  -1.541  -0.498  0.00  0.00     0.077 C 
ATOM      3  C1  PXY d   1       4.230  -2.712  -1.351  0.00  0.00    -0.082 A 
ATOM      4  C2  PXY d   1       3.918  -2.741  -2.637  0.00  0.00     0.003 A 
ATOM      5  C3  PXY d   1       4.286  -3.807  -3.416  0.00  0.00     0.003 A 
ATOM      6  C4  PXY d   1       5.026  -4.830  -2.886  0.00  0.00    -0.082 A 
ATOM      7  C5  PXY d   1       5.357  -4.803  -1.577  0.00  0.00     0.003 A 
ATOM      8  C6  PXY d   1       4.939  -3.731  -0.794  0.00  0.00     0.003 A 
ENDROOT
TORSDOF 0
ENDMDL
