MODEL 1
REMARK minimizedAffinity -2.65911102
REMARK minimizedRMSD -1
REMARK  0 active torsions:
REMARK  status: ('A' for Active; 'I' for Inactive)
ROOT
ATOM      1  C4' PXY d   1       5.652  -5.571  -3.986  0.00  0.00     0.077 C 
ATOM      2  C1' PXY d   1       3.296  -1.471  -0.662  0.00  0.00     0.077 C 
ATOM      3  C1  PXY d   1       3.925  -2.543  -1.529  0.00  0.00    -0.082 A 
ATOM      4  C2  PXY d   1       3.325  -2.916  -2.647  0.00  0.00     0.003 A 
ATOM      5  C3  PXY d   1       3.864  -3.907  -3.427  0.00  0.00     0.003 A 
ATOM      6  C4  PXY d   1       5.057  -4.485  -3.085  0.00  0.00    -0.082 A 
ATOM      7  C5  PXY d   1       5.681  -4.103  -1.951  0.00  0.00     0.003 A 
ATOM      8  C6  PXY d   1       5.097  -3.124  -1.152  0.00  0.00     0.003 A 
ENDROOT
TORSDOF 0
ENDMDL
