MODEL 1
REMARK minimizedAffinity 0.993826926
REMARK minimizedRMSD -1
REMARK  0 active torsions:
REMARK  status: ('A' for Active; 'I' for Inactive)
ROOT
ATOM      1  C4' PXY d   1      -3.541   1.011  -2.172  0.00  0.00     0.077 C 
ATOM      2  C1' PXY d   1       0.632   4.685  -0.592  0.00  0.00     0.077 C 
ATOM      3  C1  PXY d   1      -0.471   3.731  -1.005  0.00  0.00    -0.082 A 
ATOM      4  C2  PXY d   1      -0.310   2.429  -0.830  0.00  0.00     0.003 A 
ATOM      5  C3  PXY d   1      -1.284   1.550  -1.228  0.00  0.00     0.003 A 
ATOM      6  C4  PXY d   1      -2.458   2.012  -1.761  0.00  0.00    -0.082 A 
ATOM      7  C5  PXY d   1      -2.635   3.339  -1.933  0.00  0.00     0.003 A 
ATOM      8  C6  PXY d   1      -1.617   4.212  -1.561  0.00  0.00     0.003 A 
ENDROOT
TORSDOF 0
ENDMDL
