MODEL 1
REMARK minimizedAffinity 0.4908171
REMARK minimizedRMSD -1
REMARK  0 active torsions:
REMARK  status: ('A' for Active; 'I' for Inactive)
ROOT
ATOM      1  C4' PXY d   1       5.986  -5.435   0.092  0.00  0.00     0.077 C 
ATOM      2  C1' PXY d   1       3.127  -1.876  -3.454  0.00  0.00     0.077 C 
ATOM      3  C1  PXY d   1       3.870  -2.820  -2.528  0.00  0.00    -0.082 A 
ATOM      4  C2  PXY d   1       4.424  -2.350  -1.423  0.00  0.00     0.003 A 
ATOM      5  C3  PXY d   1       5.127  -3.183  -0.591  0.00  0.00     0.003 A 
ATOM      6  C4  PXY d   1       5.218  -4.521  -0.867  0.00  0.00    -0.082 A 
ATOM      7  C5  PXY d   1       4.646  -5.010  -1.987  0.00  0.00     0.003 A 
ATOM      8  C6  PXY d   1       3.972  -4.140  -2.840  0.00  0.00     0.003 A 
ENDROOT
TORSDOF 0
ENDMDL
