MODEL 1
REMARK minimizedAffinity 3.6904068
REMARK minimizedRMSD -1
REMARK  0 active torsions:
REMARK  status: ('A' for Active; 'I' for Inactive)
ROOT
ATOM      1  C4' PXY d   1      -6.000   2.609  -2.594  0.00  0.00     0.077 C 
ATOM      2  C1' PXY d   1      -0.539   1.221  -1.304  0.00  0.00     0.077 C 
ATOM      3  C1  PXY d   1      -1.974   1.572  -1.644  0.00  0.00    -0.082 A 
ATOM      4  C2  PXY d   1      -2.264   2.787  -2.080  0.00  0.00     0.003 A 
ATOM      5  C3  PXY d   1      -3.560   3.132  -2.362  0.00  0.00     0.003 A 
ATOM      6  C4  PXY d   1      -4.564   2.207  -2.247  0.00  0.00    -0.082 A 
ATOM      7  C5  PXY d   1      -4.274   0.962  -1.813  0.00  0.00     0.003 A 
ATOM      8  C6  PXY d   1      -2.958   0.645  -1.493  0.00  0.00     0.003 A 
ENDROOT
TORSDOF 0
ENDMDL
