MODEL 1
REMARK minimizedAffinity 4.58991337
REMARK minimizedRMSD -1
REMARK  0 active torsions:
REMARK  status: ('A' for Active; 'I' for Inactive)
ROOT
ATOM      1  C4' PXY d   1       2.452  -4.665   1.603  0.00  0.00     0.077 C 
ATOM      2  C1' PXY d   1       4.611  -2.585  -3.340  0.00  0.00     0.077 C 
ATOM      3  C1  PXY d   1       4.033  -3.133  -2.050  0.00  0.00    -0.082 A 
ATOM      4  C2  PXY d   1       4.510  -2.713  -0.889  0.00  0.00     0.003 A 
ATOM      5  C3  PXY d   1       4.021  -3.222   0.287  0.00  0.00     0.003 A 
ATOM      6  C4  PXY d   1       2.998  -4.132   0.275  0.00  0.00    -0.082 A 
ATOM      7  C5  PXY d   1       2.500  -4.558  -0.905  0.00  0.00     0.003 A 
ATOM      8  C6  PXY d   1       3.037  -4.060  -2.088  0.00  0.00     0.003 A 
ENDROOT
TORSDOF 0
ENDMDL
