MODEL 1
REMARK minimizedAffinity 4.43713856
REMARK minimizedRMSD -1
REMARK  0 active torsions:
REMARK  status: ('A' for Active; 'I' for Inactive)
ROOT
ATOM      1  C4' PXY d   1       3.353  -6.000  -4.134  0.00  0.00     0.077 C 
ATOM      2  C1' PXY d   1       4.845  -1.880  -0.363  0.00  0.00     0.077 C 
ATOM      3  C1  PXY d   1       4.457  -2.970  -1.343  0.00  0.00    -0.082 A 
ATOM      4  C2  PXY d   1       4.459  -2.713  -2.641  0.00  0.00     0.003 A 
ATOM      5  C3  PXY d   1       4.080  -3.677  -3.539  0.00  0.00     0.003 A 
ATOM      6  C4  PXY d   1       3.747  -4.933  -3.108  0.00  0.00    -0.082 A 
ATOM      7  C5  PXY d   1       3.753  -5.206  -1.786  0.00  0.00     0.003 A 
ATOM      8  C6  PXY d   1       4.101  -4.202  -0.888  0.00  0.00     0.003 A 
ENDROOT
TORSDOF 0
ENDMDL
