MODEL 1
REMARK minimizedAffinity -0.0439855941
REMARK minimizedRMSD -1
REMARK  0 active torsions:
REMARK  status: ('A' for Active; 'I' for Inactive)
ROOT
ATOM      1  C4' PXY d   1       5.334  -5.333  -4.140  0.00  0.00     0.077 C 
ATOM      2  C1' PXY d   1       3.521  -1.665  -0.057  0.00  0.00     0.077 C 
ATOM      3  C1  PXY d   1       3.988  -2.622  -1.136  0.00  0.00    -0.082 A 
ATOM      4  C2  PXY d   1       4.564  -3.763  -0.794  0.00  0.00     0.003 A 
ATOM      5  C3  PXY d   1       5.021  -4.625  -1.757  0.00  0.00     0.003 A 
ATOM      6  C4  PXY d   1       4.838  -4.341  -3.084  0.00  0.00    -0.082 A 
ATOM      7  C5  PXY d   1       4.242  -3.184  -3.441  0.00  0.00     0.003 A 
ATOM      8  C6  PXY d   1       3.822  -2.303  -2.448  0.00  0.00     0.003 A 
ENDROOT
TORSDOF 0
ENDMDL
