MODEL 1
REMARK minimizedAffinity 6.44468737
REMARK minimizedRMSD -1
REMARK  0 active torsions:
REMARK  status: ('A' for Active; 'I' for Inactive)
ROOT
ATOM      1  C4' PXY d   1       2.495  -4.540  -0.515  0.00  0.00     0.077 C 
ATOM      2  C1' PXY d   1       4.825  -1.544  -4.875  0.00  0.00     0.077 C 
ATOM      3  C1  PXY d   1       4.209  -2.339  -3.740  0.00  0.00    -0.082 A 
ATOM      4  C2  PXY d   1       3.931  -1.736  -2.595  0.00  0.00     0.003 A 
ATOM      5  C3  PXY d   1       3.404  -2.447  -1.547  0.00  0.00     0.003 A 
ATOM      6  C4  PXY d   1       3.108  -3.776  -1.691  0.00  0.00    -0.082 A 
ATOM      7  C5  PXY d   1       3.379  -4.395  -2.859  0.00  0.00     0.003 A 
ATOM      8  C6  PXY d   1       3.952  -3.666  -3.897  0.00  0.00     0.003 A 
ENDROOT
TORSDOF 0
ENDMDL
