MODEL 1
REMARK minimizedAffinity 0.22969161
REMARK minimizedRMSD -1
REMARK  0 active torsions:
REMARK  status: ('A' for Active; 'I' for Inactive)
ROOT
ATOM      1  C4' PXY d   1       3.991  -2.229   0.024  0.00  0.00     0.077 C 
ATOM      2  C1' PXY d   1       4.455  -5.998  -4.335  0.00  0.00     0.077 C 
ATOM      3  C1  PXY d   1       4.333  -5.020  -3.183  0.00  0.00    -0.082 A 
ATOM      4  C2  PXY d   1       3.816  -3.820  -3.396  0.00  0.00     0.003 A 
ATOM      5  C3  PXY d   1       3.728  -2.912  -2.373  0.00  0.00     0.003 A 
ATOM      6  C4  PXY d   1       4.124  -3.253  -1.107  0.00  0.00    -0.082 A 
ATOM      7  C5  PXY d   1       4.642  -4.478  -0.880  0.00  0.00     0.003 A 
ATOM      8  C6  PXY d   1       4.761  -5.372  -1.941  0.00  0.00     0.003 A 
ENDROOT
TORSDOF 0
ENDMDL
