MODEL 1
REMARK minimizedAffinity -4.01077509
REMARK minimizedRMSD -1
REMARK  1 active torsions:
REMARK  status: ('A' for Active; 'I' for Inactive)
REMARK    1  A    between atoms: C3_4  and  O_7 
ROOT
ATOM      1  C   UNL d   1       5.271  -5.430  -3.630  0.00  0.00    -0.033 A 
ATOM      2  C1  UNL d   1       5.334  -5.943  -4.927  0.00  0.00     0.039 A 
ATOM      3  C2  UNL d   1       4.199  -5.931  -5.740  0.00  0.00    -0.080 A 
ATOM      4  C3  UNL d   1       3.010  -5.402  -5.245  0.00  0.00     0.150 A 
ATOM      5  C4  UNL d   1       2.941  -4.886  -3.956  0.00  0.00    -0.007 A 
ATOM      6  C5  UNL d   1       4.076  -4.900  -3.145  0.00  0.00     0.039 A 
ENDROOT
BRANCH   4   7
ATOM      7  O   UNL d   1       1.875  -5.373  -6.000  0.00  0.00    -0.526 OA
ATOM      8  H5  UNL d   1       2.064  -5.790  -6.857  0.00  0.00     0.418 HD
ENDBRANCH   4   7
TORSDOF 1
ENDMDL
