MODEL 1
REMARK minimizedAffinity -2.45926237
REMARK minimizedRMSD -1
REMARK  1 active torsions:
REMARK  status: ('A' for Active; 'I' for Inactive)
REMARK    1  A    between atoms: C3_4  and  O_7 
ROOT
ATOM      1  C   UNL d   1       4.409  -6.000  -5.997  0.00  0.00    -0.033 A 
ATOM      2  C1  UNL d   1       5.443  -5.817  -5.077  0.00  0.00     0.039 A 
ATOM      3  C2  UNL d   1       5.151  -5.620  -3.726  0.00  0.00    -0.080 A 
ATOM      4  C3  UNL d   1       3.823  -5.609  -3.308  0.00  0.00     0.150 A 
ATOM      5  C4  UNL d   1       2.788  -5.795  -4.219  0.00  0.00    -0.007 A 
ATOM      6  C5  UNL d   1       3.081  -5.990  -5.568  0.00  0.00     0.039 A 
ENDROOT
BRANCH   4   7
ATOM      7  O   UNL d   1       3.489  -5.415  -2.001  0.00  0.00    -0.526 OA
ATOM      8  H5  UNL d   1       4.304  -5.273  -1.493  0.00  0.00     0.418 HD
ENDBRANCH   4   7
TORSDOF 1
ENDMDL
