MODEL 1
REMARK minimizedAffinity -3.06389093
REMARK minimizedRMSD -1
REMARK  1 active torsions:
REMARK  status: ('A' for Active; 'I' for Inactive)
REMARK    1  A    between atoms: C3_4  and  O_7 
ROOT
ATOM      1  C   UNL d   1       5.395  -5.608  -3.889  0.00  0.00    -0.033 A 
ATOM      2  C1  UNL d   1       5.429  -5.727  -5.279  0.00  0.00     0.039 A 
ATOM      3  C2  UNL d   1       4.240  -5.855  -6.000  0.00  0.00    -0.080 A 
ATOM      4  C3  UNL d   1       3.026  -5.863  -5.319  0.00  0.00     0.150 A 
ATOM      5  C4  UNL d   1       2.985  -5.741  -3.934  0.00  0.00    -0.007 A 
ATOM      6  C5  UNL d   1       4.173  -5.614  -3.216  0.00  0.00     0.039 A 
ENDROOT
BRANCH   4   7
ATOM      7  O   UNL d   1       1.840  -5.990  -5.979  0.00  0.00    -0.526 OA
ATOM      8  H5  UNL d   1       2.025  -6.094  -6.927  0.00  0.00     0.418 HD
ENDBRANCH   4   7
TORSDOF 1
ENDMDL
