MODEL 1
REMARK minimizedAffinity -3.34328914
REMARK minimizedRMSD -1
REMARK  1 active torsions:
REMARK  status: ('A' for Active; 'I' for Inactive)
REMARK    1  A    between atoms: C3_4  and  O_7 
ROOT
ATOM      1  C   UNL d   1       5.623  -5.240  -4.415  0.00  0.00    -0.033 A 
ATOM      2  C1  UNL d   1       4.708  -5.269  -3.361  0.00  0.00     0.039 A 
ATOM      3  C2  UNL d   1       3.337  -5.287  -3.625  0.00  0.00    -0.080 A 
ATOM      4  C3  UNL d   1       2.895  -5.278  -4.945  0.00  0.00     0.150 A 
ATOM      5  C4  UNL d   1       3.802  -5.253  -6.000  0.00  0.00    -0.007 A 
ATOM      6  C5  UNL d   1       5.170  -5.234  -5.734  0.00  0.00     0.039 A 
ENDROOT
BRANCH   4   7
ATOM      7  O   UNL d   1       1.567  -5.290  -5.252  0.00  0.00    -0.526 OA
ATOM      8  H5  UNL d   1       1.060  -5.277  -4.424  0.00  0.00     0.418 HD
ENDBRANCH   4   7
TORSDOF 1
ENDMDL
