MODEL 1
REMARK minimizedAffinity -4.02038336
REMARK minimizedRMSD -1
REMARK  1 active torsions:
REMARK  status: ('A' for Active; 'I' for Inactive)
REMARK    1  A    between atoms: C3_4  and  O_7 
ROOT
ATOM      1  C   UNL d   1       4.330  -5.840  -6.000  0.00  0.00    -0.033 A 
ATOM      2  C1  UNL d   1       3.062  -5.991  -5.434  0.00  0.00     0.039 A 
ATOM      3  C2  UNL d   1       2.904  -5.943  -4.048  0.00  0.00    -0.080 A 
ATOM      4  C3  UNL d   1       4.020  -5.743  -3.240  0.00  0.00     0.150 A 
ATOM      5  C4  UNL d   1       5.285  -5.589  -3.796  0.00  0.00    -0.007 A 
ATOM      6  C5  UNL d   1       5.441  -5.638  -5.181  0.00  0.00     0.039 A 
ENDROOT
BRANCH   4   7
ATOM      7  O   UNL d   1       3.916  -5.694  -1.881  0.00  0.00    -0.526 OA
ATOM      8  H5  UNL d   1       2.987  -5.845  -1.638  0.00  0.00     0.418 HD
ENDBRANCH   4   7
TORSDOF 1
ENDMDL
