MODEL 1
REMARK minimizedAffinity -0.444535196
REMARK minimizedRMSD -1
REMARK  1 active torsions:
REMARK  status: ('A' for Active; 'I' for Inactive)
REMARK    1  A    between atoms: C3_4  and  O_7 
ROOT
ATOM      1  C   UNL d   1       2.987  -4.865  -5.288  0.00  0.00    -0.033 A 
ATOM      2  C1  UNL d   1       2.631  -5.609  -4.162  0.00  0.00     0.039 A 
ATOM      3  C2  UNL d   1       3.607  -5.999  -3.243  0.00  0.00    -0.080 A 
ATOM      4  C3  UNL d   1       4.934  -5.638  -3.462  0.00  0.00     0.150 A 
ATOM      5  C4  UNL d   1       5.295  -4.895  -4.580  0.00  0.00    -0.007 A 
ATOM      6  C5  UNL d   1       4.319  -4.507  -5.497  0.00  0.00     0.039 A 
ENDROOT
BRANCH   4   7
ATOM      7  O   UNL d   1       5.923  -6.000  -2.595  0.00  0.00    -0.526 OA
ATOM      8  H5  UNL d   1       5.529  -6.534  -1.885  0.00  0.00     0.418 HD
ENDBRANCH   4   7
TORSDOF 1
ENDMDL
