MODEL 1
REMARK minimizedAffinity -3.76951003
REMARK minimizedRMSD -1
REMARK  1 active torsions:
REMARK  status: ('A' for Active; 'I' for Inactive)
REMARK    1  A    between atoms: C3_4  and  O_7 
ROOT
ATOM      1  C   UNL d   1       3.629  -6.000  -2.391  0.00  0.00    -0.033 A 
ATOM      2  C1  UNL d   1       5.019  -5.982  -2.264  0.00  0.00     0.039 A 
ATOM      3  C2  UNL d   1       5.826  -5.956  -3.403  0.00  0.00    -0.080 A 
ATOM      4  C3  UNL d   1       5.231  -5.948  -4.662  0.00  0.00     0.150 A 
ATOM      5  C4  UNL d   1       3.846  -5.961  -4.796  0.00  0.00    -0.007 A 
ATOM      6  C5  UNL d   1       3.042  -5.988  -3.657  0.00  0.00     0.039 A 
ENDROOT
BRANCH   4   7
ATOM      7  O   UNL d   1       5.976  -5.928  -5.803  0.00  0.00    -0.526 OA
ATOM      8  H5  UNL d   1       6.916  -5.949  -5.556  0.00  0.00     0.418 HD
ENDBRANCH   4   7
TORSDOF 1
ENDMDL
