MODEL 1
REMARK minimizedAffinity -4.27633524
REMARK minimizedRMSD -1
REMARK  1 active torsions:
REMARK  status: ('A' for Active; 'I' for Inactive)
REMARK    1  A    between atoms: C3_4  and  O_7 
ROOT
ATOM      1  C   UNL d   1       5.120  -5.267  -3.783  0.00  0.00    -0.033 A 
ATOM      2  C1  UNL d   1       3.974  -5.737  -3.140  0.00  0.00     0.039 A 
ATOM      3  C2  UNL d   1       2.805  -5.966  -3.869  0.00  0.00    -0.080 A 
ATOM      4  C3  UNL d   1       2.797  -5.723  -5.240  0.00  0.00     0.150 A 
ATOM      5  C4  UNL d   1       3.937  -5.258  -5.888  0.00  0.00    -0.007 A 
ATOM      6  C5  UNL d   1       5.102  -5.029  -5.158  0.00  0.00     0.039 A 
ENDROOT
BRANCH   4   7
ATOM      7  O   UNL d   1       1.680  -5.927  -5.993  0.00  0.00    -0.526 OA
ATOM      8  H5  UNL d   1       0.963  -6.221  -5.407  0.00  0.00     0.418 HD
ENDBRANCH   4   7
TORSDOF 1
ENDMDL
