MODEL 1
REMARK minimizedAffinity -1.44335175
REMARK minimizedRMSD -1
REMARK  1 active torsions:
REMARK  status: ('A' for Active; 'I' for Inactive)
REMARK    1  A    between atoms: C3_4  and  O_7 
ROOT
ATOM      1  C   UNL d   1      -5.997   3.115  -5.962  0.00  0.00    -0.033 A 
ATOM      2  C1  UNL d   1      -5.410   4.382  -5.986  0.00  0.00     0.039 A 
ATOM      3  C2  UNL d   1      -4.020   4.508  -6.000  0.00  0.00    -0.080 A 
ATOM      4  C3  UNL d   1      -3.229   3.363  -5.991  0.00  0.00     0.150 A 
ATOM      5  C4  UNL d   1      -3.807   2.098  -5.972  0.00  0.00    -0.007 A 
ATOM      6  C5  UNL d   1      -5.196   1.973  -5.957  0.00  0.00     0.039 A 
ENDROOT
BRANCH   4   7
ATOM      7  O   UNL d   1      -1.868   3.436  -6.000  0.00  0.00    -0.526 OA
ATOM      8  H5  UNL d   1      -1.610   4.373  -5.984  0.00  0.00     0.418 HD
ENDBRANCH   4   7
TORSDOF 1
ENDMDL
