MODEL 1
REMARK minimizedAffinity -4.27991533
REMARK minimizedRMSD -1
REMARK  1 active torsions:
REMARK  status: ('A' for Active; 'I' for Inactive)
REMARK    1  A    between atoms: C3_4  and  O_7 
ROOT
ATOM      1  C   UNL d   1       5.417  -5.460  -3.348  0.00  0.00    -0.033 A 
ATOM      2  C1  UNL d   1       4.258  -5.425  -2.570  0.00  0.00     0.039 A 
ATOM      3  C2  UNL d   1       3.009  -5.606  -3.167  0.00  0.00    -0.080 A 
ATOM      4  C3  UNL d   1       2.933  -5.822  -4.540  0.00  0.00     0.150 A 
ATOM      5  C4  UNL d   1       4.084  -5.861  -5.321  0.00  0.00    -0.007 A 
ATOM      6  C5  UNL d   1       5.330  -5.679  -4.723  0.00  0.00     0.039 A 
ENDROOT
BRANCH   4   7
ATOM      7  O   UNL d   1       1.736  -5.999  -5.169  0.00  0.00    -0.526 OA
ATOM      8  H5  UNL d   1       1.027  -5.918  -4.509  0.00  0.00     0.418 HD
ENDBRANCH   4   7
TORSDOF 1
ENDMDL
