MODEL 1
REMARK minimizedAffinity -3.23837304
REMARK minimizedRMSD -1
REMARK  1 active torsions:
REMARK  status: ('A' for Active; 'I' for Inactive)
REMARK    1  A    between atoms: C3_4  and  O_7 
ROOT
ATOM      1  C   UNL d   1       2.912  -5.938  -5.307  0.00  0.00    -0.033 A 
ATOM      2  C1  UNL d   1       2.525  -5.635  -4.000  0.00  0.00     0.039 A 
ATOM      3  C2  UNL d   1       3.493  -5.398  -3.021  0.00  0.00    -0.080 A 
ATOM      4  C3  UNL d   1       4.841  -5.465  -3.362  0.00  0.00     0.150 A 
ATOM      5  C4  UNL d   1       5.232  -5.762  -4.664  0.00  0.00    -0.007 A 
ATOM      6  C5  UNL d   1       4.265  -6.000  -5.639  0.00  0.00     0.039 A 
ENDROOT
BRANCH   4   7
ATOM      7  O   UNL d   1       5.821  -5.246  -2.441  0.00  0.00    -0.526 OA
ATOM      8  H5  UNL d   1       5.402  -5.080  -1.580  0.00  0.00     0.418 HD
ENDBRANCH   4   7
TORSDOF 1
ENDMDL
