MODEL 1
REMARK minimizedAffinity -1.35361445
REMARK minimizedRMSD -1
REMARK  1 active torsions:
REMARK  status: ('A' for Active; 'I' for Inactive)
REMARK    1  A    between atoms: C3_4  and  O_7 
ROOT
ATOM      1  C   UNL d   1      -5.985   3.302  -5.449  0.00  0.00    -0.033 A 
ATOM      2  C1  UNL d   1      -5.264   2.229  -4.921  0.00  0.00     0.039 A 
ATOM      3  C2  UNL d   1      -3.868   2.250  -4.934  0.00  0.00    -0.080 A 
ATOM      4  C3  UNL d   1      -3.206   3.348  -5.475  0.00  0.00     0.150 A 
ATOM      5  C4  UNL d   1      -3.918   4.422  -5.999  0.00  0.00    -0.007 A 
ATOM      6  C5  UNL d   1      -5.311   4.399  -5.987  0.00  0.00     0.039 A 
ENDROOT
BRANCH   4   7
ATOM      7  O   UNL d   1      -1.845   3.411  -5.514  0.00  0.00    -0.526 OA
ATOM      8  H5  UNL d   1      -1.487   2.587  -5.143  0.00  0.00     0.418 HD
ENDBRANCH   4   7
TORSDOF 1
ENDMDL
