MODEL 1
REMARK minimizedAffinity -3.22342968
REMARK minimizedRMSD -1
REMARK  1 active torsions:
REMARK  status: ('A' for Active; 'I' for Inactive)
REMARK    1  A    between atoms: C3_4  and  O_7 
ROOT
ATOM      1  C   UNL d   1       1.492   2.255  -4.851  0.00  0.00    -0.033 A 
ATOM      2  C1  UNL d   1       0.796   2.639  -5.999  0.00  0.00     0.039 A 
ATOM      3  C2  UNL d   1      -0.601   2.652  -5.999  0.00  0.00    -0.080 A 
ATOM      4  C3  UNL d   1      -1.287   2.281  -4.846  0.00  0.00     0.150 A 
ATOM      5  C4  UNL d   1      -0.600   1.901  -3.698  0.00  0.00    -0.007 A 
ATOM      6  C5  UNL d   1       0.794   1.887  -3.701  0.00  0.00     0.039 A 
ENDROOT
BRANCH   4   7
ATOM      7  O   UNL d   1      -2.650   2.273  -4.800  0.00  0.00    -0.526 OA
ATOM      8  H5  UNL d   1      -2.989   2.530  -5.674  0.00  0.00     0.418 HD
ENDBRANCH   4   7
TORSDOF 1
ENDMDL
