MODEL 1
REMARK minimizedAffinity -0.0293911919
REMARK minimizedRMSD -1
REMARK  1 active torsions:
REMARK  status: ('A' for Active; 'I' for Inactive)
REMARK    1  A    between atoms: C3_4  and  O_7 
ROOT
ATOM      1  C   UNL d   1       2.912   1.250   0.199  0.00  0.00    -0.033 A 
ATOM      2  C1  UNL d   1       3.371   2.170   1.144  0.00  0.00     0.039 A 
ATOM      3  C2  UNL d   1       2.462   2.958   1.852  0.00  0.00    -0.080 A 
ATOM      4  C3  UNL d   1       1.099   2.816   1.608  0.00  0.00     0.150 A 
ATOM      5  C4  UNL d   1       0.634   1.898   0.672  0.00  0.00    -0.007 A 
ATOM      6  C5  UNL d   1       1.544   1.112  -0.036  0.00  0.00     0.039 A 
ENDROOT
BRANCH   4   7
ATOM      7  O   UNL d   1       0.174   3.566   2.271  0.00  0.00    -0.526 OA
ATOM      8  H5  UNL d   1       0.641   4.176   2.865  0.00  0.00     0.418 HD
ENDBRANCH   4   7
TORSDOF 1
ENDMDL
