MODEL 1
REMARK minimizedAffinity -2.74130535
REMARK minimizedRMSD -1
REMARK  0 active torsions:
REMARK  status: ('A' for Active; 'I' for Inactive)
ROOT
ATOM      1  C   UNL d   1      -2.566   2.436  -5.996  0.00  0.00     0.078 C 
ATOM      2  C1  UNL d   1      -3.503   3.607  -5.999  0.00  0.00    -0.077 A 
ATOM      3  C2  UNL d   1      -3.017   4.920  -6.000  0.00  0.00    -0.001 A 
ATOM      4  C3  UNL d   1      -3.901   6.000  -5.993  0.00  0.00     0.003 A 
ATOM      5  C4  UNL d   1      -5.277   5.778  -5.984  0.00  0.00    -0.005 A 
ATOM      6  C5  UNL d   1      -5.770   4.475  -5.981  0.00  0.00     0.003 A 
ATOM      7  C6  UNL d   1      -4.887   3.394  -5.988  0.00  0.00    -0.001 A 
ENDROOT
TORSDOF 0
ENDMDL
