MODEL 1
REMARK minimizedAffinity 0.281654567
REMARK minimizedRMSD -1
REMARK  0 active torsions:
REMARK  status: ('A' for Active; 'I' for Inactive)
ROOT
ATOM      1  C   UNL d   1      -1.467   2.315  -5.999  0.00  0.00     0.078 C 
ATOM      2  C1  UNL d   1      -2.311   3.554  -5.991  0.00  0.00    -0.077 A 
ATOM      3  C2  UNL d   1      -3.709   3.475  -5.997  0.00  0.00    -0.001 A 
ATOM      4  C3  UNL d   1      -4.482   4.637  -6.000  0.00  0.00     0.003 A 
ATOM      5  C4  UNL d   1      -3.867   5.887  -5.998  0.00  0.00    -0.005 A 
ATOM      6  C5  UNL d   1      -2.476   5.976  -5.995  0.00  0.00     0.003 A 
ATOM      7  C6  UNL d   1      -1.701   4.815  -5.992  0.00  0.00    -0.001 A 
ENDROOT
TORSDOF 0
ENDMDL
