MODEL 1
REMARK minimizedAffinity 3.15194893
REMARK minimizedRMSD -1
REMARK  0 active torsions:
REMARK  status: ('A' for Active; 'I' for Inactive)
ROOT
ATOM      1  C   UNL d   1      -0.044   2.648  -5.995  0.00  0.00     0.078 C 
ATOM      2  C1  UNL d   1      -1.217   3.582  -5.989  0.00  0.00    -0.077 A 
ATOM      3  C2  UNL d   1      -2.529   3.092  -5.990  0.00  0.00    -0.001 A 
ATOM      4  C3  UNL d   1      -3.612   3.973  -5.995  0.00  0.00     0.003 A 
ATOM      5  C4  UNL d   1      -3.394   5.349  -5.999  0.00  0.00    -0.005 A 
ATOM      6  C5  UNL d   1      -2.092   5.846  -6.000  0.00  0.00     0.003 A 
ATOM      7  C6  UNL d   1      -1.008   4.967  -5.995  0.00  0.00    -0.001 A 
ENDROOT
TORSDOF 0
ENDMDL
