MODEL 1
REMARK minimizedAffinity 4.5784359
REMARK minimizedRMSD -1
REMARK  0 active torsions:
REMARK  status: ('A' for Active; 'I' for Inactive)
ROOT
ATOM      1  C   UNL d   1       0.659   0.297   0.873  0.00  0.00     0.078 C 
ATOM      2  C1  UNL d   1       1.422   0.058  -0.395  0.00  0.00    -0.077 A 
ATOM      3  C2  UNL d   1       1.340  -1.168  -1.066  0.00  0.00    -0.001 A 
ATOM      4  C3  UNL d   1       2.064  -1.380  -2.241  0.00  0.00     0.003 A 
ATOM      5  C4  UNL d   1       2.876  -0.370  -2.754  0.00  0.00    -0.005 A 
ATOM      6  C5  UNL d   1       2.966   0.852  -2.092  0.00  0.00     0.003 A 
ATOM      7  C6  UNL d   1       2.243   1.066  -0.917  0.00  0.00    -0.001 A 
ENDROOT
TORSDOF 0
ENDMDL
