MODEL 1
REMARK minimizedAffinity -2.72606015
REMARK minimizedRMSD -1
REMARK  0 active torsions:
REMARK  status: ('A' for Active; 'I' for Inactive)
ROOT
ATOM      1  C   UNL d   1      -1.806   2.956  -5.359  0.00  0.00     0.078 C 
ATOM      2  C1  UNL d   1      -2.998   3.864  -5.405  0.00  0.00    -0.077 A 
ATOM      3  C2  UNL d   1      -2.936   5.164  -4.886  0.00  0.00    -0.001 A 
ATOM      4  C3  UNL d   1      -4.056   5.994  -4.927  0.00  0.00     0.003 A 
ATOM      5  C4  UNL d   1      -5.248   5.535  -5.483  0.00  0.00    -0.005 A 
ATOM      6  C5  UNL d   1      -5.321   4.243  -5.999  0.00  0.00     0.003 A 
ATOM      7  C6  UNL d   1      -4.201   3.410  -5.960  0.00  0.00    -0.001 A 
ENDROOT
TORSDOF 0
ENDMDL
