MODEL 1
REMARK minimizedAffinity -1.5648427
REMARK minimizedRMSD -1
REMARK  0 active torsions:
REMARK  status: ('A' for Active; 'I' for Inactive)
ROOT
ATOM      1  C   UNL d   1      -1.771   2.267  -5.999  0.00  0.00     0.078 C 
ATOM      2  C1  UNL d   1      -2.156   3.573  -5.371  0.00  0.00    -0.077 A 
ATOM      3  C2  UNL d   1      -1.692   4.788  -5.890  0.00  0.00    -0.001 A 
ATOM      4  C3  UNL d   1      -2.050   5.995  -5.289  0.00  0.00     0.003 A 
ATOM      5  C4  UNL d   1      -2.874   6.000  -4.164  0.00  0.00    -0.005 A 
ATOM      6  C5  UNL d   1      -3.338   4.796  -3.639  0.00  0.00     0.003 A 
ATOM      7  C6  UNL d   1      -2.981   3.587  -4.239  0.00  0.00    -0.001 A 
ENDROOT
TORSDOF 0
ENDMDL
