MODEL 1
REMARK minimizedAffinity -2.31693888
REMARK minimizedRMSD -1
REMARK  0 active torsions:
REMARK  status: ('A' for Active; 'I' for Inactive)
ROOT
ATOM      1  C   UNL d   1      -1.515   3.014  -5.981  0.00  0.00     0.078 C 
ATOM      2  C1  UNL d   1      -2.781   3.818  -5.994  0.00  0.00    -0.077 A 
ATOM      3  C2  UNL d   1      -2.746   5.218  -5.992  0.00  0.00    -0.001 A 
ATOM      4  C3  UNL d   1      -3.933   5.953  -5.994  0.00  0.00     0.003 A 
ATOM      5  C4  UNL d   1      -5.162   5.298  -5.997  0.00  0.00    -0.005 A 
ATOM      6  C5  UNL d   1      -5.207   3.905  -5.996  0.00  0.00     0.003 A 
ATOM      7  C6  UNL d   1      -4.021   3.168  -5.994  0.00  0.00    -0.001 A 
ENDROOT
TORSDOF 0
ENDMDL
