MODEL 1
REMARK minimizedAffinity 6.94215727
REMARK minimizedRMSD -1
REMARK  0 active torsions:
REMARK  status: ('A' for Active; 'I' for Inactive)
ROOT
ATOM      1  C   UNL d   1      -0.681   2.327  -5.981  0.00  0.00     0.078 C 
ATOM      2  C1  UNL d   1      -1.776   3.352  -5.954  0.00  0.00    -0.077 A 
ATOM      3  C2  UNL d   1      -3.123   2.970  -5.977  0.00  0.00    -0.001 A 
ATOM      4  C3  UNL d   1      -4.130   3.936  -5.962  0.00  0.00     0.003 A 
ATOM      5  C4  UNL d   1      -3.802   5.289  -5.924  0.00  0.00    -0.005 A 
ATOM      6  C5  UNL d   1      -2.465   5.679  -5.903  0.00  0.00     0.003 A 
ATOM      7  C6  UNL d   1      -1.455   4.715  -5.918  0.00  0.00    -0.001 A 
ENDROOT
TORSDOF 0
ENDMDL
