MODEL 1
REMARK minimizedAffinity 6.95679569
REMARK minimizedRMSD -1
REMARK  0 active torsions:
REMARK  status: ('A' for Active; 'I' for Inactive)
ROOT
ATOM      1  C   UNL d   1      -0.021  -6.000  -2.266  0.00  0.00     0.078 C 
ATOM      2  C1  UNL d   1      -0.923  -4.959  -1.674  0.00  0.00    -0.077 A 
ATOM      3  C2  UNL d   1      -2.045  -5.322  -0.919  0.00  0.00    -0.001 A 
ATOM      4  C3  UNL d   1      -2.882  -4.342  -0.382  0.00  0.00     0.003 A 
ATOM      5  C4  UNL d   1      -2.605  -2.993  -0.595  0.00  0.00    -0.005 A 
ATOM      6  C5  UNL d   1      -1.492  -2.622  -1.346  0.00  0.00     0.003 A 
ATOM      7  C6  UNL d   1      -0.655  -3.600  -1.884  0.00  0.00    -0.001 A 
ENDROOT
TORSDOF 0
ENDMDL
