MODEL 1
REMARK minimizedAffinity 0.635219276
REMARK minimizedRMSD -1
REMARK  0 active torsions:
REMARK  status: ('A' for Active; 'I' for Inactive)
ROOT
ATOM      1  C   UNL d   1      -0.045   2.229  -5.996  0.00  0.00     0.078 C 
ATOM      2  C1  UNL d   1      -1.096   3.298  -5.989  0.00  0.00    -0.077 A 
ATOM      3  C2  UNL d   1      -2.457   2.971  -5.996  0.00  0.00    -0.001 A 
ATOM      4  C3  UNL d   1      -3.425   3.977  -5.999  0.00  0.00     0.003 A 
ATOM      5  C4  UNL d   1      -3.041   5.317  -5.998  0.00  0.00    -0.005 A 
ATOM      6  C5  UNL d   1      -1.689   5.652  -5.995  0.00  0.00     0.003 A 
ATOM      7  C6  UNL d   1      -0.720   4.648  -5.991  0.00  0.00    -0.001 A 
ENDROOT
TORSDOF 0
ENDMDL
