MODEL 1
REMARK minimizedAffinity 4.403368
REMARK minimizedRMSD -1
REMARK  0 active torsions:
REMARK  status: ('A' for Active; 'I' for Inactive)
ROOT
ATOM      1  C   UNL d   1      -2.284   2.771  -5.159  0.00  0.00     0.078 C 
ATOM      2  C1  UNL d   1      -3.380   3.749  -5.459  0.00  0.00    -0.077 A 
ATOM      3  C2  UNL d   1      -3.094   5.093  -5.726  0.00  0.00    -0.001 A 
ATOM      4  C3  UNL d   1      -4.126   5.994  -5.994  0.00  0.00     0.003 A 
ATOM      5  C4  UNL d   1      -5.450   5.562  -5.996  0.00  0.00    -0.005 A 
ATOM      6  C5  UNL d   1      -5.745   4.226  -5.728  0.00  0.00     0.003 A 
ATOM      7  C6  UNL d   1      -4.715   3.324  -5.460  0.00  0.00    -0.001 A 
ENDROOT
TORSDOF 0
ENDMDL
