MODEL 1
REMARK minimizedAffinity 2.87268829
REMARK minimizedRMSD -1
REMARK  0 active torsions:
REMARK  status: ('A' for Active; 'I' for Inactive)
ROOT
ATOM      1  C   UNL d   1      -1.909   0.217   1.174  0.00  0.00     0.078 C 
ATOM      2  C1  UNL d   1      -0.657   0.810   0.601  0.00  0.00    -0.077 A 
ATOM      3  C2  UNL d   1      -0.635   2.127   0.126  0.00  0.00    -0.001 A 
ATOM      4  C3  UNL d   1       0.535   2.664  -0.414  0.00  0.00     0.003 A 
ATOM      5  C4  UNL d   1       1.691   1.890  -0.486  0.00  0.00    -0.005 A 
ATOM      6  C5  UNL d   1       1.679   0.577  -0.018  0.00  0.00     0.003 A 
ATOM      7  C6  UNL d   1       0.510   0.039   0.522  0.00  0.00    -0.001 A 
ENDROOT
TORSDOF 0
ENDMDL
