MODEL 1
REMARK minimizedAffinity -1.79121196
REMARK minimizedRMSD -1
REMARK  0 active torsions:
REMARK  status: ('A' for Active; 'I' for Inactive)
ROOT
ATOM      1  C   UNL d   1       0.020   3.412  -5.945  0.00  0.00     0.078 C 
ATOM      2  C1  UNL d   1      -1.399   3.897  -5.957  0.00  0.00    -0.077 A 
ATOM      3  C2  UNL d   1      -2.470   2.996  -5.964  0.00  0.00    -0.001 A 
ATOM      4  C3  UNL d   1      -3.785   3.462  -5.985  0.00  0.00     0.003 A 
ATOM      5  C4  UNL d   1      -4.042   4.832  -6.000  0.00  0.00    -0.005 A 
ATOM      6  C5  UNL d   1      -2.982   5.737  -5.994  0.00  0.00     0.003 A 
ATOM      7  C6  UNL d   1      -1.666   5.272  -5.974  0.00  0.00    -0.001 A 
ENDROOT
TORSDOF 0
ENDMDL
