MODEL 1
REMARK minimizedAffinity 8.19340134
REMARK minimizedRMSD -1
REMARK  0 active torsions:
REMARK  status: ('A' for Active; 'I' for Inactive)
ROOT
ATOM      1  C   UNL d   1      -2.098   0.361   0.727  0.00  0.00     0.078 C 
ATOM      2  C1  UNL d   1      -0.696   0.757   0.373  0.00  0.00    -0.077 A 
ATOM      3  C2  UNL d   1       0.318  -0.202   0.263  0.00  0.00    -0.001 A 
ATOM      4  C3  UNL d   1       1.622   0.183  -0.057  0.00  0.00     0.003 A 
ATOM      5  C4  UNL d   1       1.923   1.527  -0.268  0.00  0.00    -0.005 A 
ATOM      6  C5  UNL d   1       0.921   2.488  -0.158  0.00  0.00     0.003 A 
ATOM      7  C6  UNL d   1      -0.383   2.106   0.162  0.00  0.00    -0.001 A 
ENDROOT
TORSDOF 0
ENDMDL
