MODEL 1
REMARK minimizedAffinity 6.26721096
REMARK minimizedRMSD -1
REMARK  0 active torsions:
REMARK  status: ('A' for Active; 'I' for Inactive)
ROOT
ATOM      1  C   UNL d   1      -1.430  -1.459   3.769  0.00  0.00     0.020 A 
ATOM      2  C1  UNL d   1      -2.044  -0.472   2.998  0.00  0.00     0.020 A 
ATOM      3  C2  UNL d   1      -1.269   0.384   2.212  0.00  0.00     0.034 A 
ATOM      4  C3  UNL d   1       0.124   0.255   2.196  0.00  0.00     0.017 A 
ATOM      5  C4  UNL d   1       0.740  -0.735   2.970  0.00  0.00     0.017 A 
ATOM      6  C5  UNL d   1      -0.041  -1.590   3.754  0.00  0.00     0.034 A 
ATOM      7 Cl   UNL d   1       2.454  -0.955   3.001  0.00  0.00    -0.070 Cl
ATOM      8 Cl1  UNL d   1       1.020   1.347   1.201  0.00  0.00    -0.070 Cl
ENDROOT
TORSDOF 0
ENDMDL
