MODEL 1
REMARK minimizedAffinity -3.97193789
REMARK minimizedRMSD -1
REMARK  0 active torsions:
REMARK  status: ('A' for Active; 'I' for Inactive)
ROOT
ATOM      1  C   UNL d   1      -0.502  -0.337   2.796  0.00  0.00     0.020 A 
ATOM      2  C1  UNL d   1      -1.400  -0.786   1.829  0.00  0.00     0.020 A 
ATOM      3  C2  UNL d   1      -1.106  -0.621   0.473  0.00  0.00     0.034 A 
ATOM      4  C3  UNL d   1       0.088  -0.005   0.082  0.00  0.00     0.017 A 
ATOM      5  C4  UNL d   1       0.989   0.445   1.054  0.00  0.00     0.017 A 
ATOM      6  C5  UNL d   1       0.690   0.277   2.409  0.00  0.00     0.034 A 
ATOM      7 Cl   UNL d   1       2.482   1.214   0.648  0.00  0.00    -0.070 Cl
ATOM      8 Cl1  UNL d   1       0.386   0.166  -1.612  0.00  0.00    -0.070 Cl
ENDROOT
TORSDOF 0
ENDMDL
