MODEL 1
REMARK minimizedAffinity -1.74013615
REMARK minimizedRMSD -1
REMARK  0 active torsions:
REMARK  status: ('A' for Active; 'I' for Inactive)
ROOT
ATOM      1  C   UNL d   1       0.106   0.611  -1.387  0.00  0.00     0.020 A 
ATOM      2  C1  UNL d   1       1.002   0.200  -0.401  0.00  0.00     0.020 A 
ATOM      3  C2  UNL d   1       0.525  -0.235   0.838  0.00  0.00     0.034 A 
ATOM      4  C3  UNL d   1      -0.851  -0.259   1.093  0.00  0.00     0.017 A 
ATOM      5  C4  UNL d   1      -1.749   0.154   0.102  0.00  0.00     0.017 A 
ATOM      6  C5  UNL d   1      -1.266   0.588  -1.137  0.00  0.00     0.034 A 
ATOM      7 Cl   UNL d   1      -3.461   0.151   0.343  0.00  0.00    -0.070 Cl
ATOM      8 Cl1  UNL d   1      -1.371  -0.809   2.646  0.00  0.00    -0.070 Cl
ENDROOT
TORSDOF 0
ENDMDL
