MODEL 1
REMARK minimizedAffinity 4.33217144
REMARK minimizedRMSD -1
REMARK  0 active torsions:
REMARK  status: ('A' for Active; 'I' for Inactive)
ROOT
ATOM      1  C   UNL d   1      -3.784   0.006   2.223  0.00  0.00     0.020 A 
ATOM      2  C1  UNL d   1      -3.718   1.391   2.080  0.00  0.00     0.020 A 
ATOM      3  C2  UNL d   1      -2.520   2.063   2.332  0.00  0.00     0.034 A 
ATOM      4  C3  UNL d   1      -1.382   1.350   2.727  0.00  0.00     0.017 A 
ATOM      5  C4  UNL d   1      -1.449  -0.041   2.871  0.00  0.00     0.017 A 
ATOM      6  C5  UNL d   1      -2.652  -0.709   2.618  0.00  0.00     0.034 A 
ATOM      7 Cl   UNL d   1      -0.088  -0.989   3.355  0.00  0.00    -0.070 Cl
ATOM      8 Cl1  UNL d   1       0.066   2.245   3.021  0.00  0.00    -0.070 Cl
ENDROOT
TORSDOF 0
ENDMDL
