MODEL 1
REMARK minimizedAffinity 8.41830444
REMARK minimizedRMSD -1
REMARK  0 active torsions:
REMARK  status: ('A' for Active; 'I' for Inactive)
ROOT
ATOM      1  C   UNL d   1      -3.775   0.312   2.837  0.00  0.00     0.020 A 
ATOM      2  C1  UNL d   1      -4.287   0.221   1.543  0.00  0.00     0.020 A 
ATOM      3  C2  UNL d   1      -3.419   0.177   0.450  0.00  0.00     0.034 A 
ATOM      4  C3  UNL d   1      -2.035   0.226   0.648  0.00  0.00     0.017 A 
ATOM      5  C4  UNL d   1      -1.521   0.317   1.947  0.00  0.00     0.017 A 
ATOM      6  C5  UNL d   1      -2.395   0.361   3.038  0.00  0.00     0.034 A 
ATOM      7 Cl   UNL d   1       0.175   0.381   2.271  0.00  0.00    -0.070 Cl
ATOM      8 Cl1  UNL d   1      -1.020   0.167  -0.750  0.00  0.00    -0.070 Cl
ENDROOT
TORSDOF 0
ENDMDL
