MODEL 1
REMARK minimizedAffinity 5.8162384
REMARK minimizedRMSD -1
REMARK  0 active torsions:
REMARK  status: ('A' for Active; 'I' for Inactive)
ROOT
ATOM      1  C   UNL d   1      -4.184   0.619   2.972  0.00  0.00     0.020 A 
ATOM      2  C1  UNL d   1      -4.647   0.564   1.659  0.00  0.00     0.020 A 
ATOM      3  C2  UNL d   1      -3.739   0.491   0.600  0.00  0.00     0.034 A 
ATOM      4  C3  UNL d   1      -2.363   0.473   0.854  0.00  0.00     0.017 A 
ATOM      5  C4  UNL d   1      -1.899   0.529   2.173  0.00  0.00     0.017 A 
ATOM      6  C5  UNL d   1      -2.812   0.602   3.229  0.00  0.00     0.034 A 
ATOM      7 Cl   UNL d   1      -0.215   0.511   2.564  0.00  0.00    -0.070 Cl
ATOM      8 Cl1  UNL d   1      -1.297   0.381  -0.503  0.00  0.00    -0.070 Cl
ENDROOT
TORSDOF 0
ENDMDL
