MODEL 1
REMARK minimizedAffinity 7.4403553
REMARK minimizedRMSD -1
REMARK  0 active torsions:
REMARK  status: ('A' for Active; 'I' for Inactive)
ROOT
ATOM      1  C   UNL d   1      -1.627  -0.113  -2.069  0.00  0.00     0.020 A 
ATOM      2  C1  UNL d   1      -2.876   0.448  -2.333  0.00  0.00     0.020 A 
ATOM      3  C2  UNL d   1      -3.683   0.882  -1.280  0.00  0.00     0.034 A 
ATOM      4  C3  UNL d   1      -3.244   0.756   0.043  0.00  0.00     0.017 A 
ATOM      5  C4  UNL d   1      -1.990   0.193   0.307  0.00  0.00     0.017 A 
ATOM      6  C5  UNL d   1      -1.185  -0.240  -0.751  0.00  0.00     0.034 A 
ATOM      7 Cl   UNL d   1      -1.379   0.004   1.913  0.00  0.00    -0.070 Cl
ATOM      8 Cl1  UNL d   1      -4.294   1.313   1.296  0.00  0.00    -0.070 Cl
ENDROOT
TORSDOF 0
ENDMDL
