MODEL 1
REMARK minimizedAffinity 5.03953457
REMARK minimizedRMSD -1
REMARK  0 active torsions:
REMARK  status: ('A' for Active; 'I' for Inactive)
ROOT
ATOM      1  C   UNL d   1      -4.422   0.683   1.227  0.00  0.00     0.020 A 
ATOM      2  C1  UNL d   1      -4.102   0.647   2.583  0.00  0.00     0.020 A 
ATOM      3  C2  UNL d   1      -2.842   0.205   2.992  0.00  0.00     0.034 A 
ATOM      4  C3  UNL d   1      -1.898  -0.204   2.043  0.00  0.00     0.017 A 
ATOM      5  C4  UNL d   1      -2.220  -0.168   0.681  0.00  0.00     0.017 A 
ATOM      6  C5  UNL d   1      -3.483   0.276   0.278  0.00  0.00     0.034 A 
ATOM      7 Cl   UNL d   1      -1.108  -0.657  -0.548  0.00  0.00    -0.070 Cl
ATOM      8 Cl1  UNL d   1      -0.359  -0.740   2.619  0.00  0.00    -0.070 Cl
ENDROOT
TORSDOF 0
ENDMDL
