MODEL 1
REMARK minimizedAffinity 6.68024302
REMARK minimizedRMSD -1
REMARK  0 active torsions:
REMARK  status: ('A' for Active; 'I' for Inactive)
ROOT
ATOM      1  C   UNL d   1      -1.523   0.352   1.797  0.00  0.00     0.020 A 
ATOM      2  C1  UNL d   1      -2.337  -0.277   2.737  0.00  0.00     0.020 A 
ATOM      3  C2  UNL d   1      -3.702  -0.436   2.484  0.00  0.00     0.034 A 
ATOM      4  C3  UNL d   1      -4.255   0.036   1.288  0.00  0.00     0.017 A 
ATOM      5  C4  UNL d   1      -3.436   0.668   0.345  0.00  0.00     0.017 A 
ATOM      6  C5  UNL d   1      -2.071   0.823   0.603  0.00  0.00     0.034 A 
ATOM      7 Cl   UNL d   1      -4.046   1.276  -1.154  0.00  0.00    -0.070 Cl
ATOM      8 Cl1  UNL d   1      -5.950  -0.194   1.041  0.00  0.00    -0.070 Cl
ENDROOT
TORSDOF 0
ENDMDL
