MODEL 1
REMARK minimizedAffinity 4.0520196
REMARK minimizedRMSD -1
REMARK  0 active torsions:
REMARK  status: ('A' for Active; 'I' for Inactive)
ROOT
ATOM      1  C   UNL d   1      -4.293   0.298   1.614  0.00  0.00     0.020 A 
ATOM      2  C1  UNL d   1      -3.811   0.319   2.923  0.00  0.00     0.020 A 
ATOM      3  C2  UNL d   1      -2.449   0.132   3.168  0.00  0.00     0.034 A 
ATOM      4  C3  UNL d   1      -1.564  -0.077   2.103  0.00  0.00     0.017 A 
ATOM      5  C4  UNL d   1      -2.049  -0.098   0.791  0.00  0.00     0.017 A 
ATOM      6  C5  UNL d   1      -3.414   0.090   0.551  0.00  0.00     0.034 A 
ATOM      7 Cl   UNL d   1      -1.019  -0.350  -0.574  0.00  0.00    -0.070 Cl
ATOM      8 Cl1  UNL d   1       0.107  -0.301   2.480  0.00  0.00    -0.070 Cl
ENDROOT
TORSDOF 0
ENDMDL
