MODEL 1
REMARK minimizedAffinity -3.58791804
REMARK minimizedRMSD -1
REMARK  0 active torsions:
REMARK  status: ('A' for Active; 'I' for Inactive)
ROOT
ATOM      1  C   UNL d   1       1.545   0.026   0.743  0.00  0.00     0.020 A 
ATOM      2  C1  UNL d   1       0.318   0.424   1.275  0.00  0.00     0.020 A 
ATOM      3  C2  UNL d   1      -0.712   0.830   0.426  0.00  0.00     0.034 A 
ATOM      4  C3  UNL d   1      -0.519   0.841  -0.960  0.00  0.00     0.017 A 
ATOM      5  C4  UNL d   1       0.712   0.443  -1.494  0.00  0.00     0.017 A 
ATOM      6  C5  UNL d   1       1.741   0.036  -0.638  0.00  0.00     0.034 A 
ATOM      7 Cl   UNL d   1       1.025   0.429  -3.193  0.00  0.00    -0.070 Cl
ATOM      8 Cl1  UNL d   1      -1.838   1.356  -1.952  0.00  0.00    -0.070 Cl
ENDROOT
TORSDOF 0
ENDMDL
