MODEL 1
REMARK minimizedAffinity 7.83615637
REMARK minimizedRMSD -1
REMARK  0 active torsions:
REMARK  status: ('A' for Active; 'I' for Inactive)
ROOT
ATOM      1  C   UNL d   1       0.021  -1.740   2.615  0.00  0.00     0.020 A 
ATOM      2  C1  UNL d   1       1.209  -1.039   2.819  0.00  0.00     0.020 A 
ATOM      3  C2  UNL d   1       1.201   0.357   2.838  0.00  0.00     0.034 A 
ATOM      4  C3  UNL d   1       0.003   1.057   2.653  0.00  0.00     0.017 A 
ATOM      5  C4  UNL d   1      -1.189   0.353   2.448  0.00  0.00     0.017 A 
ATOM      6  C5  UNL d   1      -1.175  -1.045   2.430  0.00  0.00     0.034 A 
ATOM      7 Cl   UNL d   1      -2.706   1.147   2.213  0.00  0.00    -0.070 Cl
ATOM      8 Cl1  UNL d   1       0.068   2.783   2.689  0.00  0.00    -0.070 Cl
ENDROOT
TORSDOF 0
ENDMDL
