MODEL 1
REMARK minimizedAffinity -0.431315094
REMARK minimizedRMSD -1
REMARK  0 active torsions:
REMARK  status: ('A' for Active; 'I' for Inactive)
ROOT
ATOM      1  C   UNL d   1      -2.002  -0.118   3.568  0.00  0.00     0.020 A 
ATOM      2  C1  UNL d   1      -0.958   0.684   4.026  0.00  0.00     0.020 A 
ATOM      3  C2  UNL d   1       0.030   1.119   3.140  0.00  0.00     0.034 A 
ATOM      4  C3  UNL d   1      -0.025   0.753   1.790  0.00  0.00     0.017 A 
ATOM      5  C4  UNL d   1      -1.074  -0.052   1.331  0.00  0.00     0.017 A 
ATOM      6  C5  UNL d   1      -2.060  -0.485   2.223  0.00  0.00     0.034 A 
ATOM      7 Cl   UNL d   1      -1.209  -0.545  -0.320  0.00  0.00    -0.070 Cl
ATOM      8 Cl1  UNL d   1       1.229   1.327   0.750  0.00  0.00    -0.070 Cl
ENDROOT
TORSDOF 0
ENDMDL
