MODEL 1
REMARK minimizedAffinity 1.76014531
REMARK minimizedRMSD -1
REMARK  0 active torsions:
REMARK  status: ('A' for Active; 'I' for Inactive)
ROOT
ATOM      1  C   UNL d   1       1.705   0.342   2.595  0.00  0.00     0.020 A 
ATOM      2  C1  UNL d   1       2.222   0.290   1.301  0.00  0.00     0.020 A 
ATOM      3  C2  UNL d   1       1.375   0.458   0.204  0.00  0.00     0.034 A 
ATOM      4  C3  UNL d   1       0.007   0.680   0.398  0.00  0.00     0.017 A 
ATOM      5  C4  UNL d   1      -0.511   0.732   1.698  0.00  0.00     0.017 A 
ATOM      6  C5  UNL d   1       0.342   0.563   2.793  0.00  0.00     0.034 A 
ATOM      7 Cl   UNL d   1      -2.188   1.002   2.017  0.00  0.00    -0.070 Cl
ATOM      8 Cl1  UNL d   1      -0.982   0.880  -1.004  0.00  0.00    -0.070 Cl
ENDROOT
TORSDOF 0
ENDMDL
