MODEL 1
REMARK minimizedAffinity 3.85849762
REMARK minimizedRMSD -1
REMARK  0 active torsions:
REMARK  status: ('A' for Active; 'I' for Inactive)
ROOT
ATOM      1  C   UNL d   1       2.040   0.001   0.882  0.00  0.00     0.020 A 
ATOM      2  C1  UNL d   1       1.805   0.472   2.173  0.00  0.00     0.020 A 
ATOM      3  C2  UNL d   1       0.534   0.926   2.531  0.00  0.00     0.034 A 
ATOM      4  C3  UNL d   1      -0.508   0.910   1.596  0.00  0.00     0.017 A 
ATOM      5  C4  UNL d   1      -0.272   0.437   0.300  0.00  0.00     0.017 A 
ATOM      6  C5  UNL d   1       1.003  -0.017  -0.052  0.00  0.00     0.034 A 
ATOM      7 Cl   UNL d   1      -1.507   0.386  -0.907  0.00  0.00    -0.070 Cl
ATOM      8 Cl1  UNL d   1      -2.055   1.485   2.107  0.00  0.00    -0.070 Cl
ENDROOT
TORSDOF 0
ENDMDL
