MODEL 1
REMARK minimizedAffinity -2.17273569
REMARK minimizedRMSD -1
REMARK  0 active torsions:
REMARK  status: ('A' for Active; 'I' for Inactive)
ROOT
ATOM      1  C   UNL d   1      -0.764  -0.701   2.984  0.00  0.00     0.020 A 
ATOM      2  C1  UNL d   1      -1.363  -1.595   2.097  0.00  0.00     0.020 A 
ATOM      3  C2  UNL d   1      -0.973  -1.615   0.756  0.00  0.00     0.034 A 
ATOM      4  C3  UNL d   1       0.019  -0.740   0.298  0.00  0.00     0.017 A 
ATOM      5  C4  UNL d   1       0.619   0.157   1.189  0.00  0.00     0.017 A 
ATOM      6  C5  UNL d   1       0.225   0.173   2.530  0.00  0.00     0.034 A 
ATOM      7 Cl   UNL d   1       1.849   1.268   0.698  0.00  0.00    -0.070 Cl
ATOM      8 Cl1  UNL d   1       0.452  -0.820  -1.373  0.00  0.00    -0.070 Cl
ENDROOT
TORSDOF 0
ENDMDL
