MODEL 1
REMARK minimizedAffinity -3.47854257
REMARK minimizedRMSD -1
REMARK  0 active torsions:
REMARK  status: ('A' for Active; 'I' for Inactive)
ROOT
ATOM      1  C   UNL d   1      -0.014   0.455  -1.058  0.00  0.00     0.020 A 
ATOM      2  C1  UNL d   1       0.985   0.258  -0.105  0.00  0.00     0.020 A 
ATOM      3  C2  UNL d   1       0.644  -0.114   1.197  0.00  0.00     0.034 A 
ATOM      4  C3  UNL d   1      -0.699  -0.288   1.551  0.00  0.00     0.017 A 
ATOM      5  C4  UNL d   1      -1.701  -0.090   0.594  0.00  0.00     0.017 A 
ATOM      6  C5  UNL d   1      -1.354   0.282  -0.708  0.00  0.00     0.034 A 
ATOM      7 Cl   UNL d   1      -3.379  -0.287   0.956  0.00  0.00    -0.070 Cl
ATOM      8 Cl1  UNL d   1      -1.047  -0.748   3.180  0.00  0.00    -0.070 Cl
ENDROOT
TORSDOF 0
ENDMDL
