MODEL 1
REMARK minimizedAffinity -1.08521664
REMARK minimizedRMSD -1
REMARK  0 active torsions:
REMARK  status: ('A' for Active; 'I' for Inactive)
ROOT
ATOM      1  C   UNL d   1       1.760   0.732   1.065  0.00  0.00     0.020 A 
ATOM      2  C1  UNL d   1       1.052   0.925  -0.121  0.00  0.00     0.020 A 
ATOM      3  C2  UNL d   1      -0.271   0.490  -0.223  0.00  0.00     0.034 A 
ATOM      4  C3  UNL d   1      -0.891  -0.140   0.863  0.00  0.00     0.017 A 
ATOM      5  C4  UNL d   1      -0.179  -0.333   2.053  0.00  0.00     0.017 A 
ATOM      6  C5  UNL d   1       1.145   0.105   2.150  0.00  0.00     0.034 A 
ATOM      7 Cl   UNL d   1      -0.876  -1.101   3.435  0.00  0.00    -0.070 Cl
ATOM      8 Cl1  UNL d   1      -2.529  -0.652   0.667  0.00  0.00    -0.070 Cl
ENDROOT
TORSDOF 0
ENDMDL
