MODEL 1
REMARK minimizedAffinity 19.4590988
REMARK minimizedRMSD -1
REMARK  0 active torsions:
REMARK  status: ('A' for Active; 'I' for Inactive)
ROOT
ATOM      1  C   UNL d   1      -1.767   0.582   1.094  0.00  0.00     0.124 A 
ATOM      2  C1  UNL d   1      -0.838  -0.444   1.201  0.00  0.00     0.062 A 
ATOM      3  C2  UNL d   1       0.353  -0.388   0.483  0.00  0.00     0.162 A 
ATOM      4  C3  UNL d   1       0.624   0.700  -0.347  0.00  0.00    -0.034 A 
ATOM      5  C4  UNL d   1      -0.315   1.727  -0.451  0.00  0.00     0.162 A 
ATOM      6  C5  UNL d   1      -1.505   1.666   0.268  0.00  0.00     0.062 A 
ATOM      7  F   UNL d   1      -2.401   2.658   0.164  0.00  0.00    -0.097 F 
ATOM      8  F1  UNL d   1      -0.088   2.788  -1.240  0.00  0.00    -0.096 F 
ATOM      9  I   UNL d   1       2.404   0.788  -1.422  0.00  0.00    -0.060 I 
ATOM     10  F2  UNL d   1       1.233  -1.393   0.606  0.00  0.00    -0.096 F 
ATOM     11  F3  UNL d   1      -1.089  -1.494   1.997  0.00  0.00    -0.097 F 
ATOM     12  F4  UNL d   1      -2.913   0.524   1.784  0.00  0.00    -0.092 F 
ENDROOT
TORSDOF 0
ENDMDL
