MODEL 1
REMARK minimizedAffinity 2.45839071
REMARK minimizedRMSD -1
REMARK  0 active torsions:
REMARK  status: ('A' for Active; 'I' for Inactive)
ROOT
ATOM      1  C   UNL d   1       0.123   0.549  -2.352  0.00  0.00     0.124 A 
ATOM      2  C1  UNL d   1       0.287   1.818  -2.889  0.00  0.00     0.062 A 
ATOM      3  C2  UNL d   1      -0.823   2.616  -3.153  0.00  0.00     0.162 A 
ATOM      4  C3  UNL d   1      -2.108   2.147  -2.878  0.00  0.00    -0.034 A 
ATOM      5  C4  UNL d   1      -2.265   0.869  -2.339  0.00  0.00     0.162 A 
ATOM      6  C5  UNL d   1      -1.152   0.075  -2.078  0.00  0.00     0.062 A 
ATOM      7  F   UNL d   1      -1.313  -1.151  -1.559  0.00  0.00    -0.097 F 
ATOM      8  F1  UNL d   1      -3.486   0.387  -2.063  0.00  0.00    -0.096 F 
ATOM      9  I   UNL d   1      -3.770   3.336  -3.270  0.00  0.00    -0.060 I 
ATOM     10  F2  UNL d   1      -0.634   3.838  -3.672  0.00  0.00    -0.096 F 
ATOM     11  F3  UNL d   1       1.518   2.277  -3.157  0.00  0.00    -0.097 F 
ATOM     12  F4  UNL d   1       1.192  -0.217  -2.101  0.00  0.00    -0.092 F 
ENDROOT
TORSDOF 0
ENDMDL
