MODEL 1
REMARK minimizedAffinity 5.57746029
REMARK minimizedRMSD -1
REMARK  0 active torsions:
REMARK  status: ('A' for Active; 'I' for Inactive)
ROOT
ATOM      1  C   UNL d   1      -2.121  -0.528   1.141  0.00  0.00     0.124 A 
ATOM      2  C1  UNL d   1      -1.542  -0.723  -0.106  0.00  0.00     0.062 A 
ATOM      3  C2  UNL d   1      -0.188  -1.028  -0.208  0.00  0.00     0.162 A 
ATOM      4  C3  UNL d   1       0.596  -1.142   0.940  0.00  0.00    -0.034 A 
ATOM      5  C4  UNL d   1       0.007  -0.944   2.189  0.00  0.00     0.162 A 
ATOM      6  C5  UNL d   1      -1.347  -0.638   2.287  0.00  0.00     0.062 A 
ATOM      7  F   UNL d   1      -1.904  -0.450   3.492  0.00  0.00    -0.097 F 
ATOM      8  F1  UNL d   1       0.732  -1.045   3.313  0.00  0.00    -0.096 F 
ATOM      9  I   UNL d   1       2.621  -1.599   0.790  0.00  0.00    -0.060 I 
ATOM     10  F2  UNL d   1       0.345  -1.212  -1.425  0.00  0.00    -0.096 F 
ATOM     11  F3  UNL d   1      -2.289  -0.615  -1.214  0.00  0.00    -0.097 F 
ATOM     12  F4  UNL d   1      -3.424  -0.233   1.236  0.00  0.00    -0.092 F 
ENDROOT
TORSDOF 0
ENDMDL
