MODEL 1
REMARK minimizedAffinity 13.2617483
REMARK minimizedRMSD -1
REMARK  0 active torsions:
REMARK  status: ('A' for Active; 'I' for Inactive)
ROOT
ATOM      1  C   UNL d   1       0.269  -0.339   0.441  0.00  0.00     0.124 A 
ATOM      2  C1  UNL d   1       1.438  -0.092  -0.266  0.00  0.00     0.062 A 
ATOM      3  C2  UNL d   1       2.438  -1.058  -0.325  0.00  0.00     0.162 A 
ATOM      4  C3  UNL d   1       2.274  -2.282   0.324  0.00  0.00    -0.034 A 
ATOM      5  C4  UNL d   1       1.096  -2.523   1.034  0.00  0.00     0.162 A 
ATOM      6  C5  UNL d   1       0.099  -1.554   1.090  0.00  0.00     0.062 A 
ATOM      7  F   UNL d   1      -1.029  -1.795   1.773  0.00  0.00    -0.097 F 
ATOM      8  F1  UNL d   1       0.905  -3.688   1.669  0.00  0.00    -0.096 F 
ATOM      9  I   UNL d   1       3.767  -3.729   0.238  0.00  0.00    -0.060 I 
ATOM     10  F2  UNL d   1       3.557  -0.792  -1.015  0.00  0.00    -0.096 F 
ATOM     11  F3  UNL d   1       1.605   1.082  -0.893  0.00  0.00    -0.097 F 
ATOM     12  F4  UNL d   1      -0.691   0.593   0.496  0.00  0.00    -0.092 F 
ENDROOT
TORSDOF 0
ENDMDL
