MODEL 1
REMARK minimizedAffinity 17.7126465
REMARK minimizedRMSD -1
REMARK  0 active torsions:
REMARK  status: ('A' for Active; 'I' for Inactive)
ROOT
ATOM      1  C   UNL d   1      -2.258  -0.903   0.239  0.00  0.00     0.124 A 
ATOM      2  C1  UNL d   1      -1.561  -1.241  -0.913  0.00  0.00     0.062 A 
ATOM      3  C2  UNL d   1      -0.182  -1.063  -0.974  0.00  0.00     0.162 A 
ATOM      4  C3  UNL d   1       0.510  -0.543   0.121  0.00  0.00    -0.034 A 
ATOM      5  C4  UNL d   1      -0.199  -0.204   1.275  0.00  0.00     0.162 A 
ATOM      6  C5  UNL d   1      -1.577  -0.385   1.331  0.00  0.00     0.062 A 
ATOM      7  F   UNL d   1      -2.249  -0.057   2.444  0.00  0.00    -0.097 F 
ATOM      8  F1  UNL d   1       0.435   0.297   2.346  0.00  0.00    -0.096 F 
ATOM      9  I   UNL d   1       2.572  -0.275   0.034  0.00  0.00    -0.060 I 
ATOM     10  F2  UNL d   1       0.466  -1.399  -2.099  0.00  0.00    -0.096 F 
ATOM     11  F3  UNL d   1      -2.217  -1.741  -1.970  0.00  0.00    -0.097 F 
ATOM     12  F4  UNL d   1      -3.585  -1.074   0.294  0.00  0.00    -0.092 F 
ENDROOT
TORSDOF 0
ENDMDL
