MODEL 1
REMARK minimizedAffinity 13.4505987
REMARK minimizedRMSD -1
REMARK  0 active torsions:
REMARK  status: ('A' for Active; 'I' for Inactive)
ROOT
ATOM      1  C   UNL d   1      -0.511  -1.140   1.916  0.00  0.00     0.124 A 
ATOM      2  C1  UNL d   1       0.615  -1.608   1.253  0.00  0.00     0.062 A 
ATOM      3  C2  UNL d   1       1.208  -0.842   0.254  0.00  0.00     0.162 A 
ATOM      4  C3  UNL d   1       0.677   0.402  -0.088  0.00  0.00    -0.034 A 
ATOM      5  C4  UNL d   1      -0.457   0.866   0.582  0.00  0.00     0.162 A 
ATOM      6  C5  UNL d   1      -1.046   0.096   1.580  0.00  0.00     0.062 A 
ATOM      7  F   UNL d   1      -2.133   0.550   2.220  0.00  0.00    -0.097 F 
ATOM      8  F1  UNL d   1      -0.993   2.057   0.279  0.00  0.00    -0.096 F 
ATOM      9  I   UNL d   1       1.560   1.550  -1.582  0.00  0.00    -0.060 I 
ATOM     10  F2  UNL d   1       2.295  -1.319  -0.370  0.00  0.00    -0.096 F 
ATOM     11  F3  UNL d   1       1.133  -2.802   1.575  0.00  0.00    -0.097 F 
ATOM     12  F4  UNL d   1      -1.080  -1.879   2.877  0.00  0.00    -0.092 F 
ENDROOT
TORSDOF 0
ENDMDL
