MODEL 1
REMARK minimizedAffinity 6.43488741
REMARK minimizedRMSD -1
REMARK  1 active torsions:
REMARK  status: ('A' for Active; 'I' for Inactive)
REMARK    1  A    between atoms: C3_4  and  O_7 
ROOT
ATOM      1  C   UNL d   1      -4.810   2.634  -1.886  0.00  0.00    -0.033 A 
ATOM      2  C1  UNL d   1      -5.827   3.417  -2.435  0.00  0.00     0.039 A 
ATOM      3  C2  UNL d   1      -5.999   3.471  -3.820  0.00  0.00    -0.080 A 
ATOM      4  C3  UNL d   1      -5.149   2.737  -4.643  0.00  0.00     0.150 A 
ATOM      5  C4  UNL d   1      -4.136   1.952  -4.102  0.00  0.00    -0.007 A 
ATOM      6  C5  UNL d   1      -3.965   1.901  -2.719  0.00  0.00     0.039 A 
ENDROOT
BRANCH   4   7
ATOM      7  O   UNL d   1      -5.275   2.762  -6.000  0.00  0.00    -0.526 OA
ATOM      8  H5  UNL d   1      -5.998   3.369  -6.231  0.00  0.00     0.418 HD
ENDBRANCH   4   7
TORSDOF 1
ENDMDL
