MODEL 1
REMARK minimizedAffinity -0.587863624
REMARK minimizedRMSD -1
REMARK  1 active torsions:
REMARK  status: ('A' for Active; 'I' for Inactive)
REMARK    1  A    between atoms: C3_4  and  O_7 
ROOT
ATOM      1  C   UNL d   1       1.883  -1.355   4.150  0.00  0.00    -0.033 A 
ATOM      2  C1  UNL d   1       2.507  -0.737   3.066  0.00  0.00     0.039 A 
ATOM      3  C2  UNL d   1       3.888  -0.849   2.896  0.00  0.00    -0.080 A 
ATOM      4  C3  UNL d   1       4.632  -1.583   3.816  0.00  0.00     0.150 A 
ATOM      5  C4  UNL d   1       4.016  -2.205   4.897  0.00  0.00    -0.007 A 
ATOM      6  C5  UNL d   1       2.637  -2.091   5.065  0.00  0.00     0.039 A 
ENDROOT
BRANCH   4   7
ATOM      7  O   UNL d   1       5.984  -1.717   3.695  0.00  0.00    -0.526 OA
ATOM      8  H5  UNL d   1       6.275  -1.210   2.918  0.00  0.00     0.418 HD
ENDBRANCH   4   7
TORSDOF 1
ENDMDL
