MODEL 1
REMARK minimizedAffinity 6.95572138
REMARK minimizedRMSD -1
REMARK  1 active torsions:
REMARK  status: ('A' for Active; 'I' for Inactive)
REMARK    1  A    between atoms: C3_4  and  O_7 
ROOT
ATOM      1  C   UNL d   1       1.552  -6.000   5.298  0.00  0.00    -0.033 A 
ATOM      2  C1  UNL d   1       2.358  -5.585   4.236  0.00  0.00     0.039 A 
ATOM      3  C2  UNL d   1       2.382  -4.241   3.859  0.00  0.00    -0.080 A 
ATOM      4  C3  UNL d   1       1.597  -3.323   4.551  0.00  0.00     0.150 A 
ATOM      5  C4  UNL d   1       0.794  -3.729   5.612  0.00  0.00    -0.007 A 
ATOM      6  C5  UNL d   1       0.771  -5.071   5.987  0.00  0.00     0.039 A 
ENDROOT
BRANCH   4   7
ATOM      7  O   UNL d   1       1.583  -2.002   4.216  0.00  0.00    -0.526 OA
ATOM      8  H5  UNL d   1       2.162  -1.873   3.447  0.00  0.00     0.418 HD
ENDBRANCH   4   7
TORSDOF 1
ENDMDL
