MODEL 1
REMARK minimizedAffinity 7.59080076
REMARK minimizedRMSD -1
REMARK  1 active torsions:
REMARK  status: ('A' for Active; 'I' for Inactive)
REMARK    1  A    between atoms: C3_4  and  O_7 
ROOT
ATOM      1  C   UNL d   1      -3.885   3.189   0.243  0.00  0.00    -0.033 A 
ATOM      2  C1  UNL d   1      -5.264   2.973   0.199  0.00  0.00     0.039 A 
ATOM      3  C2  UNL d   1      -5.992   2.856   1.384  0.00  0.00    -0.080 A 
ATOM      4  C3  UNL d   1      -5.331   2.956   2.605  0.00  0.00     0.150 A 
ATOM      5  C4  UNL d   1      -3.958   3.175   2.656  0.00  0.00    -0.007 A 
ATOM      6  C5  UNL d   1      -3.232   3.291   1.472  0.00  0.00     0.039 A 
ENDROOT
BRANCH   4   7
ATOM      7  O   UNL d   1      -5.999   2.843   3.788  0.00  0.00    -0.526 OA
ATOM      8  H5  UNL d   1      -6.935   2.666   3.598  0.00  0.00     0.418 HD
ENDBRANCH   4   7
TORSDOF 1
ENDMDL
