MODEL 1
REMARK minimizedAffinity 2.08824086
REMARK minimizedRMSD -1
REMARK  1 active torsions:
REMARK  status: ('A' for Active; 'I' for Inactive)
REMARK    1  A    between atoms: C3_4  and  O_7 
ROOT
ATOM      1  C   UNL d   1       1.790  -6.000   4.928  0.00  0.00    -0.033 A 
ATOM      2  C1  UNL d   1       2.983  -5.397   4.522  0.00  0.00     0.039 A 
ATOM      3  C2  UNL d   1       2.995  -4.053   4.145  0.00  0.00    -0.080 A 
ATOM      4  C3  UNL d   1       1.810  -3.323   4.180  0.00  0.00     0.150 A 
ATOM      5  C4  UNL d   1       0.619  -3.915   4.587  0.00  0.00    -0.007 A 
ATOM      6  C5  UNL d   1       0.609  -5.258   4.962  0.00  0.00     0.039 A 
ENDROOT
BRANCH   4   7
ATOM      7  O   UNL d   1       1.772  -2.009   3.817  0.00  0.00    -0.526 OA
ATOM      8  H5  UNL d   1       2.661  -1.743   3.531  0.00  0.00     0.418 HD
ENDBRANCH   4   7
TORSDOF 1
ENDMDL
