MODEL 1
REMARK minimizedAffinity 6.60017633
REMARK minimizedRMSD -1
REMARK  1 active torsions:
REMARK  status: ('A' for Active; 'I' for Inactive)
REMARK    1  A    between atoms: C3_4  and  O_7 
ROOT
ATOM      1  C   UNL d   1       2.569  -1.229   3.686  0.00  0.00    -0.033 A 
ATOM      2  C1  UNL d   1       2.271  -0.081   2.949  0.00  0.00     0.039 A 
ATOM      3  C2  UNL d   1       1.741  -0.194   1.662  0.00  0.00    -0.080 A 
ATOM      4  C3  UNL d   1       1.514  -1.458   1.125  0.00  0.00     0.150 A 
ATOM      5  C4  UNL d   1       1.805  -2.605   1.855  0.00  0.00    -0.007 A 
ATOM      6  C5  UNL d   1       2.334  -2.491   3.140  0.00  0.00     0.039 A 
ENDROOT
BRANCH   4   7
ATOM      7  O   UNL d   1       1.003  -1.618  -0.129  0.00  0.00    -0.526 OA
ATOM      8  H5  UNL d   1       0.878  -0.739  -0.525  0.00  0.00     0.418 HD
ENDBRANCH   4   7
TORSDOF 1
ENDMDL
