MODEL 1
REMARK minimizedAffinity -5.38685274
REMARK minimizedRMSD -1
REMARK  3 active torsions:
REMARK  status: ('A' for Active; 'I' for Inactive)
REMARK    1  A    between atoms: C3'_2  and  C2'_3 
REMARK    2  A    between atoms: C2'_3  and  C1'_4 
REMARK    3  A    between atoms: C1'_4  and  C1_5 
ROOT
ATOM      1  C1  N4B d   1       0.508   0.010   0.430  0.00  0.00    -0.075 A 
ATOM      2  C2  N4B d   1       1.107  -1.144   0.981  0.00  0.00     0.002 A 
ATOM      3  C3  N4B d   1       2.467  -1.188   1.170  0.00  0.00     0.002 A 
ATOM      4  C4  N4B d   1       3.246  -0.103   0.799  0.00  0.00    -0.004 A 
ATOM      5  C5  N4B d   1       2.657   1.018   0.291  0.00  0.00     0.002 A 
ATOM      6  C6  N4B d   1       1.292   1.078   0.099  0.00  0.00     0.002 A 
ENDROOT
BRANCH   1   7
ATOM      7  C1' N4B d   1      -0.964   0.072   0.125  0.00  0.00     0.057 C 
BRANCH   7   8
ATOM      8  C2' N4B d   1      -1.156   0.455  -1.339  0.00  0.00     0.009 C 
BRANCH   8   9
ATOM      9  C3' N4B d   1      -2.575   0.191  -1.814  0.00  0.00     0.004 C 
ATOM     10  C4' N4B d   1      -2.624  -0.599  -3.087  0.00  0.00     0.003 C 
ENDBRANCH   8   9
ENDBRANCH   7   8
ENDBRANCH   1   7
TORSDOF 3
ENDMDL
