MODEL 1
REMARK minimizedAffinity -6.32583523
REMARK minimizedRMSD -1
REMARK  0 active torsions:
REMARK  status: ('A' for Active; 'I' for Inactive)
ROOT
ATOM      1  O1  BZF d   1       0.761  -0.819   0.665  0.00  0.00    -0.204 OA
ATOM      2  C2  BZF d   1       0.803   0.248  -0.210  0.00  0.00     0.174 A 
ATOM      3  C3  BZF d   1      -0.397   0.434  -0.797  0.00  0.00    -0.012 A 
ATOM      4  C3A BZF d   1      -1.267  -0.524  -0.185  0.00  0.00    -0.107 A 
ATOM      5  C4  BZF d   1      -2.591  -0.820  -0.336  0.00  0.00     0.055 A 
ATOM      6  C5  BZF d   1      -3.119  -1.862   0.360  0.00  0.00    -0.016 A 
ATOM      7  C6  BZF d   1      -2.350  -2.630   1.209  0.00  0.00     0.022 A 
ATOM      8  C7  BZF d   1      -1.033  -2.372   1.396  0.00  0.00     0.029 A 
ATOM      9  C7A BZF d   1      -0.505  -1.299   0.719  0.00  0.00     0.058 A 
ENDROOT
TORSDOF 0
ENDMDL
