MODEL 1
REMARK minimizedAffinity -4.94809008
REMARK minimizedRMSD -1
REMARK  0 active torsions:
REMARK  status: ('A' for Active; 'I' for Inactive)
ROOT
ATOM      1  O1  BZF d   1       0.571  -0.768   0.903  0.00  0.00    -0.204 OA
ATOM      2  C2  BZF d   1       0.935   0.226   0.015  0.00  0.00     0.174 A 
ATOM      3  C3  BZF d   1      -0.048   0.449  -0.881  0.00  0.00    -0.012 A 
ATOM      4  C3A BZF d   1      -1.128  -0.397  -0.474  0.00  0.00    -0.107 A 
ATOM      5  C4  BZF d   1      -2.387  -0.611  -0.958  0.00  0.00     0.055 A 
ATOM      6  C5  BZF d   1      -3.167  -1.558  -0.374  0.00  0.00    -0.016 A 
ATOM      7  C6  BZF d   1      -2.719  -2.312   0.691  0.00  0.00     0.022 A 
ATOM      8  C7  BZF d   1      -1.479  -2.132   1.209  0.00  0.00     0.029 A 
ATOM      9  C7A BZF d   1      -0.701  -1.153   0.642  0.00  0.00     0.058 A 
ENDROOT
TORSDOF 0
ENDMDL
