MODEL 1
REMARK minimizedAffinity -6.23596811
REMARK minimizedRMSD -1
REMARK  0 active torsions:
REMARK  status: ('A' for Active; 'I' for Inactive)
ROOT
ATOM      1  O1  BZF d   1       0.703  -1.280   1.112  0.00  0.00    -0.204 OA
ATOM      2  C2  BZF d   1       1.482  -0.424   0.358  0.00  0.00     0.174 A 
ATOM      3  C3  BZF d   1       0.726   0.258  -0.527  0.00  0.00    -0.012 A 
ATOM      4  C3A BZF d   1      -0.622  -0.133  -0.249  0.00  0.00    -0.107 A 
ATOM      5  C4  BZF d   1      -1.830   0.214  -0.783  0.00  0.00     0.055 A 
ATOM      6  C5  BZF d   1      -2.953  -0.405  -0.335  0.00  0.00    -0.016 A 
ATOM      7  C6  BZF d   1      -2.905  -1.378   0.641  0.00  0.00     0.022 A 
ATOM      8  C7  BZF d   1      -1.731  -1.753   1.205  0.00  0.00     0.029 A 
ATOM      9  C7A BZF d   1      -0.598  -1.106   0.778  0.00  0.00     0.058 A 
ENDROOT
TORSDOF 0
ENDMDL
