MODEL 1
REMARK minimizedAffinity -4.89117956
REMARK minimizedRMSD -1
REMARK  0 active torsions:
REMARK  status: ('A' for Active; 'I' for Inactive)
ROOT
ATOM      1  O1  BZF d   1       1.010  -0.364  -0.167  0.00  0.00    -0.204 OA
ATOM      2  C2  BZF d   1      -0.334  -0.137  -0.387  0.00  0.00     0.174 A 
ATOM      3  C3  BZF d   1      -0.698   1.075   0.080  0.00  0.00    -0.012 A 
ATOM      4  C3A BZF d   1       0.514   1.678   0.543  0.00  0.00    -0.107 A 
ATOM      5  C4  BZF d   1       0.805   2.890   1.102  0.00  0.00     0.055 A 
ATOM      6  C5  BZF d   1       2.077   3.140   1.509  0.00  0.00    -0.016 A 
ATOM      7  C6  BZF d   1       3.080   2.202   1.378  0.00  0.00     0.022 A 
ATOM      8  C7  BZF d   1       2.840   0.988   0.825  0.00  0.00     0.029 A 
ATOM      9  C7A BZF d   1       1.563   0.744   0.382  0.00  0.00     0.058 A 
ENDROOT
TORSDOF 0
ENDMDL
