MODEL 1
REMARK minimizedAffinity -3.69915986
REMARK minimizedRMSD -1
REMARK  0 active torsions:
REMARK  status: ('A' for Active; 'I' for Inactive)
ROOT
ATOM      1  O1  BZF d   1      -3.060  -0.755   0.396  0.00  0.00    -0.204 OA
ATOM      2  C2  BZF d   1      -3.492  -1.394  -0.750  0.00  0.00     0.174 A 
ATOM      3  C3  BZF d   1      -2.558  -1.319  -1.720  0.00  0.00    -0.012 A 
ATOM      4  C3A BZF d   1      -1.438  -0.668  -1.115  0.00  0.00    -0.107 A 
ATOM      5  C4  BZF d   1      -0.197  -0.319  -1.567  0.00  0.00     0.055 A 
ATOM      6  C5  BZF d   1       0.636   0.372  -0.746  0.00  0.00    -0.016 A 
ATOM      7  C6  BZF d   1       0.259   0.736   0.531  0.00  0.00     0.022 A 
ATOM      8  C7  BZF d   1      -0.959   0.408   1.026  0.00  0.00     0.029 A 
ATOM      9  C7A BZF d   1      -1.791  -0.319   0.209  0.00  0.00     0.058 A 
ENDROOT
TORSDOF 0
ENDMDL
