MODEL 1
REMARK minimizedAffinity -2.33435416
REMARK minimizedRMSD -1
REMARK  0 active torsions:
REMARK  status: ('A' for Active; 'I' for Inactive)
ROOT
ATOM      1  O1  BZF d   1       1.004   0.442  -0.375  0.00  0.00    -0.204 OA
ATOM      2  C2  BZF d   1       1.165   0.229   0.981  0.00  0.00     0.174 A 
ATOM      3  C3  BZF d   1       0.038  -0.275   1.523  0.00  0.00    -0.012 A 
ATOM      4  C3A BZF d   1      -0.855  -0.470   0.423  0.00  0.00    -0.107 A 
ATOM      5  C4  BZF d   1      -2.126  -0.959   0.320  0.00  0.00     0.055 A 
ATOM      6  C5  BZF d   1      -2.742  -0.948  -0.891  0.00  0.00    -0.016 A 
ATOM      7  C6  BZF d   1      -2.120  -0.451  -2.018  0.00  0.00     0.022 A 
ATOM      8  C7  BZF d   1      -0.858   0.040  -1.966  0.00  0.00     0.029 A 
ATOM      9  C7A BZF d   1      -0.220  -0.000  -0.750  0.00  0.00     0.058 A 
ENDROOT
TORSDOF 0
ENDMDL
