MODEL 1
REMARK minimizedAffinity 3.2585597
REMARK minimizedRMSD -1
REMARK  0 active torsions:
REMARK  status: ('A' for Active; 'I' for Inactive)
ROOT
ATOM      1  O1  BZF d   1       1.362  -0.688  -0.713  0.00  0.00    -0.204 OA
ATOM      2  C2  BZF d   1       0.693  -1.097   0.425  0.00  0.00     0.174 A 
ATOM      3  C3  BZF d   1      -0.624  -0.824   0.330  0.00  0.00    -0.012 A 
ATOM      4  C3A BZF d   1      -0.804  -0.289  -0.985  0.00  0.00    -0.107 A 
ATOM      5  C4  BZF d   1      -1.894   0.155  -1.676  0.00  0.00     0.055 A 
ATOM      6  C5  BZF d   1      -1.720   0.684  -2.916  0.00  0.00    -0.016 A 
ATOM      7  C6  BZF d   1      -0.470   0.788  -3.491  0.00  0.00     0.022 A 
ATOM      8  C7  BZF d   1       0.640   0.356  -2.846  0.00  0.00     0.029 A 
ATOM      9  C7A BZF d   1       0.463  -0.209  -1.607  0.00  0.00     0.058 A 
ENDROOT
TORSDOF 0
ENDMDL
