MODEL 1
REMARK minimizedAffinity 5.59770679
REMARK minimizedRMSD -1
REMARK  0 active torsions:
REMARK  status: ('A' for Active; 'I' for Inactive)
ROOT
ATOM      1  O1  BZF d   1      -1.813  -1.853   3.042  0.00  0.00    -0.204 OA
ATOM      2  C2  BZF d   1      -1.438  -0.880   2.136  0.00  0.00     0.174 A 
ATOM      3  C3  BZF d   1      -1.921   0.325   2.500  0.00  0.00    -0.012 A 
ATOM      4  C3A BZF d   1      -2.566   0.107   3.759  0.00  0.00    -0.107 A 
ATOM      5  C4  BZF d   1      -3.223   0.926   4.632  0.00  0.00     0.055 A 
ATOM      6  C5  BZF d   1      -3.800   0.386   5.737  0.00  0.00    -0.016 A 
ATOM      7  C6  BZF d   1      -3.745  -0.967   5.998  0.00  0.00     0.022 A 
ATOM      8  C7  BZF d   1      -3.100  -1.819   5.164  0.00  0.00     0.029 A 
ATOM      9  C7A BZF d   1      -2.488  -1.272   4.063  0.00  0.00     0.058 A 
ENDROOT
TORSDOF 0
ENDMDL
