MODEL 1
REMARK minimizedAffinity -5.4161725
REMARK minimizedRMSD -1
REMARK  0 active torsions:
REMARK  status: ('A' for Active; 'I' for Inactive)
ROOT
ATOM      1  O1  BZF d   1      -0.247  -2.382   1.516  0.00  0.00    -0.204 OA
ATOM      2  C2  BZF d   1      -1.409  -3.129   1.513  0.00  0.00     0.174 A 
ATOM      3  C3  BZF d   1      -2.258  -2.691   0.561  0.00  0.00    -0.012 A 
ATOM      4  C3A BZF d   1      -1.546  -1.661  -0.132  0.00  0.00    -0.107 A 
ATOM      5  C4  BZF d   1      -1.855  -0.855  -1.190  0.00  0.00     0.055 A 
ATOM      6  C5  BZF d   1      -0.967   0.098  -1.576  0.00  0.00    -0.016 A 
ATOM      7  C6  BZF d   1       0.235   0.278  -0.923  0.00  0.00     0.022 A 
ATOM      8  C7  BZF d   1       0.587  -0.500   0.129  0.00  0.00     0.029 A 
ATOM      9  C7A BZF d   1      -0.293  -1.487   0.501  0.00  0.00     0.058 A 
ENDROOT
TORSDOF 0
ENDMDL
