MODEL 1
REMARK minimizedAffinity -4.30658484
REMARK minimizedRMSD -1
REMARK  0 active torsions:
REMARK  status: ('A' for Active; 'I' for Inactive)
ROOT
ATOM      1  O1  BZF d   1      -2.205  -2.688   0.612  0.00  0.00    -0.204 OA
ATOM      2  C2  BZF d   1      -1.279  -3.092   1.555  0.00  0.00     0.174 A 
ATOM      3  C3  BZF d   1      -0.153  -2.355   1.466  0.00  0.00    -0.012 A 
ATOM      4  C3A BZF d   1      -0.426  -1.371   0.463  0.00  0.00    -0.107 A 
ATOM      5  C4  BZF d   1       0.299  -0.340  -0.063  0.00  0.00     0.055 A 
ATOM      6  C5  BZF d   1      -0.230   0.387  -1.081  0.00  0.00    -0.016 A 
ATOM      7  C6  BZF d   1      -1.477   0.109  -1.601  0.00  0.00     0.022 A 
ATOM      8  C7  BZF d   1      -2.236  -0.900  -1.109  0.00  0.00     0.029 A 
ATOM      9  C7A BZF d   1      -1.717  -1.617  -0.058  0.00  0.00     0.058 A 
ENDROOT
TORSDOF 0
ENDMDL
