MODEL 1
REMARK minimizedAffinity -3.10148072
REMARK minimizedRMSD -1
REMARK  0 active torsions:
REMARK  status: ('A' for Active; 'I' for Inactive)
ROOT
ATOM      1  O1  BZF d   1      -3.104  -0.100  -0.951  0.00  0.00    -0.204 OA
ATOM      2  C2  BZF d   1      -3.451  -0.990   0.046  0.00  0.00     0.174 A 
ATOM      3  C3  BZF d   1      -2.361  -1.388   0.733  0.00  0.00    -0.012 A 
ATOM      4  C3A BZF d   1      -1.275  -0.633   0.187  0.00  0.00    -0.107 A 
ATOM      5  C4  BZF d   1       0.061  -0.573   0.464  0.00  0.00     0.055 A 
ATOM      6  C5  BZF d   1       0.860   0.214  -0.303  0.00  0.00    -0.016 A 
ATOM      7  C6  BZF d   1       0.359   0.949  -1.357  0.00  0.00     0.022 A 
ATOM      8  C7  BZF d   1      -0.960   0.925  -1.668  0.00  0.00     0.029 A 
ATOM      9  C7A BZF d   1      -1.776   0.157  -0.874  0.00  0.00     0.058 A 
ENDROOT
TORSDOF 0
ENDMDL
