MODEL 1
REMARK minimizedAffinity -6.40886497
REMARK minimizedRMSD -1
REMARK  0 active torsions:
REMARK  status: ('A' for Active; 'I' for Inactive)
ROOT
ATOM      1  O1  BZF d   1       0.757  -1.600   1.207  0.00  0.00    -0.204 OA
ATOM      2  C2  BZF d   1       1.497  -0.637   0.549  0.00  0.00     0.174 A 
ATOM      3  C3  BZF d   1       0.725   0.053  -0.314  0.00  0.00    -0.012 A 
ATOM      4  C3A BZF d   1      -0.600  -0.452  -0.121  0.00  0.00    -0.107 A 
ATOM      5  C4  BZF d   1      -1.810  -0.152  -0.678  0.00  0.00     0.055 A 
ATOM      6  C5  BZF d   1      -2.900  -0.881  -0.322  0.00  0.00    -0.016 A 
ATOM      7  C6  BZF d   1      -2.816  -1.919   0.582  0.00  0.00     0.022 A 
ATOM      8  C7  BZF d   1      -1.638  -2.251   1.165  0.00  0.00     0.029 A 
ATOM      9  C7A BZF d   1      -0.541  -1.495   0.833  0.00  0.00     0.058 A 
ENDROOT
TORSDOF 0
ENDMDL
