MODEL 1
REMARK minimizedAffinity -5.43230295
REMARK minimizedRMSD -1
REMARK  0 active torsions:
REMARK  status: ('A' for Active; 'I' for Inactive)
ROOT
ATOM      1  O1  BZF d   1       0.546  -0.484   0.707  0.00  0.00    -0.204 OA
ATOM      2  C2  BZF d   1       0.614   0.265  -0.451  0.00  0.00     0.174 A 
ATOM      3  C3  BZF d   1      -0.446   0.012  -1.247  0.00  0.00    -0.012 A 
ATOM      4  C3A BZF d   1      -1.271  -0.886  -0.499  0.00  0.00    -0.107 A 
ATOM      5  C4  BZF d   1      -2.472  -1.487  -0.750  0.00  0.00     0.055 A 
ATOM      6  C5  BZF d   1      -2.972  -2.367   0.157  0.00  0.00    -0.016 A 
ATOM      7  C6  BZF d   1      -2.297  -2.673   1.321  0.00  0.00     0.022 A 
ATOM      8  C7  BZF d   1      -1.106  -2.098   1.616  0.00  0.00     0.029 A 
ATOM      9  C7A BZF d   1      -0.613  -1.184   0.717  0.00  0.00     0.058 A 
ENDROOT
TORSDOF 0
ENDMDL
