MODEL 1
REMARK minimizedAffinity 1.19286561
REMARK minimizedRMSD -1
REMARK  0 active torsions:
REMARK  status: ('A' for Active; 'I' for Inactive)
ROOT
ATOM      1  O1  BZF d   1       0.913   0.548   1.638  0.00  0.00    -0.204 OA
ATOM      2  C2  BZF d   1       0.661  -0.101   0.445  0.00  0.00     0.174 A 
ATOM      3  C3  BZF d   1       1.299   0.508  -0.575  0.00  0.00    -0.012 A 
ATOM      4  C3A BZF d   1       2.068   1.551   0.031  0.00  0.00    -0.107 A 
ATOM      5  C4  BZF d   1       2.925   2.493  -0.461  0.00  0.00     0.055 A 
ATOM      6  C5  BZF d   1       3.455   3.412   0.388  0.00  0.00    -0.016 A 
ATOM      7  C6  BZF d   1       3.147   3.421   1.733  0.00  0.00     0.022 A 
ATOM      8  C7  BZF d   1       2.305   2.503   2.269  0.00  0.00     0.029 A 
ATOM      9  C7A BZF d   1       1.794   1.553   1.419  0.00  0.00     0.058 A 
ENDROOT
TORSDOF 0
ENDMDL
