MODEL 1
REMARK minimizedAffinity -3.24752903
REMARK minimizedRMSD -1
REMARK  0 active torsions:
REMARK  status: ('A' for Active; 'I' for Inactive)
ROOT
ATOM      1  O1  BZF d   1       0.774  -0.143  -1.485  0.00  0.00    -0.204 OA
ATOM      2  C2  BZF d   1       1.575   0.226  -0.421  0.00  0.00     0.174 A 
ATOM      3  C3  BZF d   1       0.843   0.366   0.703  0.00  0.00    -0.012 A 
ATOM      4  C3A BZF d   1      -0.485  -0.025   0.339  0.00  0.00    -0.107 A 
ATOM      5  C4  BZF d   1      -1.659  -0.116   1.029  0.00  0.00     0.055 A 
ATOM      6  C5  BZF d   1      -2.792  -0.460   0.362  0.00  0.00    -0.016 A 
ATOM      7  C6  BZF d   1      -2.788  -0.716  -0.994  0.00  0.00     0.022 A 
ATOM      8  C7  BZF d   1      -1.646  -0.644  -1.720  0.00  0.00     0.029 A 
ATOM      9  C7A BZF d   1      -0.493  -0.328  -1.043  0.00  0.00     0.058 A 
ENDROOT
TORSDOF 0
ENDMDL
