MODEL 1
REMARK minimizedAffinity -4.8455987
REMARK minimizedRMSD -1
REMARK  0 active torsions:
REMARK  status: ('A' for Active; 'I' for Inactive)
ROOT
ATOM      1  O1  BZF d   1       0.873  -0.530   0.446  0.00  0.00    -0.204 OA
ATOM      2  C2  BZF d   1       1.071   0.310  -0.633  0.00  0.00     0.174 A 
ATOM      3  C3  BZF d   1      -0.048   0.401  -1.380  0.00  0.00    -0.012 A 
ATOM      4  C3A BZF d   1      -1.033  -0.361  -0.676  0.00  0.00    -0.107 A 
ATOM      5  C4  BZF d   1      -2.350  -0.636  -0.909  0.00  0.00     0.055 A 
ATOM      6  C5  BZF d   1      -3.009  -1.474  -0.066  0.00  0.00    -0.016 A 
ATOM      7  C6  BZF d   1      -2.382  -2.057   1.015  0.00  0.00     0.022 A 
ATOM      8  C7  BZF d   1      -1.078  -1.811   1.290  0.00  0.00     0.029 A 
ATOM      9  C7A BZF d   1      -0.418  -0.939   0.459  0.00  0.00     0.058 A 
ENDROOT
TORSDOF 0
ENDMDL
