MODEL 1
REMARK minimizedAffinity -4.28663111
REMARK minimizedRMSD -1
REMARK  0 active torsions:
REMARK  status: ('A' for Active; 'I' for Inactive)
ROOT
ATOM      1  O1  BZF d   1       0.240  -0.048   1.597  0.00  0.00    -0.204 OA
ATOM      2  C2  BZF d   1       1.445   0.410   1.101  0.00  0.00     0.174 A 
ATOM      3  C3  BZF d   1       1.382   0.570  -0.237  0.00  0.00    -0.012 A 
ATOM      4  C3A BZF d   1       0.026   0.276  -0.587  0.00  0.00    -0.107 A 
ATOM      5  C4  BZF d   1      -0.659   0.275  -1.769  0.00  0.00     0.055 A 
ATOM      6  C5  BZF d   1      -1.955  -0.132  -1.780  0.00  0.00    -0.016 A 
ATOM      7  C6  BZF d   1      -2.596  -0.548  -0.631  0.00  0.00     0.022 A 
ATOM      8  C7  BZF d   1      -1.959  -0.559   0.566  0.00  0.00     0.029 A 
ATOM      9  C7A BZF d   1      -0.658  -0.118   0.586  0.00  0.00     0.058 A 
ENDROOT
TORSDOF 0
ENDMDL
