MODEL 1
REMARK minimizedAffinity -4.16468143
REMARK minimizedRMSD -1
REMARK  0 active torsions:
REMARK  status: ('A' for Active; 'I' for Inactive)
ROOT
ATOM      1  C   UNL d   1       1.571  -1.781   1.782  0.00  0.00     0.124 A 
ATOM      2  C1  UNL d   1       1.885  -1.860   0.432  0.00  0.00     0.062 A 
ATOM      3  C2  UNL d   1       1.172  -1.109  -0.498  0.00  0.00     0.162 A 
ATOM      4  C3  UNL d   1       0.138  -0.271  -0.082  0.00  0.00    -0.034 A 
ATOM      5  C4  UNL d   1      -0.173  -0.197   1.277  0.00  0.00     0.162 A 
ATOM      6  C5  UNL d   1       0.542  -0.950   2.203  0.00  0.00     0.062 A 
ATOM      7  F   UNL d   1       0.237  -0.872   3.506  0.00  0.00    -0.097 F 
ATOM      8  F1  UNL d   1      -1.161   0.598   1.712  0.00  0.00    -0.096 F 
ATOM      9  I   UNL d   1      -0.930   0.853  -1.470  0.00  0.00    -0.060 I 
ATOM     10  F2  UNL d   1       1.498  -1.206  -1.796  0.00  0.00    -0.096 F 
ATOM     11  F3  UNL d   1       2.878  -2.663   0.023  0.00  0.00    -0.097 F 
ATOM     12  F4  UNL d   1       2.258  -2.505   2.674  0.00  0.00    -0.092 F 
ENDROOT
TORSDOF 0
ENDMDL
