MODEL 1
REMARK minimizedAffinity -0.503287435
REMARK minimizedRMSD -1
REMARK  0 active torsions:
REMARK  status: ('A' for Active; 'I' for Inactive)
ROOT
ATOM      1  C   UNL d   1       0.112   0.457  -0.940  0.00  0.00     0.124 A 
ATOM      2  C1  UNL d   1       1.118   0.054  -0.072  0.00  0.00     0.062 A 
ATOM      3  C2  UNL d   1       0.823  -0.777   1.005  0.00  0.00     0.162 A 
ATOM      4  C3  UNL d   1      -0.485  -1.211   1.221  0.00  0.00    -0.034 A 
ATOM      5  C4  UNL d   1      -1.492  -0.801   0.344  0.00  0.00     0.162 A 
ATOM      6  C5  UNL d   1      -1.191   0.029  -0.731  0.00  0.00     0.062 A 
ATOM      7  F   UNL d   1      -2.165   0.417  -1.568  0.00  0.00    -0.097 F 
ATOM      8  F1  UNL d   1      -2.760  -1.200   0.522  0.00  0.00    -0.096 F 
ATOM      9  I   UNL d   1      -0.931  -2.453   2.830  0.00  0.00    -0.060 I 
ATOM     10  F2  UNL d   1       1.814  -1.150   1.827  0.00  0.00    -0.096 F 
ATOM     11  F3  UNL d   1       2.378   0.467  -0.271  0.00  0.00    -0.097 F 
ATOM     12  F4  UNL d   1       0.399   1.257  -1.974  0.00  0.00    -0.092 F 
ENDROOT
TORSDOF 0
ENDMDL
