MODEL 1
REMARK minimizedAffinity -3.50290442
REMARK minimizedRMSD -1
REMARK  0 active torsions:
REMARK  status: ('A' for Active; 'I' for Inactive)
ROOT
ATOM      1  C   UNL d   1       1.390   1.143  -1.317  0.00  0.00     0.124 A 
ATOM      2  C1  UNL d   1       0.410   0.475  -0.597  0.00  0.00     0.062 A 
ATOM      3  C2  UNL d   1      -0.935   0.754  -0.820  0.00  0.00     0.162 A 
ATOM      4  C3  UNL d   1      -1.309   1.706  -1.768  0.00  0.00    -0.034 A 
ATOM      5  C4  UNL d   1      -0.318   2.375  -2.488  0.00  0.00     0.162 A 
ATOM      6  C5  UNL d   1       1.026   2.093  -2.262  0.00  0.00     0.062 A 
ATOM      7  F   UNL d   1       1.971   2.740  -2.958  0.00  0.00    -0.097 F 
ATOM      8  F1  UNL d   1      -0.642   3.297  -3.407  0.00  0.00    -0.096 F 
ATOM      9  I   UNL d   1      -3.320   2.126  -2.104  0.00  0.00    -0.060 I 
ATOM     10  F2  UNL d   1      -1.861   0.093  -0.109  0.00  0.00    -0.096 F 
ATOM     11  F3  UNL d   1       0.759  -0.442   0.317  0.00  0.00    -0.097 F 
ATOM     12  F4  UNL d   1       2.684   0.874  -1.100  0.00  0.00    -0.092 F 
ENDROOT
TORSDOF 0
ENDMDL
