MODEL 1
REMARK minimizedAffinity 4.97850084
REMARK minimizedRMSD -1
REMARK  0 active torsions:
REMARK  status: ('A' for Active; 'I' for Inactive)
ROOT
ATOM      1  C   UNL d   1       1.848  -1.472  -0.998  0.00  0.00     0.124 A 
ATOM      2  C1  UNL d   1       2.634  -1.444   0.146  0.00  0.00     0.062 A 
ATOM      3  C2  UNL d   1       2.061  -1.163   1.382  0.00  0.00     0.162 A 
ATOM      4  C3  UNL d   1       0.693  -0.909   1.482  0.00  0.00    -0.034 A 
ATOM      5  C4  UNL d   1      -0.091  -0.938   0.327  0.00  0.00     0.162 A 
ATOM      6  C5  UNL d   1       0.487  -1.219  -0.907  0.00  0.00     0.062 A 
ATOM      7  F   UNL d   1      -0.274  -1.246  -2.010  0.00  0.00    -0.097 F 
ATOM      8  F1  UNL d   1      -1.409  -0.699   0.387  0.00  0.00    -0.096 F 
ATOM      9  I   UNL d   1      -0.169  -0.489   3.329  0.00  0.00    -0.060 I 
ATOM     10  F2  UNL d   1       2.844  -1.142   2.471  0.00  0.00    -0.096 F 
ATOM     11  F3  UNL d   1       3.950  -1.687   0.059  0.00  0.00    -0.097 F 
ATOM     12  F4  UNL d   1       2.403  -1.741  -2.187  0.00  0.00    -0.092 F 
ENDROOT
TORSDOF 0
ENDMDL
