MODEL 1
REMARK minimizedAffinity 14.6094971
REMARK minimizedRMSD -1
REMARK  0 active torsions:
REMARK  status: ('A' for Active; 'I' for Inactive)
ROOT
ATOM      1  C   UNL d   1      -1.684   0.215   1.789  0.00  0.00    -0.002 A 
ATOM      2  C1  UNL d   1      -2.738   0.451   0.918  0.00  0.00     0.010 A 
ATOM      3  C2  UNL d   1      -4.033   0.642   1.405  0.00  0.00     0.041 A 
ATOM      4  C3  UNL d   1      -4.252   0.593   2.796  0.00  0.00    -0.075 A 
ATOM      5  S   UNL d   1      -5.752   0.800   3.620  0.00  0.00     0.015 SA
ATOM      6  C4  UNL d   1      -5.029   0.581   5.147  0.00  0.00     0.022 A 
ATOM      7  C5  UNL d   1      -3.676   0.354   5.050  0.00  0.00     0.026 A 
ATOM      8  C6  UNL d   1      -3.206   0.359   3.693  0.00  0.00    -0.082 A 
ATOM      9  C7  UNL d   1      -1.905   0.168   3.168  0.00  0.00     0.045 A 
ENDROOT
TORSDOF 0
ENDMDL
