MODEL 1
REMARK minimizedAffinity 8.40546894
REMARK minimizedRMSD -1
REMARK  0 active torsions:
REMARK  status: ('A' for Active; 'I' for Inactive)
ROOT
ATOM      1  C   UNL d   1      -5.999   5.133   5.737  0.00  0.00    -0.002 A 
ATOM      2  C1  UNL d   1      -4.946   6.000   5.992  0.00  0.00     0.010 A 
ATOM      3  C2  UNL d   1      -3.794   5.968   5.204  0.00  0.00     0.041 A 
ATOM      4  C3  UNL d   1      -3.718   5.043   4.144  0.00  0.00    -0.075 A 
ATOM      5  S   UNL d   1      -2.406   4.824   3.047  0.00  0.00     0.015 SA
ATOM      6  C4  UNL d   1      -3.214   3.576   2.214  0.00  0.00     0.022 A 
ATOM      7  C5  UNL d   1      -4.455   3.319   2.747  0.00  0.00     0.026 A 
ATOM      8  C6  UNL d   1      -4.766   4.160   3.868  0.00  0.00    -0.082 A 
ATOM      9  C7  UNL d   1      -5.921   4.217   4.685  0.00  0.00     0.045 A 
ENDROOT
TORSDOF 0
ENDMDL
