MODEL 1
REMARK minimizedAffinity 17.4178562
REMARK minimizedRMSD -1
REMARK  0 active torsions:
REMARK  status: ('A' for Active; 'I' for Inactive)
ROOT
ATOM      1  C   UNL d   1      -5.073  -3.149  -5.979  0.00  0.00    -0.002 A 
ATOM      2  C1  UNL d   1      -4.215  -4.240  -5.984  0.00  0.00     0.010 A 
ATOM      3  C2  UNL d   1      -2.831  -4.055  -5.991  0.00  0.00     0.041 A 
ATOM      4  C3  UNL d   1      -2.319  -2.742  -5.992  0.00  0.00    -0.075 A 
ATOM      5  S   UNL d   1      -0.660  -2.274  -5.999  0.00  0.00     0.015 SA
ATOM      6  C4  UNL d   1      -1.051  -0.615  -5.995  0.00  0.00     0.022 A 
ATOM      7  C5  UNL d   1      -2.410  -0.406  -5.988  0.00  0.00     0.026 A 
ATOM      8  C6  UNL d   1      -3.163  -1.628  -5.986  0.00  0.00    -0.082 A 
ATOM      9  C7  UNL d   1      -4.561  -1.849  -5.980  0.00  0.00     0.045 A 
ENDROOT
TORSDOF 0
ENDMDL
