MODEL 1
REMARK minimizedAffinity 5.79611826
REMARK minimizedRMSD -1
REMARK  0 active torsions:
REMARK  status: ('A' for Active; 'I' for Inactive)
ROOT
ATOM      1  C   UNL d   1      -4.544  -3.170  -5.995  0.00  0.00    -0.002 A 
ATOM      2  C1  UNL d   1      -3.945  -1.918  -5.993  0.00  0.00     0.010 A 
ATOM      3  C2  UNL d   1      -2.554  -1.796  -5.988  0.00  0.00     0.041 A 
ATOM      4  C3  UNL d   1      -1.768  -2.964  -5.989  0.00  0.00    -0.075 A 
ATOM      5  S   UNL d   1      -0.046  -3.059  -5.986  0.00  0.00     0.015 SA
ATOM      6  C4  UNL d   1      -0.065  -4.763  -5.989  0.00  0.00     0.022 A 
ATOM      7  C5  UNL d   1      -1.345  -5.264  -5.992  0.00  0.00     0.026 A 
ATOM      8  C6  UNL d   1      -2.348  -4.236  -5.993  0.00  0.00    -0.082 A 
ATOM      9  C7  UNL d   1      -3.760  -4.327  -5.996  0.00  0.00     0.045 A 
ENDROOT
TORSDOF 0
ENDMDL
