MODEL 1
REMARK minimizedAffinity 23.0543308
REMARK minimizedRMSD -1
REMARK  0 active torsions:
REMARK  status: ('A' for Active; 'I' for Inactive)
ROOT
ATOM      1  C   UNL d   1      -4.841  -0.485   5.172  0.00  0.00    -0.002 A 
ATOM      2  C1  UNL d   1      -4.991  -0.399   3.795  0.00  0.00     0.010 A 
ATOM      3  C2  UNL d   1      -5.338   0.812   3.193  0.00  0.00     0.041 A 
ATOM      4  C3  UNL d   1      -5.532   1.946   4.005  0.00  0.00    -0.075 A 
ATOM      5  S   UNL d   1      -5.961   3.534   3.488  0.00  0.00     0.015 SA
ATOM      6  C4  UNL d   1      -5.954   4.136   5.083  0.00  0.00     0.022 A 
ATOM      7  C5  UNL d   1      -5.635   3.163   6.000  0.00  0.00     0.026 A 
ATOM      8  C6  UNL d   1      -5.386   1.885   5.394  0.00  0.00    -0.082 A 
ATOM      9  C7  UNL d   1      -5.035   0.642   5.975  0.00  0.00     0.045 A 
ENDROOT
TORSDOF 0
ENDMDL
