MODEL 1
REMARK minimizedAffinity 12.694129
REMARK minimizedRMSD -1
REMARK  0 active torsions:
REMARK  status: ('A' for Active; 'I' for Inactive)
ROOT
ATOM      1  C   UNL d   1      -5.494   5.081   5.625  0.00  0.00    -0.002 A 
ATOM      2  C1  UNL d   1      -4.725   5.235   4.480  0.00  0.00     0.010 A 
ATOM      3  C2  UNL d   1      -4.401   4.131   3.689  0.00  0.00     0.041 A 
ATOM      4  C3  UNL d   1      -4.870   2.858   4.070  0.00  0.00    -0.075 A 
ATOM      5  S   UNL d   1      -4.599   1.364   3.254  0.00  0.00     0.015 SA
ATOM      6  C4  UNL d   1      -5.498   0.486   4.406  0.00  0.00     0.022 A 
ATOM      7  C5  UNL d   1      -6.000   1.298   5.396  0.00  0.00     0.026 A 
ATOM      8  C6  UNL d   1      -5.646   2.679   5.218  0.00  0.00    -0.082 A 
ATOM      9  C7  UNL d   1      -5.957   3.817   6.000  0.00  0.00     0.045 A 
ENDROOT
TORSDOF 0
ENDMDL
