MODEL 1
REMARK minimizedAffinity 10.560277
REMARK minimizedRMSD -1
REMARK  0 active torsions:
REMARK  status: ('A' for Active; 'I' for Inactive)
ROOT
ATOM      1  C   UNL d   1       1.139  -3.883   2.303  0.00  0.00    -0.002 A 
ATOM      2  C1  UNL d   1       1.117  -5.268   2.390  0.00  0.00     0.010 A 
ATOM      3  C2  UNL d   1       2.307  -5.999   2.375  0.00  0.00     0.041 A 
ATOM      4  C3  UNL d   1       3.530  -5.308   2.271  0.00  0.00    -0.075 A 
ATOM      5  S   UNL d   1       5.111  -5.994   2.234  0.00  0.00     0.015 SA
ATOM      6  C4  UNL d   1       5.853  -4.464   2.103  0.00  0.00     0.022 A 
ATOM      7  C5  UNL d   1       4.931  -3.444   2.086  0.00  0.00     0.026 A 
ATOM      8  C6  UNL d   1       3.577  -3.914   2.183  0.00  0.00    -0.082 A 
ATOM      9  C7  UNL d   1       2.354  -3.201   2.200  0.00  0.00     0.045 A 
ENDROOT
TORSDOF 0
ENDMDL
