MODEL 1
REMARK minimizedAffinity 14.5857925
REMARK minimizedRMSD -1
REMARK  0 active torsions:
REMARK  status: ('A' for Active; 'I' for Inactive)
ROOT
ATOM      1  C   UNL d   1      -2.762   1.589   1.740  0.00  0.00    -0.002 A 
ATOM      2  C1  UNL d   1      -2.535   0.399   2.418  0.00  0.00     0.010 A 
ATOM      3  C2  UNL d   1      -1.294   0.141   3.003  0.00  0.00     0.041 A 
ATOM      4  C3  UNL d   1      -0.275   1.107   2.895  0.00  0.00    -0.075 A 
ATOM      5  S   UNL d   1       1.324   1.008   3.533  0.00  0.00     0.015 SA
ATOM      6  C4  UNL d   1       1.744   2.542   2.920  0.00  0.00     0.022 A 
ATOM      7  C5  UNL d   1       0.702   3.130   2.243  0.00  0.00     0.026 A 
ATOM      8  C6  UNL d   1      -0.479   2.313   2.218  0.00  0.00    -0.082 A 
ATOM      9  C7  UNL d   1      -1.748   2.545   1.635  0.00  0.00     0.045 A 
ENDROOT
TORSDOF 0
ENDMDL
