MODEL 1
REMARK minimizedAffinity 18.8654633
REMARK minimizedRMSD -1
REMARK  0 active torsions:
REMARK  status: ('A' for Active; 'I' for Inactive)
ROOT
ATOM      1  C   UNL d   1      -2.373  -1.132  -5.815  0.00  0.00    -0.002 A 
ATOM      2  C1  UNL d   1      -1.754  -2.360  -5.999  0.00  0.00     0.010 A 
ATOM      3  C2  UNL d   1      -0.427  -2.552  -5.612  0.00  0.00     0.041 A 
ATOM      4  C3  UNL d   1       0.275  -1.479  -5.028  0.00  0.00    -0.075 A 
ATOM      5  S   UNL d   1       1.908  -1.484  -4.475  0.00  0.00     0.015 SA
ATOM      6  C4  UNL d   1       1.823   0.145  -3.980  0.00  0.00     0.022 A 
ATOM      7  C5  UNL d   1       0.586   0.694  -4.223  0.00  0.00     0.026 A 
ATOM      8  C6  UNL d   1      -0.326  -0.233  -4.831  0.00  0.00    -0.082 A 
ATOM      9  C7  UNL d   1      -1.673  -0.070  -5.235  0.00  0.00     0.045 A 
ENDROOT
TORSDOF 0
ENDMDL
