MODEL 1
REMARK minimizedAffinity 9.67850399
REMARK minimizedRMSD -1
REMARK  0 active torsions:
REMARK  status: ('A' for Active; 'I' for Inactive)
ROOT
ATOM      1  C   UNL d   1      -3.776  -1.137   0.278  0.00  0.00    -0.002 A 
ATOM      2  C1  UNL d   1      -2.748  -2.061   0.153  0.00  0.00     0.010 A 
ATOM      3  C2  UNL d   1      -1.478  -1.784   0.663  0.00  0.00     0.041 A 
ATOM      4  C3  UNL d   1      -1.256  -0.551   1.308  0.00  0.00    -0.075 A 
ATOM      5  S   UNL d   1       0.217   0.004   2.010  0.00  0.00     0.015 SA
ATOM      6  C4  UNL d   1      -0.483   1.481   2.494  0.00  0.00     0.022 A 
ATOM      7  C5  UNL d   1      -1.808   1.565   2.136  0.00  0.00     0.026 A 
ATOM      8  C6  UNL d   1      -2.276   0.395   1.447  0.00  0.00    -0.082 A 
ATOM      9  C7  UNL d   1      -3.552   0.085   0.919  0.00  0.00     0.045 A 
ENDROOT
TORSDOF 0
ENDMDL
