MODEL 1
REMARK minimizedAffinity 8.83132172
REMARK minimizedRMSD -1
REMARK  0 active torsions:
REMARK  status: ('A' for Active; 'I' for Inactive)
ROOT
ATOM      1  C   UNL d   1      -5.144   0.478   3.121  0.00  0.00    -0.002 A 
ATOM      2  C1  UNL d   1      -5.042   0.890   1.800  0.00  0.00     0.010 A 
ATOM      3  C2  UNL d   1      -3.795   0.989   1.181  0.00  0.00     0.041 A 
ATOM      4  C3  UNL d   1      -2.640   0.662   1.919  0.00  0.00    -0.075 A 
ATOM      5  S   UNL d   1      -1.007   0.708   1.368  0.00  0.00     0.015 SA
ATOM      6  C4  UNL d   1      -0.406   0.181   2.874  0.00  0.00     0.022 A 
ATOM      7  C5  UNL d   1      -1.413  -0.029   3.786  0.00  0.00     0.026 A 
ATOM      8  C6  UNL d   1      -2.717   0.244   3.251  0.00  0.00    -0.082 A 
ATOM      9  C7  UNL d   1      -3.997   0.155   3.850  0.00  0.00     0.045 A 
ENDROOT
TORSDOF 0
ENDMDL
