MODEL 1
REMARK minimizedAffinity 18.4126301
REMARK minimizedRMSD -1
REMARK  0 active torsions:
REMARK  status: ('A' for Active; 'I' for Inactive)
ROOT
ATOM      1  C   UNL d   1      -5.077   0.364   4.458  0.00  0.00    -0.002 A 
ATOM      2  C1  UNL d   1      -5.997   0.320   3.420  0.00  0.00     0.010 A 
ATOM      3  C2  UNL d   1      -5.592   0.533   2.101  0.00  0.00     0.041 A 
ATOM      4  C3  UNL d   1      -4.232   0.792   1.840  0.00  0.00    -0.075 A 
ATOM      5  S   UNL d   1      -3.506   1.082   0.303  0.00  0.00     0.015 SA
ATOM      6  C4  UNL d   1      -1.957   1.270   0.987  0.00  0.00     0.022 A 
ATOM      7  C5  UNL d   1      -1.974   1.119   2.353  0.00  0.00     0.026 A 
ATOM      8  C6  UNL d   1      -3.286   0.840   2.867  0.00  0.00    -0.082 A 
ATOM      9  C7  UNL d   1      -3.729   0.621   4.194  0.00  0.00     0.045 A 
ENDROOT
TORSDOF 0
ENDMDL
