MODEL 1
REMARK minimizedAffinity 6.53323078
REMARK minimizedRMSD -1
REMARK  0 active torsions:
REMARK  status: ('A' for Active; 'I' for Inactive)
ROOT
ATOM      1  C   UNL d   1      -0.611   2.994   4.458  0.00  0.00    -0.002 A 
ATOM      2  C1  UNL d   1      -1.690   2.583   3.688  0.00  0.00     0.010 A 
ATOM      3  C2  UNL d   1      -1.535   1.587   2.722  0.00  0.00     0.041 A 
ATOM      4  C3  UNL d   1      -0.265   1.005   2.541  0.00  0.00    -0.075 A 
ATOM      5  S   UNL d   1       0.161  -0.232   1.418  0.00  0.00     0.015 SA
ATOM      6  C4  UNL d   1       1.785  -0.245   1.935  0.00  0.00     0.022 A 
ATOM      7  C5  UNL d   1       2.015   0.666   2.939  0.00  0.00     0.026 A 
ATOM      8  C6  UNL d   1       0.837   1.401   3.305  0.00  0.00    -0.082 A 
ATOM      9  C7  UNL d   1       0.647   2.413   4.276  0.00  0.00     0.045 A 
ENDROOT
TORSDOF 0
ENDMDL
