MODEL 1
REMARK minimizedAffinity 4.60427189
REMARK minimizedRMSD -1
REMARK  0 active torsions:
REMARK  status: ('A' for Active; 'I' for Inactive)
ROOT
ATOM      1  C1  BNZ d   1      -5.999   0.078   3.202  0.00  0.00     0.000 A 
ATOM      2  C2  BNZ d   1      -6.000  -0.967   4.087  0.00  0.00     0.000 A 
ATOM      3  C3  BNZ d   1      -5.975  -2.260   3.644  0.00  0.00     0.000 A 
ATOM      4  C4  BNZ d   1      -5.991  -2.506   2.318  0.00  0.00     0.000 A 
ATOM      5  C5  BNZ d   1      -6.000  -1.464   1.413  0.00  0.00     0.000 A 
ATOM      6  C6  BNZ d   1      -5.985  -0.163   1.863  0.00  0.00     0.000 A 
ENDROOT
TORSDOF 0
ENDMDL
