MODEL 1
REMARK minimizedAffinity 1.84337187
REMARK minimizedRMSD -1
REMARK  0 active torsions:
REMARK  status: ('A' for Active; 'I' for Inactive)
ROOT
ATOM      1  C1  BNZ d   1      -4.196   0.552  -5.429  0.00  0.00     0.000 A 
ATOM      2  C2  BNZ d   1      -4.537   1.799  -5.883  0.00  0.00     0.000 A 
ATOM      3  C3  BNZ d   1      -4.440   2.891  -5.066  0.00  0.00     0.000 A 
ATOM      4  C4  BNZ d   1      -4.042   2.730  -3.788  0.00  0.00     0.000 A 
ATOM      5  C5  BNZ d   1      -3.704   1.478  -3.313  0.00  0.00     0.000 A 
ATOM      6  C6  BNZ d   1      -3.766   0.387  -4.149  0.00  0.00     0.000 A 
ENDROOT
TORSDOF 0
ENDMDL
