MODEL 1
REMARK minimizedAffinity 1.0940572
REMARK minimizedRMSD -1
REMARK  0 active torsions:
REMARK  status: ('A' for Active; 'I' for Inactive)
ROOT
ATOM      1  C1  BNZ d   1      -5.861  -3.183   4.834  0.00  0.00     0.000 A 
ATOM      2  C2  BNZ d   1      -5.752  -2.460   5.992  0.00  0.00     0.000 A 
ATOM      3  C3  BNZ d   1      -5.791  -1.094   5.970  0.00  0.00     0.000 A 
ATOM      4  C4  BNZ d   1      -5.898  -0.452   4.789  0.00  0.00     0.000 A 
ATOM      5  C5  BNZ d   1      -6.000  -1.166   3.612  0.00  0.00     0.000 A 
ATOM      6  C6  BNZ d   1      -6.000  -2.542   3.641  0.00  0.00     0.000 A 
ENDROOT
TORSDOF 0
ENDMDL
