MODEL 1
REMARK minimizedAffinity 0.390388131
REMARK minimizedRMSD -1
REMARK  0 active torsions:
REMARK  status: ('A' for Active; 'I' for Inactive)
ROOT
ATOM      1  C1  BNZ d   1       0.118   0.785   1.303  0.00  0.00     0.000 A 
ATOM      2  C2  BNZ d   1      -0.688   1.560   0.512  0.00  0.00     0.000 A 
ATOM      3  C3  BNZ d   1      -0.664   1.433  -0.849  0.00  0.00     0.000 A 
ATOM      4  C4  BNZ d   1       0.195   0.563  -1.419  0.00  0.00     0.000 A 
ATOM      5  C5  BNZ d   1       1.020  -0.219  -0.635  0.00  0.00     0.000 A 
ATOM      6  C6  BNZ d   1       0.965  -0.117   0.736  0.00  0.00     0.000 A 
ENDROOT
TORSDOF 0
ENDMDL
