MODEL 1
REMARK minimizedAffinity 1.38182247
REMARK minimizedRMSD -1
REMARK  0 active torsions:
REMARK  status: ('A' for Active; 'I' for Inactive)
ROOT
ATOM      1  C1  BNZ d   1      -0.064   0.915  -0.494  0.00  0.00     0.000 A 
ATOM      2  C2  BNZ d   1      -0.120   1.049   0.867  0.00  0.00     0.000 A 
ATOM      3  C3  BNZ d   1       0.638   0.254   1.681  0.00  0.00     0.000 A 
ATOM      4  C4  BNZ d   1       1.419  -0.700   1.134  0.00  0.00     0.000 A 
ATOM      5  C5  BNZ d   1       1.479  -0.854  -0.236  0.00  0.00     0.000 A 
ATOM      6  C6  BNZ d   1       0.744  -0.026  -1.054  0.00  0.00     0.000 A 
ENDROOT
TORSDOF 0
ENDMDL
