MODEL 1
REMARK minimizedAffinity 4.96338654
REMARK minimizedRMSD -1
REMARK  0 active torsions:
REMARK  status: ('A' for Active; 'I' for Inactive)
ROOT
ATOM      1  C1  BNZ d   1      -0.190   1.248  -0.421  0.00  0.00     0.000 A 
ATOM      2  C2  BNZ d   1      -0.218   1.253   0.948  0.00  0.00     0.000 A 
ATOM      3  C3  BNZ d   1       0.633   0.461   1.668  0.00  0.00     0.000 A 
ATOM      4  C4  BNZ d   1       1.481  -0.363   1.020  0.00  0.00     0.000 A 
ATOM      5  C5  BNZ d   1       1.515  -0.386  -0.360  0.00  0.00     0.000 A 
ATOM      6  C6  BNZ d   1       0.684   0.441  -1.082  0.00  0.00     0.000 A 
ENDROOT
TORSDOF 0
ENDMDL
