MODEL 1
REMARK minimizedAffinity -3.67783403
REMARK minimizedRMSD -1
REMARK  0 active torsions:
REMARK  status: ('A' for Active; 'I' for Inactive)
ROOT
ATOM      1  C1  BNZ d   1       0.103   1.416   1.134  0.00  0.00     0.000 A 
ATOM      2  C2  BNZ d   1      -0.144   2.167   0.017  0.00  0.00     0.000 A 
ATOM      3  C3  BNZ d   1      -0.096   1.606  -1.229  0.00  0.00     0.000 A 
ATOM      4  C4  BNZ d   1       0.237   0.306  -1.358  0.00  0.00     0.000 A 
ATOM      5  C5  BNZ d   1       0.498  -0.463  -0.241  0.00  0.00     0.000 A 
ATOM      6  C6  BNZ d   1       0.411   0.095   1.014  0.00  0.00     0.000 A 
ENDROOT
TORSDOF 0
ENDMDL
