MODEL 1
REMARK minimizedAffinity -2.38734293
REMARK minimizedRMSD -1
REMARK  1 active torsions:
REMARK  status: ('A' for Active; 'I' for Inactive)
REMARK    1  A    between atoms: N_2  and  C1_3 
ROOT
ATOM      1  C1  UNL d   1       0.775  -0.920  -1.016  0.00  0.00     0.143 A 
ATOM      2  C2  UNL d   1       0.922  -0.217  -2.217  0.00  0.00    -0.057 A 
ATOM      3  C3  UNL d   1       0.418   1.080  -2.366  0.00  0.00     0.033 A 
ATOM      4  C4  UNL d   1      -0.271   1.689  -1.322  0.00  0.00    -0.042 A 
ATOM      5  C5  UNL d   1      -0.451   1.000  -0.128  0.00  0.00     0.033 A 
ATOM      6  C6  UNL d   1       0.061  -0.293   0.017  0.00  0.00    -0.057 A 
ENDROOT
BRANCH   1   7
ATOM      7  N   UNL d   1       1.168  -2.249  -0.839  0.00  0.00    -0.732 N 
ATOM      8  C   UNL d   1       0.262  -3.333  -1.152  0.00  0.00     0.284 C 
ATOM      9  H3  UNL d   1       2.129  -2.412  -1.131  0.00  0.00     0.395 HD
ENDBRANCH   1   7
TORSDOF 1
ENDMDL
