MODEL 1
REMARK minimizedAffinity -5.18191767
REMARK minimizedRMSD -1
REMARK  1 active torsions:
REMARK  status: ('A' for Active; 'I' for Inactive)
REMARK    1  A    between atoms: N_2  and  C1_3 
ROOT
ATOM      1  C1  UNL d   1      -0.420   1.260  -0.433  0.00  0.00     0.143 A 
ATOM      2  C2  UNL d   1      -0.534   1.340   0.959  0.00  0.00    -0.057 A 
ATOM      3  C3  UNL d   1      -1.026   2.494   1.582  0.00  0.00     0.033 A 
ATOM      4  C4  UNL d   1      -1.386   3.602   0.822  0.00  0.00    -0.042 A 
ATOM      5  C5  UNL d   1      -1.257   3.553  -0.561  0.00  0.00     0.033 A 
ATOM      6  C6  UNL d   1      -0.772   2.396  -1.178  0.00  0.00    -0.057 A 
ENDROOT
BRANCH   1   7
ATOM      7  N   UNL d   1       0.154   0.178  -1.105  0.00  0.00    -0.732 N 
ATOM      8  C   UNL d   1       1.225  -0.583  -0.498  0.00  0.00     0.284 C 
ATOM      9  H3  UNL d   1      -0.538  -0.391  -1.588  0.00  0.00     0.395 HD
ENDBRANCH   1   7
TORSDOF 1
ENDMDL
