MODEL 1
REMARK minimizedAffinity -2.01484895
REMARK minimizedRMSD -1
REMARK  1 active torsions:
REMARK  status: ('A' for Active; 'I' for Inactive)
REMARK    1  A    between atoms: N_2  and  C1_3 
ROOT
ATOM      1  C1  UNL d   1       0.819  -1.120  -0.631  0.00  0.00     0.143 A 
ATOM      2  C2  UNL d   1       0.345  -0.196  -1.568  0.00  0.00    -0.057 A 
ATOM      3  C3  UNL d   1      -0.205   1.027  -1.167  0.00  0.00     0.033 A 
ATOM      4  C4  UNL d   1      -0.318   1.337   0.184  0.00  0.00    -0.042 A 
ATOM      5  C5  UNL d   1       0.124   0.423   1.134  0.00  0.00     0.033 A 
ATOM      6  C6  UNL d   1       0.679  -0.794   0.727  0.00  0.00    -0.057 A 
ENDROOT
BRANCH   1   7
ATOM      7  N   UNL d   1       1.286  -2.394  -0.962  0.00  0.00    -0.732 N 
ATOM      8  C   UNL d   1       0.433  -3.554  -0.814  0.00  0.00     0.284 C 
ATOM      9  H3  UNL d   1       1.843  -2.395  -1.814  0.00  0.00     0.395 HD
ENDBRANCH   1   7
TORSDOF 1
ENDMDL
