MODEL 1
REMARK minimizedAffinity -2.63724279
REMARK minimizedRMSD -1
REMARK  1 active torsions:
REMARK  status: ('A' for Active; 'I' for Inactive)
REMARK    1  A    between atoms: N_2  and  C1_3 
ROOT
ATOM      1  C1  UNL d   1       0.126   0.280  -0.216  0.00  0.00     0.143 A 
ATOM      2  C2  UNL d   1       0.541   0.376   1.117  0.00  0.00    -0.057 A 
ATOM      3  C3  UNL d   1       0.099   1.417   1.942  0.00  0.00     0.033 A 
ATOM      4  C4  UNL d   1      -0.747   2.401   1.439  0.00  0.00    -0.042 A 
ATOM      5  C5  UNL d   1      -1.152   2.339   0.110  0.00  0.00     0.033 A 
ATOM      6  C6  UNL d   1      -0.712   1.293  -0.707  0.00  0.00    -0.057 A 
ENDROOT
BRANCH   1   7
ATOM      7  N   UNL d   1       0.609  -0.675  -1.114  0.00  0.00    -0.732 N 
ATOM      8  C   UNL d   1       0.119  -2.036  -1.076  0.00  0.00     0.284 C 
ATOM      9  H3  UNL d   1       0.725  -0.301  -2.053  0.00  0.00     0.395 HD
ENDBRANCH   1   7
TORSDOF 1
ENDMDL
