MODEL 1
REMARK minimizedAffinity 1.18501174
REMARK minimizedRMSD -1
REMARK  1 active torsions:
REMARK  status: ('A' for Active; 'I' for Inactive)
REMARK    1  A    between atoms: N_2  and  C1_3 
ROOT
ATOM      1  C1  UNL d   1       0.477   1.629  -0.617  0.00  0.00     0.143 A 
ATOM      2  C2  UNL d   1       0.708   0.468   0.128  0.00  0.00    -0.057 A 
ATOM      3  C3  UNL d   1       0.670   0.483   1.528  0.00  0.00     0.033 A 
ATOM      4  C4  UNL d   1       0.428   1.671   2.210  0.00  0.00    -0.042 A 
ATOM      5  C5  UNL d   1       0.220   2.842   1.490  0.00  0.00     0.033 A 
ATOM      6  C6  UNL d   1       0.252   2.819   0.093  0.00  0.00    -0.057 A 
ENDROOT
BRANCH   1   7
ATOM      7  N   UNL d   1       0.598   1.698  -2.007  0.00  0.00    -0.732 N 
ATOM      8  C   UNL d   1      -0.528   2.090  -2.827  0.00  0.00     0.284 C 
ATOM      9  H3  UNL d   1       1.485   2.101  -2.299  0.00  0.00     0.395 HD
ENDBRANCH   1   7
TORSDOF 1
ENDMDL
