MODEL 1
REMARK minimizedAffinity -6.22245836
REMARK minimizedRMSD -1
REMARK  2 active torsions:
REMARK  status: ('A' for Active; 'I' for Inactive)
REMARK    1  A    between atoms: C1_2  and  C2_3 
REMARK    2  A    between atoms: C2_3  and  C3_4 
ROOT
ATOM      1  C3  UNL d   1       0.105   0.098   0.034  0.00  0.00    -0.075 A 
ATOM      2  C4  UNL d   1       0.124  -1.139   0.695  0.00  0.00     0.002 A 
ATOM      3  C5  UNL d   1       1.332  -1.794   0.938  0.00  0.00     0.002 A 
ATOM      4  C6  UNL d   1       2.532  -1.227   0.515  0.00  0.00    -0.004 A 
ATOM      5  C7  UNL d   1       2.524  -0.007  -0.157  0.00  0.00     0.002 A 
ATOM      6  C8  UNL d   1       1.318   0.653  -0.397  0.00  0.00     0.002 A 
ENDROOT
BRANCH   1   7
ATOM      7  C2  UNL d   1      -1.196   0.826  -0.205  0.00  0.00     0.056 C 
BRANCH   7   8
ATOM      8  C1  UNL d   1      -1.378   1.320  -1.644  0.00  0.00     0.007 C 
ATOM      9  C   UNL d   1      -2.803   1.159  -2.158  0.00  0.00     0.009 C 
ENDBRANCH   7   8
ENDBRANCH   1   7
TORSDOF 2
ENDMDL
