MODEL 1
REMARK minimizedAffinity -4.94169474
REMARK minimizedRMSD -1
REMARK  2 active torsions:
REMARK  status: ('A' for Active; 'I' for Inactive)
REMARK    1  A    between atoms: C1_2  and  C2_3 
REMARK    2  A    between atoms: C2_3  and  C3_4 
ROOT
ATOM      1  C3  UNL d   1       0.019  -0.137   0.030  0.00  0.00    -0.075 A 
ATOM      2  C4  UNL d   1      -0.588  -0.757   1.132  0.00  0.00     0.002 A 
ATOM      3  C5  UNL d   1      -0.012  -1.886   1.716  0.00  0.00     0.002 A 
ATOM      4  C6  UNL d   1       1.169  -2.415   1.200  0.00  0.00    -0.004 A 
ATOM      5  C7  UNL d   1       1.771  -1.818   0.095  0.00  0.00     0.002 A 
ATOM      6  C8  UNL d   1       1.200  -0.685  -0.488  0.00  0.00     0.002 A 
ENDROOT
BRANCH   1   7
ATOM      7  C2  UNL d   1      -0.582   1.103  -0.588  0.00  0.00     0.056 C 
BRANCH   7   8
ATOM      8  C1  UNL d   1      -1.745   0.821  -1.545  0.00  0.00     0.007 C 
ATOM      9  C   UNL d   1      -1.821   1.807  -2.703  0.00  0.00     0.009 C 
ENDBRANCH   7   8
ENDBRANCH   1   7
TORSDOF 2
ENDMDL
