MODEL 1
REMARK minimizedAffinity -3.85250068
REMARK minimizedRMSD -1
REMARK  2 active torsions:
REMARK  status: ('A' for Active; 'I' for Inactive)
REMARK    1  A    between atoms: C1_2  and  C2_3 
REMARK    2  A    between atoms: C2_3  and  C3_4 
ROOT
ATOM      1  C3  UNL d   1       0.168   0.014   0.040  0.00  0.00    -0.075 A 
ATOM      2  C4  UNL d   1       1.559  -0.142  -0.043  0.00  0.00     0.002 A 
ATOM      3  C5  UNL d   1       2.172  -1.298   0.441  0.00  0.00     0.002 A 
ATOM      4  C6  UNL d   1       1.406  -2.306   1.022  0.00  0.00    -0.004 A 
ATOM      5  C7  UNL d   1       0.025  -2.154   1.125  0.00  0.00     0.002 A 
ATOM      6  C8  UNL d   1      -0.592  -1.000   0.638  0.00  0.00     0.002 A 
ENDROOT
BRANCH   1   7
ATOM      7  C2  UNL d   1      -0.505   1.250  -0.508  0.00  0.00     0.056 C 
BRANCH   7   8
ATOM      8  C1  UNL d   1      -1.613   0.958  -1.524  0.00  0.00     0.007 C 
ATOM      9  C   UNL d   1      -1.690   1.989  -2.643  0.00  0.00     0.009 C 
ENDBRANCH   7   8
ENDBRANCH   1   7
TORSDOF 2
ENDMDL
