MODEL 1
REMARK minimizedAffinity -5.14770985
REMARK minimizedRMSD -1
REMARK  2 active torsions:
REMARK  status: ('A' for Active; 'I' for Inactive)
REMARK    1  A    between atoms: C1_2  and  C2_3 
REMARK    2  A    between atoms: C2_3  and  C3_4 
ROOT
ATOM      1  C3  UNL d   1      -0.288   0.059  -0.021  0.00  0.00    -0.075 A 
ATOM      2  C4  UNL d   1       1.050  -0.305  -0.232  0.00  0.00     0.002 A 
ATOM      3  C5  UNL d   1       1.583  -1.436   0.387  0.00  0.00     0.002 A 
ATOM      4  C6  UNL d   1       0.790  -2.210   1.232  0.00  0.00    -0.004 A 
ATOM      5  C7  UNL d   1      -0.536  -1.848   1.462  0.00  0.00     0.002 A 
ATOM      6  C8  UNL d   1      -1.073  -0.720   0.840  0.00  0.00     0.002 A 
ENDROOT
BRANCH   1   7
ATOM      7  C2  UNL d   1      -0.878   1.265  -0.711  0.00  0.00     0.056 C 
BRANCH   7   8
ATOM      8  C1  UNL d   1      -2.070   0.943  -1.618  0.00  0.00     0.007 C 
ATOM      9  C   UNL d   1      -2.071   1.742  -2.915  0.00  0.00     0.009 C 
ENDBRANCH   7   8
ENDBRANCH   1   7
TORSDOF 2
ENDMDL
