MODEL 1
REMARK minimizedAffinity -1.1848675
REMARK minimizedRMSD -1
REMARK  2 active torsions:
REMARK  status: ('A' for Active; 'I' for Inactive)
REMARK    1  A    between atoms: C1_2  and  C2_3 
REMARK    2  A    between atoms: C2_3  and  C3_4 
ROOT
ATOM      1  C3  UNL d   1      -0.225   0.850  -0.377  0.00  0.00    -0.075 A 
ATOM      2  C4  UNL d   1      -0.548  -0.058   0.641  0.00  0.00     0.002 A 
ATOM      3  C5  UNL d   1       0.364  -1.040   1.029  0.00  0.00     0.002 A 
ATOM      4  C6  UNL d   1       1.603  -1.133   0.399  0.00  0.00    -0.004 A 
ATOM      5  C7  UNL d   1       1.928  -0.246  -0.624  0.00  0.00     0.002 A 
ATOM      6  C8  UNL d   1       1.020   0.741  -1.012  0.00  0.00     0.002 A 
ENDROOT
BRANCH   1   7
ATOM      7  C2  UNL d   1      -1.195   1.934  -0.782  0.00  0.00     0.056 C 
BRANCH   7   8
ATOM      8  C1  UNL d   1      -1.694   1.817  -2.226  0.00  0.00     0.007 C 
ATOM      9  C   UNL d   1      -3.131   1.320  -2.326  0.00  0.00     0.009 C 
ENDBRANCH   7   8
ENDBRANCH   1   7
TORSDOF 2
ENDMDL
