MODEL 1
REMARK minimizedAffinity -1.77236712
REMARK minimizedRMSD -1
REMARK  2 active torsions:
REMARK  status: ('A' for Active; 'I' for Inactive)
REMARK    1  A    between atoms: C1_2  and  C2_3 
REMARK    2  A    between atoms: C2_3  and  C3_4 
ROOT
ATOM      1  C3  UNL d   1       0.078   0.060  -0.425  0.00  0.00    -0.075 A 
ATOM      2  C4  UNL d   1       1.469  -0.071  -0.306  0.00  0.00     0.002 A 
ATOM      3  C5  UNL d   1       2.023  -1.166   0.357  0.00  0.00     0.002 A 
ATOM      4  C6  UNL d   1       1.196  -2.138   0.916  0.00  0.00    -0.004 A 
ATOM      5  C7  UNL d   1      -0.188  -2.009   0.817  0.00  0.00     0.002 A 
ATOM      6  C8  UNL d   1      -0.745  -0.916   0.151  0.00  0.00     0.002 A 
ENDROOT
BRANCH   1   7
ATOM      7  C2  UNL d   1      -0.527   1.228  -1.166  0.00  0.00     0.056 C 
BRANCH   7   8
ATOM      8  C1  UNL d   1      -1.576   0.829  -2.210  0.00  0.00     0.007 C 
ATOM      9  C   UNL d   1      -1.559   1.717  -3.448  0.00  0.00     0.009 C 
ENDBRANCH   7   8
ENDBRANCH   1   7
TORSDOF 2
ENDMDL
