MODEL 1
REMARK minimizedAffinity -5.37487125
REMARK minimizedRMSD -1
REMARK  2 active torsions:
REMARK  status: ('A' for Active; 'I' for Inactive)
REMARK    1  A    between atoms: C1_2  and  C2_3 
REMARK    2  A    between atoms: C2_3  and  C3_4 
ROOT
ATOM      1  C3  UNL d   1      -0.043   0.499  -0.621  0.00  0.00    -0.075 A 
ATOM      2  C4  UNL d   1       1.342   0.290  -0.686  0.00  0.00     0.002 A 
ATOM      3  C5  UNL d   1       1.934  -0.755   0.025  0.00  0.00     0.002 A 
ATOM      4  C6  UNL d   1       1.153  -1.595   0.815  0.00  0.00    -0.004 A 
ATOM      5  C7  UNL d   1      -0.222  -1.385   0.900  0.00  0.00     0.002 A 
ATOM      6  C8  UNL d   1      -0.818  -0.344   0.187  0.00  0.00     0.002 A 
ENDROOT
BRANCH   1   7
ATOM      7  C2  UNL d   1      -0.694   1.609  -1.411  0.00  0.00     0.056 C 
BRANCH   7   8
ATOM      8  C1  UNL d   1      -1.957   1.181  -2.166  0.00  0.00     0.007 C 
ATOM      9  C   UNL d   1      -1.881   1.446  -3.663  0.00  0.00     0.009 C 
ENDBRANCH   7   8
ENDBRANCH   1   7
TORSDOF 2
ENDMDL
