MODEL 1
REMARK minimizedAffinity -3.99021792
REMARK minimizedRMSD -1
REMARK  2 active torsions:
REMARK  status: ('A' for Active; 'I' for Inactive)
REMARK    1  A    between atoms: C1_2  and  C2_3 
REMARK    2  A    between atoms: C2_3  and  C3_4 
ROOT
ATOM      1  C3  UNL d   1       0.172  -0.593   0.214  0.00  0.00    -0.075 A 
ATOM      2  C4  UNL d   1      -0.929  -0.751   1.068  0.00  0.00     0.002 A 
ATOM      3  C5  UNL d   1      -0.932  -1.748   2.043  0.00  0.00     0.002 A 
ATOM      4  C6  UNL d   1       0.159  -2.605   2.170  0.00  0.00    -0.004 A 
ATOM      5  C7  UNL d   1       1.251  -2.468   1.316  0.00  0.00     0.002 A 
ATOM      6  C8  UNL d   1       1.258  -1.469   0.342  0.00  0.00     0.002 A 
ENDROOT
BRANCH   1   7
ATOM      7  C2  UNL d   1       0.193   0.503  -0.825  0.00  0.00     0.056 C 
BRANCH   7   8
ATOM      8  C1  UNL d   1      -1.077   1.360  -0.854  0.00  0.00     0.007 C 
ATOM      9  C   UNL d   1      -1.378   1.942  -2.228  0.00  0.00     0.009 C 
ENDBRANCH   7   8
ENDBRANCH   1   7
TORSDOF 2
ENDMDL
