MODEL 1
REMARK minimizedAffinity -4.74020958
REMARK minimizedRMSD -1
REMARK  2 active torsions:
REMARK  status: ('A' for Active; 'I' for Inactive)
REMARK    1  A    between atoms: C1_2  and  C2_3 
REMARK    2  A    between atoms: C2_3  and  C3_4 
ROOT
ATOM      1  C3  UNL d   1       0.270  -0.725   0.409  0.00  0.00    -0.075 A 
ATOM      2  C4  UNL d   1       1.366  -1.599   0.355  0.00  0.00     0.002 A 
ATOM      3  C5  UNL d   1       1.442  -2.693   1.217  0.00  0.00     0.002 A 
ATOM      4  C6  UNL d   1       0.433  -2.921   2.150  0.00  0.00    -0.004 A 
ATOM      5  C7  UNL d   1      -0.652  -2.050   2.224  0.00  0.00     0.002 A 
ATOM      6  C8  UNL d   1      -0.733  -0.957   1.359  0.00  0.00     0.002 A 
ENDROOT
BRANCH   1   7
ATOM      7  C2  UNL d   1       0.167   0.444  -0.541  0.00  0.00     0.056 C 
BRANCH   7   8
ATOM      8  C1  UNL d   1      -1.118   1.264  -0.384  0.00  0.00     0.007 C 
ATOM      9  C   UNL d   1      -1.786   1.594  -1.712  0.00  0.00     0.009 C 
ENDBRANCH   7   8
ENDBRANCH   1   7
TORSDOF 2
ENDMDL
