MODEL 1
REMARK minimizedAffinity -5.33581066
REMARK minimizedRMSD -1
REMARK  2 active torsions:
REMARK  status: ('A' for Active; 'I' for Inactive)
REMARK    1  A    between atoms: C1_2  and  C2_3 
REMARK    2  A    between atoms: C2_3  and  C3_4 
ROOT
ATOM      1  C3  UNL d   1      -0.259  -0.089   0.070  0.00  0.00    -0.075 A 
ATOM      2  C4  UNL d   1       1.003  -0.666  -0.129  0.00  0.00     0.002 A 
ATOM      3  C5  UNL d   1       1.380  -1.808   0.579  0.00  0.00     0.002 A 
ATOM      4  C6  UNL d   1       0.505  -2.380   1.500  0.00  0.00    -0.004 A 
ATOM      5  C7  UNL d   1      -0.745  -1.805   1.718  0.00  0.00     0.002 A 
ATOM      6  C8  UNL d   1      -1.126  -0.665   1.008  0.00  0.00     0.002 A 
ENDROOT
BRANCH   1   7
ATOM      7  C2  UNL d   1      -0.684   1.129  -0.714  0.00  0.00     0.056 C 
BRANCH   7   8
ATOM      8  C1  UNL d   1      -1.773   0.852  -1.756  0.00  0.00     0.007 C 
ATOM      9  C   UNL d   1      -2.054   2.043  -2.663  0.00  0.00     0.009 C 
ENDBRANCH   7   8
ENDBRANCH   1   7
TORSDOF 2
ENDMDL
