MODEL 1
REMARK minimizedAffinity -4.35988617
REMARK minimizedRMSD -1
REMARK  2 active torsions:
REMARK  status: ('A' for Active; 'I' for Inactive)
REMARK    1  A    between atoms: C1_2  and  C2_3 
REMARK    2  A    between atoms: C2_3  and  C3_4 
ROOT
ATOM      1  C3  UNL d   1       0.619  -0.757   0.631  0.00  0.00    -0.075 A 
ATOM      2  C4  UNL d   1      -0.440  -1.280   1.387  0.00  0.00     0.002 A 
ATOM      3  C5  UNL d   1      -0.247  -2.395   2.202  0.00  0.00     0.002 A 
ATOM      4  C6  UNL d   1       1.003  -3.007   2.265  0.00  0.00    -0.004 A 
ATOM      5  C7  UNL d   1       2.059  -2.506   1.506  0.00  0.00     0.002 A 
ATOM      6  C8  UNL d   1       1.869  -1.388   0.692  0.00  0.00     0.002 A 
ENDROOT
BRANCH   1   7
ATOM      7  C2  UNL d   1       0.423   0.467  -0.231  0.00  0.00     0.056 C 
BRANCH   7   8
ATOM      8  C1  UNL d   1      -0.972   1.090  -0.122  0.00  0.00     0.007 C 
ATOM      9  C   UNL d   1      -1.459   1.704  -1.427  0.00  0.00     0.009 C 
ENDBRANCH   7   8
ENDBRANCH   1   7
TORSDOF 2
ENDMDL
