MODEL 1
REMARK minimizedAffinity -4.49426222
REMARK minimizedRMSD -1
REMARK  2 active torsions:
REMARK  status: ('A' for Active; 'I' for Inactive)
REMARK    1  A    between atoms: C1_2  and  C2_3 
REMARK    2  A    between atoms: C2_3  and  C3_4 
ROOT
ATOM      1  C3  UNL d   1      -0.284  -0.093   0.209  0.00  0.00    -0.075 A 
ATOM      2  C4  UNL d   1      -1.159  -0.644   1.155  0.00  0.00     0.002 A 
ATOM      3  C5  UNL d   1      -0.791  -1.773   1.887  0.00  0.00     0.002 A 
ATOM      4  C6  UNL d   1       0.450  -2.370   1.676  0.00  0.00    -0.004 A 
ATOM      5  C7  UNL d   1       1.321  -1.841   0.726  0.00  0.00     0.002 A 
ATOM      6  C8  UNL d   1       0.957  -0.708  -0.005  0.00  0.00     0.002 A 
ENDROOT
BRANCH   1   7
ATOM      7  C2  UNL d   1      -0.664   1.147  -0.566  0.00  0.00     0.056 C 
BRANCH   7   8
ATOM      8  C1  UNL d   1      -1.962   1.006  -1.369  0.00  0.00     0.007 C 
ATOM      9  C   UNL d   1      -1.997   1.887  -2.611  0.00  0.00     0.009 C 
ENDBRANCH   7   8
ENDBRANCH   1   7
TORSDOF 2
ENDMDL
