MODEL 1
REMARK minimizedAffinity 4.17272234
REMARK minimizedRMSD -1
REMARK  1 active torsions:
REMARK  status: ('A' for Active; 'I' for Inactive)
REMARK    1  A    between atoms: C1_2  and  C2_3 
ROOT
ATOM      1  C2  UNL d   1      -2.464   3.509   0.970  0.00  0.00    -0.073 A 
ATOM      2  C3  UNL d   1      -2.995   3.665   2.256  0.00  0.00    -0.002 A 
ATOM      3  C4  UNL d   1      -3.940   2.761   2.742  0.00  0.00     0.004 A 
ATOM      4  C5  UNL d   1      -4.357   1.689   1.954  0.00  0.00    -0.004 A 
ATOM      5  C6  UNL d   1      -3.829   1.509   0.671  0.00  0.00    -0.075 A 
ATOM      6  C7  UNL d   1      -4.269   0.362  -0.191  0.00  0.00     0.076 C 
ATOM      7  C8  UNL d   1      -2.882   2.423   0.188  0.00  0.00     0.001 A 
ENDROOT
BRANCH   1   8
ATOM      8  C1  UNL d   1      -1.439   4.479   0.443  0.00  0.00     0.053 C 
ATOM      9  C   UNL d   1      -0.106   4.348   1.163  0.00  0.00     0.018 C 
ENDBRANCH   1   8
TORSDOF 1
ENDMDL
