MODEL 1
REMARK minimizedAffinity 6.84697628
REMARK minimizedRMSD -1
REMARK  1 active torsions:
REMARK  status: ('A' for Active; 'I' for Inactive)
REMARK    1  A    between atoms: C1_2  and  C2_3 
ROOT
ATOM      1  C2  UNL d   1       2.411   1.055   1.054  0.00  0.00    -0.073 A 
ATOM      2  C3  UNL d   1       3.491   0.750   0.217  0.00  0.00    -0.002 A 
ATOM      3  C4  UNL d   1       3.273   0.417  -1.120  0.00  0.00     0.004 A 
ATOM      4  C5  UNL d   1       1.978   0.392  -1.636  0.00  0.00    -0.004 A 
ATOM      5  C6  UNL d   1       0.887   0.706  -0.819  0.00  0.00    -0.075 A 
ATOM      6  C7  UNL d   1      -0.513   0.682  -1.358  0.00  0.00     0.076 C 
ATOM      7  C8  UNL d   1       1.113   1.037   0.524  0.00  0.00     0.001 A 
ENDROOT
BRANCH   1   8
ATOM      8  C1  UNL d   1       2.641   1.422   2.497  0.00  0.00     0.053 C 
ATOM      9  C   UNL d   1       2.367   0.254   3.432  0.00  0.00     0.018 C 
ENDBRANCH   1   8
TORSDOF 1
ENDMDL
