MODEL 1
REMARK minimizedAffinity 3.92501855
REMARK minimizedRMSD -1
REMARK  1 active torsions:
REMARK  status: ('A' for Active; 'I' for Inactive)
REMARK    1  A    between atoms: C1_2  and  C2_3 
ROOT
ATOM      1  C2  UNL d   1       2.566   0.082  -2.015  0.00  0.00    -0.073 A 
ATOM      2  C3  UNL d   1       1.238  -0.300  -2.239  0.00  0.00    -0.002 A 
ATOM      3  C4  UNL d   1       0.412  -0.639  -1.166  0.00  0.00     0.004 A 
ATOM      4  C5  UNL d   1       0.902  -0.593   0.139  0.00  0.00    -0.004 A 
ATOM      5  C6  UNL d   1       2.223  -0.202   0.383  0.00  0.00    -0.075 A 
ATOM      6  C7  UNL d   1       2.765  -0.149   1.781  0.00  0.00     0.076 C 
ATOM      7  C8  UNL d   1       3.046   0.134  -0.699  0.00  0.00     0.001 A 
ENDROOT
BRANCH   1   8
ATOM      8  C1  UNL d   1       3.459   0.455  -3.170  0.00  0.00     0.053 C 
ATOM      9  C   UNL d   1       3.502  -0.632  -4.232  0.00  0.00     0.018 C 
ENDBRANCH   1   8
TORSDOF 1
ENDMDL
