MODEL 1
REMARK minimizedAffinity 3.36025214
REMARK minimizedRMSD -1
REMARK  1 active torsions:
REMARK  status: ('A' for Active; 'I' for Inactive)
REMARK    1  A    between atoms: C1_2  and  C2_3 
ROOT
ATOM      1  C2  UNL d   1       3.667   0.962  -1.303  0.00  0.00    -0.073 A 
ATOM      2  C3  UNL d   1       4.089   1.045   0.029  0.00  0.00    -0.002 A 
ATOM      3  C4  UNL d   1       3.219   0.705   1.066  0.00  0.00     0.004 A 
ATOM      4  C5  UNL d   1       1.925   0.271   0.782  0.00  0.00    -0.004 A 
ATOM      5  C6  UNL d   1       1.489   0.169  -0.543  0.00  0.00    -0.075 A 
ATOM      6  C7  UNL d   1       0.098  -0.294  -0.864  0.00  0.00     0.076 C 
ATOM      7  C8  UNL d   1       2.367   0.516  -1.578  0.00  0.00     0.001 A 
ENDROOT
BRANCH   1   8
ATOM      8  C1  UNL d   1       4.605   1.322  -2.427  0.00  0.00     0.053 C 
ATOM      9  C   UNL d   1       5.817   2.094  -1.932  0.00  0.00     0.018 C 
ENDBRANCH   1   8
TORSDOF 1
ENDMDL
