MODEL 1
REMARK minimizedAffinity 3.61791015
REMARK minimizedRMSD -1
REMARK  1 active torsions:
REMARK  status: ('A' for Active; 'I' for Inactive)
REMARK    1  A    between atoms: C1_2  and  C2_3 
ROOT
ATOM      1  C2  UNL d   1       3.986   1.195  -1.835  0.00  0.00    -0.073 A 
ATOM      2  C3  UNL d   1       4.397   1.229  -0.498  0.00  0.00    -0.002 A 
ATOM      3  C4  UNL d   1       3.538   0.798   0.514  0.00  0.00     0.004 A 
ATOM      4  C5  UNL d   1       2.264   0.324   0.200  0.00  0.00    -0.004 A 
ATOM      5  C6  UNL d   1       1.840   0.272  -1.132  0.00  0.00    -0.075 A 
ATOM      6  C7  UNL d   1       0.472  -0.233  -1.486  0.00  0.00     0.076 C 
ATOM      7  C8  UNL d   1       2.707   0.709  -2.142  0.00  0.00     0.001 A 
ENDROOT
BRANCH   1   8
ATOM      8  C1  UNL d   1       4.912   1.653  -2.932  0.00  0.00     0.053 C 
ATOM      9  C   UNL d   1       5.999   2.580  -2.410  0.00  0.00     0.018 C 
ENDBRANCH   1   8
TORSDOF 1
ENDMDL
