MODEL 1
REMARK minimizedAffinity 2.37994647
REMARK minimizedRMSD -1
REMARK  1 active torsions:
REMARK  status: ('A' for Active; 'I' for Inactive)
REMARK    1  A    between atoms: C1_2  and  C2_3 
ROOT
ATOM      1  C2  UNL d   1       4.134   1.381   0.029  0.00  0.00    -0.073 A 
ATOM      2  C3  UNL d   1       2.978   0.943   0.685  0.00  0.00    -0.002 A 
ATOM      3  C4  UNL d   1       1.990   0.249  -0.015  0.00  0.00     0.004 A 
ATOM      4  C5  UNL d   1       2.150  -0.020  -1.374  0.00  0.00    -0.004 A 
ATOM      5  C6  UNL d   1       3.304   0.399  -2.045  0.00  0.00    -0.075 A 
ATOM      6  C7  UNL d   1       3.490   0.120  -3.507  0.00  0.00     0.076 C 
ATOM      7  C8  UNL d   1       4.290   1.098  -1.336  0.00  0.00     0.001 A 
ENDROOT
BRANCH   1   8
ATOM      8  C1  UNL d   1       5.207   2.124   0.782  0.00  0.00     0.053 C 
ATOM      9  C   UNL d   1       4.670   3.386   1.440  0.00  0.00     0.018 C 
ENDBRANCH   1   8
TORSDOF 1
ENDMDL
