MODEL 1
REMARK minimizedAffinity -1.04493201
REMARK minimizedRMSD -1
REMARK  1 active torsions:
REMARK  status: ('A' for Active; 'I' for Inactive)
REMARK    1  A    between atoms: C1_2  and  C2_3 
ROOT
ATOM      1  C2  UNL d   1       0.215   2.610   0.064  0.00  0.00    -0.073 A 
ATOM      2  C3  UNL d   1       1.348   2.213   0.783  0.00  0.00    -0.002 A 
ATOM      3  C4  UNL d   1       1.949   0.980   0.528  0.00  0.00     0.004 A 
ATOM      4  C5  UNL d   1       1.430   0.136  -0.454  0.00  0.00    -0.004 A 
ATOM      5  C6  UNL d   1       0.306   0.520  -1.192  0.00  0.00    -0.075 A 
ATOM      6  C7  UNL d   1      -0.266  -0.378  -2.249  0.00  0.00     0.076 C 
ATOM      7  C8  UNL d   1      -0.294   1.759  -0.927  0.00  0.00     0.001 A 
ENDROOT
BRANCH   1   8
ATOM      8  C1  UNL d   1      -0.434   3.943   0.332  0.00  0.00     0.053 C 
ATOM      9  C   UNL d   1      -0.881   4.079   1.779  0.00  0.00     0.018 C 
ENDBRANCH   1   8
TORSDOF 1
ENDMDL
