MODEL 1
REMARK minimizedAffinity 3.23601055
REMARK minimizedRMSD -1
REMARK  1 active torsions:
REMARK  status: ('A' for Active; 'I' for Inactive)
REMARK    1  A    between atoms: C1_2  and  C2_3 
ROOT
ATOM      1  C2  UNL d   1       0.446   0.992  -0.619  0.00  0.00    -0.073 A 
ATOM      2  C3  UNL d   1      -0.822   0.462  -0.885  0.00  0.00    -0.002 A 
ATOM      3  C4  UNL d   1      -1.970   1.168  -0.524  0.00  0.00     0.004 A 
ATOM      4  C5  UNL d   1      -1.863   2.411   0.099  0.00  0.00    -0.004 A 
ATOM      5  C6  UNL d   1      -0.605   2.963   0.362  0.00  0.00    -0.075 A 
ATOM      6  C7  UNL d   1      -0.473   4.298   1.033  0.00  0.00     0.076 C 
ATOM      7  C8  UNL d   1       0.543   2.247  -0.001  0.00  0.00     0.001 A 
ENDROOT
BRANCH   1   8
ATOM      8  C1  UNL d   1       1.689   0.236  -1.013  0.00  0.00     0.053 C 
ATOM      9  C   UNL d   1       2.799   0.389   0.015  0.00  0.00     0.018 C 
ENDBRANCH   1   8
TORSDOF 1
ENDMDL
