MODEL 1
REMARK minimizedAffinity 9.71162891
REMARK minimizedRMSD -1
REMARK  1 active torsions:
REMARK  status: ('A' for Active; 'I' for Inactive)
REMARK    1  A    between atoms: C1_2  and  C2_3 
ROOT
ATOM      1  C2  UNL d   1       3.115   0.574   0.456  0.00  0.00    -0.073 A 
ATOM      2  C3  UNL d   1       3.823   0.632  -0.749  0.00  0.00    -0.002 A 
ATOM      3  C4  UNL d   1       3.208   0.268  -1.948  0.00  0.00     0.004 A 
ATOM      4  C5  UNL d   1       1.877  -0.150  -1.954  0.00  0.00    -0.004 A 
ATOM      5  C6  UNL d   1       1.149  -0.204  -0.762  0.00  0.00    -0.075 A 
ATOM      6  C7  UNL d   1      -0.283  -0.654  -0.751  0.00  0.00     0.076 C 
ATOM      7  C8  UNL d   1       1.775   0.161   0.438  0.00  0.00     0.001 A 
ENDROOT
BRANCH   1   8
ATOM      8  C1  UNL d   1       3.773   0.973   1.751  0.00  0.00     0.053 C 
ATOM      9  C   UNL d   1       4.771   2.104   1.559  0.00  0.00     0.018 C 
ENDBRANCH   1   8
TORSDOF 1
ENDMDL
