MODEL 1
REMARK minimizedAffinity 7.19434166
REMARK minimizedRMSD -1
REMARK  1 active torsions:
REMARK  status: ('A' for Active; 'I' for Inactive)
REMARK    1  A    between atoms: C1_2  and  C2_3 
ROOT
ATOM      1  C2  UNL d   1       2.459   0.995   0.280  0.00  0.00    -0.073 A 
ATOM      2  C3  UNL d   1       3.312   0.463  -0.693  0.00  0.00    -0.002 A 
ATOM      3  C4  UNL d   1       2.799   0.010  -1.909  0.00  0.00     0.004 A 
ATOM      4  C5  UNL d   1       1.431   0.090  -2.167  0.00  0.00    -0.004 A 
ATOM      5  C6  UNL d   1       0.563   0.629  -1.211  0.00  0.00    -0.075 A 
ATOM      6  C7  UNL d   1      -0.912   0.720  -1.472  0.00  0.00     0.076 C 
ATOM      7  C8  UNL d   1       1.086   1.080   0.008  0.00  0.00     0.001 A 
ENDROOT
BRANCH   1   8
ATOM      8  C1  UNL d   1       3.010   1.491   1.592  0.00  0.00     0.053 C 
ATOM      9  C   UNL d   1       4.204   2.411   1.397  0.00  0.00     0.018 C 
ENDBRANCH   1   8
TORSDOF 1
ENDMDL
