MODEL 1
REMARK minimizedAffinity 11.2591734
REMARK minimizedRMSD -1
REMARK  1 active torsions:
REMARK  status: ('A' for Active; 'I' for Inactive)
REMARK    1  A    between atoms: C1_2  and  C2_3 
ROOT
ATOM      1  C2  UNL d   1       4.700   1.634  -1.516  0.00  0.00    -0.073 A 
ATOM      2  C3  UNL d   1       3.687   1.278  -2.414  0.00  0.00    -0.002 A 
ATOM      3  C4  UNL d   1       2.589   0.535  -1.979  0.00  0.00     0.004 A 
ATOM      4  C5  UNL d   1       2.489   0.146  -0.643  0.00  0.00    -0.004 A 
ATOM      5  C6  UNL d   1       3.486   0.502   0.272  0.00  0.00    -0.075 A 
ATOM      6  C7  UNL d   1       3.394   0.089   1.712  0.00  0.00     0.076 C 
ATOM      7  C8  UNL d   1       4.586   1.246  -0.173  0.00  0.00     0.001 A 
ENDROOT
BRANCH   1   8
ATOM      8  C1  UNL d   1       5.884   2.443  -1.979  0.00  0.00     0.053 C 
ATOM      9  C   UNL d   1       5.500   3.456  -3.046  0.00  0.00     0.018 C 
ENDBRANCH   1   8
TORSDOF 1
ENDMDL
