MODEL 1
REMARK minimizedAffinity 3.08735418
REMARK minimizedRMSD -1
REMARK  2 active torsions:
REMARK  status: ('A' for Active; 'I' for Inactive)
REMARK    1  A    between atoms: C1_2  and  C2_3 
REMARK    2  A    between atoms: C2_3  and  C3_4 
ROOT
ATOM      1  C3  UNL d   1       4.216  -0.730  -1.381  0.00  0.00    -0.075 A 
ATOM      2  C4  UNL d   1       3.586  -1.378  -0.308  0.00  0.00     0.002 A 
ATOM      3  C5  UNL d   1       3.083  -2.671  -0.458  0.00  0.00     0.002 A 
ATOM      4  C6  UNL d   1       3.194  -3.327  -1.681  0.00  0.00    -0.004 A 
ATOM      5  C7  UNL d   1       3.803  -2.687  -2.759  0.00  0.00     0.002 A 
ATOM      6  C8  UNL d   1       4.311  -1.395  -2.611  0.00  0.00     0.002 A 
ENDROOT
BRANCH   1   7
ATOM      7  C2  UNL d   1       4.788   0.657  -1.217  0.00  0.00     0.056 C 
BRANCH   7   8
ATOM      8  C1  UNL d   1       4.090   1.498  -0.143  0.00  0.00     0.007 C 
ATOM      9  C   UNL d   1       4.877   2.739   0.254  0.00  0.00     0.009 C 
ENDBRANCH   7   8
ENDBRANCH   1   7
TORSDOF 2
ENDMDL
