MODEL 1
REMARK minimizedAffinity 5.92315054
REMARK minimizedRMSD -1
REMARK  2 active torsions:
REMARK  status: ('A' for Active; 'I' for Inactive)
REMARK    1  A    between atoms: C1_2  and  C2_3 
REMARK    2  A    between atoms: C2_3  and  C3_4 
ROOT
ATOM      1  C3  UNL d   1       5.181   1.471  -1.257  0.00  0.00    -0.075 A 
ATOM      2  C4  UNL d   1       3.827   1.156  -1.438  0.00  0.00     0.002 A 
ATOM      3  C5  UNL d   1       3.295  -0.019  -0.906  0.00  0.00     0.002 A 
ATOM      4  C6  UNL d   1       4.111  -0.897  -0.195  0.00  0.00    -0.004 A 
ATOM      5  C7  UNL d   1       5.461  -0.602  -0.023  0.00  0.00     0.002 A 
ATOM      6  C8  UNL d   1       5.995   0.575  -0.551  0.00  0.00     0.002 A 
ENDROOT
BRANCH   1   7
ATOM      7  C2  UNL d   1       5.757   2.755  -1.806  0.00  0.00     0.056 C 
BRANCH   7   8
ATOM      8  C1  UNL d   1       4.943   4.004  -1.452  0.00  0.00     0.007 C 
ATOM      9  C   UNL d   1       5.685   5.303  -1.735  0.00  0.00     0.009 C 
ENDBRANCH   7   8
ENDBRANCH   1   7
TORSDOF 2
ENDMDL
