MODEL 1
REMARK minimizedAffinity 8.79095268
REMARK minimizedRMSD -1
REMARK  2 active torsions:
REMARK  status: ('A' for Active; 'I' for Inactive)
REMARK    1  A    between atoms: C1_2  and  C2_3 
REMARK    2  A    between atoms: C2_3  and  C3_4 
ROOT
ATOM      1  C3  UNL d   1       3.980  -1.292  -0.703  0.00  0.00    -0.075 A 
ATOM      2  C4  UNL d   1       5.372  -1.211  -0.556  0.00  0.00     0.002 A 
ATOM      3  C5  UNL d   1       5.997   0.028  -0.405  0.00  0.00     0.002 A 
ATOM      4  C6  UNL d   1       5.242   1.198  -0.409  0.00  0.00    -0.004 A 
ATOM      5  C7  UNL d   1       3.859   1.130  -0.571  0.00  0.00     0.002 A 
ATOM      6  C8  UNL d   1       3.231  -0.108  -0.718  0.00  0.00     0.002 A 
ENDROOT
BRANCH   1   7
ATOM      7  C2  UNL d   1       3.295  -2.631  -0.837  0.00  0.00     0.056 C 
BRANCH   7   8
ATOM      8  C1  UNL d   1       2.573  -2.831  -2.175  0.00  0.00     0.007 C 
ATOM      9  C   UNL d   1       3.357  -3.692  -3.156  0.00  0.00     0.009 C 
ENDBRANCH   7   8
ENDBRANCH   1   7
TORSDOF 2
ENDMDL
