MODEL 1
REMARK minimizedAffinity 0.111954629
REMARK minimizedRMSD -1
REMARK  2 active torsions:
REMARK  status: ('A' for Active; 'I' for Inactive)
REMARK    1  A    between atoms: C1_2  and  C2_3 
REMARK    2  A    between atoms: C2_3  and  C3_4 
ROOT
ATOM      1  C3  UNL d   1       4.707  -1.131  -1.934  0.00  0.00    -0.075 A 
ATOM      2  C4  UNL d   1       4.959  -1.906  -3.075  0.00  0.00     0.002 A 
ATOM      3  C5  UNL d   1       4.246  -3.082  -3.304  0.00  0.00     0.002 A 
ATOM      4  C6  UNL d   1       3.280  -3.504  -2.393  0.00  0.00    -0.004 A 
ATOM      5  C7  UNL d   1       3.034  -2.751  -1.247  0.00  0.00     0.002 A 
ATOM      6  C8  UNL d   1       3.743  -1.570  -1.017  0.00  0.00     0.002 A 
ENDROOT
BRANCH   1   7
ATOM      7  C2  UNL d   1       5.456   0.159  -1.695  0.00  0.00     0.056 C 
BRANCH   7   8
ATOM      8  C1  UNL d   1       4.584   1.293  -1.146  0.00  0.00     0.007 C 
ATOM      9  C   UNL d   1       5.318   2.624  -1.054  0.00  0.00     0.009 C 
ENDBRANCH   7   8
ENDBRANCH   1   7
TORSDOF 2
ENDMDL
