MODEL 1
REMARK minimizedAffinity 5.43651676
REMARK minimizedRMSD -1
REMARK  2 active torsions:
REMARK  status: ('A' for Active; 'I' for Inactive)
REMARK    1  A    between atoms: C1_2  and  C2_3 
REMARK    2  A    between atoms: C2_3  and  C3_4 
ROOT
ATOM      1  C3  UNL d   1       3.996   4.870   4.659  0.00  0.00    -0.075 A 
ATOM      2  C4  UNL d   1       5.025   5.104   5.584  0.00  0.00     0.002 A 
ATOM      3  C5  UNL d   1       5.864   4.066   5.988  0.00  0.00     0.002 A 
ATOM      4  C6  UNL d   1       5.680   2.780   5.484  0.00  0.00    -0.004 A 
ATOM      5  C7  UNL d   1       4.651   2.532   4.578  0.00  0.00     0.002 A 
ATOM      6  C8  UNL d   1       3.812   3.570   4.168  0.00  0.00     0.002 A 
ENDROOT
BRANCH   1   7
ATOM      7  C2  UNL d   1       3.103   5.995   4.195  0.00  0.00     0.056 C 
BRANCH   7   8
ATOM      8  C1  UNL d   1       1.701   5.975   4.813  0.00  0.00     0.007 C 
ATOM      9  C   UNL d   1       0.587   5.997   3.775  0.00  0.00     0.009 C 
ENDBRANCH   7   8
ENDBRANCH   1   7
TORSDOF 2
ENDMDL
