MODEL 1
REMARK minimizedAffinity 6.57697058
REMARK minimizedRMSD -1
REMARK  2 active torsions:
REMARK  status: ('A' for Active; 'I' for Inactive)
REMARK    1  A    between atoms: C1_2  and  C2_3 
REMARK    2  A    between atoms: C2_3  and  C3_4 
ROOT
ATOM      1  C3  UNL d   1       0.286  -1.341  -0.412  0.00  0.00    -0.075 A 
ATOM      2  C4  UNL d   1       1.028  -0.650   0.557  0.00  0.00     0.002 A 
ATOM      3  C5  UNL d   1       0.806   0.709   0.784  0.00  0.00     0.002 A 
ATOM      4  C6  UNL d   1      -0.152   1.394   0.040  0.00  0.00    -0.004 A 
ATOM      5  C7  UNL d   1      -0.884   0.722  -0.936  0.00  0.00     0.002 A 
ATOM      6  C8  UNL d   1      -0.666  -0.639  -1.162  0.00  0.00     0.002 A 
ENDROOT
BRANCH   1   7
ATOM      7  C2  UNL d   1       0.502  -2.818  -0.641  0.00  0.00     0.056 C 
BRANCH   7   8
ATOM      8  C1  UNL d   1      -0.790  -3.608  -0.875  0.00  0.00     0.007 C 
ATOM      9  C   UNL d   1      -0.814  -4.947  -0.151  0.00  0.00     0.009 C 
ENDBRANCH   7   8
ENDBRANCH   1   7
TORSDOF 2
ENDMDL
