MODEL 1
REMARK minimizedAffinity 16.0001316
REMARK minimizedRMSD -1
REMARK  2 active torsions:
REMARK  status: ('A' for Active; 'I' for Inactive)
REMARK    1  A    between atoms: C1_2  and  C2_3 
REMARK    2  A    between atoms: C2_3  and  C3_4 
ROOT
ATOM      1  C3  UNL d   1       2.935  -1.418  -1.518  0.00  0.00    -0.075 A 
ATOM      2  C4  UNL d   1       3.568  -0.517  -2.388  0.00  0.00     0.002 A 
ATOM      3  C5  UNL d   1       4.242   0.597  -1.887  0.00  0.00     0.002 A 
ATOM      4  C6  UNL d   1       4.284   0.830  -0.514  0.00  0.00    -0.004 A 
ATOM      5  C7  UNL d   1       3.644  -0.049   0.358  0.00  0.00     0.002 A 
ATOM      6  C8  UNL d   1       2.973  -1.166  -0.140  0.00  0.00     0.002 A 
ENDROOT
BRANCH   1   7
ATOM      7  C2  UNL d   1       2.229  -2.641  -2.052  0.00  0.00     0.056 C 
BRANCH   7   8
ATOM      8  C1  UNL d   1       2.312  -2.794  -3.575  0.00  0.00     0.007 C 
ATOM      9  C   UNL d   1       3.644  -3.360  -4.049  0.00  0.00     0.009 C 
ENDBRANCH   7   8
ENDBRANCH   1   7
TORSDOF 2
ENDMDL
