MODEL 1
REMARK minimizedAffinity 4.6469183
REMARK minimizedRMSD -1
REMARK  2 active torsions:
REMARK  status: ('A' for Active; 'I' for Inactive)
REMARK    1  A    between atoms: C1_2  and  C2_3 
REMARK    2  A    between atoms: C2_3  and  C3_4 
ROOT
ATOM      1  C3  UNL d   1       2.859  -1.200  -1.070  0.00  0.00    -0.075 A 
ATOM      2  C4  UNL d   1       3.252  -1.826  -2.262  0.00  0.00     0.002 A 
ATOM      3  C5  UNL d   1       2.809  -3.113  -2.565  0.00  0.00     0.002 A 
ATOM      4  C6  UNL d   1       1.978  -3.795  -1.678  0.00  0.00    -0.004 A 
ATOM      5  C7  UNL d   1       1.595  -3.189  -0.484  0.00  0.00     0.002 A 
ATOM      6  C8  UNL d   1       2.033  -1.899  -0.179  0.00  0.00     0.002 A 
ENDROOT
BRANCH   1   7
ATOM      7  C2  UNL d   1       3.311   0.205  -0.749  0.00  0.00     0.056 C 
BRANCH   7   8
ATOM      8  C1  UNL d   1       4.708   0.546  -1.278  0.00  0.00     0.007 C 
ATOM      9  C   UNL d   1       5.170   1.946  -0.893  0.00  0.00     0.009 C 
ENDBRANCH   7   8
ENDBRANCH   1   7
TORSDOF 2
ENDMDL
