MODEL 1
REMARK minimizedAffinity 5.55273438
REMARK minimizedRMSD -1
REMARK  0 active torsions:
REMARK  status: ('A' for Active; 'I' for Inactive)
ROOT
ATOM      1  N1  IND d   1       3.382   5.993   2.364  0.00  0.00    -0.196 N 
ATOM      2  C2  IND d   1       4.439   5.918   1.499  0.00  0.00     0.054 A 
ATOM      3  C3  IND d   1       5.602   5.842   2.184  0.00  0.00    -0.031 A 
ATOM      4  C4  IND d   1       6.000   5.721   4.724  0.00  0.00     0.051 A 
ATOM      5  C5  IND d   1       5.345   5.792   5.922  0.00  0.00    -0.031 A 
ATOM      6  C6  IND d   1       3.974   5.934   5.996  0.00  0.00     0.015 A 
ATOM      7  C7  IND d   1       3.203   5.999   4.870  0.00  0.00    -0.016 A 
ATOM      8  C8  IND d   1       3.865   5.934   3.652  0.00  0.00    -0.047 A 
ATOM      9  C9  IND d   1       5.260   5.833   3.571  0.00  0.00    -0.096 A 
ATOM     10  HN1 IND d   1       2.555   6.065   2.140  0.00  0.00     0.298 HD
ENDROOT
TORSDOF 0
ENDMDL
