MODEL 1
REMARK minimizedAffinity 11.1668453
REMARK minimizedRMSD -1
REMARK  0 active torsions:
REMARK  status: ('A' for Active; 'I' for Inactive)
ROOT
ATOM      1  N1  IND d   1      -2.362  -2.296  -3.007  0.00  0.00    -0.196 N 
ATOM      2  C2  IND d   1      -3.468  -1.549  -3.306  0.00  0.00     0.054 A 
ATOM      3  C3  IND d   1      -4.462  -1.808  -2.428  0.00  0.00    -0.031 A 
ATOM      4  C4  IND d   1      -4.461  -3.345  -0.363  0.00  0.00     0.051 A 
ATOM      5  C5  IND d   1      -3.692  -4.262   0.297  0.00  0.00    -0.031 A 
ATOM      6  C6  IND d   1      -2.413  -4.575  -0.117  0.00  0.00     0.015 A 
ATOM      7  C7  IND d   1      -1.850  -3.971  -1.206  0.00  0.00    -0.016 A 
ATOM      8  C8  IND d   1      -2.630  -3.045  -1.882  0.00  0.00    -0.047 A 
ATOM      9  C9  IND d   1      -3.944  -2.755  -1.492  0.00  0.00    -0.096 A 
ATOM     10  HN1 IND d   1      -1.624  -2.298  -3.448  0.00  0.00     0.298 HD
ENDROOT
TORSDOF 0
ENDMDL
