MODEL 1
REMARK minimizedAffinity 13.0623522
REMARK minimizedRMSD -1
REMARK  0 active torsions:
REMARK  status: ('A' for Active; 'I' for Inactive)
ROOT
ATOM      1  N1  IND d   1       1.778   3.213  -5.983  0.00  0.00    -0.196 N 
ATOM      2  C2  IND d   1       2.137   1.894  -5.951  0.00  0.00     0.054 A 
ATOM      3  C3  IND d   1       1.037   1.108  -5.914  0.00  0.00    -0.031 A 
ATOM      4  C4  IND d   1      -1.449   1.770  -6.000  0.00  0.00     0.051 A 
ATOM      5  C5  IND d   1      -2.275   2.860  -5.996  0.00  0.00    -0.031 A 
ATOM      6  C6  IND d   1      -1.781   4.148  -5.991  0.00  0.00     0.015 A 
ATOM      7  C7  IND d   1      -0.438   4.397  -6.000  0.00  0.00    -0.016 A 
ATOM      8  C8  IND d   1       0.403   3.293  -5.996  0.00  0.00    -0.047 A 
ATOM      9  C9  IND d   1      -0.092   1.983  -5.959  0.00  0.00    -0.096 A 
ATOM     10  HN1 IND d   1       2.321   3.880  -5.992  0.00  0.00     0.298 HD
ENDROOT
TORSDOF 0
ENDMDL
