MODEL 1
REMARK minimizedAffinity 5.96832561
REMARK minimizedRMSD -1
REMARK  0 active torsions:
REMARK  status: ('A' for Active; 'I' for Inactive)
ROOT
ATOM      1  N1  IND d   1      -2.405  -1.774   4.391  0.00  0.00    -0.196 N 
ATOM      2  C2  IND d   1      -1.608  -1.300   3.387  0.00  0.00     0.054 A 
ATOM      3  C3  IND d   1      -2.333  -1.103   2.264  0.00  0.00    -0.031 A 
ATOM      4  C4  IND d   1      -4.862  -1.396   1.878  0.00  0.00     0.051 A 
ATOM      5  C5  IND d   1      -6.000  -1.842   2.488  0.00  0.00    -0.031 A 
ATOM      6  C6  IND d   1      -5.999  -2.295   3.792  0.00  0.00     0.015 A 
ATOM      7  C7  IND d   1      -4.856  -2.308   4.540  0.00  0.00    -0.016 A 
ATOM      8  C8  IND d   1      -3.697  -1.862   3.921  0.00  0.00    -0.047 A 
ATOM      9  C9  IND d   1      -3.684  -1.441   2.585  0.00  0.00    -0.096 A 
ATOM     10  HN1 IND d   1      -2.143  -1.982   5.184  0.00  0.00     0.298 HD
ENDROOT
TORSDOF 0
ENDMDL
