MODEL 1
REMARK minimizedAffinity 1.74092162
REMARK minimizedRMSD -1
REMARK  0 active torsions:
REMARK  status: ('A' for Active; 'I' for Inactive)
ROOT
ATOM      1  N1  IND d   1       1.840  -2.895   0.720  0.00  0.00    -0.196 N 
ATOM      2  C2  IND d   1       2.398  -3.146  -0.503  0.00  0.00     0.054 A 
ATOM      3  C3  IND d   1       1.443  -3.161  -1.460  0.00  0.00    -0.031 A 
ATOM      4  C4  IND d   1      -1.081  -2.697  -1.261  0.00  0.00     0.051 A 
ATOM      5  C5  IND d   1      -2.063  -2.457  -0.341  0.00  0.00    -0.031 A 
ATOM      6  C6  IND d   1      -1.788  -2.346   1.007  0.00  0.00     0.015 A 
ATOM      7  C7  IND d   1      -0.513  -2.460   1.485  0.00  0.00    -0.016 A 
ATOM      8  C8  IND d   1       0.485  -2.711   0.555  0.00  0.00    -0.047 A 
ATOM      9  C9  IND d   1       0.206  -2.867  -0.809  0.00  0.00    -0.096 A 
ATOM     10  HN1 IND d   1       2.265  -2.859   1.467  0.00  0.00     0.298 HD
ENDROOT
TORSDOF 0
ENDMDL
