MODEL 1
REMARK minimizedAffinity 3.08117318
REMARK minimizedRMSD -1
REMARK  0 active torsions:
REMARK  status: ('A' for Active; 'I' for Inactive)
ROOT
ATOM      1  N1  IND d   1       5.294   5.867   2.068  0.00  0.00    -0.196 N 
ATOM      2  C2  IND d   1       4.133   5.840   1.347  0.00  0.00     0.054 A 
ATOM      3  C3  IND d   1       3.064   5.842   2.175  0.00  0.00    -0.031 A 
ATOM      4  C4  IND d   1       2.986   5.991   4.744  0.00  0.00     0.051 A 
ATOM      5  C5  IND d   1       3.793   5.999   5.847  0.00  0.00    -0.031 A 
ATOM      6  C6  IND d   1       5.168   5.966   5.745  0.00  0.00     0.015 A 
ATOM      7  C7  IND d   1       5.792   5.934   4.530  0.00  0.00    -0.016 A 
ATOM      8  C8  IND d   1       4.976   5.919   3.408  0.00  0.00    -0.047 A 
ATOM      9  C9  IND d   1       3.579   5.910   3.506  0.00  0.00    -0.096 A 
ATOM     10  HN1 IND d   1       6.089   5.854   1.740  0.00  0.00     0.298 HD
ENDROOT
TORSDOF 0
ENDMDL
