MODEL 1
REMARK minimizedAffinity 9.33095837
REMARK minimizedRMSD -1
REMARK  0 active torsions:
REMARK  status: ('A' for Active; 'I' for Inactive)
ROOT
ATOM      1  N1  IND d   1       3.057   5.803   2.486  0.00  0.00    -0.196 N 
ATOM      2  C2  IND d   1       3.984   5.852   1.482  0.00  0.00     0.054 A 
ATOM      3  C3  IND d   1       5.229   5.957   1.996  0.00  0.00    -0.031 A 
ATOM      4  C4  IND d   1       5.988   5.962   4.456  0.00  0.00     0.051 A 
ATOM      5  C5  IND d   1       5.502   5.975   5.733  0.00  0.00    -0.031 A 
ATOM      6  C6  IND d   1       4.149   5.926   5.999  0.00  0.00     0.015 A 
ATOM      7  C7  IND d   1       3.228   5.852   4.992  0.00  0.00    -0.016 A 
ATOM      8  C8  IND d   1       3.717   5.847   3.694  0.00  0.00    -0.047 A 
ATOM      9  C9  IND d   1       5.088   5.939   3.417  0.00  0.00    -0.096 A 
ATOM     10  HN1 IND d   1       2.205   5.753   2.380  0.00  0.00     0.298 HD
ENDROOT
TORSDOF 0
ENDMDL
