MODEL 1
REMARK minimizedAffinity -1.24976504
REMARK minimizedRMSD -1
REMARK  0 active torsions:
REMARK  status: ('A' for Active; 'I' for Inactive)
ROOT
ATOM      1  N1  IND d   1       2.624  -0.301   0.931  0.00  0.00    -0.196 N 
ATOM      2  C2  IND d   1       2.123   0.865   1.440  0.00  0.00     0.054 A 
ATOM      3  C3  IND d   1       0.772   0.834   1.445  0.00  0.00    -0.031 A 
ATOM      4  C4  IND d   1      -0.823  -1.067   0.761  0.00  0.00     0.051 A 
ATOM      5  C5  IND d   1      -0.836  -2.314   0.200  0.00  0.00    -0.031 A 
ATOM      6  C6  IND d   1       0.328  -2.967  -0.150  0.00  0.00     0.015 A 
ATOM      7  C7  IND d   1       1.554  -2.401   0.059  0.00  0.00    -0.016 A 
ATOM      8  C8  IND d   1       1.570  -1.132   0.621  0.00  0.00    -0.047 A 
ATOM      9  C9  IND d   1       0.390  -0.447   0.939  0.00  0.00    -0.096 A 
ATOM     10  HN1 IND d   1       3.457  -0.484   0.822  0.00  0.00     0.298 HD
ENDROOT
TORSDOF 0
ENDMDL
