MODEL 1
REMARK minimizedAffinity 9.43236923
REMARK minimizedRMSD -1
REMARK  0 active torsions:
REMARK  status: ('A' for Active; 'I' for Inactive)
ROOT
ATOM      1  N1  IND d   1       1.653  -4.760   4.567  0.00  0.00    -0.196 N 
ATOM      2  C2  IND d   1       0.852  -5.813   4.913  0.00  0.00     0.054 A 
ATOM      3  C3  IND d   1      -0.111  -5.997   3.983  0.00  0.00    -0.031 A 
ATOM      4  C4  IND d   1      -0.498  -4.755   1.761  0.00  0.00     0.051 A 
ATOM      5  C5  IND d   1      -0.046  -3.695   1.027  0.00  0.00    -0.031 A 
ATOM      6  C6  IND d   1       1.018  -2.921   1.442  0.00  0.00     0.015 A 
ATOM      7  C7  IND d   1       1.681  -3.188   2.607  0.00  0.00    -0.016 A 
ATOM      8  C8  IND d   1       1.220  -4.259   3.359  0.00  0.00    -0.047 A 
ATOM      9  C9  IND d   1       0.114  -5.022   2.963  0.00  0.00    -0.096 A 
ATOM     10  HN1 IND d   1       2.315  -4.461   5.026  0.00  0.00     0.298 HD
ENDROOT
TORSDOF 0
ENDMDL
