MODEL 1
REMARK minimizedAffinity 0.15292269
REMARK minimizedRMSD -1
REMARK  0 active torsions:
REMARK  status: ('A' for Active; 'I' for Inactive)
ROOT
ATOM      1  N1  IND d   1      -2.553   0.371   3.203  0.00  0.00    -0.196 N 
ATOM      2  C2  IND d   1      -1.800   1.496   3.399  0.00  0.00     0.054 A 
ATOM      3  C3  IND d   1      -2.113   2.436   2.479  0.00  0.00    -0.031 A 
ATOM      4  C4  IND d   1      -3.899   2.383   0.626  0.00  0.00     0.051 A 
ATOM      5  C5  IND d   1      -4.812   1.557   0.034  0.00  0.00    -0.031 A 
ATOM      6  C6  IND d   1      -5.025   0.268   0.478  0.00  0.00     0.015 A 
ATOM      7  C7  IND d   1      -4.338  -0.241   1.543  0.00  0.00    -0.016 A 
ATOM      8  C8  IND d   1      -3.405   0.593   2.143  0.00  0.00    -0.047 A 
ATOM      9  C9  IND d   1      -3.154   1.887   1.670  0.00  0.00    -0.096 A 
ATOM     10  HN1 IND d   1      -2.503  -0.352   3.665  0.00  0.00     0.298 HD
ENDROOT
TORSDOF 0
ENDMDL
