MODEL 1
REMARK minimizedAffinity 4.76754856
REMARK minimizedRMSD -1
REMARK  0 active torsions:
REMARK  status: ('A' for Active; 'I' for Inactive)
ROOT
ATOM      1  N1  IND d   1       1.047   2.994  -5.998  0.00  0.00    -0.196 N 
ATOM      2  C2  IND d   1       1.902   2.417  -5.102  0.00  0.00     0.054 A 
ATOM      3  C3  IND d   1       1.227   2.007  -4.004  0.00  0.00    -0.031 A 
ATOM      4  C4  IND d   1      -1.299   2.091  -3.512  0.00  0.00     0.051 A 
ATOM      5  C5  IND d   1      -2.479   2.561  -4.015  0.00  0.00    -0.031 A 
ATOM      6  C6  IND d   1      -2.547   3.210  -5.231  0.00  0.00     0.015 A 
ATOM      7  C7  IND d   1      -1.433   3.404  -5.998  0.00  0.00    -0.016 A 
ATOM      8  C8  IND d   1      -0.231   2.934  -5.486  0.00  0.00    -0.047 A 
ATOM      9  C9  IND d   1      -0.150   2.313  -4.234  0.00  0.00    -0.096 A 
ATOM     10  HN1 IND d   1       1.269   3.337  -6.754  0.00  0.00     0.298 HD
ENDROOT
TORSDOF 0
ENDMDL
