MODEL 1
REMARK minimizedAffinity 0.650864542
REMARK minimizedRMSD -1
REMARK  0 active torsions:
REMARK  status: ('A' for Active; 'I' for Inactive)
ROOT
ATOM      1  N1  IND d   1       3.176  -0.772  -0.982  0.00  0.00    -0.196 N 
ATOM      2  C2  IND d   1       2.810   0.251  -0.153  0.00  0.00     0.054 A 
ATOM      3  C3  IND d   1       2.016  -0.209   0.840  0.00  0.00    -0.031 A 
ATOM      4  C4  IND d   1       1.272  -2.619   1.354  0.00  0.00     0.051 A 
ATOM      5  C5  IND d   1       1.323  -3.892   0.858  0.00  0.00    -0.031 A 
ATOM      6  C6  IND d   1       2.011  -4.196  -0.299  0.00  0.00     0.015 A 
ATOM      7  C7  IND d   1       2.686  -3.237  -0.999  0.00  0.00    -0.016 A 
ATOM      8  C8  IND d   1       2.630  -1.942  -0.503  0.00  0.00    -0.047 A 
ATOM      9  C9  IND d   1       1.898  -1.620   0.647  0.00  0.00    -0.096 A 
ATOM     10  HN1 IND d   1       3.665  -0.697  -1.686  0.00  0.00     0.298 HD
ENDROOT
TORSDOF 0
ENDMDL
