MODEL 1
REMARK minimizedAffinity 8.44018459
REMARK minimizedRMSD -1
REMARK  0 active torsions:
REMARK  status: ('A' for Active; 'I' for Inactive)
ROOT
ATOM      1  N1  IND d   1       1.824   1.802  -3.814  0.00  0.00    -0.196 N 
ATOM      2  C2  IND d   1       2.552   1.723  -4.969  0.00  0.00     0.054 A 
ATOM      3  C3  IND d   1       1.856   2.253  -6.000  0.00  0.00    -0.031 A 
ATOM      4  C4  IND d   1      -0.451   3.396  -6.000  0.00  0.00     0.051 A 
ATOM      5  C5  IND d   1      -1.516   3.674  -5.189  0.00  0.00    -0.031 A 
ATOM      6  C6  IND d   1      -1.520   3.337  -3.851  0.00  0.00     0.015 A 
ATOM      7  C7  IND d   1      -0.451   2.718  -3.269  0.00  0.00    -0.016 A 
ATOM      8  C8  IND d   1       0.629   2.428  -4.090  0.00  0.00    -0.047 A 
ATOM      9  C9  IND d   1       0.622   2.729  -5.458  0.00  0.00    -0.096 A 
ATOM     10  HN1 IND d   1       2.072   1.509  -3.044  0.00  0.00     0.298 HD
ENDROOT
TORSDOF 0
ENDMDL
