MODEL 1
REMARK minimizedAffinity -3.94721937
REMARK minimizedRMSD -1
REMARK  0 active torsions:
REMARK  status: ('A' for Active; 'I' for Inactive)
ROOT
ATOM      1  N1  IND d   1       1.597  -2.919   0.901  0.00  0.00    -0.196 N 
ATOM      2  C2  IND d   1       2.525  -3.435   0.040  0.00  0.00     0.054 A 
ATOM      3  C3  IND d   1       1.925  -3.877  -1.088  0.00  0.00    -0.031 A 
ATOM      4  C4  IND d   1      -0.553  -3.761  -1.776  0.00  0.00     0.051 A 
ATOM      5  C5  IND d   1      -1.786  -3.409  -1.304  0.00  0.00    -0.031 A 
ATOM      6  C6  IND d   1      -1.958  -2.863  -0.049  0.00  0.00     0.015 A 
ATOM      7  C7  IND d   1      -0.897  -2.636   0.781  0.00  0.00    -0.016 A 
ATOM      8  C8  IND d   1       0.357  -2.998   0.308  0.00  0.00    -0.047 A 
ATOM      9  C9  IND d   1       0.532  -3.593  -0.949  0.00  0.00    -0.096 A 
ATOM     10  HN1 IND d   1       1.761  -2.599   1.682  0.00  0.00     0.298 HD
ENDROOT
TORSDOF 0
ENDMDL
