MODEL 1
REMARK minimizedAffinity 3.41633272
REMARK minimizedRMSD -1
REMARK  0 active torsions:
REMARK  status: ('A' for Active; 'I' for Inactive)
ROOT
ATOM      1  N1  IND d   1      -0.616  -0.086   1.909  0.00  0.00    -0.196 N 
ATOM      2  C2  IND d   1      -0.771  -1.420   1.653  0.00  0.00     0.054 A 
ATOM      3  C3  IND d   1      -2.057  -1.690   1.333  0.00  0.00    -0.031 A 
ATOM      4  C4  IND d   1      -4.050  -0.082   1.068  0.00  0.00     0.051 A 
ATOM      5  C5  IND d   1      -4.407   1.226   1.233  0.00  0.00    -0.031 A 
ATOM      6  C6  IND d   1      -3.500   2.185   1.637  0.00  0.00     0.015 A 
ATOM      7  C7  IND d   1      -2.193   1.870   1.881  0.00  0.00    -0.016 A 
ATOM      8  C8  IND d   1      -1.828   0.541   1.722  0.00  0.00    -0.047 A 
ATOM      9  C9  IND d   1      -2.754  -0.444   1.353  0.00  0.00    -0.096 A 
ATOM     10  HN1 IND d   1       0.116   0.298   2.147  0.00  0.00     0.298 HD
ENDROOT
TORSDOF 0
ENDMDL
