MODEL 1
REMARK minimizedAffinity 3.52182174
REMARK minimizedRMSD -1
REMARK  0 active torsions:
REMARK  status: ('A' for Active; 'I' for Inactive)
ROOT
ATOM      1  N1  IND d   1       3.329   5.861   1.695  0.00  0.00    -0.196 N 
ATOM      2  C2  IND d   1       4.386   5.900   0.830  0.00  0.00     0.054 A 
ATOM      3  C3  IND d   1       5.551   5.957   1.513  0.00  0.00    -0.031 A 
ATOM      4  C4  IND d   1       5.961   5.895   4.054  0.00  0.00     0.051 A 
ATOM      5  C5  IND d   1       5.302   5.899   5.252  0.00  0.00    -0.031 A 
ATOM      6  C6  IND d   1       3.925   5.888   5.327  0.00  0.00     0.015 A 
ATOM      7  C7  IND d   1       3.151   5.860   4.201  0.00  0.00    -0.016 A 
ATOM      8  C8  IND d   1       3.816   5.863   2.983  0.00  0.00    -0.047 A 
ATOM      9  C9  IND d   1       5.213   5.918   2.901  0.00  0.00    -0.096 A 
ATOM     10  HN1 IND d   1       2.498   5.839   1.471  0.00  0.00     0.298 HD
ENDROOT
TORSDOF 0
ENDMDL
