MODEL 1
REMARK minimizedAffinity -3.5063796
REMARK minimizedRMSD -1
REMARK  0 active torsions:
REMARK  status: ('A' for Active; 'I' for Inactive)
ROOT
ATOM      1  N1  IND d   1      -4.819   1.961   0.044  0.00  0.00    -0.196 N 
ATOM      2  C2  IND d   1      -5.423   1.253   1.046  0.00  0.00     0.054 A 
ATOM      3  C3  IND d   1      -4.508   0.524   1.724  0.00  0.00    -0.031 A 
ATOM      4  C4  IND d   1      -1.954   0.418   1.425  0.00  0.00     0.051 A 
ATOM      5  C5  IND d   1      -0.944   0.861   0.617  0.00  0.00    -0.031 A 
ATOM      6  C6  IND d   1      -1.179   1.712  -0.443  0.00  0.00     0.015 A 
ATOM      7  C7  IND d   1      -2.437   2.164  -0.729  0.00  0.00    -0.016 A 
ATOM      8  C8  IND d   1      -3.465   1.710   0.085  0.00  0.00    -0.047 A 
ATOM      9  C9  IND d   1      -3.239   0.813   1.137  0.00  0.00    -0.096 A 
ATOM     10  HN1 IND d   1      -5.218   2.476  -0.517  0.00  0.00     0.298 HD
ENDROOT
TORSDOF 0
ENDMDL
