MODEL 1
REMARK minimizedAffinity 2.11360025
REMARK minimizedRMSD -1
REMARK  0 active torsions:
REMARK  status: ('A' for Active; 'I' for Inactive)
ROOT
ATOM      1  C   UNL d   1       4.496   2.034   5.980  0.00  0.00     0.020 A 
ATOM      2  C1  UNL d   1       3.110   1.883   5.994  0.00  0.00     0.020 A 
ATOM      3  C2  UNL d   1       2.285   3.010   6.000  0.00  0.00     0.034 A 
ATOM      4  C3  UNL d   1       2.846   4.293   5.992  0.00  0.00     0.017 A 
ATOM      5  C4  UNL d   1       4.237   4.443   5.978  0.00  0.00     0.017 A 
ATOM      6  C5  UNL d   1       5.058   3.311   5.971  0.00  0.00     0.034 A 
ATOM      7 Cl   UNL d   1       5.002   5.993   5.967  0.00  0.00    -0.070 Cl
ATOM      8 Cl1  UNL d   1       1.766   5.641   6.000  0.00  0.00    -0.070 Cl
ENDROOT
TORSDOF 0
ENDMDL
