MODEL 1
REMARK minimizedAffinity 4.08572197
REMARK minimizedRMSD -1
REMARK  0 active torsions:
REMARK  status: ('A' for Active; 'I' for Inactive)
ROOT
ATOM      1  C   UNL d   1       3.086  -1.475  -1.289  0.00  0.00     0.020 A 
ATOM      2  C1  UNL d   1       3.344  -1.894   0.015  0.00  0.00     0.020 A 
ATOM      3  C2  UNL d   1       3.997  -1.040   0.907  0.00  0.00     0.034 A 
ATOM      4  C3  UNL d   1       4.394   0.237   0.495  0.00  0.00     0.017 A 
ATOM      5  C4  UNL d   1       4.134   0.657  -0.814  0.00  0.00     0.017 A 
ATOM      6  C5  UNL d   1       3.480  -0.202  -1.703  0.00  0.00     0.034 A 
ATOM      7 Cl   UNL d   1       4.593   2.219  -1.395  0.00  0.00    -0.070 Cl
ATOM      8 Cl1  UNL d   1       5.197   1.240   1.651  0.00  0.00    -0.070 Cl
ENDROOT
TORSDOF 0
ENDMDL
