MODEL 1
REMARK minimizedAffinity 4.00353909
REMARK minimizedRMSD -1
REMARK  0 active torsions:
REMARK  status: ('A' for Active; 'I' for Inactive)
ROOT
ATOM      1  C   UNL d   1       1.131  -1.478   4.459  0.00  0.00     0.020 A 
ATOM      2  C1  UNL d   1       1.918  -1.874   5.540  0.00  0.00     0.020 A 
ATOM      3  C2  UNL d   1       1.861  -3.192   5.999  0.00  0.00     0.034 A 
ATOM      4  C3  UNL d   1       1.015  -4.118   5.377  0.00  0.00     0.017 A 
ATOM      5  C4  UNL d   1       0.225  -3.719   4.292  0.00  0.00     0.017 A 
ATOM      6  C5  UNL d   1       0.287  -2.398   3.837  0.00  0.00     0.034 A 
ATOM      7 Cl   UNL d   1      -0.842  -4.804   3.474  0.00  0.00    -0.070 Cl
ATOM      8 Cl1  UNL d   1       0.995  -5.731   5.997  0.00  0.00    -0.070 Cl
ENDROOT
TORSDOF 0
ENDMDL
