MODEL 1
REMARK minimizedAffinity 6.30977869
REMARK minimizedRMSD -1
REMARK  0 active torsions:
REMARK  status: ('A' for Active; 'I' for Inactive)
ROOT
ATOM      1  C   UNL d   1       1.826  -3.012   0.367  0.00  0.00     0.020 A 
ATOM      2  C1  UNL d   1       2.250  -2.014   1.243  0.00  0.00     0.020 A 
ATOM      3  C2  UNL d   1       2.819  -0.841   0.743  0.00  0.00     0.034 A 
ATOM      4  C3  UNL d   1       2.966  -0.664  -0.638  0.00  0.00     0.017 A 
ATOM      5  C4  UNL d   1       2.540  -1.667  -1.516  0.00  0.00     0.017 A 
ATOM      6  C5  UNL d   1       1.971  -2.839  -1.010  0.00  0.00     0.034 A 
ATOM      7 Cl   UNL d   1       2.689  -1.520  -3.232  0.00  0.00    -0.070 Cl
ATOM      8 Cl1  UNL d   1       3.677   0.812  -1.187  0.00  0.00    -0.070 Cl
ENDROOT
TORSDOF 0
ENDMDL
