MODEL 1
REMARK minimizedAffinity 1.78545368
REMARK minimizedRMSD -1
REMARK  0 active torsions:
REMARK  status: ('A' for Active; 'I' for Inactive)
ROOT
ATOM      1  C   UNL d   1       5.878   2.965   5.257  0.00  0.00     0.020 A 
ATOM      2  C1  UNL d   1       5.726   4.351   5.257  0.00  0.00     0.020 A 
ATOM      3  C2  UNL d   1       4.470   4.916   5.488  0.00  0.00     0.034 A 
ATOM      4  C3  UNL d   1       3.361   4.095   5.720  0.00  0.00     0.017 A 
ATOM      5  C4  UNL d   1       3.514   2.704   5.721  0.00  0.00     0.017 A 
ATOM      6  C5  UNL d   1       4.774   2.143   5.489  0.00  0.00     0.034 A 
ATOM      7 Cl   UNL d   1       2.192   1.626   6.000  0.00  0.00    -0.070 Cl
ATOM      8 Cl1  UNL d   1       1.838   4.862   5.999  0.00  0.00    -0.070 Cl
ENDROOT
TORSDOF 0
ENDMDL
