MODEL 1
REMARK minimizedAffinity 2.22955656
REMARK minimizedRMSD -1
REMARK  0 active torsions:
REMARK  status: ('A' for Active; 'I' for Inactive)
ROOT
ATOM      1  C   UNL d   1       2.411   4.831   5.785  0.00  0.00     0.020 A 
ATOM      2  C1  UNL d   1       3.602   5.385   5.315  0.00  0.00     0.020 A 
ATOM      3  C2  UNL d   1       4.697   4.562   5.049  0.00  0.00     0.034 A 
ATOM      4  C3  UNL d   1       4.606   3.180   5.252  0.00  0.00     0.017 A 
ATOM      5  C4  UNL d   1       3.410   2.625   5.723  0.00  0.00     0.017 A 
ATOM      6  C5  UNL d   1       2.316   3.454   5.989  0.00  0.00     0.034 A 
ATOM      7 Cl   UNL d   1       3.221   0.929   5.999  0.00  0.00    -0.070 Cl
ATOM      8 Cl1  UNL d   1       6.000   2.222   4.901  0.00  0.00    -0.070 Cl
ENDROOT
TORSDOF 0
ENDMDL
