MODEL 1
REMARK minimizedAffinity 7.95378828
REMARK minimizedRMSD -1
REMARK  0 active torsions:
REMARK  status: ('A' for Active; 'I' for Inactive)
ROOT
ATOM      1  C   UNL d   1       4.135   1.170   5.630  0.00  0.00     0.020 A 
ATOM      2  C1  UNL d   1       5.445   1.617   5.463  0.00  0.00     0.020 A 
ATOM      3  C2  UNL d   1       5.721   2.985   5.461  0.00  0.00     0.034 A 
ATOM      4  C3  UNL d   1       4.686   3.913   5.625  0.00  0.00     0.017 A 
ATOM      5  C4  UNL d   1       3.371   3.464   5.792  0.00  0.00     0.017 A 
ATOM      6  C5  UNL d   1       3.100   2.092   5.794  0.00  0.00     0.034 A 
ATOM      7 Cl   UNL d   1       2.040   4.547   6.000  0.00  0.00    -0.070 Cl
ATOM      8 Cl1  UNL d   1       5.100   5.590   5.612  0.00  0.00    -0.070 Cl
ENDROOT
TORSDOF 0
ENDMDL
