MODEL 1
REMARK minimizedAffinity 0.593402445
REMARK minimizedRMSD -1
REMARK  0 active torsions:
REMARK  status: ('A' for Active; 'I' for Inactive)
ROOT
ATOM      1  C   UNL d   1       3.137   4.908   5.645  0.00  0.00     0.020 A 
ATOM      2  C1  UNL d   1       2.039   4.122   5.990  0.00  0.00     0.020 A 
ATOM      3  C2  UNL d   1       2.152   2.730   6.000  0.00  0.00     0.034 A 
ATOM      4  C3  UNL d   1       3.366   2.120   5.664  0.00  0.00     0.017 A 
ATOM      5  C4  UNL d   1       4.468   2.910   5.318  0.00  0.00     0.017 A 
ATOM      6  C5  UNL d   1       4.349   4.303   5.310  0.00  0.00     0.034 A 
ATOM      7 Cl   UNL d   1       5.999   2.230   4.892  0.00  0.00    -0.070 Cl
ATOM      8 Cl1  UNL d   1       3.434   0.394   5.698  0.00  0.00    -0.070 Cl
ENDROOT
TORSDOF 0
ENDMDL
