MODEL 1
REMARK minimizedAffinity -0.843171477
REMARK minimizedRMSD -1
REMARK  0 active torsions:
REMARK  status: ('A' for Active; 'I' for Inactive)
ROOT
ATOM      1  C   UNL d   1       4.858   4.576   5.999  0.00  0.00     0.020 A 
ATOM      2  C1  UNL d   1       5.601   4.981   4.891  0.00  0.00     0.020 A 
ATOM      3  C2  UNL d   1       5.656   4.171   3.754  0.00  0.00     0.034 A 
ATOM      4  C3  UNL d   1       4.968   2.953   3.723  0.00  0.00     0.017 A 
ATOM      5  C4  UNL d   1       4.223   2.547   4.837  0.00  0.00     0.017 A 
ATOM      6  C5  UNL d   1       4.171   3.362   5.972  0.00  0.00     0.034 A 
ATOM      7 Cl   UNL d   1       3.347   1.057   4.873  0.00  0.00    -0.070 Cl
ATOM      8 Cl1  UNL d   1       5.081   2.002   2.285  0.00  0.00    -0.070 Cl
ENDROOT
TORSDOF 0
ENDMDL
