MODEL 1
REMARK minimizedAffinity 7.5249815
REMARK minimizedRMSD -1
REMARK  0 active torsions:
REMARK  status: ('A' for Active; 'I' for Inactive)
ROOT
ATOM      1  C   UNL d   1       0.177   0.662  -1.453  0.00  0.00     0.020 A 
ATOM      2  C1  UNL d   1       0.538   1.775  -2.212  0.00  0.00     0.020 A 
ATOM      3  C2  UNL d   1       0.487   3.051  -1.647  0.00  0.00     0.034 A 
ATOM      4  C3  UNL d   1       0.074   3.217  -0.320  0.00  0.00     0.017 A 
ATOM      5  C4  UNL d   1      -0.288   2.099   0.441  0.00  0.00     0.017 A 
ATOM      6  C5  UNL d   1      -0.235   0.824  -0.130  0.00  0.00     0.034 A 
ATOM      7 Cl   UNL d   1      -0.808   2.225   2.084  0.00  0.00    -0.070 Cl
ATOM      8 Cl1  UNL d   1       0.035   4.824   0.315  0.00  0.00    -0.070 Cl
ENDROOT
TORSDOF 0
ENDMDL
