MODEL 1
REMARK minimizedAffinity 2.65796328
REMARK minimizedRMSD -1
REMARK  0 active torsions:
REMARK  status: ('A' for Active; 'I' for Inactive)
ROOT
ATOM      1  C   UNL d   1       0.129   4.636  -1.114  0.00  0.00     0.020 A 
ATOM      2  C1  UNL d   1      -0.778   4.876  -0.083  0.00  0.00     0.020 A 
ATOM      3  C2  UNL d   1      -1.234   3.817   0.706  0.00  0.00     0.034 A 
ATOM      4  C3  UNL d   1      -0.784   2.514   0.464  0.00  0.00     0.017 A 
ATOM      5  C4  UNL d   1       0.126   2.275  -0.572  0.00  0.00     0.017 A 
ATOM      6  C5  UNL d   1       0.580   3.338  -1.358  0.00  0.00     0.034 A 
ATOM      7 Cl   UNL d   1       0.727   0.694  -0.931  0.00  0.00    -0.070 Cl
ATOM      8 Cl1  UNL d   1      -1.390   1.254   1.478  0.00  0.00    -0.070 Cl
ENDROOT
TORSDOF 0
ENDMDL
