MODEL 1
REMARK minimizedAffinity 4.58932734
REMARK minimizedRMSD -1
REMARK  0 active torsions:
REMARK  status: ('A' for Active; 'I' for Inactive)
ROOT
ATOM      1  C   UNL d   1      -2.329   4.355   0.873  0.00  0.00     0.020 A 
ATOM      2  C1  UNL d   1      -0.978   4.350   0.530  0.00  0.00     0.020 A 
ATOM      3  C2  UNL d   1      -0.155   3.301   0.946  0.00  0.00     0.034 A 
ATOM      4  C3  UNL d   1      -0.683   2.252   1.707  0.00  0.00     0.017 A 
ATOM      5  C4  UNL d   1      -2.040   2.257   2.050  0.00  0.00     0.017 A 
ATOM      6  C5  UNL d   1      -2.859   3.310   1.631  0.00  0.00     0.034 A 
ATOM      7 Cl   UNL d   1      -2.764   0.998   2.987  0.00  0.00    -0.070 Cl
ATOM      8 Cl1  UNL d   1       0.391   0.987   2.186  0.00  0.00    -0.070 Cl
ENDROOT
TORSDOF 0
ENDMDL
