MODEL 1
REMARK minimizedAffinity 7.59567404
REMARK minimizedRMSD -1
REMARK  0 active torsions:
REMARK  status: ('A' for Active; 'I' for Inactive)
ROOT
ATOM      1  C   UNL d   1      -1.711   2.151   1.262  0.00  0.00     0.020 A 
ATOM      2  C1  UNL d   1      -1.885   3.509   0.996  0.00  0.00     0.020 A 
ATOM      3  C2  UNL d   1      -1.094   4.139   0.033  0.00  0.00     0.034 A 
ATOM      4  C3  UNL d   1      -0.125   3.411  -0.667  0.00  0.00     0.017 A 
ATOM      5  C4  UNL d   1       0.050   2.049  -0.400  0.00  0.00     0.017 A 
ATOM      6  C5  UNL d   1      -0.745   1.423   0.566  0.00  0.00     0.034 A 
ATOM      7 Cl   UNL d   1       1.225   1.085  -1.223  0.00  0.00    -0.070 Cl
ATOM      8 Cl1  UNL d   1       0.818   4.255  -1.845  0.00  0.00    -0.070 Cl
ENDROOT
TORSDOF 0
ENDMDL
