MODEL 1
REMARK minimizedAffinity 1.02229667
REMARK minimizedRMSD -1
REMARK  0 active torsions:
REMARK  status: ('A' for Active; 'I' for Inactive)
ROOT
ATOM      1  C   UNL d   1      -2.672   3.127   1.458  0.00  0.00     0.020 A 
ATOM      2  C1  UNL d   1      -2.400   1.977   2.199  0.00  0.00     0.020 A 
ATOM      3  C2  UNL d   1      -1.266   1.214   1.913  0.00  0.00     0.034 A 
ATOM      4  C3  UNL d   1      -0.399   1.600   0.884  0.00  0.00     0.017 A 
ATOM      5  C4  UNL d   1      -0.673   2.754   0.141  0.00  0.00     0.017 A 
ATOM      6  C5  UNL d   1      -1.810   3.514   0.431  0.00  0.00     0.034 A 
ATOM      7 Cl   UNL d   1       0.349   3.293  -1.144  0.00  0.00    -0.070 Cl
ATOM      8 Cl1  UNL d   1       0.984   0.609   0.585  0.00  0.00    -0.070 Cl
ENDROOT
TORSDOF 0
ENDMDL
