MODEL 1
REMARK minimizedAffinity 3.65944314
REMARK minimizedRMSD -1
REMARK  0 active torsions:
REMARK  status: ('A' for Active; 'I' for Inactive)
ROOT
ATOM      1  C   UNL d   1      -0.695   3.722  -0.622  0.00  0.00     0.020 A 
ATOM      2  C1  UNL d   1      -1.715   3.874   0.317  0.00  0.00     0.020 A 
ATOM      3  C2  UNL d   1      -1.994   2.844   1.218  0.00  0.00     0.034 A 
ATOM      4  C3  UNL d   1      -1.252   1.658   1.183  0.00  0.00     0.017 A 
ATOM      5  C4  UNL d   1      -0.229   1.506   0.240  0.00  0.00     0.017 A 
ATOM      6  C5  UNL d   1       0.046   2.540  -0.660  0.00  0.00     0.034 A 
ATOM      7 Cl   UNL d   1       0.729   0.071   0.135  0.00  0.00    -0.070 Cl
ATOM      8 Cl1  UNL d   1      -1.651   0.426   2.327  0.00  0.00    -0.070 Cl
ENDROOT
TORSDOF 0
ENDMDL
