MODEL 1
REMARK minimizedAffinity 4.0892415
REMARK minimizedRMSD -1
REMARK  0 active torsions:
REMARK  status: ('A' for Active; 'I' for Inactive)
ROOT
ATOM      1  C   UNL d   1      -6.000  -3.716   5.298  0.00  0.00     0.020 A 
ATOM      2  C1  UNL d   1      -4.841  -3.388   6.000  0.00  0.00     0.020 A 
ATOM      3  C2  UNL d   1      -3.668  -3.082   5.307  0.00  0.00     0.034 A 
ATOM      4  C3  UNL d   1      -3.651  -3.103   3.908  0.00  0.00     0.017 A 
ATOM      5  C4  UNL d   1      -4.815  -3.432   3.204  0.00  0.00     0.017 A 
ATOM      6  C5  UNL d   1      -5.987  -3.738   3.902  0.00  0.00     0.034 A 
ATOM      7 Cl   UNL d   1      -4.872  -3.480   1.477  0.00  0.00    -0.070 Cl
ATOM      8 Cl1  UNL d   1      -2.165  -2.714   3.116  0.00  0.00    -0.070 Cl
ENDROOT
TORSDOF 0
ENDMDL
