MODEL 1
REMARK minimizedAffinity 5.45760489
REMARK minimizedRMSD -1
REMARK  0 active torsions:
REMARK  status: ('A' for Active; 'I' for Inactive)
ROOT
ATOM      1  C   UNL d   1      -2.251   2.085   1.560  0.00  0.00     0.020 A 
ATOM      2  C1  UNL d   1      -1.151   2.503   0.812  0.00  0.00     0.020 A 
ATOM      3  C2  UNL d   1      -0.004   1.708   0.753  0.00  0.00     0.034 A 
ATOM      4  C3  UNL d   1       0.045   0.491   1.442  0.00  0.00     0.017 A 
ATOM      5  C4  UNL d   1      -1.060   0.072   2.192  0.00  0.00     0.017 A 
ATOM      6  C5  UNL d   1      -2.205   0.872   2.249  0.00  0.00     0.034 A 
ATOM      7 Cl   UNL d   1      -1.074  -1.417   3.070  0.00  0.00    -0.070 Cl
ATOM      8 Cl1  UNL d   1       1.495  -0.442   1.324  0.00  0.00    -0.070 Cl
ENDROOT
TORSDOF 0
ENDMDL
