MODEL 1
REMARK minimizedAffinity 6.04044247
REMARK minimizedRMSD -1
REMARK  0 active torsions:
REMARK  status: ('A' for Active; 'I' for Inactive)
ROOT
ATOM      1  C   UNL d   1      -1.505   2.275   1.114  0.00  0.00     0.020 A 
ATOM      2  C1  UNL d   1      -1.044   3.457   0.536  0.00  0.00     0.020 A 
ATOM      3  C2  UNL d   1      -0.164   3.408  -0.547  0.00  0.00     0.034 A 
ATOM      4  C3  UNL d   1       0.258   2.174  -1.055  0.00  0.00     0.017 A 
ATOM      5  C4  UNL d   1      -0.205   0.988  -0.474  0.00  0.00     0.017 A 
ATOM      6  C5  UNL d   1      -1.086   1.043   0.610  0.00  0.00     0.034 A 
ATOM      7 Cl   UNL d   1       0.272  -0.572  -1.046  0.00  0.00    -0.070 Cl
ATOM      8 Cl1  UNL d   1       1.348   2.188  -2.397  0.00  0.00    -0.070 Cl
ENDROOT
TORSDOF 0
ENDMDL
