MODEL 1
REMARK minimizedAffinity 10.5743208
REMARK minimizedRMSD -1
REMARK  0 active torsions:
REMARK  status: ('A' for Active; 'I' for Inactive)
ROOT
ATOM      1  C   UNL d   1      -0.126  -0.894  -2.100  0.00  0.00     0.020 A 
ATOM      2  C1  UNL d   1      -1.341  -1.210  -2.706  0.00  0.00     0.020 A 
ATOM      3  C2  UNL d   1      -2.197  -0.190  -3.127  0.00  0.00     0.034 A 
ATOM      4  C3  UNL d   1      -1.839   1.150  -2.942  0.00  0.00     0.017 A 
ATOM      5  C4  UNL d   1      -0.619   1.466  -2.334  0.00  0.00     0.017 A 
ATOM      6  C5  UNL d   1       0.235   0.441  -1.915  0.00  0.00     0.034 A 
ATOM      7 Cl   UNL d   1      -0.108   3.096  -2.073  0.00  0.00    -0.070 Cl
ATOM      8 Cl1  UNL d   1      -2.946   2.360  -3.487  0.00  0.00    -0.070 Cl
ENDROOT
TORSDOF 0
ENDMDL
