MODEL 1
REMARK minimizedAffinity 2.48020673
REMARK minimizedRMSD -1
REMARK  0 active torsions:
REMARK  status: ('A' for Active; 'I' for Inactive)
ROOT
ATOM      1  C   UNL d   1      -0.133  -0.507  -2.533  0.00  0.00     0.020 A 
ATOM      2  C1  UNL d   1      -1.221  -0.561  -3.403  0.00  0.00     0.020 A 
ATOM      3  C2  UNL d   1      -1.928   0.603  -3.711  0.00  0.00     0.034 A 
ATOM      4  C3  UNL d   1      -1.548   1.827  -3.149  0.00  0.00     0.017 A 
ATOM      5  C4  UNL d   1      -0.456   1.881  -2.275  0.00  0.00     0.017 A 
ATOM      6  C5  UNL d   1       0.249   0.712  -1.970  0.00  0.00     0.034 A 
ATOM      7 Cl   UNL d   1       0.073   3.354  -1.542  0.00  0.00    -0.070 Cl
ATOM      8 Cl1  UNL d   1      -2.467   3.227  -3.574  0.00  0.00    -0.070 Cl
ENDROOT
TORSDOF 0
ENDMDL
