MODEL 1
REMARK minimizedAffinity 6.1382575
REMARK minimizedRMSD -1
REMARK  0 active torsions:
REMARK  status: ('A' for Active; 'I' for Inactive)
ROOT
ATOM      1  C   UNL d   1       0.473   0.382  -4.063  0.00  0.00     0.020 A 
ATOM      2  C1  UNL d   1      -0.560  -0.553  -4.124  0.00  0.00     0.020 A 
ATOM      3  C2  UNL d   1      -1.568  -0.543  -3.158  0.00  0.00     0.034 A 
ATOM      4  C3  UNL d   1      -1.545   0.403  -2.127  0.00  0.00     0.017 A 
ATOM      5  C4  UNL d   1      -0.508   1.341  -2.067  0.00  0.00     0.017 A 
ATOM      6  C5  UNL d   1       0.499   1.327  -3.037  0.00  0.00     0.034 A 
ATOM      7 Cl   UNL d   1      -0.412   2.539  -0.825  0.00  0.00    -0.070 Cl
ATOM      8 Cl1  UNL d   1      -2.824   0.358  -0.966  0.00  0.00    -0.070 Cl
ENDROOT
TORSDOF 0
ENDMDL
