MODEL 1
REMARK minimizedAffinity 4.47035933
REMARK minimizedRMSD -1
REMARK  0 active torsions:
REMARK  status: ('A' for Active; 'I' for Inactive)
ROOT
ATOM      1  C   UNL d   1       0.318   4.206  -2.422  0.00  0.00     0.020 A 
ATOM      2  C1  UNL d   1       0.034   4.755  -1.173  0.00  0.00     0.020 A 
ATOM      3  C2  UNL d   1      -0.238   3.919  -0.088  0.00  0.00     0.034 A 
ATOM      4  C3  UNL d   1      -0.226   2.529  -0.251  0.00  0.00     0.017 A 
ATOM      5  C4  UNL d   1       0.060   1.979  -1.506  0.00  0.00     0.017 A 
ATOM      6  C5  UNL d   1       0.331   2.821  -2.588  0.00  0.00     0.034 A 
ATOM      7 Cl   UNL d   1       0.093   0.273  -1.784  0.00  0.00    -0.070 Cl
ATOM      8 Cl1  UNL d   1      -0.571   1.555   1.134  0.00  0.00    -0.070 Cl
ENDROOT
TORSDOF 0
ENDMDL
