MODEL 1
REMARK minimizedAffinity 7.85911465
REMARK minimizedRMSD -1
REMARK  0 active torsions:
REMARK  status: ('A' for Active; 'I' for Inactive)
ROOT
ATOM      1  C   UNL d   1       0.445   3.028  -2.005  0.00  0.00     0.020 A 
ATOM      2  C1  UNL d   1       0.463   1.723  -1.514  0.00  0.00     0.020 A 
ATOM      3  C2  UNL d   1      -0.132   1.432  -0.284  0.00  0.00     0.034 A 
ATOM      4  C3  UNL d   1      -0.746   2.446   0.458  0.00  0.00     0.017 A 
ATOM      5  C4  UNL d   1      -0.764   3.756  -0.036  0.00  0.00     0.017 A 
ATOM      6  C5  UNL d   1      -0.167   4.042  -1.268  0.00  0.00     0.034 A 
ATOM      7 Cl   UNL d   1      -1.503   5.061   0.822  0.00  0.00    -0.070 Cl
ATOM      8 Cl1  UNL d   1      -1.462   2.015   1.970  0.00  0.00    -0.070 Cl
ENDROOT
TORSDOF 0
ENDMDL
