MODEL 1
REMARK minimizedAffinity 8.42597389
REMARK minimizedRMSD -1
REMARK  0 active torsions:
REMARK  status: ('A' for Active; 'I' for Inactive)
ROOT
ATOM      1  C   UNL d   1       0.913   1.755  -2.279  0.00  0.00     0.020 A 
ATOM      2  C1  UNL d   1       0.339   0.869  -3.189  0.00  0.00     0.020 A 
ATOM      3  C2  UNL d   1      -0.870   0.240  -2.883  0.00  0.00     0.034 A 
ATOM      4  C3  UNL d   1      -1.509   0.497  -1.664  0.00  0.00     0.017 A 
ATOM      5  C4  UNL d   1      -0.931   1.387  -0.751  0.00  0.00     0.017 A 
ATOM      6  C5  UNL d   1       0.280   2.014  -1.063  0.00  0.00     0.034 A 
ATOM      7 Cl   UNL d   1      -1.659   1.754   0.772  0.00  0.00    -0.070 Cl
ATOM      8 Cl1  UNL d   1      -3.001  -0.315  -1.352  0.00  0.00    -0.070 Cl
ENDROOT
TORSDOF 0
ENDMDL
