MODEL 1
REMARK minimizedAffinity 3.23451018
REMARK minimizedRMSD -1
REMARK  0 active torsions:
REMARK  status: ('A' for Active; 'I' for Inactive)
ROOT
ATOM      1  C   UNL d   1      -0.202   1.670  -0.839  0.00  0.00     0.020 A 
ATOM      2  C1  UNL d   1      -0.279   0.733   0.191  0.00  0.00     0.020 A 
ATOM      3  C2  UNL d   1      -0.352   1.159   1.519  0.00  0.00     0.034 A 
ATOM      4  C3  UNL d   1      -0.348   2.526   1.820  0.00  0.00     0.017 A 
ATOM      5  C4  UNL d   1      -0.270   3.466   0.786  0.00  0.00     0.017 A 
ATOM      6  C5  UNL d   1      -0.197   3.034  -0.542  0.00  0.00     0.034 A 
ATOM      7 Cl   UNL d   1      -0.260   5.169   1.080  0.00  0.00    -0.070 Cl
ATOM      8 Cl1  UNL d   1      -0.441   2.982   3.485  0.00  0.00    -0.070 Cl
ENDROOT
TORSDOF 0
ENDMDL
