MODEL 1
REMARK minimizedAffinity 5.04297113
REMARK minimizedRMSD -1
REMARK  0 active torsions:
REMARK  status: ('A' for Active; 'I' for Inactive)
ROOT
ATOM      1  C   UNL d   1       0.787   1.898  -2.375  0.00  0.00     0.020 A 
ATOM      2  C1  UNL d   1       0.525   0.691  -1.729  0.00  0.00     0.020 A 
ATOM      3  C2  UNL d   1       0.035   0.691  -0.421  0.00  0.00     0.034 A 
ATOM      4  C3  UNL d   1      -0.196   1.901   0.244  0.00  0.00     0.017 A 
ATOM      5  C4  UNL d   1       0.067   3.112  -0.406  0.00  0.00     0.017 A 
ATOM      6  C5  UNL d   1       0.558   3.106  -1.715  0.00  0.00     0.034 A 
ATOM      7 Cl   UNL d   1      -0.192   4.645   0.350  0.00  0.00    -0.070 Cl
ATOM      8 Cl1  UNL d   1      -0.803   1.826   1.860  0.00  0.00    -0.070 Cl
ENDROOT
TORSDOF 0
ENDMDL
