MODEL 1
REMARK minimizedAffinity -4.43909979
REMARK minimizedRMSD -1
REMARK  1 active torsions:
REMARK  status: ('A' for Active; 'I' for Inactive)
REMARK    1  A    between atoms: C1_2  and  C2_3 
ROOT
ATOM      1  C2  UNL d   1      -0.755  -0.992   1.266  0.00  0.00    -0.076 A 
ATOM      2  C3  UNL d   1      -1.755  -1.082   2.251  0.00  0.00     0.004 A 
ATOM      3  C4  UNL d   1      -2.751  -0.113   2.352  0.00  0.00    -0.003 A 
ATOM      4  C5  UNL d   1      -2.765   0.962   1.470  0.00  0.00     0.000 A 
ATOM      5  C6  UNL d   1      -1.792   1.058   0.476  0.00  0.00     0.000 A 
ATOM      6  C7  UNL d   1      -0.790   0.080   0.350  0.00  0.00    -0.073 A 
ATOM      7  C8  UNL d   1       0.238   0.237  -0.737  0.00  0.00     0.078 C 
ENDROOT
BRANCH   1   8
ATOM      8  C1  UNL d   1       0.315  -2.059   1.222  0.00  0.00     0.053 C 
ATOM      9  C   UNL d   1      -0.155  -3.328   0.528  0.00  0.00     0.018 C 
ENDBRANCH   1   8
TORSDOF 1
ENDMDL
