MODEL 1
REMARK minimizedAffinity -2.56460357
REMARK minimizedRMSD -1
REMARK  1 active torsions:
REMARK  status: ('A' for Active; 'I' for Inactive)
REMARK    1  A    between atoms: C1_2  and  C2_3 
ROOT
ATOM      1  C2  UNL d   1      -0.434  -0.129   0.269  0.00  0.00    -0.076 A 
ATOM      2  C3  UNL d   1      -1.090  -0.223   1.509  0.00  0.00     0.004 A 
ATOM      3  C4  UNL d   1      -1.549  -1.449   1.987  0.00  0.00    -0.003 A 
ATOM      4  C5  UNL d   1      -1.360  -2.602   1.233  0.00  0.00     0.000 A 
ATOM      5  C6  UNL d   1      -0.695  -2.530   0.009  0.00  0.00     0.000 A 
ATOM      6  C7  UNL d   1      -0.212  -1.305  -0.480  0.00  0.00    -0.073 A 
ATOM      7  C8  UNL d   1       0.492  -1.285  -1.809  0.00  0.00     0.078 C 
ENDROOT
BRANCH   1   8
ATOM      8  C1  UNL d   1       0.018   1.231  -0.211  0.00  0.00     0.053 C 
ATOM      9  C   UNL d   1       1.230   1.745   0.552  0.00  0.00     0.018 C 
ENDBRANCH   1   8
TORSDOF 1
ENDMDL
