MODEL 1
REMARK minimizedAffinity -5.04063749
REMARK minimizedRMSD -1
REMARK  1 active torsions:
REMARK  status: ('A' for Active; 'I' for Inactive)
REMARK    1  A    between atoms: C1_2  and  C2_3 
ROOT
ATOM      1  C2  UNL d   1      -1.670  -0.344   1.248  0.00  0.00    -0.076 A 
ATOM      2  C3  UNL d   1      -2.903  -0.109   1.883  0.00  0.00     0.004 A 
ATOM      3  C4  UNL d   1      -3.716   0.956   1.499  0.00  0.00    -0.003 A 
ATOM      4  C5  UNL d   1      -3.310   1.804   0.474  0.00  0.00     0.000 A 
ATOM      5  C6  UNL d   1      -2.099   1.576  -0.178  0.00  0.00     0.000 A 
ATOM      6  C7  UNL d   1      -1.275   0.497   0.186  0.00  0.00    -0.073 A 
ATOM      7  C8  UNL d   1       0.024   0.302  -0.547  0.00  0.00     0.078 C 
ENDROOT
BRANCH   1   8
ATOM      8  C1  UNL d   1      -0.818  -1.498   1.725  0.00  0.00     0.053 C 
ATOM      9  C   UNL d   1      -1.206  -2.817   1.075  0.00  0.00     0.018 C 
ENDBRANCH   1   8
TORSDOF 1
ENDMDL
