MODEL 1
REMARK minimizedAffinity -2.38114738
REMARK minimizedRMSD -1
REMARK  1 active torsions:
REMARK  status: ('A' for Active; 'I' for Inactive)
REMARK    1  A    between atoms: C1_2  and  C2_3 
ROOT
ATOM      1  C2  UNL d   1       0.308   0.447  -0.114  0.00  0.00    -0.076 A 
ATOM      2  C3  UNL d   1      -0.260   0.389   1.171  0.00  0.00     0.004 A 
ATOM      3  C4  UNL d   1      -0.716  -0.817   1.700  0.00  0.00    -0.003 A 
ATOM      4  C5  UNL d   1      -0.611  -1.986   0.954  0.00  0.00     0.000 A 
ATOM      5  C6  UNL d   1      -0.035  -1.950  -0.316  0.00  0.00     0.000 A 
ATOM      6  C7  UNL d   1       0.445  -0.745  -0.858  0.00  0.00    -0.073 A 
ATOM      7  C8  UNL d   1       1.052  -0.763  -2.234  0.00  0.00     0.078 C 
ENDROOT
BRANCH   1   8
ATOM      8  C1  UNL d   1       0.760   1.788  -0.646  0.00  0.00     0.053 C 
ATOM      9  C   UNL d   1       1.753   2.476   0.277  0.00  0.00     0.018 C 
ENDBRANCH   1   8
TORSDOF 1
ENDMDL
