MODEL 1
REMARK minimizedAffinity -3.84986186
REMARK minimizedRMSD -1
REMARK  1 active torsions:
REMARK  status: ('A' for Active; 'I' for Inactive)
REMARK    1  A    between atoms: C1_2  and  C2_3 
ROOT
ATOM      1  C2  UNL d   1       1.768   3.126  -0.726  0.00  0.00    -0.076 A 
ATOM      2  C3  UNL d   1       2.743   3.532   0.201  0.00  0.00     0.004 A 
ATOM      3  C4  UNL d   1       2.629   3.207   1.551  0.00  0.00    -0.003 A 
ATOM      4  C5  UNL d   1       1.537   2.469   1.997  0.00  0.00     0.000 A 
ATOM      5  C6  UNL d   1       0.569   2.043   1.088  0.00  0.00     0.000 A 
ATOM      6  C7  UNL d   1       0.678   2.348  -0.280  0.00  0.00    -0.073 A 
ATOM      7  C8  UNL d   1      -0.398   1.868  -1.214  0.00  0.00     0.078 C 
ENDROOT
BRANCH   1   8
ATOM      8  C1  UNL d   1       1.931   3.532  -2.174  0.00  0.00     0.053 C 
ATOM      9  C   UNL d   1       1.936   5.041  -2.359  0.00  0.00     0.018 C 
ENDBRANCH   1   8
TORSDOF 1
ENDMDL
