MODEL 1
REMARK minimizedAffinity -3.6188457
REMARK minimizedRMSD -1
REMARK  1 active torsions:
REMARK  status: ('A' for Active; 'I' for Inactive)
REMARK    1  A    between atoms: C1_2  and  C2_3 
ROOT
ATOM      1  C2  UNL d   1      -0.242  -0.878   1.310  0.00  0.00    -0.076 A 
ATOM      2  C3  UNL d   1      -1.017  -1.326   0.226  0.00  0.00     0.004 A 
ATOM      3  C4  UNL d   1      -1.376  -2.667   0.107  0.00  0.00    -0.003 A 
ATOM      4  C5  UNL d   1      -0.966  -3.583   1.070  0.00  0.00     0.000 A 
ATOM      5  C6  UNL d   1      -0.212  -3.152   2.161  0.00  0.00     0.000 A 
ATOM      6  C7  UNL d   1       0.145  -1.801   2.305  0.00  0.00    -0.073 A 
ATOM      7  C8  UNL d   1       0.964  -1.393   3.498  0.00  0.00     0.078 C 
ENDROOT
BRANCH   1   8
ATOM      8  C1  UNL d   1       0.139   0.584   1.372  0.00  0.00     0.053 C 
ATOM      9  C   UNL d   1      -0.058   1.295   0.042  0.00  0.00     0.018 C 
ENDBRANCH   1   8
TORSDOF 1
ENDMDL
