MODEL 1
REMARK minimizedAffinity -0.285557538
REMARK minimizedRMSD -1
REMARK  1 active torsions:
REMARK  status: ('A' for Active; 'I' for Inactive)
REMARK    1  A    between atoms: C1_2  and  C2_3 
ROOT
ATOM      1  C2  UNL d   1      -0.290  -0.006  -0.179  0.00  0.00    -0.076 A 
ATOM      2  C3  UNL d   1      -0.799  -0.006   1.131  0.00  0.00     0.004 A 
ATOM      3  C4  UNL d   1      -1.121  -1.200   1.775  0.00  0.00    -0.003 A 
ATOM      4  C5  UNL d   1      -0.939  -2.412   1.119  0.00  0.00     0.000 A 
ATOM      5  C6  UNL d   1      -0.419  -2.432  -0.174  0.00  0.00     0.000 A 
ATOM      6  C7  UNL d   1      -0.074  -1.238  -0.832  0.00  0.00    -0.073 A 
ATOM      7  C8  UNL d   1       0.478  -1.317  -2.229  0.00  0.00     0.078 C 
ENDROOT
BRANCH   1   8
ATOM      8  C1  UNL d   1       0.015   1.321  -0.837  0.00  0.00     0.053 C 
ATOM      9  C   UNL d   1       0.971   2.172  -0.015  0.00  0.00     0.018 C 
ENDBRANCH   1   8
TORSDOF 1
ENDMDL
