MODEL 1
REMARK minimizedAffinity 6.04161882
REMARK minimizedRMSD -1
REMARK  1 active torsions:
REMARK  status: ('A' for Active; 'I' for Inactive)
REMARK    1  A    between atoms: C1_2  and  C2_3 
ROOT
ATOM      1  C2  UNL d   1       2.695   3.152  -1.119  0.00  0.00    -0.076 A 
ATOM      2  C3  UNL d   1       1.686   3.305  -0.152  0.00  0.00     0.004 A 
ATOM      3  C4  UNL d   1       1.919   4.022   1.021  0.00  0.00    -0.003 A 
ATOM      4  C5  UNL d   1       3.165   4.598   1.245  0.00  0.00     0.000 A 
ATOM      5  C6  UNL d   1       4.171   4.472   0.289  0.00  0.00     0.000 A 
ATOM      6  C7  UNL d   1       3.948   3.766  -0.906  0.00  0.00    -0.073 A 
ATOM      7  C8  UNL d   1       5.072   3.656  -1.900  0.00  0.00     0.078 C 
ENDROOT
BRANCH   1   8
ATOM      8  C1  UNL d   1       2.394   2.341  -2.358  0.00  0.00     0.053 C 
ATOM      9  C   UNL d   1       1.214   1.400  -2.166  0.00  0.00     0.018 C 
ENDBRANCH   1   8
TORSDOF 1
ENDMDL
