MODEL 1
REMARK minimizedAffinity 6.94851875
REMARK minimizedRMSD -1
REMARK  1 active torsions:
REMARK  status: ('A' for Active; 'I' for Inactive)
REMARK    1  A    between atoms: C1_2  and  C2_3 
ROOT
ATOM      1  C2  UNL d   1       0.755   2.159   0.357  0.00  0.00    -0.076 A 
ATOM      2  C3  UNL d   1       0.180   1.702   1.556  0.00  0.00     0.004 A 
ATOM      3  C4  UNL d   1      -0.649   0.582   1.572  0.00  0.00    -0.003 A 
ATOM      4  C5  UNL d   1      -0.916  -0.100   0.390  0.00  0.00     0.000 A 
ATOM      5  C6  UNL d   1      -0.339   0.329  -0.805  0.00  0.00     0.000 A 
ATOM      6  C7  UNL d   1       0.512   1.447  -0.836  0.00  0.00    -0.073 A 
ATOM      7  C8  UNL d   1       1.101   1.869  -2.154  0.00  0.00     0.078 C 
ENDROOT
BRANCH   1   8
ATOM      8  C1  UNL d   1       1.624   3.396   0.397  0.00  0.00     0.053 C 
ATOM      9  C   UNL d   1       1.297   4.301   1.574  0.00  0.00     0.018 C 
ENDBRANCH   1   8
TORSDOF 1
ENDMDL
