MODEL 1
REMARK minimizedAffinity -4.11033058
REMARK minimizedRMSD -1
REMARK  0 active torsions:
REMARK  status: ('A' for Active; 'I' for Inactive)
ROOT
ATOM      1  C   UNL d   1       0.705   3.324  -0.416  0.00  0.00     0.077 C 
ATOM      2  C1  UNL d   1      -0.013   2.066  -0.026  0.00  0.00    -0.074 A 
ATOM      3  C2  UNL d   1      -1.257   2.118   0.613  0.00  0.00    -0.005 A 
ATOM      4  C3  UNL d   1      -1.917   0.940   0.961  0.00  0.00     0.006 A 
ATOM      5  C4  UNL d   1      -1.343  -0.299   0.676  0.00  0.00    -0.005 A 
ATOM      6  C5  UNL d   1      -0.101  -0.370   0.037  0.00  0.00    -0.074 A 
ATOM      7  C6  UNL d   1       0.527  -1.694  -0.286  0.00  0.00     0.077 C 
ATOM      8  C7  UNL d   1       0.554   0.818  -0.316  0.00  0.00    -0.001 A 
ENDROOT
TORSDOF 0
ENDMDL
