MODEL 1
REMARK minimizedAffinity -3.14704394
REMARK minimizedRMSD -1
REMARK  0 active torsions:
REMARK  status: ('A' for Active; 'I' for Inactive)
ROOT
ATOM      1  C   UNL d   1      -0.187  -1.968   0.023  0.00  0.00     0.077 C 
ATOM      2  C1  UNL d   1      -0.402  -0.498   0.230  0.00  0.00    -0.074 A 
ATOM      3  C2  UNL d   1       0.636   0.416   0.024  0.00  0.00    -0.005 A 
ATOM      4  C3  UNL d   1       0.418   1.781   0.211  0.00  0.00     0.006 A 
ATOM      5  C4  UNL d   1      -0.837   2.245   0.605  0.00  0.00    -0.005 A 
ATOM      6  C5  UNL d   1      -1.888   1.345   0.815  0.00  0.00    -0.074 A 
ATOM      7  C6  UNL d   1      -3.246   1.828   1.229  0.00  0.00     0.077 C 
ATOM      8  C7  UNL d   1      -1.663  -0.024   0.618  0.00  0.00    -0.001 A 
ENDROOT
TORSDOF 0
ENDMDL
