MODEL 1
REMARK minimizedAffinity -0.431955934
REMARK minimizedRMSD -1
REMARK  0 active torsions:
REMARK  status: ('A' for Active; 'I' for Inactive)
ROOT
ATOM      1  C   UNL d   1      -3.317   0.706   1.614  0.00  0.00     0.077 C 
ATOM      2  C1  UNL d   1      -1.914   0.923   1.129  0.00  0.00    -0.074 A 
ATOM      3  C2  UNL d   1      -1.363   2.207   1.074  0.00  0.00    -0.005 A 
ATOM      4  C3  UNL d   1      -0.054   2.392   0.629  0.00  0.00     0.006 A 
ATOM      5  C4  UNL d   1       0.716   1.296   0.235  0.00  0.00    -0.005 A 
ATOM      6  C5  UNL d   1       0.182   0.005   0.285  0.00  0.00    -0.074 A 
ATOM      7  C6  UNL d   1       0.999  -1.185  -0.125  0.00  0.00     0.077 C 
ATOM      8  C7  UNL d   1      -1.132  -0.174   0.739  0.00  0.00    -0.001 A 
ENDROOT
TORSDOF 0
ENDMDL
