MODEL 1
REMARK minimizedAffinity -5.43394518
REMARK minimizedRMSD -1
REMARK  0 active torsions:
REMARK  status: ('A' for Active; 'I' for Inactive)
ROOT
ATOM      1  C   UNL d   1       0.281  -1.481   0.005  0.00  0.00     0.077 C 
ATOM      2  C1  UNL d   1      -0.187  -0.088   0.304  0.00  0.00    -0.074 A 
ATOM      3  C2  UNL d   1      -1.453   0.142   0.851  0.00  0.00    -0.005 A 
ATOM      4  C3  UNL d   1      -1.872   1.443   1.133  0.00  0.00     0.006 A 
ATOM      5  C4  UNL d   1      -1.030   2.524   0.870  0.00  0.00    -0.005 A 
ATOM      6  C5  UNL d   1       0.240   2.313   0.324  0.00  0.00    -0.074 A 
ATOM      7  C6  UNL d   1       1.161   3.463   0.045  0.00  0.00     0.077 C 
ATOM      8  C7  UNL d   1       0.656   1.003   0.050  0.00  0.00    -0.001 A 
ENDROOT
TORSDOF 0
ENDMDL
