MODEL 1
REMARK minimizedAffinity -1.75760937
REMARK minimizedRMSD -1
REMARK  0 active torsions:
REMARK  status: ('A' for Active; 'I' for Inactive)
ROOT
ATOM      1  C   UNL d   1       0.280  -1.192  -0.066  0.00  0.00     0.077 C 
ATOM      2  C1  UNL d   1      -0.384   0.085   0.356  0.00  0.00    -0.074 A 
ATOM      3  C2  UNL d   1       0.369   1.235   0.616  0.00  0.00    -0.005 A 
ATOM      4  C3  UNL d   1      -0.264   2.418   0.999  0.00  0.00     0.006 A 
ATOM      5  C4  UNL d   1      -1.653   2.463   1.125  0.00  0.00    -0.005 A 
ATOM      6  C5  UNL d   1      -2.422   1.323   0.869  0.00  0.00    -0.074 A 
ATOM      7  C6  UNL d   1      -3.916   1.357   0.991  0.00  0.00     0.077 C 
ATOM      8  C7  UNL d   1      -1.780   0.140   0.478  0.00  0.00    -0.001 A 
ENDROOT
TORSDOF 0
ENDMDL
