MODEL 1
REMARK minimizedAffinity -1.95090675
REMARK minimizedRMSD -1
REMARK  0 active torsions:
REMARK  status: ('A' for Active; 'I' for Inactive)
ROOT
ATOM      1  C   UNL d   1      -3.115   0.663   1.721  0.00  0.00     0.077 C 
ATOM      2  C1  UNL d   1      -1.828   0.621   0.951  0.00  0.00    -0.074 A 
ATOM      3  C2  UNL d   1      -1.044   1.769   0.798  0.00  0.00    -0.005 A 
ATOM      4  C3  UNL d   1       0.155   1.712   0.088  0.00  0.00     0.006 A 
ATOM      5  C4  UNL d   1       0.582   0.509  -0.475  0.00  0.00    -0.005 A 
ATOM      6  C5  UNL d   1      -0.188  -0.650  -0.331  0.00  0.00    -0.074 A 
ATOM      7  C6  UNL d   1       0.261  -1.954  -0.921  0.00  0.00     0.077 C 
ATOM      8  C7  UNL d   1      -1.388  -0.586   0.390  0.00  0.00    -0.001 A 
ENDROOT
TORSDOF 0
ENDMDL
