MODEL 1
REMARK minimizedAffinity -3.04169726
REMARK minimizedRMSD -1
REMARK  0 active torsions:
REMARK  status: ('A' for Active; 'I' for Inactive)
ROOT
ATOM      1  C   UNL d   1      -3.887  -3.576  -1.000  0.00  0.00     0.077 C 
ATOM      2  C1  UNL d   1      -2.450  -3.225  -1.244  0.00  0.00    -0.074 A 
ATOM      3  C2  UNL d   1      -1.788  -3.663  -2.395  0.00  0.00    -0.005 A 
ATOM      4  C3  UNL d   1      -0.454  -3.320  -2.613  0.00  0.00     0.006 A 
ATOM      5  C4  UNL d   1       0.232  -2.538  -1.683  0.00  0.00    -0.005 A 
ATOM      6  C5  UNL d   1      -0.413  -2.090  -0.526  0.00  0.00    -0.074 A 
ATOM      7  C6  UNL d   1       0.306  -1.240   0.479  0.00  0.00     0.077 C 
ATOM      8  C7  UNL d   1      -1.757  -2.432  -0.318  0.00  0.00    -0.001 A 
ENDROOT
TORSDOF 0
ENDMDL
