MODEL 1
REMARK minimizedAffinity -5.30473852
REMARK minimizedRMSD -1
REMARK  0 active torsions:
REMARK  status: ('A' for Active; 'I' for Inactive)
ROOT
ATOM      1  C   UNL d   1       3.324   1.833   0.704  0.00  0.00     0.077 C 
ATOM      2  C1  UNL d   1       1.842   1.700   0.516  0.00  0.00    -0.074 A 
ATOM      3  C2  UNL d   1       0.986   2.778   0.765  0.00  0.00    -0.005 A 
ATOM      4  C3  UNL d   1      -0.390   2.642   0.577  0.00  0.00     0.006 A 
ATOM      5  C4  UNL d   1      -0.922   1.428   0.139  0.00  0.00    -0.005 A 
ATOM      6  C5  UNL d   1      -0.082   0.340  -0.116  0.00  0.00    -0.074 A 
ATOM      7  C6  UNL d   1      -0.637  -0.968  -0.596  0.00  0.00     0.077 C 
ATOM      8  C7  UNL d   1       1.300   0.487   0.069  0.00  0.00    -0.001 A 
ENDROOT
TORSDOF 0
ENDMDL
