MODEL 1
REMARK minimizedAffinity -6.31969929
REMARK minimizedRMSD -1
REMARK  0 active torsions:
REMARK  status: ('A' for Active; 'I' for Inactive)
ROOT
ATOM      1  C   UNL d   1      -1.272  -0.752   1.122  0.00  0.00     0.077 C 
ATOM      2  C1  UNL d   1      -0.654   0.567   0.766  0.00  0.00    -0.074 A 
ATOM      3  C2  UNL d   1      -1.450   1.667   0.428  0.00  0.00    -0.005 A 
ATOM      4  C3  UNL d   1      -0.860   2.890   0.108  0.00  0.00     0.006 A 
ATOM      5  C4  UNL d   1       0.528   3.026   0.122  0.00  0.00    -0.005 A 
ATOM      6  C5  UNL d   1       1.340   1.938   0.458  0.00  0.00    -0.074 A 
ATOM      7  C6  UNL d   1       2.834   2.070   0.488  0.00  0.00     0.077 C 
ATOM      8  C7  UNL d   1       0.741   0.714   0.786  0.00  0.00    -0.001 A 
ENDROOT
TORSDOF 0
ENDMDL
