MODEL 1
REMARK minimizedAffinity -4.6941514
REMARK minimizedRMSD -1
REMARK  0 active torsions:
REMARK  status: ('A' for Active; 'I' for Inactive)
ROOT
ATOM      1  C   UNL d   1       1.823   3.493  -0.078  0.00  0.00     0.077 C 
ATOM      2  C1  UNL d   1       0.751   2.513   0.297  0.00  0.00    -0.074 A 
ATOM      3  C2  UNL d   1      -0.325   2.898   1.103  0.00  0.00    -0.005 A 
ATOM      4  C3  UNL d   1      -1.319   1.977   1.436  0.00  0.00     0.006 A 
ATOM      5  C4  UNL d   1      -1.248   0.666   0.965  0.00  0.00    -0.005 A 
ATOM      6  C5  UNL d   1      -0.180   0.263   0.157  0.00  0.00    -0.074 A 
ATOM      7  C6  UNL d   1      -0.093  -1.140  -0.365  0.00  0.00     0.077 C 
ATOM      8  C7  UNL d   1       0.812   1.196  -0.178  0.00  0.00    -0.001 A 
ENDROOT
TORSDOF 0
ENDMDL
