MODEL 1
REMARK minimizedAffinity 2.48876882
REMARK minimizedRMSD -1
REMARK  0 active torsions:
REMARK  status: ('A' for Active; 'I' for Inactive)
ROOT
ATOM      1  C   UNL d   1      -1.219   2.930   1.845  0.00  0.00     0.077 C 
ATOM      2  C1  UNL d   1      -0.849   1.588   1.289  0.00  0.00    -0.074 A 
ATOM      3  C2  UNL d   1      -1.834   0.672   0.905  0.00  0.00    -0.005 A 
ATOM      4  C3  UNL d   1      -1.474  -0.569   0.380  0.00  0.00     0.006 A 
ATOM      5  C4  UNL d   1      -0.128  -0.906   0.233  0.00  0.00    -0.005 A 
ATOM      6  C5  UNL d   1       0.871  -0.003   0.610  0.00  0.00    -0.074 A 
ATOM      7  C6  UNL d   1       2.322  -0.346   0.450  0.00  0.00     0.077 C 
ATOM      8  C7  UNL d   1       0.501   1.245   1.131  0.00  0.00    -0.001 A 
ENDROOT
TORSDOF 0
ENDMDL
