MODEL 1
REMARK minimizedAffinity -3.50786781
REMARK minimizedRMSD -1
REMARK  0 active torsions:
REMARK  status: ('A' for Active; 'I' for Inactive)
ROOT
ATOM      1  C   UNL d   1      -1.556  -3.144  -2.142  0.00  0.00     0.077 C 
ATOM      2  C1  UNL d   1      -0.895  -2.208  -1.175  0.00  0.00    -0.074 A 
ATOM      3  C2  UNL d   1       0.361  -2.501  -0.635  0.00  0.00    -0.005 A 
ATOM      4  C3  UNL d   1       0.968  -1.616   0.256  0.00  0.00     0.006 A 
ATOM      5  C4  UNL d   1       0.326  -0.430   0.615  0.00  0.00    -0.005 A 
ATOM      6  C5  UNL d   1      -0.930  -0.120   0.084  0.00  0.00    -0.074 A 
ATOM      7  C6  UNL d   1      -1.629   1.155   0.452  0.00  0.00     0.077 C 
ATOM      8  C7  UNL d   1      -1.530  -1.011  -0.816  0.00  0.00    -0.001 A 
ENDROOT
TORSDOF 0
ENDMDL
