MODEL 1
REMARK minimizedAffinity 4.29011869
REMARK minimizedRMSD -1
REMARK  0 active torsions:
REMARK  status: ('A' for Active; 'I' for Inactive)
ROOT
ATOM      1  C   UNL d   1       1.246   2.331   2.174  0.00  0.00     0.077 C 
ATOM      2  C1  UNL d   1      -0.062   1.721   1.767  0.00  0.00    -0.074 A 
ATOM      3  C2  UNL d   1      -1.267   2.404   1.966  0.00  0.00    -0.005 A 
ATOM      4  C3  UNL d   1      -2.475   1.828   1.573  0.00  0.00     0.006 A 
ATOM      5  C4  UNL d   1      -2.491   0.566   0.979  0.00  0.00    -0.005 A 
ATOM      6  C5  UNL d   1      -1.297  -0.132   0.771  0.00  0.00    -0.074 A 
ATOM      7  C6  UNL d   1      -1.296  -1.485   0.124  0.00  0.00     0.077 C 
ATOM      8  C7  UNL d   1      -0.086   0.457   1.161  0.00  0.00    -0.001 A 
ENDROOT
TORSDOF 0
ENDMDL
