MODEL 1
REMARK minimizedAffinity -4.81639433
REMARK minimizedRMSD -1
REMARK  0 active torsions:
REMARK  status: ('A' for Active; 'I' for Inactive)
ROOT
ATOM      1  C   UNL d   1       0.736   3.034  -0.760  0.00  0.00     0.077 C 
ATOM      2  C1  UNL d   1       1.007   1.678  -0.179  0.00  0.00    -0.074 A 
ATOM      3  C2  UNL d   1       2.291   1.320   0.244  0.00  0.00    -0.005 A 
ATOM      4  C3  UNL d   1       2.525   0.059   0.792  0.00  0.00     0.006 A 
ATOM      5  C4  UNL d   1       1.480  -0.856   0.921  0.00  0.00    -0.005 A 
ATOM      6  C5  UNL d   1       0.189  -0.516   0.504  0.00  0.00    -0.074 A 
ATOM      7  C6  UNL d   1      -0.948  -1.484   0.645  0.00  0.00     0.077 C 
ATOM      8  C7  UNL d   1      -0.040   0.756  -0.039  0.00  0.00    -0.001 A 
ENDROOT
TORSDOF 0
ENDMDL
