MODEL 1
REMARK minimizedAffinity -6.05575514
REMARK minimizedRMSD -1
REMARK  3 active torsions:
REMARK  status: ('A' for Active; 'I' for Inactive)
REMARK    1  A    between atoms: C3'_2  and  C2'_3 
REMARK    2  A    between atoms: C2'_3  and  C1'_4 
REMARK    3  A    between atoms: C1'_4  and  C1_5 
ROOT
ATOM      1  C1  N4B d   1       0.178   0.075  -0.486  0.00  0.00    -0.075 A 
ATOM      2  C2  N4B d   1      -0.365   1.320  -0.874  0.00  0.00     0.002 A 
ATOM      3  C3  N4B d   1      -1.455   1.829  -0.211  0.00  0.00     0.002 A 
ATOM      4  C4  N4B d   1      -2.027   1.107   0.826  0.00  0.00    -0.004 A 
ATOM      5  C5  N4B d   1      -1.480  -0.082   1.210  0.00  0.00     0.002 A 
ATOM      6  C6  N4B d   1      -0.383  -0.605   0.556  0.00  0.00     0.002 A 
ENDROOT
BRANCH   1   7
ATOM      7  C1' N4B d   1       1.316  -0.563  -1.236  0.00  0.00     0.057 C 
BRANCH   7   8
ATOM      8  C2' N4B d   1       1.017  -2.046  -1.431  0.00  0.00     0.009 C 
BRANCH   8   9
ATOM      9  C3' N4B d   1       0.659  -2.368  -2.872  0.00  0.00     0.004 C 
ATOM     10  C4' N4B d   1      -0.551  -3.247  -2.987  0.00  0.00     0.003 C 
ENDBRANCH   8   9
ENDBRANCH   7   8
ENDBRANCH   1   7
TORSDOF 3
ENDMDL
