MODEL 1
REMARK minimizedAffinity -3.52192307
REMARK minimizedRMSD -1
REMARK  3 active torsions:
REMARK  status: ('A' for Active; 'I' for Inactive)
REMARK    1  A    between atoms: C3'_2  and  C2'_3 
REMARK    2  A    between atoms: C2'_3  and  C1'_4 
REMARK    3  A    between atoms: C1'_4  and  C1_5 
ROOT
ATOM      1  C1  N4B d   1      -0.553   0.413   0.408  0.00  0.00    -0.075 A 
ATOM      2  C2  N4B d   1      -0.864   0.028   1.731  0.00  0.00     0.002 A 
ATOM      3  C3  N4B d   1      -1.468   0.921   2.581  0.00  0.00     0.002 A 
ATOM      4  C4  N4B d   1      -1.753   2.204   2.140  0.00  0.00    -0.004 A 
ATOM      5  C5  N4B d   1      -1.472   2.560   0.853  0.00  0.00     0.002 A 
ATOM      6  C6  N4B d   1      -0.868   1.672  -0.014  0.00  0.00     0.002 A 
ENDROOT
BRANCH   1   7
ATOM      7  C1' N4B d   1       0.186  -0.500  -0.532  0.00  0.00     0.057 C 
BRANCH   7   8
ATOM      8  C2' N4B d   1      -0.820  -1.379  -1.270  0.00  0.00     0.009 C 
BRANCH   8   9
ATOM      9  C3' N4B d   1      -0.147  -2.274  -2.296  0.00  0.00     0.004 C 
ATOM     10  C4' N4B d   1      -1.046  -3.368  -2.791  0.00  0.00     0.003 C 
ENDBRANCH   8   9
ENDBRANCH   7   8
ENDBRANCH   1   7
TORSDOF 3
ENDMDL
