MODEL 1
REMARK minimizedAffinity -6.05993176
REMARK minimizedRMSD -1
REMARK  3 active torsions:
REMARK  status: ('A' for Active; 'I' for Inactive)
REMARK    1  A    between atoms: C3'_2  and  C2'_3 
REMARK    2  A    between atoms: C2'_3  and  C1'_4 
REMARK    3  A    between atoms: C1'_4  and  C1_5 
ROOT
ATOM      1  C1  N4B d   1      -0.301   0.927   0.428  0.00  0.00    -0.075 A 
ATOM      2  C2  N4B d   1      -1.167   1.515   1.376  0.00  0.00     0.002 A 
ATOM      3  C3  N4B d   1      -1.468   2.853   1.294  0.00  0.00     0.002 A 
ATOM      4  C4  N4B d   1      -0.903   3.623   0.288  0.00  0.00    -0.004 A 
ATOM      5  C5  N4B d   1      -0.087   3.042  -0.639  0.00  0.00     0.002 A 
ATOM      6  C6  N4B d   1       0.221   1.698  -0.571  0.00  0.00     0.002 A 
ENDROOT
BRANCH   1   7
ATOM      7  C1' N4B d   1       0.126  -0.512   0.528  0.00  0.00     0.057 C 
BRANCH   7   8
ATOM      8  C2' N4B d   1       0.435  -1.040  -0.870  0.00  0.00     0.009 C 
BRANCH   8   9
ATOM      9  C3' N4B d   1       0.509  -2.557  -0.900  0.00  0.00     0.004 C 
ATOM     10  C4' N4B d   1       0.323  -3.120  -2.278  0.00  0.00     0.003 C 
ENDBRANCH   8   9
ENDBRANCH   7   8
ENDBRANCH   1   7
TORSDOF 3
ENDMDL
