MODEL 1
REMARK minimizedAffinity -5.01040173
REMARK minimizedRMSD -1
REMARK  3 active torsions:
REMARK  status: ('A' for Active; 'I' for Inactive)
REMARK    1  A    between atoms: C3'_2  and  C2'_3 
REMARK    2  A    between atoms: C2'_3  and  C1'_4 
REMARK    3  A    between atoms: C1'_4  and  C1_5 
ROOT
ATOM      1  C1  N4B d   1      -0.728   1.063   0.951  0.00  0.00    -0.075 A 
ATOM      2  C2  N4B d   1      -0.361   2.100   0.065  0.00  0.00     0.002 A 
ATOM      3  C3  N4B d   1      -1.174   3.198  -0.081  0.00  0.00     0.002 A 
ATOM      4  C4  N4B d   1      -2.361   3.272   0.631  0.00  0.00    -0.004 A 
ATOM      5  C5  N4B d   1      -2.696   2.278   1.504  0.00  0.00     0.002 A 
ATOM      6  C6  N4B d   1      -1.887   1.171   1.664  0.00  0.00     0.002 A 
ENDROOT
BRANCH   1   7
ATOM      7  C1' N4B d   1       0.085  -0.196   1.080  0.00  0.00     0.057 C 
BRANCH   7   8
ATOM      8  C2' N4B d   1       1.046  -0.294  -0.101  0.00  0.00     0.009 C 
BRANCH   8   9
ATOM      9  C3' N4B d   1       0.547  -1.261  -1.161  0.00  0.00     0.004 C 
ATOM     10  C4' N4B d   1       1.181  -2.617  -1.055  0.00  0.00     0.003 C 
ENDBRANCH   8   9
ENDBRANCH   7   8
ENDBRANCH   1   7
TORSDOF 3
ENDMDL
