MODEL 1
REMARK minimizedAffinity -5.33039665
REMARK minimizedRMSD -1
REMARK  3 active torsions:
REMARK  status: ('A' for Active; 'I' for Inactive)
REMARK    1  A    between atoms: C3'_2  and  C2'_3 
REMARK    2  A    between atoms: C2'_3  and  C1'_4 
REMARK    3  A    between atoms: C1'_4  and  C1_5 
ROOT
ATOM      1  C1  N4B d   1      -1.422   1.501   1.184  0.00  0.00    -0.075 A 
ATOM      2  C2  N4B d   1      -0.421   0.987   0.330  0.00  0.00     0.002 A 
ATOM      3  C3  N4B d   1      -0.075  -0.340   0.399  0.00  0.00     0.002 A 
ATOM      4  C4  N4B d   1      -0.700  -1.165   1.322  0.00  0.00    -0.004 A 
ATOM      5  C5  N4B d   1      -1.684  -0.666   2.126  0.00  0.00     0.002 A 
ATOM      6  C6  N4B d   1      -2.044   0.665   2.065  0.00  0.00     0.002 A 
ENDROOT
BRANCH   1   7
ATOM      7  C1' N4B d   1      -1.773   2.964   1.205  0.00  0.00     0.057 C 
BRANCH   7   8
ATOM      8  C2' N4B d   1      -0.616   3.765   0.616  0.00  0.00     0.009 C 
BRANCH   8   9
ATOM      9  C3' N4B d   1      -0.838   4.087  -0.852  0.00  0.00     0.004 C 
ATOM     10  C4' N4B d   1       0.434   4.080  -1.647  0.00  0.00     0.003 C 
ENDBRANCH   8   9
ENDBRANCH   7   8
ENDBRANCH   1   7
TORSDOF 3
ENDMDL
