MODEL 1
REMARK minimizedAffinity -5.64607763
REMARK minimizedRMSD -1
REMARK  3 active torsions:
REMARK  status: ('A' for Active; 'I' for Inactive)
REMARK    1  A    between atoms: C3'_2  and  C2'_3 
REMARK    2  A    between atoms: C2'_3  and  C1'_4 
REMARK    3  A    between atoms: C1'_4  and  C1_5 
ROOT
ATOM      1  C1  N4B d   1      -0.830   1.033   0.066  0.00  0.00    -0.075 A 
ATOM      2  C2  N4B d   1      -1.643   1.737   0.982  0.00  0.00     0.002 A 
ATOM      3  C3  N4B d   1      -1.616   3.110   1.010  0.00  0.00     0.002 A 
ATOM      4  C4  N4B d   1      -0.773   3.797   0.148  0.00  0.00    -0.004 A 
ATOM      5  C5  N4B d   1      -0.010   3.110  -0.751  0.00  0.00     0.002 A 
ATOM      6  C6  N4B d   1      -0.031   1.731  -0.792  0.00  0.00     0.002 A 
ENDROOT
BRANCH   1   7
ATOM      7  C1' N4B d   1      -0.762  -0.470   0.057  0.00  0.00     0.057 C 
BRANCH   7   8
ATOM      8  C2' N4B d   1       0.631  -0.905  -0.388  0.00  0.00     0.009 C 
BRANCH   8   9
ATOM      9  C3' N4B d   1       0.575  -1.950  -1.489  0.00  0.00     0.004 C 
ATOM     10  C4' N4B d   1       1.394  -3.167  -1.177  0.00  0.00     0.003 C 
ENDBRANCH   8   9
ENDBRANCH   7   8
ENDBRANCH   1   7
TORSDOF 3
ENDMDL
