MODEL 1
REMARK minimizedAffinity -5.02278423
REMARK minimizedRMSD -1
REMARK  3 active torsions:
REMARK  status: ('A' for Active; 'I' for Inactive)
REMARK    1  A    between atoms: C3'_2  and  C2'_3 
REMARK    2  A    between atoms: C2'_3  and  C1'_4 
REMARK    3  A    between atoms: C1'_4  and  C1_5 
ROOT
ATOM      1  C1  N4B d   1      -0.563   0.092   0.504  0.00  0.00    -0.075 A 
ATOM      2  C2  N4B d   1      -1.955   0.078   0.263  0.00  0.00     0.002 A 
ATOM      3  C3  N4B d   1      -2.722   1.165   0.604  0.00  0.00     0.002 A 
ATOM      4  C4  N4B d   1      -2.126   2.265   1.202  0.00  0.00    -0.004 A 
ATOM      5  C5  N4B d   1      -0.777   2.281   1.409  0.00  0.00     0.002 A 
ATOM      6  C6  N4B d   1       0.007   1.197   1.067  0.00  0.00     0.002 A 
ENDROOT
BRANCH   1   7
ATOM      7  C1' N4B d   1       0.303  -1.106   0.228  0.00  0.00     0.057 C 
BRANCH   7   8
ATOM      8  C2' N4B d   1       0.648  -1.142  -1.258  0.00  0.00     0.009 C 
BRANCH   8   9
ATOM      9  C3' N4B d   1       0.769  -2.564  -1.779  0.00  0.00     0.004 C 
ATOM     10  C4' N4B d   1       0.433  -2.680  -3.236  0.00  0.00     0.003 C 
ENDBRANCH   8   9
ENDBRANCH   7   8
ENDBRANCH   1   7
TORSDOF 3
ENDMDL
