MODEL 1
REMARK minimizedAffinity 2.56903982
REMARK minimizedRMSD -1
REMARK  0 active torsions:
REMARK  status: ('A' for Active; 'I' for Inactive)
ROOT
ATOM      1  C   UNL d   1      -0.791  -1.747   1.381  0.00  0.00     0.124 A 
ATOM      2  C1  UNL d   1       0.270  -2.294   0.674  0.00  0.00     0.062 A 
ATOM      3  C2  UNL d   1       0.742  -1.668  -0.476  0.00  0.00     0.162 A 
ATOM      4  C3  UNL d   1       0.154  -0.486  -0.926  0.00  0.00    -0.034 A 
ATOM      5  C4  UNL d   1      -0.914   0.058  -0.210  0.00  0.00     0.162 A 
ATOM      6  C5  UNL d   1      -1.383  -0.572   0.938  0.00  0.00     0.062 A 
ATOM      7  F   UNL d   1      -2.409  -0.042   1.620  0.00  0.00    -0.097 F 
ATOM      8  F1  UNL d   1      -1.504   1.193  -0.615  0.00  0.00    -0.096 F 
ATOM      9  I   UNL d   1       0.857   0.454  -2.645  0.00  0.00    -0.060 I 
ATOM     10  F2  UNL d   1       1.770  -2.219  -1.140  0.00  0.00    -0.096 F 
ATOM     11  F3  UNL d   1       0.843  -3.430   1.098  0.00  0.00    -0.097 F 
ATOM     12  F4  UNL d   1      -1.244  -2.352   2.486  0.00  0.00    -0.092 F 
ENDROOT
TORSDOF 0
ENDMDL
