MODEL 1
REMARK minimizedAffinity 2.04540515
REMARK minimizedRMSD -1
REMARK  0 active torsions:
REMARK  status: ('A' for Active; 'I' for Inactive)
ROOT
ATOM      1  C   UNL d   1      -0.790  -2.079  -0.829  0.00  0.00     0.124 A 
ATOM      2  C1  UNL d   1      -0.981  -1.603   0.461  0.00  0.00     0.062 A 
ATOM      3  C2  UNL d   1      -0.632  -0.295   0.783  0.00  0.00     0.162 A 
ATOM      4  C3  UNL d   1      -0.090   0.548  -0.187  0.00  0.00    -0.034 A 
ATOM      5  C4  UNL d   1       0.099   0.063  -1.482  0.00  0.00     0.162 A 
ATOM      6  C5  UNL d   1      -0.251  -1.246  -1.799  0.00  0.00     0.062 A 
ATOM      7  F   UNL d   1      -0.066  -1.703  -3.046  0.00  0.00    -0.097 F 
ATOM      8  F1  UNL d   1       0.618   0.846  -2.439  0.00  0.00    -0.096 F 
ATOM      9  I   UNL d   1       0.433   2.505   0.290  0.00  0.00    -0.060 I 
ATOM     10  F2  UNL d   1      -0.827   0.138   2.037  0.00  0.00    -0.096 F 
ATOM     11  F3  UNL d   1      -1.501  -2.406   1.400  0.00  0.00    -0.097 F 
ATOM     12  F4  UNL d   1      -1.126  -3.338  -1.136  0.00  0.00    -0.092 F 
ENDROOT
TORSDOF 0
ENDMDL
