MODEL 1
REMARK minimizedAffinity -2.27938056
REMARK minimizedRMSD -1
REMARK  0 active torsions:
REMARK  status: ('A' for Active; 'I' for Inactive)
ROOT
ATOM      1  C   UNL d   1      -0.516  -1.853   0.043  0.00  0.00     0.124 A 
ATOM      2  C1  UNL d   1      -1.034  -1.296   1.204  0.00  0.00     0.062 A 
ATOM      3  C2  UNL d   1      -0.853   0.058   1.471  0.00  0.00     0.162 A 
ATOM      4  C3  UNL d   1      -0.151   0.865   0.575  0.00  0.00    -0.034 A 
ATOM      5  C4  UNL d   1       0.367   0.297  -0.590  0.00  0.00     0.162 A 
ATOM      6  C5  UNL d   1       0.183  -1.057  -0.853  0.00  0.00     0.062 A 
ATOM      7  F   UNL d   1       0.684  -1.594  -1.975  0.00  0.00    -0.097 F 
ATOM      8  F1  UNL d   1       1.047   1.043  -1.473  0.00  0.00    -0.096 F 
ATOM      9  I   UNL d   1       0.121   2.890   0.971  0.00  0.00    -0.060 I 
ATOM     10  F2  UNL d   1      -1.364   0.570   2.600  0.00  0.00    -0.096 F 
ATOM     11  F3  UNL d   1      -1.710  -2.063   2.071  0.00  0.00    -0.097 F 
ATOM     12  F4  UNL d   1      -0.691  -3.157  -0.212  0.00  0.00    -0.092 F 
ENDROOT
TORSDOF 0
ENDMDL
