MODEL 1
REMARK minimizedAffinity 4.79638386
REMARK minimizedRMSD -1
REMARK  0 active torsions:
REMARK  status: ('A' for Active; 'I' for Inactive)
ROOT
ATOM      1  C   UNL d   1      -0.779  -1.993  -0.014  0.00  0.00     0.124 A 
ATOM      2  C1  UNL d   1       0.095  -1.240  -0.786  0.00  0.00     0.062 A 
ATOM      3  C2  UNL d   1       0.415   0.062  -0.412  0.00  0.00     0.162 A 
ATOM      4  C3  UNL d   1      -0.139   0.620   0.740  0.00  0.00    -0.034 A 
ATOM      5  C4  UNL d   1      -1.018  -0.143   1.511  0.00  0.00     0.162 A 
ATOM      6  C5  UNL d   1      -1.335  -1.444   1.133  0.00  0.00     0.062 A 
ATOM      7  F   UNL d   1      -2.179  -2.170   1.881  0.00  0.00    -0.097 F 
ATOM      8  F1  UNL d   1      -1.568   0.362   2.625  0.00  0.00    -0.096 F 
ATOM      9  I   UNL d   1       0.337   2.566   1.302  0.00  0.00    -0.060 I 
ATOM     10  F2  UNL d   1       1.262   0.766  -1.177  0.00  0.00    -0.096 F 
ATOM     11  F3  UNL d   1       0.632  -1.768  -1.895  0.00  0.00    -0.097 F 
ATOM     12  F4  UNL d   1      -1.087  -3.245  -0.376  0.00  0.00    -0.092 F 
ENDROOT
TORSDOF 0
ENDMDL
