MODEL 1
REMARK minimizedAffinity 8.74192142
REMARK minimizedRMSD -1
REMARK  0 active torsions:
REMARK  status: ('A' for Active; 'I' for Inactive)
ROOT
ATOM      1  C   UNL d   1       0.045  -1.140  -1.717  0.00  0.00     0.124 A 
ATOM      2  C1  UNL d   1       1.090  -0.274  -2.007  0.00  0.00     0.062 A 
ATOM      3  C2  UNL d   1       1.316   0.842  -1.207  0.00  0.00     0.162 A 
ATOM      4  C3  UNL d   1       0.495   1.098  -0.108  0.00  0.00    -0.034 A 
ATOM      5  C4  UNL d   1      -0.555   0.223   0.176  0.00  0.00     0.162 A 
ATOM      6  C5  UNL d   1      -0.776  -0.891  -0.627  0.00  0.00     0.062 A 
ATOM      7  F   UNL d   1      -1.786  -1.727  -0.345  0.00  0.00    -0.097 F 
ATOM      8  F1  UNL d   1      -1.363   0.439   1.225  0.00  0.00    -0.096 F 
ATOM      9  I   UNL d   1       0.829   2.766   1.091  0.00  0.00    -0.060 I 
ATOM     10  F2  UNL d   1       2.333   1.663  -1.510  0.00  0.00    -0.096 F 
ATOM     11  F3  UNL d   1       1.884  -0.512  -3.061  0.00  0.00    -0.097 F 
ATOM     12  F4  UNL d   1      -0.171  -2.213  -2.489  0.00  0.00    -0.092 F 
ENDROOT
TORSDOF 0
ENDMDL
