MODEL 1
REMARK minimizedAffinity 1.80092788
REMARK minimizedRMSD -1
REMARK  0 active torsions:
REMARK  status: ('A' for Active; 'I' for Inactive)
ROOT
ATOM      1  C   UNL d   1       0.391   1.102  -1.313  0.00  0.00     0.124 A 
ATOM      2  C1  UNL d   1       0.445  -0.003  -2.152  0.00  0.00     0.062 A 
ATOM      3  C2  UNL d   1       0.078  -1.260  -1.679  0.00  0.00     0.162 A 
ATOM      4  C3  UNL d   1      -0.348  -1.418  -0.360  0.00  0.00    -0.034 A 
ATOM      5  C4  UNL d   1      -0.399  -0.303   0.478  0.00  0.00     0.162 A 
ATOM      6  C5  UNL d   1      -0.031   0.951   0.000  0.00  0.00     0.062 A 
ATOM      7  F   UNL d   1      -0.084   2.017   0.812  0.00  0.00    -0.097 F 
ATOM      8  F1  UNL d   1      -0.804  -0.419   1.751  0.00  0.00    -0.096 F 
ATOM      9  I   UNL d   1      -0.899  -3.295   0.351  0.00  0.00    -0.060 I 
ATOM     10  F2  UNL d   1       0.140  -2.309  -2.511  0.00  0.00    -0.096 F 
ATOM     11  F3  UNL d   1       0.854   0.140  -3.421  0.00  0.00    -0.097 F 
ATOM     12  F4  UNL d   1       0.746   2.309  -1.771  0.00  0.00    -0.092 F 
ENDROOT
TORSDOF 0
ENDMDL
