MODEL 1
REMARK minimizedAffinity -0.650912225
REMARK minimizedRMSD -1
REMARK  0 active torsions:
REMARK  status: ('A' for Active; 'I' for Inactive)
ROOT
ATOM      1  C   UNL d   1       0.841  -2.689  -1.689  0.00  0.00     0.124 A 
ATOM      2  C1  UNL d   1       1.295  -1.436  -1.302  0.00  0.00     0.062 A 
ATOM      3  C2  UNL d   1       0.592  -0.700  -0.352  0.00  0.00     0.162 A 
ATOM      4  C3  UNL d   1      -0.572  -1.215   0.218  0.00  0.00    -0.034 A 
ATOM      5  C4  UNL d   1      -1.022  -2.476  -0.176  0.00  0.00     0.162 A 
ATOM      6  C5  UNL d   1      -0.317  -3.208  -1.126  0.00  0.00     0.062 A 
ATOM      7  F   UNL d   1      -0.757  -4.419  -1.499  0.00  0.00    -0.097 F 
ATOM      8  F1  UNL d   1      -2.138  -3.002   0.352  0.00  0.00    -0.096 F 
ATOM      9  I   UNL d   1      -1.625  -0.117   1.639  0.00  0.00    -0.060 I 
ATOM     10  F2  UNL d   1       1.054   0.509   0.003  0.00  0.00    -0.096 F 
ATOM     11  F3  UNL d   1       2.412  -0.932  -1.845  0.00  0.00    -0.097 F 
ATOM     12  F4  UNL d   1       1.518  -3.395  -2.603  0.00  0.00    -0.092 F 
ENDROOT
TORSDOF 0
ENDMDL
