MODEL 1
REMARK minimizedAffinity 3.45184112
REMARK minimizedRMSD -1
REMARK  0 active torsions:
REMARK  status: ('A' for Active; 'I' for Inactive)
ROOT
ATOM      1  C   UNL d   1      -0.716  -1.909  -0.388  0.00  0.00     0.124 A 
ATOM      2  C1  UNL d   1      -0.283  -1.080  -1.413  0.00  0.00     0.062 A 
ATOM      3  C2  UNL d   1       0.045   0.247  -1.150  0.00  0.00     0.162 A 
ATOM      4  C3  UNL d   1      -0.059   0.754   0.146  0.00  0.00    -0.034 A 
ATOM      5  C4  UNL d   1      -0.497  -0.086   1.172  0.00  0.00     0.162 A 
ATOM      6  C5  UNL d   1      -0.823  -1.411   0.903  0.00  0.00     0.062 A 
ATOM      7  F   UNL d   1      -1.241  -2.211   1.895  0.00  0.00    -0.097 F 
ATOM      8  F1  UNL d   1      -0.608   0.369   2.429  0.00  0.00    -0.096 F 
ATOM      9  I   UNL d   1       0.429   2.737   0.544  0.00  0.00    -0.060 I 
ATOM     10  F2  UNL d   1       0.461   1.025  -2.160  0.00  0.00    -0.096 F 
ATOM     11  F3  UNL d   1      -0.180  -1.558  -2.662  0.00  0.00    -0.097 F 
ATOM     12  F4  UNL d   1      -1.032  -3.185  -0.644  0.00  0.00    -0.092 F 
ENDROOT
TORSDOF 0
ENDMDL
