MODEL 1
REMARK minimizedAffinity -0.970157087
REMARK minimizedRMSD -1
REMARK  0 active torsions:
REMARK  status: ('A' for Active; 'I' for Inactive)
ROOT
ATOM      1  C   UNL d   1      -0.851  -1.855  -0.105  0.00  0.00     0.124 A 
ATOM      2  C1  UNL d   1      -0.673  -1.412   1.198  0.00  0.00     0.062 A 
ATOM      3  C2  UNL d   1      -0.140  -0.149   1.441  0.00  0.00     0.162 A 
ATOM      4  C3  UNL d   1       0.218   0.681   0.379  0.00  0.00    -0.034 A 
ATOM      5  C4  UNL d   1       0.037   0.227  -0.929  0.00  0.00     0.162 A 
ATOM      6  C5  UNL d   1      -0.496  -1.035  -1.167  0.00  0.00     0.062 A 
ATOM      7  F   UNL d   1      -0.668  -1.462  -2.427  0.00  0.00    -0.097 F 
ATOM      8  F1  UNL d   1       0.370   0.999  -1.974  0.00  0.00    -0.096 F 
ATOM      9  I   UNL d   1       1.015   2.569   0.738  0.00  0.00    -0.060 I 
ATOM     10  F2  UNL d   1       0.022   0.253   2.711  0.00  0.00    -0.096 F 
ATOM     11  F3  UNL d   1      -1.014  -2.202   2.226  0.00  0.00    -0.097 F 
ATOM     12  F4  UNL d   1      -1.363  -3.071  -0.336  0.00  0.00    -0.092 F 
ENDROOT
TORSDOF 0
ENDMDL
