MODEL 1
REMARK minimizedAffinity 0.602665365
REMARK minimizedRMSD -1
REMARK  0 active torsions:
REMARK  status: ('A' for Active; 'I' for Inactive)
ROOT
ATOM      1  C   UNL d   1       0.193   1.100  -1.294  0.00  0.00     0.124 A 
ATOM      2  C1  UNL d   1       0.365   0.025  -2.154  0.00  0.00     0.062 A 
ATOM      3  C2  UNL d   1       0.025  -1.261  -1.744  0.00  0.00     0.162 A 
ATOM      4  C3  UNL d   1      -0.493  -1.479  -0.467  0.00  0.00    -0.034 A 
ATOM      5  C4  UNL d   1      -0.662  -0.393   0.393  0.00  0.00     0.162 A 
ATOM      6  C5  UNL d   1      -0.321   0.891  -0.022  0.00  0.00     0.062 A 
ATOM      7  F   UNL d   1      -0.488   1.928   0.811  0.00  0.00    -0.097 F 
ATOM      8  F1  UNL d   1      -1.157  -0.566   1.627  0.00  0.00    -0.096 F 
ATOM      9  I   UNL d   1      -1.003  -3.400   0.149  0.00  0.00    -0.060 I 
ATOM     10  F2  UNL d   1       0.202  -2.282  -2.597  0.00  0.00    -0.096 F 
ATOM     11  F3  UNL d   1       0.862   0.224  -3.384  0.00  0.00    -0.097 F 
ATOM     12  F4  UNL d   1       0.522   2.336  -1.690  0.00  0.00    -0.092 F 
ENDROOT
TORSDOF 0
ENDMDL
