MODEL 1
REMARK minimizedAffinity -3.09272814
REMARK minimizedRMSD -1
REMARK  0 active torsions:
REMARK  status: ('A' for Active; 'I' for Inactive)
ROOT
ATOM      1  C   UNL d   1      -0.088  -0.570  -1.903  0.00  0.00     0.124 A 
ATOM      2  C1  UNL d   1       0.741   0.368  -2.502  0.00  0.00     0.062 A 
ATOM      3  C2  UNL d   1       1.200   1.463  -1.775  0.00  0.00     0.162 A 
ATOM      4  C3  UNL d   1       0.832   1.625  -0.440  0.00  0.00    -0.034 A 
ATOM      5  C4  UNL d   1      -0.003   0.677   0.156  0.00  0.00     0.162 A 
ATOM      6  C5  UNL d   1      -0.459  -0.415  -0.575  0.00  0.00     0.062 A 
ATOM      7  F   UNL d   1      -1.259  -1.320   0.006  0.00  0.00    -0.097 F 
ATOM      8  F1  UNL d   1      -0.376   0.802   1.438  0.00  0.00    -0.096 F 
ATOM      9  I   UNL d   1       1.516   3.260   0.651  0.00  0.00    -0.060 I 
ATOM     10  F2  UNL d   1       2.000   2.354  -2.380  0.00  0.00    -0.096 F 
ATOM     11  F3  UNL d   1       1.100   0.221  -3.786  0.00  0.00    -0.097 F 
ATOM     12  F4  UNL d   1      -0.529  -1.622  -2.605  0.00  0.00    -0.092 F 
ENDROOT
TORSDOF 0
ENDMDL
