MODEL 1
REMARK minimizedAffinity -1.54624903
REMARK minimizedRMSD -1
REMARK  0 active torsions:
REMARK  status: ('A' for Active; 'I' for Inactive)
ROOT
ATOM      1  C   UNL d   1       0.148   2.039  -0.592  0.00  0.00     0.124 A 
ATOM      2  C1  UNL d   1       0.477   1.592   0.680  0.00  0.00     0.062 A 
ATOM      3  C2  UNL d   1       0.406   0.236   0.986  0.00  0.00     0.162 A 
ATOM      4  C3  UNL d   1       0.004  -0.683   0.017  0.00  0.00    -0.034 A 
ATOM      5  C4  UNL d   1      -0.327  -0.226  -1.260  0.00  0.00     0.162 A 
ATOM      6  C5  UNL d   1      -0.253   1.130  -1.560  0.00  0.00     0.062 A 
ATOM      7  F   UNL d   1      -0.572   1.561  -2.790  0.00  0.00    -0.097 F 
ATOM      8  F1  UNL d   1      -0.717  -1.083  -2.215  0.00  0.00    -0.096 F 
ATOM      9  I   UNL d   1      -0.105  -2.712   0.470  0.00  0.00    -0.060 I 
ATOM     10  F2  UNL d   1       0.730  -0.168   2.223  0.00  0.00    -0.096 F 
ATOM     11  F3  UNL d   1       0.865   2.468   1.618  0.00  0.00    -0.097 F 
ATOM     12  F4  UNL d   1       0.217   3.345  -0.883  0.00  0.00    -0.092 F 
ENDROOT
TORSDOF 0
ENDMDL
