MODEL 1
REMARK minimizedAffinity 0.0259816013
REMARK minimizedRMSD -1
REMARK  2 active torsions:
REMARK  status: ('A' for Active; 'I' for Inactive)
REMARK    1  A    between atoms: C1_2  and  C2_3 
REMARK    2  A    between atoms: C2_3  and  C3_4 
ROOT
ATOM      1  C3  UNL d   1       1.813  -0.592  -0.740  0.00  0.00    -0.075 A 
ATOM      2  C4  UNL d   1       2.690  -1.490  -1.364  0.00  0.00     0.002 A 
ATOM      3  C5  UNL d   1       3.610  -1.039  -2.311  0.00  0.00     0.002 A 
ATOM      4  C6  UNL d   1       3.658   0.310  -2.653  0.00  0.00    -0.004 A 
ATOM      5  C7  UNL d   1       2.779   1.209  -2.051  0.00  0.00     0.002 A 
ATOM      6  C8  UNL d   1       1.861   0.762  -1.100  0.00  0.00     0.002 A 
ENDROOT
BRANCH   1   7
ATOM      7  C2  UNL d   1       0.835  -1.068   0.308  0.00  0.00     0.056 C 
BRANCH   7   8
ATOM      8  C1  UNL d   1       0.713  -0.136   1.517  0.00  0.00     0.007 C 
ATOM      9  C   UNL d   1       2.046   0.455   1.957  0.00  0.00     0.009 C 
ENDBRANCH   7   8
ENDBRANCH   1   7
TORSDOF 2
ENDMDL
