MODEL 1
REMARK minimizedAffinity 3.04345584
REMARK minimizedRMSD -1
REMARK  2 active torsions:
REMARK  status: ('A' for Active; 'I' for Inactive)
REMARK    1  A    between atoms: C1_2  and  C2_3 
REMARK    2  A    between atoms: C2_3  and  C3_4 
ROOT
ATOM      1  C3  UNL d   1       2.616  -0.959  -1.275  0.00  0.00    -0.075 A 
ATOM      2  C4  UNL d   1       2.358   0.382  -0.955  0.00  0.00     0.002 A 
ATOM      3  C5  UNL d   1       1.436   0.708   0.039  0.00  0.00     0.002 A 
ATOM      4  C6  UNL d   1       0.754  -0.299   0.718  0.00  0.00    -0.004 A 
ATOM      5  C7  UNL d   1       0.990  -1.634   0.398  0.00  0.00     0.002 A 
ATOM      6  C8  UNL d   1       1.916  -1.964  -0.594  0.00  0.00     0.002 A 
ENDROOT
BRANCH   1   7
ATOM      7  C2  UNL d   1       3.635  -1.320  -2.330  0.00  0.00     0.056 C 
BRANCH   7   8
ATOM      8  C1  UNL d   1       4.582  -0.174  -2.700  0.00  0.00     0.007 C 
ATOM      9  C   UNL d   1       5.865  -0.648  -3.370  0.00  0.00     0.009 C 
ENDBRANCH   7   8
ENDBRANCH   1   7
TORSDOF 2
ENDMDL
