MODEL 1
REMARK minimizedAffinity 3.90129375
REMARK minimizedRMSD -1
REMARK  2 active torsions:
REMARK  status: ('A' for Active; 'I' for Inactive)
REMARK    1  A    between atoms: C1_2  and  C2_3 
REMARK    2  A    between atoms: C2_3  and  C3_4 
ROOT
ATOM      1  C3  UNL d   1       2.886  -1.501  -0.636  0.00  0.00    -0.075 A 
ATOM      2  C4  UNL d   1       2.109  -2.667  -0.686  0.00  0.00     0.002 A 
ATOM      3  C5  UNL d   1       1.168  -2.934   0.308  0.00  0.00     0.002 A 
ATOM      4  C6  UNL d   1       0.998  -2.046   1.368  0.00  0.00    -0.004 A 
ATOM      5  C7  UNL d   1       1.776  -0.892   1.436  0.00  0.00     0.002 A 
ATOM      6  C8  UNL d   1       2.716  -0.620   0.440  0.00  0.00     0.002 A 
ENDROOT
BRANCH   1   7
ATOM      7  C2  UNL d   1       3.886  -1.191  -1.725  0.00  0.00     0.056 C 
BRANCH   7   8
ATOM      8  C1  UNL d   1       4.133   0.306  -1.937  0.00  0.00     0.007 C 
ATOM      9  C   UNL d   1       5.396   0.598  -2.738  0.00  0.00     0.009 C 
ENDBRANCH   7   8
ENDBRANCH   1   7
TORSDOF 2
ENDMDL
