MODEL 1
REMARK minimizedAffinity -0.0384353809
REMARK minimizedRMSD -1
REMARK  2 active torsions:
REMARK  status: ('A' for Active; 'I' for Inactive)
REMARK    1  A    between atoms: C1_2  and  C2_3 
REMARK    2  A    between atoms: C2_3  and  C3_4 
ROOT
ATOM      1  C3  UNL d   1      -3.216   3.013  -3.896  0.00  0.00    -0.075 A 
ATOM      2  C4  UNL d   1      -3.862   3.965  -4.698  0.00  0.00     0.002 A 
ATOM      3  C5  UNL d   1      -5.245   4.131  -4.625  0.00  0.00     0.002 A 
ATOM      4  C6  UNL d   1      -6.000   3.342  -3.760  0.00  0.00    -0.004 A 
ATOM      5  C7  UNL d   1      -5.371   2.381  -2.972  0.00  0.00     0.002 A 
ATOM      6  C8  UNL d   1      -3.986   2.216  -3.039  0.00  0.00     0.002 A 
ENDROOT
BRANCH   1   7
ATOM      7  C2  UNL d   1      -1.716   2.849  -3.948  0.00  0.00     0.056 C 
BRANCH   7   8
ATOM      8  C1  UNL d   1      -0.937   4.091  -3.504  0.00  0.00     0.007 C 
ATOM      9  C   UNL d   1      -1.098   4.403  -2.022  0.00  0.00     0.009 C 
ENDBRANCH   7   8
ENDBRANCH   1   7
TORSDOF 2
ENDMDL
