MODEL 1
REMARK minimizedAffinity -1.97647667
REMARK minimizedRMSD -1
REMARK  2 active torsions:
REMARK  status: ('A' for Active; 'I' for Inactive)
REMARK    1  A    between atoms: C1_2  and  C2_3 
REMARK    2  A    between atoms: C2_3  and  C3_4 
ROOT
ATOM      1  C3  UNL d   1       1.682   0.909  -0.492  0.00  0.00    -0.075 A 
ATOM      2  C4  UNL d   1       0.941   0.491   0.623  0.00  0.00     0.002 A 
ATOM      3  C5  UNL d   1       0.928  -0.852   1.001  0.00  0.00     0.002 A 
ATOM      4  C6  UNL d   1       1.645  -1.793   0.266  0.00  0.00    -0.004 A 
ATOM      5  C7  UNL d   1       2.371  -1.392  -0.853  0.00  0.00     0.002 A 
ATOM      6  C8  UNL d   1       2.390  -0.048  -1.232  0.00  0.00     0.002 A 
ENDROOT
BRANCH   1   7
ATOM      7  C2  UNL d   1       1.724   2.365  -0.890  0.00  0.00     0.056 C 
BRANCH   7   8
ATOM      8  C1  UNL d   1       2.055   3.317   0.264  0.00  0.00     0.007 C 
ATOM      9  C   UNL d   1       1.032   4.433   0.434  0.00  0.00     0.009 C 
ENDBRANCH   7   8
ENDBRANCH   1   7
TORSDOF 2
ENDMDL
