MODEL 1
REMARK minimizedAffinity -0.246723637
REMARK minimizedRMSD -1
REMARK  2 active torsions:
REMARK  status: ('A' for Active; 'I' for Inactive)
REMARK    1  A    between atoms: C1_2  and  C2_3 
REMARK    2  A    between atoms: C2_3  and  C3_4 
ROOT
ATOM      1  C3  UNL d   1       2.693  -0.720  -0.822  0.00  0.00    -0.075 A 
ATOM      2  C4  UNL d   1       2.373   0.640  -0.706  0.00  0.00     0.002 A 
ATOM      3  C5  UNL d   1       1.433   1.069   0.232  0.00  0.00     0.002 A 
ATOM      4  C6  UNL d   1       0.796   0.145   1.057  0.00  0.00    -0.004 A 
ATOM      5  C7  UNL d   1       1.094  -1.211   0.939  0.00  0.00     0.002 A 
ATOM      6  C8  UNL d   1       2.037  -1.642   0.004  0.00  0.00     0.002 A 
ENDROOT
BRANCH   1   7
ATOM      7  C2  UNL d   1       3.731  -1.188  -1.815  0.00  0.00     0.056 C 
BRANCH   7   8
ATOM      8  C1  UNL d   1       4.516  -0.052  -2.478  0.00  0.00     0.007 C 
ATOM      9  C   UNL d   1       5.786  -0.525  -3.173  0.00  0.00     0.009 C 
ENDBRANCH   7   8
ENDBRANCH   1   7
TORSDOF 2
ENDMDL
