MODEL 1
REMARK minimizedAffinity -0.881400287
REMARK minimizedRMSD -1
REMARK  2 active torsions:
REMARK  status: ('A' for Active; 'I' for Inactive)
REMARK    1  A    between atoms: C1_2  and  C2_3 
REMARK    2  A    between atoms: C2_3  and  C3_4 
ROOT
ATOM      1  C3  UNL d   1       1.102  -0.623   0.936  0.00  0.00    -0.075 A 
ATOM      2  C4  UNL d   1       1.045   0.698   0.468  0.00  0.00     0.002 A 
ATOM      3  C5  UNL d   1       1.752   1.076  -0.673  0.00  0.00     0.002 A 
ATOM      4  C6  UNL d   1       2.531   0.144  -1.355  0.00  0.00    -0.004 A 
ATOM      5  C7  UNL d   1       2.608  -1.167  -0.890  0.00  0.00     0.002 A 
ATOM      6  C8  UNL d   1       1.898  -1.550   0.250  0.00  0.00     0.002 A 
ENDROOT
BRANCH   1   7
ATOM      7  C2  UNL d   1       0.316  -1.046   2.154  0.00  0.00     0.056 C 
BRANCH   7   8
ATOM      8  C1  UNL d   1      -0.633  -2.223   1.906  0.00  0.00     0.007 C 
ATOM      9  C   UNL d   1      -2.101  -1.818   1.891  0.00  0.00     0.009 C 
ENDBRANCH   7   8
ENDBRANCH   1   7
TORSDOF 2
ENDMDL
