MODEL 1
REMARK minimizedAffinity 5.62692785
REMARK minimizedRMSD -1
REMARK  2 active torsions:
REMARK  status: ('A' for Active; 'I' for Inactive)
REMARK    1  A    between atoms: C1_2  and  C2_3 
REMARK    2  A    between atoms: C2_3  and  C3_4 
ROOT
ATOM      1  C3  UNL d   1       0.982  -0.759   0.742  0.00  0.00    -0.075 A 
ATOM      2  C4  UNL d   1       1.253   0.611   0.877  0.00  0.00     0.002 A 
ATOM      3  C5  UNL d   1       2.087   1.261  -0.033  0.00  0.00     0.002 A 
ATOM      4  C6  UNL d   1       2.668   0.550  -1.081  0.00  0.00    -0.004 A 
ATOM      5  C7  UNL d   1       2.419  -0.814  -1.215  0.00  0.00     0.002 A 
ATOM      6  C8  UNL d   1       1.582  -1.466  -0.308  0.00  0.00     0.002 A 
ENDROOT
BRANCH   1   7
ATOM      7  C2  UNL d   1       0.057  -1.462   1.706  0.00  0.00     0.056 C 
BRANCH   7   8
ATOM      8  C1  UNL d   1      -1.274  -0.737   1.935  0.00  0.00     0.007 C 
ATOM      9  C   UNL d   1      -2.485  -1.651   1.804  0.00  0.00     0.009 C 
ENDBRANCH   7   8
ENDBRANCH   1   7
TORSDOF 2
ENDMDL
