MODEL 1
REMARK minimizedAffinity 2.10098362
REMARK minimizedRMSD -1
REMARK  2 active torsions:
REMARK  status: ('A' for Active; 'I' for Inactive)
REMARK    1  A    between atoms: C1_2  and  C2_3 
REMARK    2  A    between atoms: C2_3  and  C3_4 
ROOT
ATOM      1  C3  UNL d   1       2.825  -0.958  -1.249  0.00  0.00    -0.075 A 
ATOM      2  C4  UNL d   1       2.670   0.285  -0.618  0.00  0.00     0.002 A 
ATOM      3  C5  UNL d   1       1.798   0.428   0.462  0.00  0.00     0.002 A 
ATOM      4  C6  UNL d   1       1.064  -0.665   0.917  0.00  0.00    -0.004 A 
ATOM      5  C7  UNL d   1       1.197  -1.901   0.287  0.00  0.00     0.002 A 
ATOM      6  C8  UNL d   1       2.072  -2.047  -0.791  0.00  0.00     0.002 A 
ENDROOT
BRANCH   1   7
ATOM      7  C2  UNL d   1       3.789  -1.125  -2.399  0.00  0.00     0.056 C 
BRANCH   7   8
ATOM      8  C1  UNL d   1       4.707   0.081  -2.625  0.00  0.00     0.007 C 
ATOM      9  C   UNL d   1       5.997  -0.274  -3.352  0.00  0.00     0.009 C 
ENDBRANCH   7   8
ENDBRANCH   1   7
TORSDOF 2
ENDMDL
