MODEL 1
REMARK minimizedAffinity -3.08047128
REMARK minimizedRMSD -1
REMARK  2 active torsions:
REMARK  status: ('A' for Active; 'I' for Inactive)
REMARK    1  A    between atoms: C1_2  and  C2_3 
REMARK    2  A    between atoms: C2_3  and  C3_4 
ROOT
ATOM      1  C3  UNL d   1       1.041  -0.219   0.553  0.00  0.00    -0.075 A 
ATOM      2  C4  UNL d   1       1.633   0.979   0.127  0.00  0.00     0.002 A 
ATOM      3  C5  UNL d   1       2.618   0.970  -0.861  0.00  0.00     0.002 A 
ATOM      4  C6  UNL d   1       3.030  -0.235  -1.427  0.00  0.00    -0.004 A 
ATOM      5  C7  UNL d   1       2.460  -1.432  -1.000  0.00  0.00     0.002 A 
ATOM      6  C8  UNL d   1       1.471  -1.425  -0.014  0.00  0.00     0.002 A 
ENDROOT
BRANCH   1   7
ATOM      7  C2  UNL d   1      -0.046  -0.213   1.601  0.00  0.00     0.056 C 
BRANCH   7   8
ATOM      8  C1  UNL d   1      -1.012  -1.398   1.504  0.00  0.00     0.007 C 
ATOM      9  C   UNL d   1      -2.439  -1.044   1.903  0.00  0.00     0.009 C 
ENDBRANCH   7   8
ENDBRANCH   1   7
TORSDOF 2
ENDMDL
