MODEL 1
REMARK minimizedAffinity -2.90619826
REMARK minimizedRMSD -1
REMARK  2 active torsions:
REMARK  status: ('A' for Active; 'I' for Inactive)
REMARK    1  A    between atoms: C1_2  and  C2_3 
REMARK    2  A    between atoms: C2_3  and  C3_4 
ROOT
ATOM      1  C3  UNL d   1       2.435  -1.331  -0.621  0.00  0.00    -0.075 A 
ATOM      2  C4  UNL d   1       2.213  -0.048  -0.103  0.00  0.00     0.002 A 
ATOM      3  C5  UNL d   1       1.147   0.191   0.766  0.00  0.00     0.002 A 
ATOM      4  C6  UNL d   1       0.286  -0.847   1.118  0.00  0.00    -0.004 A 
ATOM      5  C7  UNL d   1       0.488  -2.123   0.596  0.00  0.00     0.002 A 
ATOM      6  C8  UNL d   1       1.557  -2.365  -0.270  0.00  0.00     0.002 A 
ENDROOT
BRANCH   1   7
ATOM      7  C2  UNL d   1       3.604  -1.602  -1.538  0.00  0.00     0.056 C 
BRANCH   7   8
ATOM      8  C1  UNL d   1       4.216  -0.341  -2.157  0.00  0.00     0.007 C 
ATOM      9  C   UNL d   1       5.434  -0.629  -3.025  0.00  0.00     0.009 C 
ENDBRANCH   7   8
ENDBRANCH   1   7
TORSDOF 2
ENDMDL
