MODEL 1
REMARK minimizedAffinity -2.44576454
REMARK minimizedRMSD -1
REMARK  2 active torsions:
REMARK  status: ('A' for Active; 'I' for Inactive)
REMARK    1  A    between atoms: C1_2  and  C2_3 
REMARK    2  A    between atoms: C2_3  and  C3_4 
ROOT
ATOM      1  C3  UNL d   1       0.584  -0.840   1.377  0.00  0.00    -0.075 A 
ATOM      2  C4  UNL d   1       1.186  -1.956   0.779  0.00  0.00     0.002 A 
ATOM      3  C5  UNL d   1       2.016  -1.804  -0.332  0.00  0.00     0.002 A 
ATOM      4  C6  UNL d   1       2.245  -0.537  -0.865  0.00  0.00    -0.004 A 
ATOM      5  C7  UNL d   1       1.638   0.577  -0.289  0.00  0.00     0.002 A 
ATOM      6  C8  UNL d   1       0.811   0.428   0.825  0.00  0.00     0.002 A 
ENDROOT
BRANCH   1   7
ATOM      7  C2  UNL d   1      -0.292  -0.995   2.598  0.00  0.00     0.056 C 
BRANCH   7   8
ATOM      8  C1  UNL d   1      -1.791  -0.870   2.310  0.00  0.00     0.007 C 
ATOM      9  C   UNL d   1      -2.394  -2.130   1.703  0.00  0.00     0.009 C 
ENDBRANCH   7   8
ENDBRANCH   1   7
TORSDOF 2
ENDMDL
