MODEL 1
REMARK minimizedAffinity -2.60570002
REMARK minimizedRMSD -1
REMARK  2 active torsions:
REMARK  status: ('A' for Active; 'I' for Inactive)
REMARK    1  A    between atoms: C1_2  and  C2_3 
REMARK    2  A    between atoms: C2_3  and  C3_4 
ROOT
ATOM      1  C3  UNL d   1       1.400  -0.872  -0.119  0.00  0.00    -0.075 A 
ATOM      2  C4  UNL d   1       1.573   0.447  -0.564  0.00  0.00     0.002 A 
ATOM      3  C5  UNL d   1       2.622   0.772  -1.424  0.00  0.00     0.002 A 
ATOM      4  C6  UNL d   1       3.517  -0.211  -1.840  0.00  0.00    -0.004 A 
ATOM      5  C7  UNL d   1       3.365  -1.521  -1.391  0.00  0.00     0.002 A 
ATOM      6  C8  UNL d   1       2.313  -1.851  -0.535  0.00  0.00     0.002 A 
ENDROOT
BRANCH   1   7
ATOM      7  C2  UNL d   1       0.249  -1.237   0.788  0.00  0.00     0.056 C 
BRANCH   7   8
ATOM      8  C1  UNL d   1      -0.013  -0.219   1.903  0.00  0.00     0.007 C 
ATOM      9  C   UNL d   1      -1.244  -0.548   2.738  0.00  0.00     0.009 C 
ENDBRANCH   7   8
ENDBRANCH   1   7
TORSDOF 2
ENDMDL
