MODEL 1
REMARK minimizedAffinity -2.79192662
REMARK minimizedRMSD -1
REMARK  2 active torsions:
REMARK  status: ('A' for Active; 'I' for Inactive)
REMARK    1  A    between atoms: C1_2  and  C2_3 
REMARK    2  A    between atoms: C2_3  and  C3_4 
ROOT
ATOM      1  C3  UNL d   1       1.103   1.010  -0.547  0.00  0.00    -0.075 A 
ATOM      2  C4  UNL d   1       2.228   0.775  -1.351  0.00  0.00     0.002 A 
ATOM      3  C5  UNL d   1       2.875  -0.461  -1.320  0.00  0.00     0.002 A 
ATOM      4  C6  UNL d   1       2.413  -1.472  -0.480  0.00  0.00    -0.004 A 
ATOM      5  C7  UNL d   1       1.306  -1.243   0.335  0.00  0.00     0.002 A 
ATOM      6  C8  UNL d   1       0.654  -0.009   0.303  0.00  0.00     0.002 A 
ENDROOT
BRANCH   1   7
ATOM      7  C2  UNL d   1       0.381   2.335  -0.598  0.00  0.00     0.056 C 
BRANCH   7   8
ATOM      8  C1  UNL d   1      -0.008   2.780  -2.011  0.00  0.00     0.007 C 
ATOM      9  C   UNL d   1      -0.528   4.210  -2.069  0.00  0.00     0.009 C 
ENDBRANCH   7   8
ENDBRANCH   1   7
TORSDOF 2
ENDMDL
