MODEL 1
REMARK minimizedAffinity -1.48838675
REMARK minimizedRMSD -1
REMARK  2 active torsions:
REMARK  status: ('A' for Active; 'I' for Inactive)
REMARK    1  A    between atoms: C1_2  and  C2_3 
REMARK    2  A    between atoms: C2_3  and  C3_4 
ROOT
ATOM      1  C3  UNL d   1       1.883  -0.625  -0.793  0.00  0.00    -0.075 A 
ATOM      2  C4  UNL d   1       2.049   0.728  -0.463  0.00  0.00     0.002 A 
ATOM      3  C5  UNL d   1       1.455   1.256   0.684  0.00  0.00     0.002 A 
ATOM      4  C6  UNL d   1       0.681   0.442   1.508  0.00  0.00    -0.004 A 
ATOM      5  C7  UNL d   1       0.495  -0.899   1.180  0.00  0.00     0.002 A 
ATOM      6  C8  UNL d   1       1.092  -1.431   0.036  0.00  0.00     0.002 A 
ENDROOT
BRANCH   1   7
ATOM      7  C2  UNL d   1       2.548  -1.208  -2.017  0.00  0.00     0.056 C 
BRANCH   7   8
ATOM      8  C1  UNL d   1       4.078  -1.227  -1.947  0.00  0.00     0.007 C 
ATOM      9  C   UNL d   1       4.734  -0.208  -2.870  0.00  0.00     0.009 C 
ENDBRANCH   7   8
ENDBRANCH   1   7
TORSDOF 2
ENDMDL
