MODEL 1
REMARK minimizedAffinity -1.60135734
REMARK minimizedRMSD -1
REMARK  2 active torsions:
REMARK  status: ('A' for Active; 'I' for Inactive)
REMARK    1  A    between atoms: C1_2  and  C2_3 
REMARK    2  A    between atoms: C2_3  and  C3_4 
ROOT
ATOM      1  C3  UNL d   1       1.109  -0.190   0.683  0.00  0.00    -0.075 A 
ATOM      2  C4  UNL d   1       1.541   1.112   0.392  0.00  0.00     0.002 A 
ATOM      3  C5  UNL d   1       2.462   1.341  -0.631  0.00  0.00     0.002 A 
ATOM      4  C6  UNL d   1       2.969   0.273  -1.367  0.00  0.00    -0.004 A 
ATOM      5  C7  UNL d   1       2.559  -1.027  -1.076  0.00  0.00     0.002 A 
ATOM      6  C8  UNL d   1       1.635  -1.258  -0.056  0.00  0.00     0.002 A 
ENDROOT
BRANCH   1   7
ATOM      7  C2  UNL d   1       0.090  -0.441   1.769  0.00  0.00     0.056 C 
BRANCH   7   8
ATOM      8  C1  UNL d   1      -0.697  -1.744   1.597  0.00  0.00     0.007 C 
ATOM      9  C   UNL d   1      -2.177  -1.600   1.928  0.00  0.00     0.009 C 
ENDBRANCH   7   8
ENDBRANCH   1   7
TORSDOF 2
ENDMDL
