MODEL 1
REMARK minimizedAffinity 1.78452027
REMARK minimizedRMSD -1
REMARK  0 active torsions:
REMARK  status: ('A' for Active; 'I' for Inactive)
ROOT
ATOM      1  O1  BZF d   1       0.965   3.511  -3.775  0.00  0.00    -0.204 OA
ATOM      2  C2  BZF d   1       1.386   2.925  -4.953  0.00  0.00     0.174 A 
ATOM      3  C3  BZF d   1       0.660   3.373  -5.997  0.00  0.00    -0.012 A 
ATOM      4  C3A BZF d   1      -0.212   4.367  -5.450  0.00  0.00    -0.107 A 
ATOM      5  C4  BZF d   1      -1.162   5.183  -5.993  0.00  0.00     0.055 A 
ATOM      6  C5  BZF d   1      -1.888   5.989  -5.173  0.00  0.00    -0.016 A 
ATOM      7  C6  BZF d   1      -1.693   5.999  -3.807  0.00  0.00     0.022 A 
ATOM      8  C7  BZF d   1      -0.758   5.210  -3.223  0.00  0.00     0.029 A 
ATOM      9  C7A BZF d   1      -0.001   4.420  -4.053  0.00  0.00     0.058 A 
ENDROOT
TORSDOF 0
ENDMDL
