MODEL 1
REMARK minimizedAffinity 1.01454234
REMARK minimizedRMSD -1
REMARK  0 active torsions:
REMARK  status: ('A' for Active; 'I' for Inactive)
ROOT
ATOM      1  O1  BZF d   1      -3.264   4.004  -6.000  0.00  0.00    -0.204 OA
ATOM      2  C2  BZF d   1      -3.454   5.367  -5.880  0.00  0.00     0.174 A 
ATOM      3  C3  BZF d   1      -2.278   6.000  -5.692  0.00  0.00    -0.012 A 
ATOM      4  C3A BZF d   1      -1.282   4.977  -5.787  0.00  0.00    -0.107 A 
ATOM      5  C4  BZF d   1       0.081   4.984  -5.702  0.00  0.00     0.055 A 
ATOM      6  C5  BZF d   1       0.753   3.805  -5.765  0.00  0.00    -0.016 A 
ATOM      7  C6  BZF d   1       0.094   2.601  -5.906  0.00  0.00     0.022 A 
ATOM      8  C7  BZF d   1      -1.257   2.544  -6.000  0.00  0.00     0.029 A 
ATOM      9  C7A BZF d   1      -1.936   3.737  -5.970  0.00  0.00     0.058 A 
ENDROOT
TORSDOF 0
ENDMDL
