MODEL 1
REMARK minimizedAffinity -0.0516194999
REMARK minimizedRMSD -1
REMARK  0 active torsions:
REMARK  status: ('A' for Active; 'I' for Inactive)
ROOT
ATOM      1  O1  BZF d   1      -2.494   4.671  -5.924  0.00  0.00    -0.204 OA
ATOM      2  C2  BZF d   1      -3.010   3.389  -5.924  0.00  0.00     0.174 A 
ATOM      3  C3  BZF d   1      -2.020   2.476  -5.999  0.00  0.00    -0.012 A 
ATOM      4  C3A BZF d   1      -0.806   3.231  -5.957  0.00  0.00    -0.107 A 
ATOM      5  C4  BZF d   1       0.515   2.887  -5.980  0.00  0.00     0.055 A 
ATOM      6  C5  BZF d   1       1.453   3.870  -5.998  0.00  0.00    -0.016 A 
ATOM      7  C6  BZF d   1       1.106   5.205  -5.999  0.00  0.00     0.022 A 
ATOM      8  C7  BZF d   1      -0.191   5.596  -5.972  0.00  0.00     0.029 A 
ATOM      9  C7A BZF d   1      -1.141   4.605  -5.920  0.00  0.00     0.058 A 
ENDROOT
TORSDOF 0
ENDMDL
