MODEL 1
REMARK minimizedAffinity -2.33450055
REMARK minimizedRMSD -1
REMARK  0 active torsions:
REMARK  status: ('A' for Active; 'I' for Inactive)
ROOT
ATOM      1  O1  BZF d   1      -3.762   3.805  -5.970  0.00  0.00    -0.204 OA
ATOM      2  C2  BZF d   1      -4.153   5.129  -5.991  0.00  0.00     0.174 A 
ATOM      3  C3  BZF d   1      -3.081   5.946  -5.949  0.00  0.00    -0.012 A 
ATOM      4  C3A BZF d   1      -1.945   5.077  -5.993  0.00  0.00    -0.107 A 
ATOM      5  C4  BZF d   1      -0.596   5.294  -5.996  0.00  0.00     0.055 A 
ATOM      6  C5  BZF d   1       0.244   4.227  -5.970  0.00  0.00    -0.016 A 
ATOM      7  C6  BZF d   1      -0.228   2.931  -5.935  0.00  0.00     0.022 A 
ATOM      8  C7  BZF d   1      -1.557   2.666  -5.935  0.00  0.00     0.029 A 
ATOM      9  C7A BZF d   1      -2.409   3.741  -5.995  0.00  0.00     0.058 A 
ENDROOT
TORSDOF 0
ENDMDL
