MODEL 1
REMARK minimizedAffinity 5.25269604
REMARK minimizedRMSD -1
REMARK  0 active torsions:
REMARK  status: ('A' for Active; 'I' for Inactive)
ROOT
ATOM      1  O1  BZF d   1       0.613   2.168  -5.988  0.00  0.00    -0.204 OA
ATOM      2  C2  BZF d   1       1.819   2.843  -5.999  0.00  0.00     0.174 A 
ATOM      3  C3  BZF d   1       1.620   4.177  -5.990  0.00  0.00    -0.012 A 
ATOM      4  C3A BZF d   1       0.204   4.345  -5.878  0.00  0.00    -0.107 A 
ATOM      5  C4  BZF d   1      -0.608   5.441  -5.804  0.00  0.00     0.055 A 
ATOM      6  C5  BZF d   1      -1.955   5.264  -5.776  0.00  0.00    -0.016 A 
ATOM      7  C6  BZF d   1      -2.524   4.008  -5.825  0.00  0.00     0.022 A 
ATOM      8  C7  BZF d   1      -1.759   2.891  -5.894  0.00  0.00     0.029 A 
ATOM      9  C7A BZF d   1      -0.397   3.065  -5.889  0.00  0.00     0.058 A 
ENDROOT
TORSDOF 0
ENDMDL
