MODEL 1
REMARK minimizedAffinity -4.06462955
REMARK minimizedRMSD -1
REMARK  0 active torsions:
REMARK  status: ('A' for Active; 'I' for Inactive)
ROOT
ATOM      1  O1  BZF d   1       2.653   5.065  -5.977  0.00  0.00    -0.204 OA
ATOM      2  C2  BZF d   1       3.677   4.138  -5.921  0.00  0.00     0.174 A 
ATOM      3  C3  BZF d   1       3.184   2.886  -5.827  0.00  0.00    -0.012 A 
ATOM      4  C3A BZF d   1       1.764   3.033  -5.917  0.00  0.00    -0.107 A 
ATOM      5  C4  BZF d   1       0.725   2.147  -5.902  0.00  0.00     0.055 A 
ATOM      6  C5  BZF d   1      -0.548   2.620  -5.935  0.00  0.00    -0.016 A 
ATOM      7  C6  BZF d   1      -0.819   3.972  -5.978  0.00  0.00     0.022 A 
ATOM      8  C7  BZF d   1       0.178   4.890  -6.000  0.00  0.00     0.029 A 
ATOM      9  C7A BZF d   1       1.466   4.413  -6.000  0.00  0.00     0.058 A 
ENDROOT
TORSDOF 0
ENDMDL
