MODEL 1
REMARK minimizedAffinity 5.29510641
REMARK minimizedRMSD -1
REMARK  0 active torsions:
REMARK  status: ('A' for Active; 'I' for Inactive)
ROOT
ATOM      1  O1  BZF d   1       0.458   2.575  -5.947  0.00  0.00    -0.204 OA
ATOM      2  C2  BZF d   1       1.743   3.083  -5.940  0.00  0.00     0.174 A 
ATOM      3  C3  BZF d   1       1.725   4.430  -5.997  0.00  0.00    -0.012 A 
ATOM      4  C3A BZF d   1       0.342   4.791  -5.949  0.00  0.00    -0.107 A 
ATOM      5  C4  BZF d   1      -0.318   5.986  -5.956  0.00  0.00     0.055 A 
ATOM      6  C5  BZF d   1      -1.677   5.991  -5.974  0.00  0.00    -0.016 A 
ATOM      7  C6  BZF d   1      -2.407   4.821  -5.990  0.00  0.00     0.022 A 
ATOM      8  C7  BZF d   1      -1.797   3.610  -5.979  0.00  0.00     0.029 A 
ATOM      9  C7A BZF d   1      -0.425   3.602  -5.928  0.00  0.00     0.058 A 
ENDROOT
TORSDOF 0
ENDMDL
