MODEL 1
REMARK minimizedAffinity 1.58699751
REMARK minimizedRMSD -1
REMARK  0 active torsions:
REMARK  status: ('A' for Active; 'I' for Inactive)
ROOT
ATOM      1  O1  BZF d   1      -1.107   2.182  -5.958  0.00  0.00    -0.204 OA
ATOM      2  C2  BZF d   1      -2.215   3.007  -5.954  0.00  0.00     0.174 A 
ATOM      3  C3  BZF d   1      -1.846   4.304  -5.913  0.00  0.00    -0.012 A 
ATOM      4  C3A BZF d   1      -0.417   4.291  -5.982  0.00  0.00    -0.107 A 
ATOM      5  C4  BZF d   1       0.531   5.273  -5.998  0.00  0.00     0.055 A 
ATOM      6  C5  BZF d   1       1.845   4.924  -5.998  0.00  0.00    -0.016 A 
ATOM      7  C6  BZF d   1       2.245   3.604  -5.977  0.00  0.00     0.022 A 
ATOM      8  C7  BZF d   1       1.341   2.594  -5.967  0.00  0.00     0.029 A 
ATOM      9  C7A BZF d   1       0.013   2.944  -6.000  0.00  0.00     0.058 A 
ENDROOT
TORSDOF 0
ENDMDL
