MODEL 1
REMARK minimizedAffinity 3.58707857
REMARK minimizedRMSD -1
REMARK  0 active torsions:
REMARK  status: ('A' for Active; 'I' for Inactive)
ROOT
ATOM      1  O1  BZF d   1      -2.204   4.834  -5.953  0.00  0.00    -0.204 OA
ATOM      2  C2  BZF d   1      -1.463   6.000  -5.938  0.00  0.00     0.174 A 
ATOM      3  C3  BZF d   1      -0.143   5.728  -5.893  0.00  0.00    -0.012 A 
ATOM      4  C3A BZF d   1      -0.050   4.302  -5.972  0.00  0.00    -0.107 A 
ATOM      5  C4  BZF d   1       1.001   3.430  -5.989  0.00  0.00     0.055 A 
ATOM      6  C5  BZF d   1       0.750   2.094  -5.999  0.00  0.00    -0.016 A 
ATOM      7  C6  BZF d   1      -0.537   1.597  -5.987  0.00  0.00     0.022 A 
ATOM      8  C7  BZF d   1      -1.611   2.424  -5.975  0.00  0.00     0.029 A 
ATOM      9  C7A BZF d   1      -1.361   3.774  -5.998  0.00  0.00     0.058 A 
ENDROOT
TORSDOF 0
ENDMDL
