MODEL 1
REMARK minimizedAffinity 1.66820562
REMARK minimizedRMSD -1
REMARK  0 active torsions:
REMARK  status: ('A' for Active; 'I' for Inactive)
ROOT
ATOM      1  O1  BZF d   1      -2.416   5.976  -5.942  0.00  0.00    -0.204 OA
ATOM      2  C2  BZF d   1      -3.796   5.911  -5.936  0.00  0.00     0.174 A 
ATOM      3  C3  BZF d   1      -4.215   4.631  -5.999  0.00  0.00    -0.012 A 
ATOM      4  C3A BZF d   1      -3.022   3.842  -5.955  0.00  0.00    -0.107 A 
ATOM      5  C4  BZF d   1      -2.785   2.497  -5.968  0.00  0.00     0.055 A 
ATOM      6  C5  BZF d   1      -1.501   2.053  -5.987  0.00  0.00    -0.016 A 
ATOM      7  C6  BZF d   1      -0.431   2.924  -6.000  0.00  0.00     0.022 A 
ATOM      8  C7  BZF d   1      -0.616   4.267  -5.982  0.00  0.00     0.029 A 
ATOM      9  C7A BZF d   1      -1.913   4.718  -5.929  0.00  0.00     0.058 A 
ENDROOT
TORSDOF 0
ENDMDL
