MODEL 1
REMARK minimizedAffinity -2.20804405
REMARK minimizedRMSD -1
REMARK  0 active torsions:
REMARK  status: ('A' for Active; 'I' for Inactive)
ROOT
ATOM      1  O1  BZF d   1      -0.244   4.601  -5.909  0.00  0.00    -0.204 OA
ATOM      2  C2  BZF d   1      -0.017   3.240  -5.980  0.00  0.00     0.174 A 
ATOM      3  C3  BZF d   1      -1.182   2.560  -5.973  0.00  0.00    -0.012 A 
ATOM      4  C3A BZF d   1      -2.203   3.563  -5.985  0.00  0.00    -0.107 A 
ATOM      5  C4  BZF d   1      -3.568   3.513  -6.000  0.00  0.00     0.055 A 
ATOM      6  C5  BZF d   1      -4.272   4.673  -5.934  0.00  0.00    -0.016 A 
ATOM      7  C6  BZF d   1      -3.645   5.899  -5.848  0.00  0.00     0.022 A 
ATOM      8  C7  BZF d   1      -2.293   5.999  -5.835  0.00  0.00     0.029 A 
ATOM      9  C7A BZF d   1      -1.579   4.830  -5.934  0.00  0.00     0.058 A 
ENDROOT
TORSDOF 0
ENDMDL
