MODEL 1
REMARK minimizedAffinity -1.41081476
REMARK minimizedRMSD -1
REMARK  0 active torsions:
REMARK  status: ('A' for Active; 'I' for Inactive)
ROOT
ATOM      1  O1  BZF d   1      -0.034   2.707  -5.974  0.00  0.00    -0.204 OA
ATOM      2  C2  BZF d   1       1.028   3.590  -5.958  0.00  0.00     0.174 A 
ATOM      3  C3  BZF d   1       0.590   4.865  -5.999  0.00  0.00    -0.012 A 
ATOM      4  C3A BZF d   1      -0.837   4.775  -5.949  0.00  0.00    -0.107 A 
ATOM      5  C4  BZF d   1      -1.837   5.705  -5.942  0.00  0.00     0.055 A 
ATOM      6  C5  BZF d   1      -3.129   5.285  -5.962  0.00  0.00    -0.016 A 
ATOM      7  C6  BZF d   1      -3.457   3.946  -5.995  0.00  0.00     0.022 A 
ATOM      8  C7  BZF d   1      -2.500   2.986  -5.998  0.00  0.00     0.029 A 
ATOM      9  C7A BZF d   1      -1.193   3.406  -5.944  0.00  0.00     0.058 A 
ENDROOT
TORSDOF 0
ENDMDL
