MODEL 1
REMARK minimizedAffinity 4.60970736
REMARK minimizedRMSD -1
REMARK  0 active torsions:
REMARK  status: ('A' for Active; 'I' for Inactive)
ROOT
ATOM      1  O1  BZF d   1       1.221   5.348  -5.493  0.00  0.00    -0.204 OA
ATOM      2  C2  BZF d   1       1.780   4.190  -5.997  0.00  0.00     0.174 A 
ATOM      3  C3  BZF d   1       0.879   3.186  -6.000  0.00  0.00    -0.012 A 
ATOM      4  C3A BZF d   1      -0.344   3.777  -5.550  0.00  0.00    -0.107 A 
ATOM      5  C4  BZF d   1      -1.605   3.291  -5.356  0.00  0.00     0.055 A 
ATOM      6  C5  BZF d   1      -2.556   4.111  -4.838  0.00  0.00    -0.016 A 
ATOM      7  C6  BZF d   1      -2.280   5.420  -4.499  0.00  0.00     0.022 A 
ATOM      8  C7  BZF d   1      -1.045   5.948  -4.678  0.00  0.00     0.029 A 
ATOM      9  C7A BZF d   1      -0.090   5.131  -5.232  0.00  0.00     0.058 A 
ENDROOT
TORSDOF 0
ENDMDL
