MODEL 1
REMARK minimizedAffinity -1.97120309
REMARK minimizedRMSD -1
REMARK  0 active torsions:
REMARK  status: ('A' for Active; 'I' for Inactive)
ROOT
ATOM      1  O1  BZF d   1      -2.340   5.851  -5.955  0.00  0.00    -0.204 OA
ATOM      2  C2  BZF d   1      -3.664   5.456  -5.945  0.00  0.00     0.174 A 
ATOM      3  C3  BZF d   1      -3.763   4.112  -5.999  0.00  0.00    -0.012 A 
ATOM      4  C3A BZF d   1      -2.415   3.633  -5.953  0.00  0.00    -0.107 A 
ATOM      5  C4  BZF d   1      -1.861   2.385  -5.958  0.00  0.00     0.055 A 
ATOM      6  C5  BZF d   1      -0.508   2.263  -5.978  0.00  0.00    -0.016 A 
ATOM      7  C6  BZF d   1       0.320   3.366  -5.999  0.00  0.00     0.022 A 
ATOM      8  C7  BZF d   1      -0.183   4.625  -5.990  0.00  0.00     0.029 A 
ATOM      9  C7A BZF d   1      -1.549   4.751  -5.936  0.00  0.00     0.058 A 
ENDROOT
TORSDOF 0
ENDMDL
