MODEL 1
REMARK minimizedAffinity -1.47281742
REMARK minimizedRMSD -1
REMARK  0 active torsions:
REMARK  status: ('A' for Active; 'I' for Inactive)
ROOT
ATOM      1  O1  BZF d   1       0.191   3.783  -5.943  0.00  0.00    -0.204 OA
ATOM      2  C2  BZF d   1       0.019   2.413  -5.992  0.00  0.00     0.174 A 
ATOM      3  C3  BZF d   1      -1.292   2.095  -5.968  0.00  0.00    -0.012 A 
ATOM      4  C3A BZF d   1      -1.984   3.347  -5.992  0.00  0.00    -0.107 A 
ATOM      5  C4  BZF d   1      -3.306   3.689  -5.999  0.00  0.00     0.055 A 
ATOM      6  C5  BZF d   1      -3.648   5.003  -5.949  0.00  0.00    -0.016 A 
ATOM      7  C6  BZF d   1      -2.696   6.000  -5.886  0.00  0.00     0.022 A 
ATOM      8  C7  BZF d   1      -1.372   5.709  -5.882  0.00  0.00     0.029 A 
ATOM      9  C7A BZF d   1      -1.023   4.384  -5.965  0.00  0.00     0.058 A 
ENDROOT
TORSDOF 0
ENDMDL
