MODEL 1
REMARK minimizedAffinity -1.91649735
REMARK minimizedRMSD -1
REMARK  0 active torsions:
REMARK  status: ('A' for Active; 'I' for Inactive)
ROOT
ATOM      1  O1  BZF d   1      -2.507   4.727  -5.969  0.00  0.00    -0.204 OA
ATOM      2  C2  BZF d   1      -2.993   3.434  -5.955  0.00  0.00     0.174 A 
ATOM      3  C3  BZF d   1      -1.982   2.543  -6.000  0.00  0.00    -0.012 A 
ATOM      4  C3A BZF d   1      -0.786   3.327  -5.952  0.00  0.00    -0.107 A 
ATOM      5  C4  BZF d   1       0.543   3.012  -5.949  0.00  0.00     0.055 A 
ATOM      6  C5  BZF d   1       1.459   4.016  -5.970  0.00  0.00    -0.016 A 
ATOM      7  C6  BZF d   1       1.082   5.343  -5.999  0.00  0.00     0.022 A 
ATOM      8  C7  BZF d   1      -0.225   5.704  -5.998  0.00  0.00     0.029 A 
ATOM      9  C7A BZF d   1      -1.153   4.692  -5.944  0.00  0.00     0.058 A 
ENDROOT
TORSDOF 0
ENDMDL
