MODEL 1
REMARK minimizedAffinity -1.13402462
REMARK minimizedRMSD -1
REMARK  0 active torsions:
REMARK  status: ('A' for Active; 'I' for Inactive)
ROOT
ATOM      1  O1  BZF d   1      -0.371   1.726  -5.984  0.00  0.00    -0.204 OA
ATOM      2  C2  BZF d   1       0.962   2.092  -5.967  0.00  0.00     0.174 A 
ATOM      3  C3  BZF d   1       1.090   3.434  -6.000  0.00  0.00    -0.012 A 
ATOM      4  C3A BZF d   1      -0.247   3.941  -5.946  0.00  0.00    -0.107 A 
ATOM      5  C4  BZF d   1      -0.773   5.201  -5.931  0.00  0.00     0.055 A 
ATOM      6  C5  BZF d   1      -2.124   5.353  -5.950  0.00  0.00    -0.016 A 
ATOM      7  C6  BZF d   1      -2.976   4.269  -5.989  0.00  0.00     0.022 A 
ATOM      8  C7  BZF d   1      -2.501   3.000  -6.000  0.00  0.00     0.029 A 
ATOM      9  C7A BZF d   1      -1.137   2.842  -5.948  0.00  0.00     0.058 A 
ENDROOT
TORSDOF 0
ENDMDL
