MODEL 1
REMARK minimizedAffinity -2.70675063
REMARK minimizedRMSD -1
REMARK  0 active torsions:
REMARK  status: ('A' for Active; 'I' for Inactive)
ROOT
ATOM      1  O1  BZF d   1      -2.922   2.652  -5.955  0.00  0.00    -0.204 OA
ATOM      2  C2  BZF d   1      -3.803   3.716  -5.949  0.00  0.00     0.174 A 
ATOM      3  C3  BZF d   1      -3.137   4.888  -5.908  0.00  0.00    -0.012 A 
ATOM      4  C3A BZF d   1      -1.752   4.536  -5.980  0.00  0.00    -0.107 A 
ATOM      5  C4  BZF d   1      -0.598   5.266  -5.998  0.00  0.00     0.055 A 
ATOM      6  C5  BZF d   1       0.595   4.615  -6.000  0.00  0.00    -0.016 A 
ATOM      7  C6  BZF d   1       0.671   3.238  -5.980  0.00  0.00     0.022 A 
ATOM      8  C7  BZF d   1      -0.447   2.471  -5.968  0.00  0.00     0.029 A 
ATOM      9  C7A BZF d   1      -1.654   3.126  -5.999  0.00  0.00     0.058 A 
ENDROOT
TORSDOF 0
ENDMDL
