MODEL 1
REMARK minimizedAffinity -3.61712384
REMARK minimizedRMSD -1
REMARK  3 active torsions:
REMARK  status: ('A' for Active; 'I' for Inactive)
REMARK    1  A    between atoms: C3'_2  and  C2'_3 
REMARK    2  A    between atoms: C2'_3  and  C1'_4 
REMARK    3  A    between atoms: C1'_4  and  C1_5 
ROOT
ATOM      1  C1  N4B d   1      -0.184  -0.015   0.549  0.00  0.00    -0.075 A 
ATOM      2  C2  N4B d   1       0.368   1.259   0.808  0.00  0.00     0.002 A 
ATOM      3  C3  N4B d   1       1.360   1.755  -0.002  0.00  0.00     0.002 A 
ATOM      4  C4  N4B d   1       1.827   0.991  -1.061  0.00  0.00    -0.004 A 
ATOM      5  C5  N4B d   1       1.272  -0.228  -1.319  0.00  0.00     0.002 A 
ATOM      6  C6  N4B d   1       0.271  -0.737  -0.516  0.00  0.00     0.002 A 
ENDROOT
BRANCH   1   7
ATOM      7  C1' N4B d   1      -1.210  -0.636   1.457  0.00  0.00     0.057 C 
BRANCH   7   8
ATOM      8  C2' N4B d   1      -1.640   0.391   2.501  0.00  0.00     0.009 C 
BRANCH   8   9
ATOM      9  C3' N4B d   1      -3.120   0.718   2.399  0.00  0.00     0.004 C 
ATOM     10  C4' N4B d   1      -3.866  -0.235   1.513  0.00  0.00     0.003 C 
ENDBRANCH   8   9
ENDBRANCH   7   8
ENDBRANCH   1   7
TORSDOF 3
ENDMDL
