MODEL 1
REMARK minimizedAffinity -5.56801033
REMARK minimizedRMSD -1
REMARK  3 active torsions:
REMARK  status: ('A' for Active; 'I' for Inactive)
REMARK    1  A    between atoms: C3'_2  and  C2'_3 
REMARK    2  A    between atoms: C2'_3  and  C1'_4 
REMARK    3  A    between atoms: C1'_4  and  C1_5 
ROOT
ATOM      1  C1  N4B d   1       0.701   0.008  -0.724  0.00  0.00    -0.075 A 
ATOM      2  C2  N4B d   1       1.529   0.582  -1.713  0.00  0.00     0.002 A 
ATOM      3  C3  N4B d   1       2.310  -0.222  -2.507  0.00  0.00     0.002 A 
ATOM      4  C4  N4B d   1       2.294  -1.596  -2.318  0.00  0.00    -0.004 A 
ATOM      5  C5  N4B d   1       1.472  -2.145  -1.377  0.00  0.00     0.002 A 
ATOM      6  C6  N4B d   1       0.679  -1.349  -0.575  0.00  0.00     0.002 A 
ENDROOT
BRANCH   1   7
ATOM      7  C1' N4B d   1      -0.105   0.852   0.225  0.00  0.00     0.057 C 
BRANCH   7   8
ATOM      8  C2' N4B d   1      -0.933  -0.059   1.126  0.00  0.00     0.009 C 
BRANCH   8   9
ATOM      9  C3' N4B d   1      -1.953   0.719   1.939  0.00  0.00     0.004 C 
ATOM     10  C4' N4B d   1      -3.367   0.404   1.552  0.00  0.00     0.003 C 
ENDBRANCH   8   9
ENDBRANCH   7   8
ENDBRANCH   1   7
TORSDOF 3
ENDMDL
