MODEL 1
REMARK minimizedAffinity -5.93500757
REMARK minimizedRMSD -1
REMARK  3 active torsions:
REMARK  status: ('A' for Active; 'I' for Inactive)
REMARK    1  A    between atoms: C3'_2  and  C2'_3 
REMARK    2  A    between atoms: C2'_3  and  C1'_4 
REMARK    3  A    between atoms: C1'_4  and  C1_5 
ROOT
ATOM      1  C1  N4B d   1      -0.087  -1.186  -0.170  0.00  0.00    -0.075 A 
ATOM      2  C2  N4B d   1       0.320   0.019  -0.784  0.00  0.00     0.002 A 
ATOM      3  C3  N4B d   1       1.164  -0.013  -1.867  0.00  0.00     0.002 A 
ATOM      4  C4  N4B d   1       1.626  -1.232  -2.340  0.00  0.00    -0.004 A 
ATOM      5  C5  N4B d   1       1.208  -2.393  -1.758  0.00  0.00     0.002 A 
ATOM      6  C6  N4B d   1       0.357  -2.376  -0.672  0.00  0.00     0.002 A 
ENDROOT
BRANCH   1   7
ATOM      7  C1' N4B d   1      -0.940  -1.198   1.069  0.00  0.00     0.057 C 
BRANCH   7   8
ATOM      8  C2' N4B d   1      -1.671   0.136   1.186  0.00  0.00     0.009 C 
BRANCH   8   9
ATOM      9  C3' N4B d   1      -3.176  -0.047   1.274  0.00  0.00     0.004 C 
ATOM     10  C4' N4B d   1      -3.868   1.126   1.903  0.00  0.00     0.003 C 
ENDBRANCH   8   9
ENDBRANCH   7   8
ENDBRANCH   1   7
TORSDOF 3
ENDMDL
