MODEL 1
REMARK minimizedAffinity -5.41894197
REMARK minimizedRMSD -1
REMARK  3 active torsions:
REMARK  status: ('A' for Active; 'I' for Inactive)
REMARK    1  A    between atoms: C3'_2  and  C2'_3 
REMARK    2  A    between atoms: C2'_3  and  C1'_4 
REMARK    3  A    between atoms: C1'_4  and  C1_5 
ROOT
ATOM      1  C1  N4B d   1       0.202  -0.378   0.170  0.00  0.00    -0.075 A 
ATOM      2  C2  N4B d   1       0.689   0.924  -0.078  0.00  0.00     0.002 A 
ATOM      3  C3  N4B d   1       1.329   1.204  -1.260  0.00  0.00     0.002 A 
ATOM      4  C4  N4B d   1       1.511   0.198  -2.197  0.00  0.00    -0.004 A 
ATOM      5  C5  N4B d   1       1.016  -1.051  -1.961  0.00  0.00     0.002 A 
ATOM      6  C6  N4B d   1       0.366  -1.346  -0.779  0.00  0.00     0.002 A 
ENDROOT
BRANCH   1   7
ATOM      7  C1' N4B d   1      -0.429  -0.754   1.483  0.00  0.00     0.057 C 
BRANCH   7   8
ATOM      8  C2' N4B d   1      -1.356   0.371   1.933  0.00  0.00     0.009 C 
BRANCH   8   9
ATOM      9  C3' N4B d   1      -2.801   0.105   1.548  0.00  0.00     0.004 C 
ATOM     10  C4' N4B d   1      -3.584   1.364   1.323  0.00  0.00     0.003 C 
ENDBRANCH   8   9
ENDBRANCH   7   8
ENDBRANCH   1   7
TORSDOF 3
ENDMDL
