MODEL 1
REMARK minimizedAffinity -5.44848871
REMARK minimizedRMSD -1
REMARK  3 active torsions:
REMARK  status: ('A' for Active; 'I' for Inactive)
REMARK    1  A    between atoms: C3'_2  and  C2'_3 
REMARK    2  A    between atoms: C2'_3  and  C1'_4 
REMARK    3  A    between atoms: C1'_4  and  C1_5 
ROOT
ATOM      1  C1  N4B d   1      -0.033   0.254   0.148  0.00  0.00    -0.075 A 
ATOM      2  C2  N4B d   1       1.051   1.155   0.055  0.00  0.00     0.002 A 
ATOM      3  C3  N4B d   1       1.779   1.235  -1.106  0.00  0.00     0.002 A 
ATOM      4  C4  N4B d   1       1.457   0.414  -2.176  0.00  0.00    -0.004 A 
ATOM      5  C5  N4B d   1       0.393  -0.436  -2.087  0.00  0.00     0.002 A 
ATOM      6  C6  N4B d   1      -0.351  -0.524  -0.928  0.00  0.00     0.002 A 
ENDROOT
BRANCH   1   7
ATOM      7  C1' N4B d   1      -0.804   0.069   1.426  0.00  0.00     0.057 C 
BRANCH   7   8
ATOM      8  C2' N4B d   1      -2.255  -0.266   1.091  0.00  0.00     0.009 C 
BRANCH   8   9
ATOM      9  C3' N4B d   1      -3.231   0.458   2.003  0.00  0.00     0.004 C 
ATOM     10  C4' N4B d   1      -4.296   1.193   1.246  0.00  0.00     0.003 C 
ENDBRANCH   8   9
ENDBRANCH   7   8
ENDBRANCH   1   7
TORSDOF 3
ENDMDL
