MODEL 1
REMARK minimizedAffinity -4.77231646
REMARK minimizedRMSD -1
REMARK  0 active torsions:
REMARK  status: ('A' for Active; 'I' for Inactive)
ROOT
ATOM      1  O1  BZF d   1      -0.436  -2.216   1.929  0.00  0.00    -0.204 OA
ATOM      2  C2  BZF d   1       0.712  -2.968   1.766  0.00  0.00     0.174 A 
ATOM      3  C3  BZF d   1       1.488  -2.451   0.791  0.00  0.00    -0.012 A 
ATOM      4  C3A BZF d   1       0.824  -1.252   0.379  0.00  0.00    -0.107 A 
ATOM      5  C4  BZF d   1       1.113  -0.290  -0.547  0.00  0.00     0.055 A 
ATOM      6  C5  BZF d   1       0.222   0.714  -0.757  0.00  0.00    -0.016 A 
ATOM      7  C6  BZF d   1      -0.969   0.784  -0.064  0.00  0.00     0.022 A 
ATOM      8  C7  BZF d   1      -1.297  -0.144   0.868  0.00  0.00     0.029 A 
ATOM      9  C7A BZF d   1      -0.383  -1.142   1.106  0.00  0.00     0.058 A 
ENDROOT
TORSDOF 0
ENDMDL
