MODEL 1
REMARK minimizedAffinity -5.87545729
REMARK minimizedRMSD -1
REMARK  0 active torsions:
REMARK  status: ('A' for Active; 'I' for Inactive)
ROOT
ATOM      1  O1  BZF d   1       2.824  -2.029   0.955  0.00  0.00    -0.204 OA
ATOM      2  C2  BZF d   1       2.498  -3.105   1.757  0.00  0.00     0.174 A 
ATOM      3  C3  BZF d   1       1.200  -3.054   2.121  0.00  0.00    -0.012 A 
ATOM      4  C3A BZF d   1       0.661  -1.921   1.433  0.00  0.00    -0.107 A 
ATOM      5  C4  BZF d   1      -0.584  -1.361   1.378  0.00  0.00     0.055 A 
ATOM      6  C5  BZF d   1      -0.761  -0.215   0.670  0.00  0.00    -0.016 A 
ATOM      7  C6  BZF d   1       0.282   0.400   0.011  0.00  0.00     0.022 A 
ATOM      8  C7  BZF d   1       1.534  -0.120   0.032  0.00  0.00     0.029 A 
ATOM      9  C7A BZF d   1       1.709  -1.297   0.719  0.00  0.00     0.058 A 
ENDROOT
TORSDOF 0
ENDMDL
