MODEL 1
REMARK minimizedAffinity -6.75593328
REMARK minimizedRMSD -1
REMARK  0 active torsions:
REMARK  status: ('A' for Active; 'I' for Inactive)
ROOT
ATOM      1  O1  BZF d   1       1.887  -1.366  -0.180  0.00  0.00    -0.204 OA
ATOM      2  C2  BZF d   1       1.259  -0.318  -0.824  0.00  0.00     0.174 A 
ATOM      3  C3  BZF d   1       0.112   0.012  -0.196  0.00  0.00    -0.012 A 
ATOM      4  C3A BZF d   1       0.065  -0.825   0.964  0.00  0.00    -0.107 A 
ATOM      5  C4  BZF d   1      -0.824  -0.955   1.992  0.00  0.00     0.055 A 
ATOM      6  C5  BZF d   1      -0.615  -1.918   2.928  0.00  0.00    -0.016 A 
ATOM      7  C6  BZF d   1       0.467  -2.770   2.864  0.00  0.00     0.022 A 
ATOM      8  C7  BZF d   1       1.379  -2.677   1.865  0.00  0.00     0.029 A 
ATOM      9  C7A BZF d   1       1.188  -1.683   0.936  0.00  0.00     0.058 A 
ENDROOT
TORSDOF 0
ENDMDL
