MODEL 1
REMARK minimizedAffinity -5.75398397
REMARK minimizedRMSD -1
REMARK  0 active torsions:
REMARK  status: ('A' for Active; 'I' for Inactive)
ROOT
ATOM      1  O1  BZF d   1      -0.499  -0.356   0.810  0.00  0.00    -0.204 OA
ATOM      2  C2  BZF d   1       0.584  -0.039   0.013  0.00  0.00     0.174 A 
ATOM      3  C3  BZF d   1       1.647  -0.809   0.322  0.00  0.00    -0.012 A 
ATOM      4  C3A BZF d   1       1.174  -1.724   1.314  0.00  0.00    -0.107 A 
ATOM      5  C4  BZF d   1       1.759  -2.748   2.003  0.00  0.00     0.055 A 
ATOM      6  C5  BZF d   1       1.041  -3.399   2.956  0.00  0.00    -0.016 A 
ATOM      7  C6  BZF d   1      -0.261  -3.048   3.250  0.00  0.00     0.022 A 
ATOM      8  C7  BZF d   1      -0.885  -2.042   2.590  0.00  0.00     0.029 A 
ATOM      9  C7A BZF d   1      -0.173  -1.405   1.604  0.00  0.00     0.058 A 
ENDROOT
TORSDOF 0
ENDMDL
