MODEL 1
REMARK minimizedAffinity -6.27752638
REMARK minimizedRMSD -1
REMARK  0 active torsions:
REMARK  status: ('A' for Active; 'I' for Inactive)
ROOT
ATOM      1  O1  BZF d   1      -1.223   0.358   1.465  0.00  0.00    -0.204 OA
ATOM      2  C2  BZF d   1      -1.960  -0.228   2.476  0.00  0.00     0.174 A 
ATOM      3  C3  BZF d   1      -1.558  -1.498   2.687  0.00  0.00    -0.012 A 
ATOM      4  C3A BZF d   1      -0.443  -1.690   1.811  0.00  0.00    -0.107 A 
ATOM      5  C4  BZF d   1       0.393  -2.743   1.573  0.00  0.00     0.055 A 
ATOM      6  C5  BZF d   1       1.337  -2.630   0.601  0.00  0.00    -0.016 A 
ATOM      7  C6  BZF d   1       1.468  -1.483  -0.154  0.00  0.00     0.022 A 
ATOM      8  C7  BZF d   1       0.665  -0.411   0.049  0.00  0.00     0.029 A 
ATOM      9  C7A BZF d   1      -0.268  -0.509   1.053  0.00  0.00     0.058 A 
ENDROOT
TORSDOF 0
ENDMDL
