MODEL 1
REMARK minimizedAffinity -3.07244825
REMARK minimizedRMSD -1
REMARK  0 active torsions:
REMARK  status: ('A' for Active; 'I' for Inactive)
ROOT
ATOM      1  O1  BZF d   1      -1.205   3.737  -4.953  0.00  0.00    -0.204 OA
ATOM      2  C2  BZF d   1      -0.157   4.557  -4.582  0.00  0.00     0.174 A 
ATOM      3  C3  BZF d   1       0.088   4.452  -3.260  0.00  0.00    -0.012 A 
ATOM      4  C3A BZF d   1      -0.806   3.438  -2.791  0.00  0.00    -0.107 A 
ATOM      5  C4  BZF d   1      -1.028   2.874  -1.567  0.00  0.00     0.055 A 
ATOM      6  C5  BZF d   1      -2.024   1.961  -1.431  0.00  0.00    -0.016 A 
ATOM      7  C6  BZF d   1      -2.821   1.592  -2.495  0.00  0.00     0.022 A 
ATOM      8  C7  BZF d   1      -2.637   2.120  -3.730  0.00  0.00     0.029 A 
ATOM      9  C7A BZF d   1      -1.609   3.019  -3.877  0.00  0.00     0.058 A 
ENDROOT
TORSDOF 0
ENDMDL
