MODEL 1
REMARK minimizedAffinity -1.99752975
REMARK minimizedRMSD -1
REMARK  0 active torsions:
REMARK  status: ('A' for Active; 'I' for Inactive)
ROOT
ATOM      1  O1  BZF d   1      -1.027   0.370  -3.792  0.00  0.00    -0.204 OA
ATOM      2  C2  BZF d   1      -2.173   1.102  -3.548  0.00  0.00     0.174 A 
ATOM      3  C3  BZF d   1      -2.440   1.147  -2.227  0.00  0.00    -0.012 A 
ATOM      4  C3A BZF d   1      -1.345   0.474  -1.599  0.00  0.00    -0.107 A 
ATOM      5  C4  BZF d   1      -1.029   0.206  -0.298  0.00  0.00     0.055 A 
ATOM      6  C5  BZF d   1       0.077  -0.536  -0.026  0.00  0.00    -0.016 A 
ATOM      7  C6  BZF d   1       0.885  -1.030  -1.029  0.00  0.00     0.022 A 
ATOM      8  C7  BZF d   1       0.615  -0.786  -2.334  0.00  0.00     0.029 A 
ATOM      9  C7A BZF d   1      -0.483  -0.009  -2.611  0.00  0.00     0.058 A 
ENDROOT
TORSDOF 0
ENDMDL
