MODEL 1
REMARK minimizedAffinity -2.59440255
REMARK minimizedRMSD -1
REMARK  0 active torsions:
REMARK  status: ('A' for Active; 'I' for Inactive)
ROOT
ATOM      1  O1  BZF d   1      -1.421  -0.203  -1.489  0.00  0.00    -0.204 OA
ATOM      2  C2  BZF d   1      -1.515   1.168  -1.343  0.00  0.00     0.174 A 
ATOM      3  C3  BZF d   1      -0.428   1.657  -0.711  0.00  0.00    -0.012 A 
ATOM      4  C3A BZF d   1       0.438   0.534  -0.528  0.00  0.00    -0.107 A 
ATOM      5  C4  BZF d   1       1.678   0.384   0.025  0.00  0.00     0.055 A 
ATOM      6  C5  BZF d   1       2.216  -0.861   0.113  0.00  0.00    -0.016 A 
ATOM      7  C6  BZF d   1       1.542  -1.977  -0.337  0.00  0.00     0.022 A 
ATOM      8  C7  BZF d   1       0.312  -1.878  -0.898  0.00  0.00     0.029 A 
ATOM      9  C7A BZF d   1      -0.221  -0.618  -1.018  0.00  0.00     0.058 A 
ENDROOT
TORSDOF 0
ENDMDL
