MODEL 1
REMARK minimizedAffinity -5.96534252
REMARK minimizedRMSD -1
REMARK  0 active torsions:
REMARK  status: ('A' for Active; 'I' for Inactive)
ROOT
ATOM      1  O1  BZF d   1      -0.843   0.268   0.493  0.00  0.00    -0.204 OA
ATOM      2  C2  BZF d   1      -0.090   0.711  -0.577  0.00  0.00     0.174 A 
ATOM      3  C3  BZF d   1       0.992  -0.073  -0.758  0.00  0.00    -0.012 A 
ATOM      4  C3A BZF d   1       0.862  -1.123   0.205  0.00  0.00    -0.107 A 
ATOM      5  C4  BZF d   1       1.618  -2.219   0.508  0.00  0.00     0.055 A 
ATOM      6  C5  BZF d   1       1.252  -3.005   1.554  0.00  0.00    -0.016 A 
ATOM      7  C6  BZF d   1       0.141  -2.723   2.321  0.00  0.00     0.022 A 
ATOM      8  C7  BZF d   1      -0.643  -1.649   2.056  0.00  0.00     0.029 A 
ATOM      9  C7A BZF d   1      -0.295  -0.871   0.979  0.00  0.00     0.058 A 
ENDROOT
TORSDOF 0
ENDMDL
