MODEL 1
REMARK minimizedAffinity -2.89459896
REMARK minimizedRMSD -1
REMARK  0 active torsions:
REMARK  status: ('A' for Active; 'I' for Inactive)
ROOT
ATOM      1  O1  BZF d   1      -1.155   0.619   1.092  0.00  0.00    -0.204 OA
ATOM      2  C2  BZF d   1      -0.696   1.108  -0.115  0.00  0.00     0.174 A 
ATOM      3  C3  BZF d   1       0.363   0.394  -0.549  0.00  0.00    -0.012 A 
ATOM      4  C3A BZF d   1       0.520  -0.662   0.403  0.00  0.00    -0.107 A 
ATOM      5  C4  BZF d   1       1.391  -1.709   0.509  0.00  0.00     0.055 A 
ATOM      6  C5  BZF d   1       1.323  -2.517   1.599  0.00  0.00    -0.016 A 
ATOM      7  C6  BZF d   1       0.401  -2.305   2.603  0.00  0.00     0.022 A 
ATOM      8  C7  BZF d   1      -0.487  -1.283   2.540  0.00  0.00     0.029 A 
ATOM      9  C7A BZF d   1      -0.442  -0.484   1.424  0.00  0.00     0.058 A 
ENDROOT
TORSDOF 0
ENDMDL
