MODEL 1
REMARK minimizedAffinity -4.46332788
REMARK minimizedRMSD -1
REMARK  0 active torsions:
REMARK  status: ('A' for Active; 'I' for Inactive)
ROOT
ATOM      1  O1  BZF d   1      -0.748  -0.669  -0.434  0.00  0.00    -0.204 OA
ATOM      2  C2  BZF d   1       0.370  -0.272   0.274  0.00  0.00     0.174 A 
ATOM      3  C3  BZF d   1       0.706   0.997  -0.034  0.00  0.00    -0.012 A 
ATOM      4  C3A BZF d   1      -0.317   1.451  -0.925  0.00  0.00    -0.107 A 
ATOM      5  C4  BZF d   1      -0.547   2.636  -1.564  0.00  0.00     0.055 A 
ATOM      6  C5  BZF d   1      -1.596   2.730  -2.423  0.00  0.00    -0.016 A 
ATOM      7  C6  BZF d   1      -2.431   1.660  -2.669  0.00  0.00     0.022 A 
ATOM      8  C7  BZF d   1      -2.246   0.467  -2.055  0.00  0.00     0.029 A 
ATOM      9  C7A BZF d   1      -1.207   0.378  -1.162  0.00  0.00     0.058 A 
ENDROOT
TORSDOF 0
ENDMDL
