MODEL 1
REMARK minimizedAffinity -4.13301325
REMARK minimizedRMSD -1
REMARK  0 active torsions:
REMARK  status: ('A' for Active; 'I' for Inactive)
ROOT
ATOM      1  O1  BZF d   1      -0.898  -1.110   2.163  0.00  0.00    -0.204 OA
ATOM      2  C2  BZF d   1      -0.209  -1.964   3.003  0.00  0.00     0.174 A 
ATOM      3  C3  BZF d   1       1.002  -2.263   2.491  0.00  0.00    -0.012 A 
ATOM      4  C3A BZF d   1       1.112  -1.479   1.299  0.00  0.00    -0.107 A 
ATOM      5  C4  BZF d   1       2.092  -1.330   0.360  0.00  0.00     0.055 A 
ATOM      6  C5  BZF d   1       1.856  -0.542  -0.722  0.00  0.00    -0.016 A 
ATOM      7  C6  BZF d   1       0.652   0.106  -0.899  0.00  0.00     0.022 A 
ATOM      8  C7  BZF d   1      -0.349  -0.007   0.008  0.00  0.00     0.029 A 
ATOM      9  C7A BZF d   1      -0.102  -0.776   1.119  0.00  0.00     0.058 A 
ENDROOT
TORSDOF 0
ENDMDL
