MODEL 1
REMARK minimizedAffinity -3.83192086
REMARK minimizedRMSD -1
REMARK  0 active torsions:
REMARK  status: ('A' for Active; 'I' for Inactive)
ROOT
ATOM      1  O1  BZF d   1      -1.236   0.330   1.886  0.00  0.00    -0.204 OA
ATOM      2  C2  BZF d   1      -1.518   1.193   0.845  0.00  0.00     0.174 A 
ATOM      3  C3  BZF d   1      -0.541   1.156  -0.084  0.00  0.00    -0.012 A 
ATOM      4  C3A BZF d   1       0.365   0.143   0.362  0.00  0.00    -0.107 A 
ATOM      5  C4  BZF d   1       1.525  -0.368  -0.145  0.00  0.00     0.055 A 
ATOM      6  C5  BZF d   1       2.206  -1.300   0.573  0.00  0.00    -0.016 A 
ATOM      7  C6  BZF d   1       1.759  -1.738   1.802  0.00  0.00     0.022 A 
ATOM      8  C7  BZF d   1       0.611  -1.264   2.344  0.00  0.00     0.029 A 
ATOM      9  C7A BZF d   1      -0.097  -0.346   1.606  0.00  0.00     0.058 A 
ENDROOT
TORSDOF 0
ENDMDL
