MODEL 1
REMARK minimizedAffinity -3.26040006
REMARK minimizedRMSD -1
REMARK  0 active torsions:
REMARK  status: ('A' for Active; 'I' for Inactive)
ROOT
ATOM      1  O1  BZF d   1      -0.868  -0.459   0.005  0.00  0.00    -0.204 OA
ATOM      2  C2  BZF d   1      -0.013  -0.041  -0.998  0.00  0.00     0.174 A 
ATOM      3  C3  BZF d   1       1.251  -0.438  -0.745  0.00  0.00    -0.012 A 
ATOM      4  C3A BZF d   1       1.167  -1.227   0.445  0.00  0.00    -0.107 A 
ATOM      5  C4  BZF d   1       2.088  -1.911   1.186  0.00  0.00     0.055 A 
ATOM      6  C5  BZF d   1       1.693  -2.519   2.335  0.00  0.00    -0.016 A 
ATOM      7  C6  BZF d   1       0.387  -2.459   2.776  0.00  0.00     0.022 A 
ATOM      8  C7  BZF d   1      -0.564  -1.798   2.073  0.00  0.00     0.029 A 
ATOM      9  C7A BZF d   1      -0.174  -1.210   0.894  0.00  0.00     0.058 A 
ENDROOT
TORSDOF 0
ENDMDL
