MODEL 1
REMARK minimizedAffinity -2.97914195
REMARK minimizedRMSD -1
REMARK  0 active torsions:
REMARK  status: ('A' for Active; 'I' for Inactive)
ROOT
ATOM      1  O1  BZF d   1      -2.258   0.012  -3.301  0.00  0.00    -0.204 OA
ATOM      2  C2  BZF d   1      -2.869   1.207  -3.632  0.00  0.00     0.174 A 
ATOM      3  C3  BZF d   1      -2.562   2.165  -2.735  0.00  0.00    -0.012 A 
ATOM      4  C3A BZF d   1      -1.632   1.555  -1.835  0.00  0.00    -0.107 A 
ATOM      5  C4  BZF d   1      -0.952   2.004  -0.739  0.00  0.00     0.055 A 
ATOM      6  C5  BZF d   1      -0.177   1.134  -0.039  0.00  0.00    -0.016 A 
ATOM      7  C6  BZF d   1      -0.064  -0.192  -0.403  0.00  0.00     0.022 A 
ATOM      8  C7  BZF d   1      -0.715  -0.683  -1.486  0.00  0.00     0.029 A 
ATOM      9  C7A BZF d   1      -1.473   0.202  -2.214  0.00  0.00     0.058 A 
ENDROOT
TORSDOF 0
ENDMDL
