MODEL 1
REMARK minimizedAffinity 0.704148948
REMARK minimizedRMSD -1
REMARK  0 active torsions:
REMARK  status: ('A' for Active; 'I' for Inactive)
ROOT
ATOM      1  O1  BZF d   1      -0.749   0.142   0.657  0.00  0.00    -0.204 OA
ATOM      2  C2  BZF d   1      -0.111   0.611  -0.475  0.00  0.00     0.174 A 
ATOM      3  C3  BZF d   1       1.117   0.066  -0.593  0.00  0.00    -0.012 A 
ATOM      4  C3A BZF d   1       1.219  -0.868   0.486  0.00  0.00    -0.107 A 
ATOM      5  C4  BZF d   1       2.197  -1.730   0.892  0.00  0.00     0.055 A 
ATOM      6  C5  BZF d   1       2.012  -2.450   2.029  0.00  0.00    -0.016 A 
ATOM      7  C6  BZF d   1       0.866  -2.330   2.787  0.00  0.00     0.022 A 
ATOM      8  C7  BZF d   1      -0.135  -1.492   2.422  0.00  0.00     0.029 A 
ATOM      9  C7A BZF d   1       0.035  -0.787   1.255  0.00  0.00     0.058 A 
ENDROOT
TORSDOF 0
ENDMDL
