MODEL 1
REMARK minimizedAffinity 4.37217903
REMARK minimizedRMSD -1
REMARK  0 active torsions:
REMARK  status: ('A' for Active; 'I' for Inactive)
ROOT
ATOM      1  C   UNL d   1      -2.435  -1.157  -4.899  0.00  0.00     0.020 A 
ATOM      2  C1  UNL d   1      -2.221  -1.190  -3.522  0.00  0.00     0.020 A 
ATOM      3  C2  UNL d   1      -2.709  -0.160  -2.715  0.00  0.00     0.034 A 
ATOM      4  C3  UNL d   1      -3.413   0.907  -3.284  0.00  0.00     0.017 A 
ATOM      5  C4  UNL d   1      -3.627   0.940  -4.667  0.00  0.00     0.017 A 
ATOM      6  C5  UNL d   1      -3.136  -0.094  -5.470  0.00  0.00     0.034 A 
ATOM      7 Cl   UNL d   1      -4.486   2.224  -5.442  0.00  0.00    -0.070 Cl
ATOM      8 Cl1  UNL d   1      -3.987   2.146  -2.226  0.00  0.00    -0.070 Cl
ENDROOT
TORSDOF 0
ENDMDL
