MODEL 1
REMARK minimizedAffinity 3.52449894
REMARK minimizedRMSD -1
REMARK  0 active torsions:
REMARK  status: ('A' for Active; 'I' for Inactive)
ROOT
ATOM      1  C   UNL d   1      -3.004  -0.027  -5.874  0.00  0.00     0.020 A 
ATOM      2  C1  UNL d   1      -2.202  -0.969  -5.231  0.00  0.00     0.020 A 
ATOM      3  C2  UNL d   1      -2.567  -1.454  -3.973  0.00  0.00     0.034 A 
ATOM      4  C3  UNL d   1      -3.737  -0.997  -3.355  0.00  0.00     0.017 A 
ATOM      5  C4  UNL d   1      -4.541  -0.051  -4.001  0.00  0.00     0.017 A 
ATOM      6  C5  UNL d   1      -4.171   0.431  -5.261  0.00  0.00     0.034 A 
ATOM      7 Cl   UNL d   1      -5.999   0.559  -3.302  0.00  0.00    -0.070 Cl
ATOM      8 Cl1  UNL d   1      -4.127  -1.641  -1.800  0.00  0.00    -0.070 Cl
ENDROOT
TORSDOF 0
ENDMDL
