MODEL 1
REMARK minimizedAffinity -1.45861781
REMARK minimizedRMSD -1
REMARK  0 active torsions:
REMARK  status: ('A' for Active; 'I' for Inactive)
ROOT
ATOM      1  C   UNL d   1      -5.766   0.422  -4.540  0.00  0.00     0.020 A 
ATOM      2  C1  UNL d   1      -4.931   0.388  -5.656  0.00  0.00     0.020 A 
ATOM      3  C2  UNL d   1      -3.671  -0.208  -5.568  0.00  0.00     0.034 A 
ATOM      4  C3  UNL d   1      -3.243  -0.772  -4.361  0.00  0.00     0.017 A 
ATOM      5  C4  UNL d   1      -4.082  -0.738  -3.241  0.00  0.00     0.017 A 
ATOM      6  C5  UNL d   1      -5.342  -0.139  -3.335  0.00  0.00     0.034 A 
ATOM      7 Cl   UNL d   1      -3.623  -1.413  -1.718  0.00  0.00    -0.070 Cl
ATOM      8 Cl1  UNL d   1      -1.673  -1.493  -4.323  0.00  0.00    -0.070 Cl
ENDROOT
TORSDOF 0
ENDMDL
