MODEL 1
REMARK minimizedAffinity -0.691854596
REMARK minimizedRMSD -1
REMARK  0 active torsions:
REMARK  status: ('A' for Active; 'I' for Inactive)
ROOT
ATOM      1  C   UNL d   1      -5.759   0.405  -4.875  0.00  0.00     0.020 A 
ATOM      2  C1  UNL d   1      -5.670  -0.764  -4.121  0.00  0.00     0.020 A 
ATOM      3  C2  UNL d   1      -4.433  -1.384  -3.937  0.00  0.00     0.034 A 
ATOM      4  C3  UNL d   1      -3.279  -0.835  -4.508  0.00  0.00     0.017 A 
ATOM      5  C4  UNL d   1      -3.369   0.339  -5.264  0.00  0.00     0.017 A 
ATOM      6  C5  UNL d   1      -4.610   0.956  -5.445  0.00  0.00     0.034 A 
ATOM      7 Cl   UNL d   1      -1.989   1.076  -5.999  0.00  0.00    -0.070 Cl
ATOM      8 Cl1  UNL d   1      -1.781  -1.655  -4.239  0.00  0.00    -0.070 Cl
ENDROOT
TORSDOF 0
ENDMDL
