MODEL 1
REMARK minimizedAffinity -1.28301144
REMARK minimizedRMSD -1
REMARK  0 active torsions:
REMARK  status: ('A' for Active; 'I' for Inactive)
ROOT
ATOM      1  C   UNL d   1      -4.272  -1.202  -4.823  0.00  0.00     0.020 A 
ATOM      2  C1  UNL d   1      -4.301  -0.070  -5.637  0.00  0.00     0.020 A 
ATOM      3  C2  UNL d   1      -3.819   1.149  -5.155  0.00  0.00     0.034 A 
ATOM      4  C3  UNL d   1      -3.306   1.239  -3.856  0.00  0.00     0.017 A 
ATOM      5  C4  UNL d   1      -3.277   0.102  -3.040  0.00  0.00     0.017 A 
ATOM      6  C5  UNL d   1      -3.761  -1.116  -3.527  0.00  0.00     0.034 A 
ATOM      7 Cl   UNL d   1      -2.659   0.135  -1.426  0.00  0.00    -0.070 Cl
ATOM      8 Cl1  UNL d   1      -2.726   2.778  -3.326  0.00  0.00    -0.070 Cl
ENDROOT
TORSDOF 0
ENDMDL
