MODEL 1
REMARK minimizedAffinity 1.65965414
REMARK minimizedRMSD -1
REMARK  0 active torsions:
REMARK  status: ('A' for Active; 'I' for Inactive)
ROOT
ATOM      1  C   UNL d   1       5.569  -3.713   5.462  0.00  0.00     0.020 A 
ATOM      2  C1  UNL d   1       4.783  -2.580   5.257  0.00  0.00     0.020 A 
ATOM      3  C2  UNL d   1       4.244  -2.323   3.994  0.00  0.00     0.034 A 
ATOM      4  C3  UNL d   1       4.490  -3.201   2.932  0.00  0.00     0.017 A 
ATOM      5  C4  UNL d   1       5.279  -4.338   3.139  0.00  0.00     0.017 A 
ATOM      6  C5  UNL d   1       5.816  -4.590   4.405  0.00  0.00     0.034 A 
ATOM      7 Cl   UNL d   1       5.626  -5.467   1.877  0.00  0.00    -0.070 Cl
ATOM      8 Cl1  UNL d   1       3.791  -2.821   1.398  0.00  0.00    -0.070 Cl
ENDROOT
TORSDOF 0
ENDMDL
