MODEL 1
REMARK minimizedAffinity -1.63127208
REMARK minimizedRMSD -1
REMARK  0 active torsions:
REMARK  status: ('A' for Active; 'I' for Inactive)
ROOT
ATOM      1  C   UNL d   1      -5.128   0.749  -5.775  0.00  0.00     0.020 A 
ATOM      2  C1  UNL d   1      -5.612   0.910  -4.478  0.00  0.00     0.020 A 
ATOM      3  C2  UNL d   1      -4.940   0.322  -3.404  0.00  0.00     0.034 A 
ATOM      4  C3  UNL d   1      -3.781  -0.429  -3.625  0.00  0.00     0.017 A 
ATOM      5  C4  UNL d   1      -3.295  -0.590  -4.928  0.00  0.00     0.017 A 
ATOM      6  C5  UNL d   1      -3.972   0.000  -6.000  0.00  0.00     0.034 A 
ATOM      7 Cl   UNL d   1      -1.871  -1.504  -5.280  0.00  0.00    -0.070 Cl
ATOM      8 Cl1  UNL d   1      -3.001  -1.128  -2.251  0.00  0.00    -0.070 Cl
ENDROOT
TORSDOF 0
ENDMDL
