MODEL 1
REMARK minimizedAffinity 4.09197378
REMARK minimizedRMSD -1
REMARK  0 active torsions:
REMARK  status: ('A' for Active; 'I' for Inactive)
ROOT
ATOM      1  C   UNL d   1      -2.417  -1.266  -5.563  0.00  0.00     0.020 A 
ATOM      2  C1  UNL d   1      -2.199  -1.598  -4.227  0.00  0.00     0.020 A 
ATOM      3  C2  UNL d   1      -2.691  -0.774  -3.213  0.00  0.00     0.034 A 
ATOM      4  C3  UNL d   1      -3.404   0.387  -3.534  0.00  0.00     0.017 A 
ATOM      5  C4  UNL d   1      -3.623   0.720  -4.876  0.00  0.00     0.017 A 
ATOM      6  C5  UNL d   1      -3.128  -0.110  -5.887  0.00  0.00     0.034 A 
ATOM      7 Cl   UNL d   1      -4.493   2.136  -5.350  0.00  0.00    -0.070 Cl
ATOM      8 Cl1  UNL d   1      -3.984   1.360  -2.229  0.00  0.00    -0.070 Cl
ENDROOT
TORSDOF 0
ENDMDL
