MODEL 1
REMARK minimizedAffinity 0.390128553
REMARK minimizedRMSD -1
REMARK  0 active torsions:
REMARK  status: ('A' for Active; 'I' for Inactive)
ROOT
ATOM      1  C   UNL d   1       3.324  -0.355  -0.261  0.00  0.00     0.020 A 
ATOM      2  C1  UNL d   1       4.702  -0.502  -0.107  0.00  0.00     0.020 A 
ATOM      3  C2  UNL d   1       5.222  -1.672   0.451  0.00  0.00     0.034 A 
ATOM      4  C3  UNL d   1       4.363  -2.700   0.856  0.00  0.00     0.017 A 
ATOM      5  C4  UNL d   1       2.980  -2.552   0.701  0.00  0.00     0.017 A 
ATOM      6  C5  UNL d   1       2.465  -1.378   0.142  0.00  0.00     0.034 A 
ATOM      7 Cl   UNL d   1       1.857  -3.777   1.177  0.00  0.00    -0.070 Cl
ATOM      8 Cl1  UNL d   1       5.074  -4.119   1.538  0.00  0.00    -0.070 Cl
ENDROOT
TORSDOF 0
ENDMDL
