MODEL 1
REMARK minimizedAffinity 3.99101686
REMARK minimizedRMSD -1
REMARK  0 active torsions:
REMARK  status: ('A' for Active; 'I' for Inactive)
ROOT
ATOM      1  C   UNL d   1       5.144  -4.145   5.034  0.00  0.00     0.020 A 
ATOM      2  C1  UNL d   1       4.124  -3.204   4.895  0.00  0.00     0.020 A 
ATOM      3  C2  UNL d   1       3.438  -3.093   3.683  0.00  0.00     0.034 A 
ATOM      4  C3  UNL d   1       3.772  -3.923   2.607  0.00  0.00     0.017 A 
ATOM      5  C4  UNL d   1       4.795  -4.867   2.748  0.00  0.00     0.017 A 
ATOM      6  C5  UNL d   1       5.479  -4.974   3.963  0.00  0.00     0.034 A 
ATOM      7 Cl   UNL d   1       5.263  -5.926   1.465  0.00  0.00    -0.070 Cl
ATOM      8 Cl1  UNL d   1       2.882  -3.730   1.138  0.00  0.00    -0.070 Cl
ENDROOT
TORSDOF 0
ENDMDL
