MODEL 1
REMARK minimizedAffinity 1.50355363
REMARK minimizedRMSD -1
REMARK  0 active torsions:
REMARK  status: ('A' for Active; 'I' for Inactive)
ROOT
ATOM      1  C   UNL d   1       2.168  -1.951   1.475  0.00  0.00     0.020 A 
ATOM      2  C1  UNL d   1       2.574  -2.521   0.269  0.00  0.00     0.020 A 
ATOM      3  C2  UNL d   1       3.598  -3.470   0.255  0.00  0.00     0.034 A 
ATOM      4  C3  UNL d   1       4.220  -3.853   1.449  0.00  0.00     0.017 A 
ATOM      5  C4  UNL d   1       3.811  -3.281   2.659  0.00  0.00     0.017 A 
ATOM      6  C5  UNL d   1       2.786  -2.331   2.668  0.00  0.00     0.034 A 
ATOM      7 Cl   UNL d   1       4.530  -3.703   4.173  0.00  0.00    -0.070 Cl
ATOM      8 Cl1  UNL d   1       5.479  -5.033   1.357  0.00  0.00    -0.070 Cl
ENDROOT
TORSDOF 0
ENDMDL
