MODEL 1
REMARK minimizedAffinity -2.8628459
REMARK minimizedRMSD -1
REMARK  1 active torsions:
REMARK  status: ('A' for Active; 'I' for Inactive)
REMARK    1  A    between atoms: C1_2  and  C2_3 
ROOT
ATOM      1  C2  UNL d   1       2.658   0.038   0.018  0.00  0.00    -0.081 A 
ATOM      2  C3  UNL d   1       2.050  -1.202   0.248  0.00  0.00     0.006 A 
ATOM      3  C4  UNL d   1       2.414  -2.320  -0.505  0.00  0.00     0.002 A 
ATOM      4  C5  UNL d   1       3.397  -2.220  -1.495  0.00  0.00    -0.080 A 
ATOM      5  C6  UNL d   1       3.819  -3.420  -2.290  0.00  0.00     0.076 C 
ATOM      6  C7  UNL d   1       3.993  -0.977  -1.737  0.00  0.00     0.002 A 
ATOM      7  C8  UNL d   1       3.629   0.142  -0.985  0.00  0.00     0.006 A 
ENDROOT
BRANCH   1   8
ATOM      8  C1  UNL d   1       2.314   1.231   0.872  0.00  0.00     0.054 C 
ATOM      9  C   UNL d   1       3.513   2.153   1.044  0.00  0.00     0.018 C 
ENDBRANCH   1   8
TORSDOF 1
ENDMDL
