MODEL 1
REMARK minimizedAffinity 6.89852333
REMARK minimizedRMSD -1
REMARK  1 active torsions:
REMARK  status: ('A' for Active; 'I' for Inactive)
REMARK    1  A    between atoms: C1_2  and  C2_3 
ROOT
ATOM      1  C2  UNL d   1      -0.495  -1.859  -1.940  0.00  0.00    -0.081 A 
ATOM      2  C3  UNL d   1      -0.603  -0.679  -1.194  0.00  0.00     0.006 A 
ATOM      3  C4  UNL d   1      -0.263  -0.665   0.161  0.00  0.00     0.002 A 
ATOM      4  C5  UNL d   1       0.197  -1.827   0.790  0.00  0.00    -0.080 A 
ATOM      5  C6  UNL d   1       0.594  -1.818   2.236  0.00  0.00     0.076 C 
ATOM      6  C7  UNL d   1       0.288  -3.010   0.049  0.00  0.00     0.002 A 
ATOM      7  C8  UNL d   1      -0.053  -3.025  -1.306  0.00  0.00     0.006 A 
ENDROOT
BRANCH   1   8
ATOM      8  C1  UNL d   1      -0.799  -1.863  -3.416  0.00  0.00     0.054 C 
ATOM      9  C   UNL d   1      -1.435  -3.177  -3.848  0.00  0.00     0.018 C 
ENDBRANCH   1   8
TORSDOF 1
ENDMDL
