MODEL 1
REMARK minimizedAffinity -2.43457079
REMARK minimizedRMSD -1
REMARK  1 active torsions:
REMARK  status: ('A' for Active; 'I' for Inactive)
REMARK    1  A    between atoms: C1_2  and  C2_3 
ROOT
ATOM      1  C2  UNL d   1       2.469  -0.146  -0.173  0.00  0.00    -0.081 A 
ATOM      2  C3  UNL d   1       3.508  -0.042  -1.106  0.00  0.00     0.006 A 
ATOM      3  C4  UNL d   1       3.754  -1.078  -2.010  0.00  0.00     0.002 A 
ATOM      4  C5  UNL d   1       2.961  -2.230  -2.002  0.00  0.00    -0.080 A 
ATOM      5  C6  UNL d   1       3.195  -3.337  -2.987  0.00  0.00     0.076 C 
ATOM      6  C7  UNL d   1       1.935  -2.342  -1.058  0.00  0.00     0.002 A 
ATOM      7  C8  UNL d   1       1.689  -1.307  -0.153  0.00  0.00     0.006 A 
ENDROOT
BRANCH   1   8
ATOM      8  C1  UNL d   1       2.161   0.997   0.761  0.00  0.00     0.054 C 
ATOM      9  C   UNL d   1       3.259   2.050   0.729  0.00  0.00     0.018 C 
ENDBRANCH   1   8
TORSDOF 1
ENDMDL
