MODEL 1
REMARK minimizedAffinity 6.70949507
REMARK minimizedRMSD -1
REMARK  1 active torsions:
REMARK  status: ('A' for Active; 'I' for Inactive)
REMARK    1  A    between atoms: C1_2  and  C2_3 
ROOT
ATOM      1  C2  UNL d   1      -1.219  -2.352  -3.211  0.00  0.00    -0.081 A 
ATOM      2  C3  UNL d   1      -1.530  -1.077  -2.722  0.00  0.00     0.006 A 
ATOM      3  C4  UNL d   1      -1.115  -0.687  -1.447  0.00  0.00     0.002 A 
ATOM      4  C5  UNL d   1      -0.376  -1.561  -0.643  0.00  0.00    -0.080 A 
ATOM      5  C6  UNL d   1       0.102  -1.144   0.717  0.00  0.00     0.076 C 
ATOM      6  C7  UNL d   1      -0.079  -2.841  -1.124  0.00  0.00     0.002 A 
ATOM      7  C8  UNL d   1      -0.495  -3.231  -2.399  0.00  0.00     0.006 A 
ENDROOT
BRANCH   1   8
ATOM      8  C1  UNL d   1      -1.609  -2.752  -4.611  0.00  0.00     0.054 C 
ATOM      9  C   UNL d   1      -2.391  -4.058  -4.615  0.00  0.00     0.018 C 
ENDBRANCH   1   8
TORSDOF 1
ENDMDL
