MODEL 1
REMARK minimizedAffinity 3.4242177
REMARK minimizedRMSD -1
REMARK  1 active torsions:
REMARK  status: ('A' for Active; 'I' for Inactive)
REMARK    1  A    between atoms: C1_2  and  C2_3 
ROOT
ATOM      1  C2  UNL d   1      -1.063   1.654   0.335  0.00  0.00    -0.081 A 
ATOM      2  C3  UNL d   1      -1.174   2.032   1.678  0.00  0.00     0.006 A 
ATOM      3  C4  UNL d   1      -2.403   1.950   2.338  0.00  0.00     0.002 A 
ATOM      4  C5  UNL d   1      -3.538   1.481   1.668  0.00  0.00    -0.080 A 
ATOM      5  C6  UNL d   1      -4.857   1.360   2.372  0.00  0.00     0.076 C 
ATOM      6  C7  UNL d   1      -3.431   1.120   0.320  0.00  0.00     0.002 A 
ATOM      7  C8  UNL d   1      -2.203   1.202  -0.340  0.00  0.00     0.006 A 
ENDROOT
BRANCH   1   8
ATOM      8  C1  UNL d   1       0.274   1.680  -0.361  0.00  0.00     0.054 C 
ATOM      9  C   UNL d   1       0.851   3.088  -0.398  0.00  0.00     0.018 C 
ENDBRANCH   1   8
TORSDOF 1
ENDMDL
