MODEL 1
REMARK minimizedAffinity -0.328409076
REMARK minimizedRMSD -1
REMARK  1 active torsions:
REMARK  status: ('A' for Active; 'I' for Inactive)
REMARK    1  A    between atoms: C1_2  and  C2_3 
ROOT
ATOM      1  C2  UNL d   1      -0.691  -0.060  -0.335  0.00  0.00    -0.081 A 
ATOM      2  C3  UNL d   1       0.151   0.851   0.313  0.00  0.00     0.006 A 
ATOM      3  C4  UNL d   1      -0.362   1.741   1.259  0.00  0.00     0.002 A 
ATOM      4  C5  UNL d   1      -1.724   1.730   1.578  0.00  0.00    -0.080 A 
ATOM      5  C6  UNL d   1      -2.283   2.660   2.614  0.00  0.00     0.076 C 
ATOM      6  C7  UNL d   1      -2.569   0.832   0.917  0.00  0.00     0.002 A 
ATOM      7  C8  UNL d   1      -2.057  -0.058  -0.029  0.00  0.00     0.006 A 
ENDROOT
BRANCH   1   8
ATOM      8  C1  UNL d   1      -0.130  -1.065  -1.308  0.00  0.00     0.054 C 
ATOM      9  C   UNL d   1      -0.160  -2.472  -0.729  0.00  0.00     0.018 C 
ENDBRANCH   1   8
TORSDOF 1
ENDMDL
