MODEL 1
REMARK minimizedAffinity -1.1041702
REMARK minimizedRMSD -1
REMARK  1 active torsions:
REMARK  status: ('A' for Active; 'I' for Inactive)
REMARK    1  A    between atoms: C1_2  and  C2_3 
ROOT
ATOM      1  C2  UNL d   1       1.816   0.163  -0.472  0.00  0.00    -0.081 A 
ATOM      2  C3  UNL d   1       3.205   0.162  -0.648  0.00  0.00     0.006 A 
ATOM      3  C4  UNL d   1       3.818  -0.816  -1.434  0.00  0.00     0.002 A 
ATOM      4  C5  UNL d   1       3.053  -1.805  -2.062  0.00  0.00    -0.080 A 
ATOM      5  C6  UNL d   1       3.697  -2.843  -2.933  0.00  0.00     0.076 C 
ATOM      6  C7  UNL d   1       1.667  -1.814  -1.872  0.00  0.00     0.002 A 
ATOM      7  C8  UNL d   1       1.053  -0.837  -1.086  0.00  0.00     0.006 A 
ENDROOT
BRANCH   1   8
ATOM      8  C1  UNL d   1       1.144   1.254   0.322  0.00  0.00     0.054 C 
ATOM      9  C   UNL d   1      -0.048   1.830  -0.428  0.00  0.00     0.018 C 
ENDBRANCH   1   8
TORSDOF 1
ENDMDL
