MODEL 1
REMARK minimizedAffinity -1.94107783
REMARK minimizedRMSD -1
REMARK  0 active torsions:
REMARK  status: ('A' for Active; 'I' for Inactive)
ROOT
ATOM      1  N1  IND d   1       0.284   0.492  -0.794  0.00  0.00    -0.196 N 
ATOM      2  C2  IND d   1       0.534  -0.534   0.073  0.00  0.00     0.054 A 
ATOM      3  C3  IND d   1       0.766  -0.054   1.315  0.00  0.00    -0.031 A 
ATOM      4  C4  IND d   1       0.687   2.372   2.173  0.00  0.00     0.051 A 
ATOM      5  C5  IND d   1       0.536   3.661   1.745  0.00  0.00    -0.031 A 
ATOM      6  C6  IND d   1       0.286   3.966   0.423  0.00  0.00     0.015 A 
ATOM      7  C7  IND d   1       0.165   2.988  -0.523  0.00  0.00    -0.016 A 
ATOM      8  C8  IND d   1       0.325   1.678  -0.094  0.00  0.00    -0.047 A 
ATOM      9  C9  IND d   1       0.621   1.365   1.239  0.00  0.00    -0.096 A 
ATOM     10  HN1 IND d   1       0.128   0.411  -1.636  0.00  0.00     0.298 HD
ENDROOT
TORSDOF 0
ENDMDL
