MODEL 1
REMARK minimizedAffinity 0.850572467
REMARK minimizedRMSD -1
REMARK  0 active torsions:
REMARK  status: ('A' for Active; 'I' for Inactive)
ROOT
ATOM      1  N1  IND d   1       0.447   3.082  -0.455  0.00  0.00    -0.196 N 
ATOM      2  C2  IND d   1       0.875   4.018   0.445  0.00  0.00     0.054 A 
ATOM      3  C3  IND d   1       1.038   3.458   1.664  0.00  0.00    -0.031 A 
ATOM      4  C4  IND d   1       0.758   1.003   2.387  0.00  0.00     0.051 A 
ATOM      5  C5  IND d   1       0.347  -0.216   1.925  0.00  0.00    -0.031 A 
ATOM      6  C6  IND d   1      -0.058  -0.402   0.619  0.00  0.00     0.015 A 
ATOM      7  C7  IND d   1      -0.055   0.626  -0.281  0.00  0.00    -0.016 A 
ATOM      8  C8  IND d   1       0.355   1.867   0.186  0.00  0.00    -0.047 A 
ATOM      9  C9  IND d   1       0.726   2.071   1.522  0.00  0.00    -0.096 A 
ATOM     10  HN1 IND d   1       0.265   3.228  -1.283  0.00  0.00     0.298 HD
ENDROOT
TORSDOF 0
ENDMDL
