MODEL 1
REMARK minimizedAffinity 4.22346354
REMARK minimizedRMSD -1
REMARK  0 active torsions:
REMARK  status: ('A' for Active; 'I' for Inactive)
ROOT
ATOM      1  N1  IND d   1       0.698   0.373  -1.106  0.00  0.00    -0.196 N 
ATOM      2  C2  IND d   1       1.800  -0.386  -0.824  0.00  0.00     0.054 A 
ATOM      3  C3  IND d   1       2.110  -0.295   0.489  0.00  0.00    -0.031 A 
ATOM      4  C4  IND d   1       0.887   0.960   2.375  0.00  0.00     0.051 A 
ATOM      5  C5  IND d   1      -0.149   1.822   2.600  0.00  0.00    -0.031 A 
ATOM      6  C6  IND d   1      -0.974   2.252   1.581  0.00  0.00     0.015 A 
ATOM      7  C7  IND d   1      -0.800   1.825   0.295  0.00  0.00    -0.016 A 
ATOM      8  C8  IND d   1       0.256   0.954   0.062  0.00  0.00    -0.047 A 
ATOM      9  C9  IND d   1       1.122   0.548   1.085  0.00  0.00    -0.096 A 
ATOM     10  HN1 IND d   1       0.341   0.470  -1.882  0.00  0.00     0.298 HD
ENDROOT
TORSDOF 0
ENDMDL
