MODEL 1
REMARK minimizedAffinity 5.17080355
REMARK minimizedRMSD -1
REMARK  0 active torsions:
REMARK  status: ('A' for Active; 'I' for Inactive)
ROOT
ATOM      1  N1  IND d   1       0.351   3.253  -1.057  0.00  0.00    -0.196 N 
ATOM      2  C2  IND d   1      -0.661   4.124  -1.352  0.00  0.00     0.054 A 
ATOM      3  C3  IND d   1      -1.638   4.042  -0.422  0.00  0.00    -0.031 A 
ATOM      4  C4  IND d   1      -1.740   2.622   1.723  0.00  0.00     0.051 A 
ATOM      5  C5  IND d   1      -1.067   1.645   2.401  0.00  0.00    -0.031 A 
ATOM      6  C6  IND d   1       0.139   1.146   1.954  0.00  0.00     0.015 A 
ATOM      7  C7  IND d   1       0.725   1.615   0.812  0.00  0.00    -0.016 A 
ATOM      8  C8  IND d   1       0.040   2.603   0.117  0.00  0.00    -0.047 A 
ATOM      9  C9  IND d   1      -1.204   3.083   0.544  0.00  0.00    -0.096 A 
ATOM     10  HN1 IND d   1       1.061   3.131  -1.526  0.00  0.00     0.298 HD
ENDROOT
TORSDOF 0
ENDMDL
