MODEL 1
REMARK minimizedAffinity 2.54857135
REMARK minimizedRMSD -1
REMARK  0 active torsions:
REMARK  status: ('A' for Active; 'I' for Inactive)
ROOT
ATOM      1  N1  IND d   1       1.795  -0.367  -0.633  0.00  0.00    -0.196 N 
ATOM      2  C2  IND d   1       1.027  -0.637  -1.732  0.00  0.00     0.054 A 
ATOM      3  C3  IND d   1      -0.125   0.068  -1.685  0.00  0.00    -0.031 A 
ATOM      4  C4  IND d   1      -0.912   1.802   0.048  0.00  0.00     0.051 A 
ATOM      5  C5  IND d   1      -0.568   2.358   1.248  0.00  0.00    -0.031 A 
ATOM      6  C6  IND d   1       0.606   2.030   1.894  0.00  0.00     0.015 A 
ATOM      7  C7  IND d   1       1.490   1.138   1.356  0.00  0.00    -0.016 A 
ATOM      8  C8  IND d   1       1.140   0.566   0.141  0.00  0.00    -0.047 A 
ATOM      9  C9  IND d   1      -0.070   0.863  -0.499  0.00  0.00    -0.096 A 
ATOM     10  HN1 IND d   1       2.559  -0.720  -0.456  0.00  0.00     0.298 HD
ENDROOT
TORSDOF 0
ENDMDL
