MODEL 1
REMARK minimizedAffinity 8.02732182
REMARK minimizedRMSD -1
REMARK  0 active torsions:
REMARK  status: ('A' for Active; 'I' for Inactive)
ROOT
ATOM      1  N1  IND d   1      -0.040   1.527  -0.571  0.00  0.00    -0.196 N 
ATOM      2  C2  IND d   1      -0.174   2.186  -1.762  0.00  0.00     0.054 A 
ATOM      3  C3  IND d   1      -0.909   3.309  -1.597  0.00  0.00    -0.031 A 
ATOM      4  C4  IND d   1      -1.906   4.311   0.554  0.00  0.00     0.051 A 
ATOM      5  C5  IND d   1      -2.078   4.050   1.885  0.00  0.00    -0.031 A 
ATOM      6  C6  IND d   1      -1.566   2.913   2.477  0.00  0.00     0.015 A 
ATOM      7  C7  IND d   1      -0.851   1.996   1.760  0.00  0.00    -0.016 A 
ATOM      8  C8  IND d   1      -0.681   2.254   0.407  0.00  0.00    -0.047 A 
ATOM      9  C9  IND d   1      -1.233   3.385  -0.208  0.00  0.00    -0.096 A 
ATOM     10  HN1 IND d   1       0.375   0.783  -0.454  0.00  0.00     0.298 HD
ENDROOT
TORSDOF 0
ENDMDL
