MODEL 1
REMARK minimizedAffinity -0.596024036
REMARK minimizedRMSD -1
REMARK  0 active torsions:
REMARK  status: ('A' for Active; 'I' for Inactive)
ROOT
ATOM      1  N1  IND d   1       1.664   4.160   1.048  0.00  0.00    -0.196 N 
ATOM      2  C2  IND d   1       2.139   3.909   2.305  0.00  0.00     0.054 A 
ATOM      3  C3  IND d   1       1.165   3.379   3.078  0.00  0.00    -0.031 A 
ATOM      4  C4  IND d   1      -1.251   2.742   2.459  0.00  0.00     0.051 A 
ATOM      5  C5  IND d   1      -2.156   2.815   1.437  0.00  0.00    -0.031 A 
ATOM      6  C6  IND d   1      -1.826   3.348   0.208  0.00  0.00     0.015 A 
ATOM      7  C7  IND d   1      -0.570   3.820  -0.050  0.00  0.00    -0.016 A 
ATOM      8  C8  IND d   1       0.349   3.754   0.987  0.00  0.00    -0.047 A 
ATOM      9  C9  IND d   1       0.008   3.253   2.250  0.00  0.00    -0.096 A 
ATOM     10  HN1 IND d   1       2.112   4.511   0.403  0.00  0.00     0.298 HD
ENDROOT
TORSDOF 0
ENDMDL
