MODEL 1
REMARK minimizedAffinity 2.49433327
REMARK minimizedRMSD -1
REMARK  0 active torsions:
REMARK  status: ('A' for Active; 'I' for Inactive)
ROOT
ATOM      1  N1  IND d   1      -0.087   0.751   1.506  0.00  0.00    -0.196 N 
ATOM      2  C2  IND d   1      -0.124   0.766   2.872  0.00  0.00     0.054 A 
ATOM      3  C3  IND d   1      -0.557   1.967   3.318  0.00  0.00    -0.031 A 
ATOM      4  C4  IND d   1      -1.358   4.016   1.982  0.00  0.00     0.051 A 
ATOM      5  C5  IND d   1      -1.473   4.492   0.706  0.00  0.00    -0.031 A 
ATOM      6  C6  IND d   1      -1.128   3.729  -0.391  0.00  0.00     0.015 A 
ATOM      7  C7  IND d   1      -0.663   2.452  -0.252  0.00  0.00    -0.016 A 
ATOM      8  C8  IND d   1      -0.538   1.968   1.042  0.00  0.00    -0.047 A 
ATOM      9  C9  IND d   1      -0.847   2.752   2.161  0.00  0.00    -0.096 A 
ATOM     10  HN1 IND d   1       0.173   0.093   1.018  0.00  0.00     0.298 HD
ENDROOT
TORSDOF 0
ENDMDL
