MODEL 1
REMARK minimizedAffinity 5.81604242
REMARK minimizedRMSD -1
REMARK  0 active torsions:
REMARK  status: ('A' for Active; 'I' for Inactive)
ROOT
ATOM      1  N1  IND d   1       5.990  -4.873  -2.981  0.00  0.00    -0.196 N 
ATOM      2  C2  IND d   1       5.458  -3.848  -3.713  0.00  0.00     0.054 A 
ATOM      3  C3  IND d   1       4.330  -3.388  -3.126  0.00  0.00    -0.031 A 
ATOM      4  C4  IND d   1       3.231  -4.101  -0.910  0.00  0.00     0.051 A 
ATOM      5  C5  IND d   1       3.332  -5.022   0.095  0.00  0.00    -0.031 A 
ATOM      6  C6  IND d   1       4.345  -5.958   0.128  0.00  0.00     0.015 A 
ATOM      7  C7  IND d   1       5.307  -6.000  -0.841  0.00  0.00    -0.016 A 
ATOM      8  C8  IND d   1       5.205  -5.071  -1.867  0.00  0.00    -0.047 A 
ATOM      9  C9  IND d   1       4.154  -4.146  -1.928  0.00  0.00    -0.096 A 
ATOM     10  HN1 IND d   1       6.697  -5.319  -3.183  0.00  0.00     0.298 HD
ENDROOT
TORSDOF 0
ENDMDL
