MODEL 1
REMARK minimizedAffinity 7.1649909
REMARK minimizedRMSD -1
REMARK  0 active torsions:
REMARK  status: ('A' for Active; 'I' for Inactive)
ROOT
ATOM      1  N1  IND d   1       1.736  -0.911   0.527  0.00  0.00    -0.196 N 
ATOM      2  C2  IND d   1       2.461  -1.483   1.535  0.00  0.00     0.054 A 
ATOM      3  C3  IND d   1       2.066  -0.998   2.733  0.00  0.00    -0.031 A 
ATOM      4  C4  IND d   1       0.180   0.666   3.282  0.00  0.00     0.051 A 
ATOM      5  C5  IND d   1      -0.737   1.489   2.690  0.00  0.00    -0.031 A 
ATOM      6  C6  IND d   1      -0.882   1.553   1.320  0.00  0.00     0.015 A 
ATOM      7  C7  IND d   1      -0.119   0.784   0.486  0.00  0.00    -0.016 A 
ATOM      8  C8  IND d   1       0.818  -0.047   1.084  0.00  0.00    -0.047 A 
ATOM      9  C9  IND d   1       0.999  -0.084   2.472  0.00  0.00    -0.096 A 
ATOM     10  HN1 IND d   1       1.836  -1.064  -0.313  0.00  0.00     0.298 HD
ENDROOT
TORSDOF 0
ENDMDL
