MODEL 1
REMARK minimizedAffinity -2.40731335
REMARK minimizedRMSD -1
REMARK  2 active torsions:
REMARK  status: ('A' for Active; 'I' for Inactive)
REMARK    1  A    between atoms: C2'_3  and  C1'_4 
REMARK    2  A    between atoms: C1'_4  and  C1_5 
ROOT
ATOM      1  C1  I4B d   1      -0.949   0.475  -0.520  0.00  0.00    -0.075 A 
ATOM      2  C2  I4B d   1      -0.650   1.727  -0.044  0.00  0.00     0.003 A 
ATOM      3  C3  I4B d   1       0.679   2.052   0.321  0.00  0.00     0.002 A 
ATOM      4  C4  I4B d   1       1.661   1.086   0.243  0.00  0.00    -0.004 A 
ATOM      5  C5  I4B d   1       1.361  -0.176  -0.261  0.00  0.00     0.002 A 
ATOM      6  C6  I4B d   1       0.050  -0.480  -0.656  0.00  0.00     0.003 A 
ENDROOT
BRANCH   1   7
ATOM      7  C1' I4B d   1      -2.369   0.155  -0.865  0.00  0.00     0.060 C 
BRANCH   7   8
ATOM      8  C2' I4B d   1      -2.522   0.276  -2.367  0.00  0.00    -0.013 C 
ATOM      9  C4' I4B d   1      -2.768  -1.069  -3.000  0.00  0.00     0.013 C 
ATOM     10  C3' I4B d   1      -3.655   1.219  -2.643  0.00  0.00     0.013 C 
ENDBRANCH   7   8
ENDBRANCH   1   7
TORSDOF 2
ENDMDL
