MODEL 1
REMARK minimizedAffinity 0.875622153
REMARK minimizedRMSD -1
REMARK  2 active torsions:
REMARK  status: ('A' for Active; 'I' for Inactive)
REMARK    1  A    between atoms: C2'_3  and  C1'_4 
REMARK    2  A    between atoms: C1'_4  and  C1_5 
ROOT
ATOM      1  C1  I4B d   1      -0.356   0.312  -1.253  0.00  0.00    -0.075 A 
ATOM      2  C2  I4B d   1       0.935   0.695  -0.985  0.00  0.00     0.003 A 
ATOM      3  C3  I4B d   1       1.313   1.055   0.332  0.00  0.00     0.002 A 
ATOM      4  C4  I4B d   1       0.362   1.067   1.332  0.00  0.00    -0.004 A 
ATOM      5  C5  I4B d   1      -0.940   0.657   1.063  0.00  0.00     0.002 A 
ATOM      6  C6  I4B d   1      -1.299   0.265  -0.235  0.00  0.00     0.003 A 
ENDROOT
BRANCH   1   7
ATOM      7  C1' I4B d   1      -0.728  -0.030  -2.661  0.00  0.00     0.060 C 
BRANCH   7   8
ATOM      8  C2' I4B d   1      -2.234   0.081  -2.786  0.00  0.00    -0.013 C 
ATOM      9  C4' I4B d   1      -2.633   1.387  -3.422  0.00  0.00     0.013 C 
ATOM     10  C3' I4B d   1      -2.719  -1.085  -3.594  0.00  0.00     0.013 C 
ENDBRANCH   7   8
ENDBRANCH   1   7
TORSDOF 2
ENDMDL
