MODEL 1
REMARK minimizedAffinity -1.36044645
REMARK minimizedRMSD -1
REMARK  2 active torsions:
REMARK  status: ('A' for Active; 'I' for Inactive)
REMARK    1  A    between atoms: C2'_3  and  C1'_4 
REMARK    2  A    between atoms: C1'_4  and  C1_5 
ROOT
ATOM      1  C1  I4B d   1      -1.825  -0.236  -0.888  0.00  0.00    -0.075 A 
ATOM      2  C2  I4B d   1      -3.051   0.368  -1.010  0.00  0.00     0.003 A 
ATOM      3  C3  I4B d   1      -3.831   0.170  -2.175  0.00  0.00     0.002 A 
ATOM      4  C4  I4B d   1      -3.327  -0.595  -3.208  0.00  0.00    -0.004 A 
ATOM      5  C5  I4B d   1      -2.093  -1.225  -3.073  0.00  0.00     0.002 A 
ATOM      6  C6  I4B d   1      -1.343  -1.055  -1.901  0.00  0.00     0.003 A 
ENDROOT
BRANCH   1   7
ATOM      7  C1' I4B d   1      -1.014   0.021   0.342  0.00  0.00     0.060 C 
BRANCH   7   8
ATOM      8  C2' I4B d   1      -0.085   1.183   0.054  0.00  0.00    -0.013 C 
ATOM      9  C4' I4B d   1      -0.503   2.416   0.812  0.00  0.00     0.013 C 
ATOM     10  C3' I4B d   1       1.307   0.767   0.424  0.00  0.00     0.013 C 
ENDBRANCH   7   8
ENDBRANCH   1   7
TORSDOF 2
ENDMDL
