MODEL 1
REMARK minimizedAffinity -2.15259552
REMARK minimizedRMSD -1
REMARK  2 active torsions:
REMARK  status: ('A' for Active; 'I' for Inactive)
REMARK    1  A    between atoms: C2'_3  and  C1'_4 
REMARK    2  A    between atoms: C1'_4  and  C1_5 
ROOT
ATOM      1  C1  I4B d   1      -0.459   0.404   0.044  0.00  0.00    -0.075 A 
ATOM      2  C2  I4B d   1       0.188  -0.238   1.070  0.00  0.00     0.003 A 
ATOM      3  C3  I4B d   1       1.513   0.125   1.415  0.00  0.00     0.002 A 
ATOM      4  C4  I4B d   1       2.166   1.093   0.680  0.00  0.00    -0.004 A 
ATOM      5  C5  I4B d   1       1.500   1.759  -0.345  0.00  0.00     0.002 A 
ATOM      6  C6  I4B d   1       0.175   1.421  -0.658  0.00  0.00     0.003 A 
ENDROOT
BRANCH   1   7
ATOM      7  C1' I4B d   1      -1.846  -0.027  -0.315  0.00  0.00     0.060 C 
BRANCH   7   8
ATOM      8  C2' I4B d   1      -2.281   0.767  -1.530  0.00  0.00    -0.013 C 
ATOM      9  C4' I4B d   1      -2.697  -0.144  -2.656  0.00  0.00     0.013 C 
ATOM     10  C3' I4B d   1      -3.408   1.666  -1.116  0.00  0.00     0.013 C 
ENDBRANCH   7   8
ENDBRANCH   1   7
TORSDOF 2
ENDMDL
