MODEL 1
REMARK minimizedAffinity -4.91517067
REMARK minimizedRMSD -1
REMARK  2 active torsions:
REMARK  status: ('A' for Active; 'I' for Inactive)
REMARK    1  A    between atoms: C2'_3  and  C1'_4 
REMARK    2  A    between atoms: C1'_4  and  C1_5 
ROOT
ATOM      1  C1  I4B d   1       0.323  -0.974   0.951  0.00  0.00    -0.075 A 
ATOM      2  C2  I4B d   1       1.381  -0.159   0.631  0.00  0.00     0.003 A 
ATOM      3  C3  I4B d   1       2.697  -0.519   1.009  0.00  0.00     0.002 A 
ATOM      4  C4  I4B d   1       2.903  -1.668   1.744  0.00  0.00    -0.004 A 
ATOM      5  C5  I4B d   1       1.833  -2.505   2.047  0.00  0.00     0.002 A 
ATOM      6  C6  I4B d   1       0.536  -2.162   1.638  0.00  0.00     0.003 A 
ENDROOT
BRANCH   1   7
ATOM      7  C1' I4B d   1      -1.057  -0.547   0.565  0.00  0.00     0.060 C 
BRANCH   7   8
ATOM      8  C2' I4B d   1      -0.936   0.488  -0.535  0.00  0.00    -0.013 C 
ATOM      9  C4' I4B d   1      -2.163   0.502  -1.408  0.00  0.00     0.013 C 
ATOM     10  C3' I4B d   1      -0.714   1.824   0.108  0.00  0.00     0.013 C 
ENDBRANCH   7   8
ENDBRANCH   1   7
TORSDOF 2
ENDMDL
