MODEL 1
REMARK minimizedAffinity -4.29084015
REMARK minimizedRMSD -1
REMARK  2 active torsions:
REMARK  status: ('A' for Active; 'I' for Inactive)
REMARK    1  A    between atoms: C2'_3  and  C1'_4 
REMARK    2  A    between atoms: C1'_4  and  C1_5 
ROOT
ATOM      1  C1  I4B d   1      -0.461  -0.138  -0.011  0.00  0.00    -0.075 A 
ATOM      2  C2  I4B d   1       0.196   1.067  -0.031  0.00  0.00     0.003 A 
ATOM      3  C3  I4B d   1       1.568   1.137   0.312  0.00  0.00     0.002 A 
ATOM      4  C4  I4B d   1       2.227  -0.007   0.715  0.00  0.00    -0.004 A 
ATOM      5  C5  I4B d   1       1.565  -1.231   0.713  0.00  0.00     0.002 A 
ATOM      6  C6  I4B d   1       0.216  -1.300   0.335  0.00  0.00     0.003 A 
ENDROOT
BRANCH   1   7
ATOM      7  C1' I4B d   1      -1.918  -0.170  -0.348  0.00  0.00     0.060 C 
BRANCH   7   8
ATOM      8  C2' I4B d   1      -2.058   0.058  -1.839  0.00  0.00    -0.013 C 
ATOM      9  C4' I4B d   1      -2.576  -1.174  -2.533  0.00  0.00     0.013 C 
ATOM     10  C3' I4B d   1      -2.980   1.223  -2.045  0.00  0.00     0.013 C 
ENDBRANCH   7   8
ENDBRANCH   1   7
TORSDOF 2
ENDMDL
