MODEL 1
REMARK minimizedAffinity -4.57452536
REMARK minimizedRMSD -1
REMARK  2 active torsions:
REMARK  status: ('A' for Active; 'I' for Inactive)
REMARK    1  A    between atoms: C2'_3  and  C1'_4 
REMARK    2  A    between atoms: C1'_4  and  C1_5 
ROOT
ATOM      1  C1  I4B d   1      -0.913  -0.433  -0.629  0.00  0.00    -0.075 A 
ATOM      2  C2  I4B d   1      -0.276  -1.622  -0.373  0.00  0.00     0.003 A 
ATOM      3  C3  I4B d   1       1.009  -1.629   0.222  0.00  0.00     0.002 A 
ATOM      4  C4  I4B d   1       1.638  -0.432   0.494  0.00  0.00    -0.004 A 
ATOM      5  C5  I4B d   1       0.982   0.772   0.255  0.00  0.00     0.002 A 
ATOM      6  C6  I4B d   1      -0.307   0.772  -0.299  0.00  0.00     0.003 A 
ENDROOT
BRANCH   1   7
ATOM      7  C1' I4B d   1      -2.256  -0.462  -1.288  0.00  0.00     0.060 C 
BRANCH   7   8
ATOM      8  C2' I4B d   1      -2.082  -0.008  -2.723  0.00  0.00    -0.013 C 
ATOM      9  C4' I4B d   1      -2.200  -1.165  -3.679  0.00  0.00     0.013 C 
ATOM     10  C3' I4B d   1      -3.119   1.037  -3.006  0.00  0.00     0.013 C 
ENDBRANCH   7   8
ENDBRANCH   1   7
TORSDOF 2
ENDMDL
