MODEL 1
REMARK minimizedAffinity 6.30921507
REMARK minimizedRMSD -1
REMARK  1 active torsions:
REMARK  status: ('A' for Active; 'I' for Inactive)
REMARK    1  A    between atoms: C1_2  and  C2_3 
ROOT
ATOM      1  C2  UNL d   1      -1.342   0.943   2.353  0.00  0.00    -0.076 A 
ATOM      2  C3  UNL d   1      -1.983   2.075   2.886  0.00  0.00     0.004 A 
ATOM      3  C4  UNL d   1      -3.199   1.960   3.559  0.00  0.00    -0.003 A 
ATOM      4  C5  UNL d   1      -3.793   0.711   3.709  0.00  0.00     0.000 A 
ATOM      5  C6  UNL d   1      -3.162  -0.424   3.201  0.00  0.00     0.000 A 
ATOM      6  C7  UNL d   1      -1.928  -0.328   2.535  0.00  0.00    -0.073 A 
ATOM      7  C8  UNL d   1      -1.295  -1.584   2.003  0.00  0.00     0.078 C 
ENDROOT
BRANCH   1   8
ATOM      8  C1  UNL d   1      -0.039   1.132   1.610  0.00  0.00     0.053 C 
ATOM      9  C   UNL d   1      -0.220   1.112   0.100  0.00  0.00     0.018 C 
ENDBRANCH   1   8
TORSDOF 1
ENDMDL
