MODEL 1
REMARK minimizedAffinity 4.90529203
REMARK minimizedRMSD -1
REMARK  1 active torsions:
REMARK  status: ('A' for Active; 'I' for Inactive)
REMARK    1  A    between atoms: C1_2  and  C2_3 
ROOT
ATOM      1  C2  UNL d   1       3.461   4.800  -0.118  0.00  0.00    -0.076 A 
ATOM      2  C3  UNL d   1       3.307   5.950  -0.912  0.00  0.00     0.004 A 
ATOM      3  C4  UNL d   1       2.350   6.000  -1.923  0.00  0.00    -0.003 A 
ATOM      4  C5  UNL d   1       1.530   4.901  -2.157  0.00  0.00     0.000 A 
ATOM      5  C6  UNL d   1       1.657   3.759  -1.367  0.00  0.00     0.000 A 
ATOM      6  C7  UNL d   1       2.607   3.698  -0.332  0.00  0.00    -0.073 A 
ATOM      7  C8  UNL d   1       2.705   2.439   0.484  0.00  0.00     0.078 C 
ENDROOT
BRANCH   1   8
ATOM      8  C1  UNL d   1       4.535   4.794   0.947  0.00  0.00     0.053 C 
ATOM      9  C   UNL d   1       5.893   4.377   0.402  0.00  0.00     0.018 C 
ENDBRANCH   1   8
TORSDOF 1
ENDMDL
