MODEL 1
REMARK minimizedAffinity 7.42282152
REMARK minimizedRMSD -1
REMARK  1 active torsions:
REMARK  status: ('A' for Active; 'I' for Inactive)
REMARK    1  A    between atoms: C1_2  and  C2_3 
ROOT
ATOM      1  C2  UNL d   1      -0.489   0.508   2.188  0.00  0.00    -0.076 A 
ATOM      2  C3  UNL d   1      -1.107   1.743   2.451  0.00  0.00     0.004 A 
ATOM      3  C4  UNL d   1      -2.332   1.805   3.114  0.00  0.00    -0.003 A 
ATOM      4  C5  UNL d   1      -2.958   0.633   3.525  0.00  0.00     0.000 A 
ATOM      5  C6  UNL d   1      -2.350  -0.600   3.288  0.00  0.00     0.000 A 
ATOM      6  C7  UNL d   1      -1.108  -0.679   2.636  0.00  0.00    -0.073 A 
ATOM      7  C8  UNL d   1      -0.501  -2.035   2.401  0.00  0.00     0.078 C 
ENDROOT
BRANCH   1   8
ATOM      8  C1  UNL d   1       0.826   0.501   1.442  0.00  0.00     0.053 C 
ATOM      9  C   UNL d   1       0.694   1.035   0.024  0.00  0.00     0.018 C 
ENDBRANCH   1   8
TORSDOF 1
ENDMDL
