MODEL 1
REMARK minimizedAffinity 8.56900787
REMARK minimizedRMSD -1
REMARK  1 active torsions:
REMARK  status: ('A' for Active; 'I' for Inactive)
REMARK    1  A    between atoms: C1_2  and  C2_3 
ROOT
ATOM      1  C2  UNL d   1       1.913  -1.005  -3.797  0.00  0.00    -0.076 A 
ATOM      2  C3  UNL d   1       2.662  -0.573  -4.906  0.00  0.00     0.004 A 
ATOM      3  C4  UNL d   1       3.742   0.294  -4.748  0.00  0.00    -0.003 A 
ATOM      4  C5  UNL d   1       4.091   0.742  -3.479  0.00  0.00     0.000 A 
ATOM      5  C6  UNL d   1       3.370   0.310  -2.366  0.00  0.00     0.000 A 
ATOM      6  C7  UNL d   1       2.289  -0.577  -2.506  0.00  0.00    -0.073 A 
ATOM      7  C8  UNL d   1       1.543  -1.006  -1.273  0.00  0.00     0.078 C 
ENDROOT
BRANCH   1   8
ATOM      8  C1  UNL d   1       0.735  -1.924  -4.032  0.00  0.00     0.053 C 
ATOM      9  C   UNL d   1       0.812  -2.639  -5.373  0.00  0.00     0.018 C 
ENDBRANCH   1   8
TORSDOF 1
ENDMDL
