MODEL 1
REMARK minimizedAffinity 7.38022232
REMARK minimizedRMSD -1
REMARK  1 active torsions:
REMARK  status: ('A' for Active; 'I' for Inactive)
REMARK    1  A    between atoms: C1_2  and  C2_3 
ROOT
ATOM      1  C2  UNL d   1       1.350  -5.970   3.148  0.00  0.00    -0.076 A 
ATOM      2  C3  UNL d   1       2.661  -5.979   3.654  0.00  0.00     0.004 A 
ATOM      3  C4  UNL d   1       2.902  -5.976   5.027  0.00  0.00    -0.003 A 
ATOM      4  C5  UNL d   1       1.833  -5.965   5.917  0.00  0.00     0.000 A 
ATOM      5  C6  UNL d   1       0.526  -5.973   5.433  0.00  0.00     0.000 A 
ATOM      6  C7  UNL d   1       0.266  -5.993   4.052  0.00  0.00    -0.073 A 
ATOM      7  C8  UNL d   1      -1.164  -5.996   3.586  0.00  0.00     0.078 C 
ENDROOT
BRANCH   1   8
ATOM      8  C1  UNL d   1       1.151  -5.946   1.650  0.00  0.00     0.053 C 
ATOM      9  C   UNL d   1      -0.318  -5.982   1.256  0.00  0.00     0.018 C 
ENDBRANCH   1   8
TORSDOF 1
ENDMDL
