MODEL 1
REMARK minimizedAffinity 8.46834755
REMARK minimizedRMSD -1
REMARK  1 active torsions:
REMARK  status: ('A' for Active; 'I' for Inactive)
REMARK    1  A    between atoms: C1_2  and  C2_3 
ROOT
ATOM      1  C2  UNL d   1      -0.633  -2.020  -3.233  0.00  0.00    -0.076 A 
ATOM      2  C3  UNL d   1      -0.696  -0.843  -2.467  0.00  0.00     0.004 A 
ATOM      3  C4  UNL d   1      -1.871  -0.475  -1.813  0.00  0.00    -0.003 A 
ATOM      4  C5  UNL d   1      -3.001  -1.279  -1.913  0.00  0.00     0.000 A 
ATOM      5  C6  UNL d   1      -2.951  -2.460  -2.654  0.00  0.00     0.000 A 
ATOM      6  C7  UNL d   1      -1.770  -2.853  -3.306  0.00  0.00    -0.073 A 
ATOM      7  C8  UNL d   1      -1.774  -4.133  -4.097  0.00  0.00     0.078 C 
ENDROOT
BRANCH   1   8
ATOM      8  C1  UNL d   1       0.660  -2.354  -3.942  0.00  0.00     0.053 C 
ATOM      9  C   UNL d   1       1.847  -1.586  -3.382  0.00  0.00     0.018 C 
ENDBRANCH   1   8
TORSDOF 1
ENDMDL
