MODEL 1
REMARK minimizedAffinity 2.95490217
REMARK minimizedRMSD -1
REMARK  1 active torsions:
REMARK  status: ('A' for Active; 'I' for Inactive)
REMARK    1  A    between atoms: C1_2  and  C2_3 
ROOT
ATOM      1  C2  UNL d   1      -0.863  -1.911  -3.884  0.00  0.00    -0.076 A 
ATOM      2  C3  UNL d   1      -1.123  -0.530  -3.859  0.00  0.00     0.004 A 
ATOM      3  C4  UNL d   1      -2.405  -0.046  -3.603  0.00  0.00    -0.003 A 
ATOM      4  C5  UNL d   1      -3.448  -0.936  -3.368  0.00  0.00     0.000 A 
ATOM      5  C6  UNL d   1      -3.204  -2.309  -3.372  0.00  0.00     0.000 A 
ATOM      6  C7  UNL d   1      -1.914  -2.813  -3.612  0.00  0.00    -0.073 A 
ATOM      7  C8  UNL d   1      -1.709  -4.303  -3.610  0.00  0.00     0.078 C 
ENDROOT
BRANCH   1   8
ATOM      8  C1  UNL d   1       0.542  -2.378  -4.194  0.00  0.00     0.053 C 
ATOM      9  C   UNL d   1       1.591  -1.328  -3.862  0.00  0.00     0.018 C 
ENDBRANCH   1   8
TORSDOF 1
ENDMDL
