MODEL 1
REMARK minimizedAffinity 3.17825127
REMARK minimizedRMSD -1
REMARK  1 active torsions:
REMARK  status: ('A' for Active; 'I' for Inactive)
REMARK    1  A    between atoms: C1_2  and  C2_3 
ROOT
ATOM      1  C2  UNL d   1      -0.199  -5.961   3.736  0.00  0.00    -0.076 A 
ATOM      2  C3  UNL d   1      -1.539  -5.974   4.161  0.00  0.00     0.004 A 
ATOM      3  C4  UNL d   1      -2.584  -5.990   3.239  0.00  0.00    -0.003 A 
ATOM      4  C5  UNL d   1      -2.306  -5.994   1.877  0.00  0.00     0.000 A 
ATOM      5  C6  UNL d   1      -0.983  -5.999   1.437  0.00  0.00     0.000 A 
ATOM      6  C7  UNL d   1       0.083  -5.999   2.354  0.00  0.00    -0.073 A 
ATOM      7  C8  UNL d   1       1.491  -5.999   1.824  0.00  0.00     0.078 C 
ENDROOT
BRANCH   1   8
ATOM      8  C1  UNL d   1       0.892  -5.916   4.782  0.00  0.00     0.053 C 
ATOM      9  C   UNL d   1       0.600  -4.912   5.886  0.00  0.00     0.018 C 
ENDBRANCH   1   8
TORSDOF 1
ENDMDL
