MODEL 1
REMARK minimizedAffinity 11.9509077
REMARK minimizedRMSD -1
REMARK  1 active torsions:
REMARK  status: ('A' for Active; 'I' for Inactive)
REMARK    1  A    between atoms: C1_2  and  C2_3 
ROOT
ATOM      1  C2  UNL d   1      -0.858  -0.130   2.233  0.00  0.00    -0.076 A 
ATOM      2  C3  UNL d   1      -0.258   1.142   2.239  0.00  0.00     0.004 A 
ATOM      3  C4  UNL d   1       0.644   1.514   1.244  0.00  0.00    -0.003 A 
ATOM      4  C5  UNL d   1       0.961   0.621   0.226  0.00  0.00     0.000 A 
ATOM      5  C6  UNL d   1       0.363  -0.638   0.195  0.00  0.00     0.000 A 
ATOM      6  C7  UNL d   1      -0.561  -1.023   1.181  0.00  0.00    -0.073 A 
ATOM      7  C8  UNL d   1      -1.172  -2.396   1.102  0.00  0.00     0.078 C 
ENDROOT
BRANCH   1   8
ATOM      8  C1  UNL d   1      -1.808  -0.488   3.353  0.00  0.00     0.053 C 
ATOM      9  C   UNL d   1      -1.088  -1.046   4.572  0.00  0.00     0.018 C 
ENDBRANCH   1   8
TORSDOF 1
ENDMDL
