MODEL 1
REMARK minimizedAffinity 10.6709967
REMARK minimizedRMSD -1
REMARK  1 active torsions:
REMARK  status: ('A' for Active; 'I' for Inactive)
REMARK    1  A    between atoms: C1_2  and  C2_3 
ROOT
ATOM      1  C2  UNL d   1      -0.894  -1.822  -3.851  0.00  0.00    -0.076 A 
ATOM      2  C3  UNL d   1      -0.867  -0.526  -3.308  0.00  0.00     0.004 A 
ATOM      3  C4  UNL d   1      -1.974  -0.004  -2.642  0.00  0.00    -0.003 A 
ATOM      4  C5  UNL d   1      -3.126  -0.770  -2.507  0.00  0.00     0.000 A 
ATOM      5  C6  UNL d   1      -3.165  -2.064  -3.024  0.00  0.00     0.000 A 
ATOM      6  C7  UNL d   1      -2.051  -2.612  -3.684  0.00  0.00    -0.073 A 
ATOM      7  C8  UNL d   1      -2.150  -4.011  -4.227  0.00  0.00     0.078 C 
ENDROOT
BRANCH   1   8
ATOM      8  C1  UNL d   1       0.328  -2.325  -4.586  0.00  0.00     0.053 C 
ATOM      9  C   UNL d   1       1.625  -1.953  -3.885  0.00  0.00     0.018 C 
ENDBRANCH   1   8
TORSDOF 1
ENDMDL
