MODEL 1
REMARK minimizedAffinity 1.61975408
REMARK minimizedRMSD -1
REMARK  1 active torsions:
REMARK  status: ('A' for Active; 'I' for Inactive)
REMARK    1  A    between atoms: C1_2  and  C2_3 
ROOT
ATOM      1  C2  UNL d   1      -1.210  -1.367  -3.664  0.00  0.00    -0.076 A 
ATOM      2  C3  UNL d   1      -0.194  -2.039  -4.365  0.00  0.00     0.004 A 
ATOM      3  C4  UNL d   1      -0.329  -3.382  -4.712  0.00  0.00    -0.003 A 
ATOM      4  C5  UNL d   1      -1.482  -4.076  -4.363  0.00  0.00     0.000 A 
ATOM      5  C6  UNL d   1      -2.508  -3.420  -3.682  0.00  0.00     0.000 A 
ATOM      6  C7  UNL d   1      -2.395  -2.062  -3.339  0.00  0.00    -0.073 A 
ATOM      7  C8  UNL d   1      -3.529  -1.407  -2.600  0.00  0.00     0.078 C 
ENDROOT
BRANCH   1   8
ATOM      8  C1  UNL d   1      -0.996   0.083  -3.291  0.00  0.00     0.053 C 
ATOM      9  C   UNL d   1      -0.436   0.247  -1.887  0.00  0.00     0.018 C 
ENDBRANCH   1   8
TORSDOF 1
ENDMDL
