MODEL 1
REMARK minimizedAffinity 8.27189827
REMARK minimizedRMSD -1
REMARK  1 active torsions:
REMARK  status: ('A' for Active; 'I' for Inactive)
REMARK    1  A    between atoms: C1_2  and  C2_3 
ROOT
ATOM      1  C2  UNL d   1      -1.512  -5.978   2.167  0.00  0.00    -0.076 A 
ATOM      2  C3  UNL d   1      -1.636  -5.990   0.767  0.00  0.00     0.004 A 
ATOM      3  C4  UNL d   1      -0.509  -5.964  -0.053  0.00  0.00    -0.003 A 
ATOM      4  C5  UNL d   1       0.760  -5.928   0.514  0.00  0.00     0.000 A 
ATOM      5  C6  UNL d   1       0.902  -5.934   1.901  0.00  0.00     0.000 A 
ATOM      6  C7  UNL d   1      -0.224  -5.976   2.742  0.00  0.00    -0.073 A 
ATOM      7  C8  UNL d   1      -0.013  -5.975   4.232  0.00  0.00     0.078 C 
ENDROOT
BRANCH   1   8
ATOM      8  C1  UNL d   1      -2.771  -5.979   3.005  0.00  0.00     0.053 C 
ATOM      9  C   UNL d   1      -4.034  -5.923   2.160  0.00  0.00     0.018 C 
ENDBRANCH   1   8
TORSDOF 1
ENDMDL
