MODEL 1
REMARK minimizedAffinity 6.39122486
REMARK minimizedRMSD -1
REMARK  1 active torsions:
REMARK  status: ('A' for Active; 'I' for Inactive)
REMARK    1  A    between atoms: N_2  and  C1_3 
ROOT
ATOM      1  C1  UNL d   1      -3.758  -0.411   1.894  0.00  0.00     0.143 A 
ATOM      2  C2  UNL d   1      -2.603   0.349   2.109  0.00  0.00    -0.057 A 
ATOM      3  C3  UNL d   1      -2.634   1.748   2.058  0.00  0.00     0.033 A 
ATOM      4  C4  UNL d   1      -3.820   2.413   1.763  0.00  0.00    -0.042 A 
ATOM      5  C5  UNL d   1      -4.975   1.677   1.521  0.00  0.00     0.033 A 
ATOM      6  C6  UNL d   1      -4.938   0.281   1.580  0.00  0.00    -0.057 A 
ENDROOT
BRANCH   1   7
ATOM      7  N   UNL d   1      -3.770  -1.806   1.834  0.00  0.00    -0.732 N 
ATOM      8  C   UNL d   1      -3.191  -2.500   0.703  0.00  0.00     0.284 C 
ATOM      9  H3  UNL d   1      -3.568  -2.236   2.733  0.00  0.00     0.395 HD
ENDBRANCH   1   7
TORSDOF 1
ENDMDL
