MODEL 1
REMARK minimizedAffinity 4.74307156
REMARK minimizedRMSD -1
REMARK  1 active torsions:
REMARK  status: ('A' for Active; 'I' for Inactive)
REMARK    1  A    between atoms: N_2  and  C1_3 
ROOT
ATOM      1  C1  UNL d   1       3.894  -0.955  -1.487  0.00  0.00     0.143 A 
ATOM      2  C2  UNL d   1       3.648   0.412  -1.654  0.00  0.00    -0.057 A 
ATOM      3  C3  UNL d   1       4.540   1.230  -2.357  0.00  0.00     0.033 A 
ATOM      4  C4  UNL d   1       5.713   0.699  -2.884  0.00  0.00    -0.042 A 
ATOM      5  C5  UNL d   1       5.991  -0.652  -2.709  0.00  0.00     0.033 A 
ATOM      6  C6  UNL d   1       5.093  -1.465  -2.011  0.00  0.00    -0.057 A 
ENDROOT
BRANCH   1   7
ATOM      7  N   UNL d   1       3.095  -1.801  -0.714  0.00  0.00    -0.732 N 
ATOM      8  C   UNL d   1       2.737  -3.118  -1.194  0.00  0.00     0.284 C 
ATOM      9  H3  UNL d   1       3.339  -1.770   0.273  0.00  0.00     0.395 HD
ENDBRANCH   1   7
TORSDOF 1
ENDMDL
