MODEL 1
REMARK minimizedAffinity 5.45829868
REMARK minimizedRMSD -1
REMARK  1 active torsions:
REMARK  status: ('A' for Active; 'I' for Inactive)
REMARK    1  A    between atoms: N_2  and  C1_3 
ROOT
ATOM      1  C1  UNL d   1      -0.790   5.056  -1.641  0.00  0.00     0.143 A 
ATOM      2  C2  UNL d   1      -2.091   5.519  -1.864  0.00  0.00    -0.057 A 
ATOM      3  C3  UNL d   1      -2.881   6.000  -0.813  0.00  0.00     0.033 A 
ATOM      4  C4  UNL d   1      -2.392   6.000   0.489  0.00  0.00    -0.042 A 
ATOM      5  C5  UNL d   1      -1.111   5.521   0.738  0.00  0.00     0.033 A 
ATOM      6  C6  UNL d   1      -0.325   5.048  -0.317  0.00  0.00    -0.057 A 
ENDROOT
BRANCH   1   7
ATOM      7  N   UNL d   1       0.008   4.473  -2.628  0.00  0.00    -0.732 N 
ATOM      8  C   UNL d   1      -0.486   3.366  -3.418  0.00  0.00     0.284 C 
ATOM      9  H3  UNL d   1       0.531   5.164  -3.162  0.00  0.00     0.395 HD
ENDBRANCH   1   7
TORSDOF 1
ENDMDL
