MODEL 1
REMARK minimizedAffinity 4.02286816
REMARK minimizedRMSD -1
REMARK  1 active torsions:
REMARK  status: ('A' for Active; 'I' for Inactive)
REMARK    1  A    between atoms: N_2  and  C1_3 
ROOT
ATOM      1  C1  UNL d   1      -0.591   4.183  -3.352  0.00  0.00     0.143 A 
ATOM      2  C2  UNL d   1       0.326   3.179  -3.680  0.00  0.00    -0.057 A 
ATOM      3  C3  UNL d   1      -0.100   1.935  -4.162  0.00  0.00     0.033 A 
ATOM      4  C4  UNL d   1      -1.458   1.662  -4.296  0.00  0.00    -0.042 A 
ATOM      5  C5  UNL d   1      -2.388   2.637  -3.952  0.00  0.00     0.033 A 
ATOM      6  C6  UNL d   1      -1.956   3.879  -3.478  0.00  0.00    -0.057 A 
ENDROOT
BRANCH   1   7
ATOM      7  N   UNL d   1      -0.234   5.404  -2.775  0.00  0.00    -0.732 N 
ATOM      8  C   UNL d   1      -0.923   5.894  -1.600  0.00  0.00     0.284 C 
ATOM      9  H3  UNL d   1       0.773   5.544  -2.755  0.00  0.00     0.395 HD
ENDBRANCH   1   7
TORSDOF 1
ENDMDL
