MODEL 1
REMARK minimizedAffinity 6.78418207
REMARK minimizedRMSD -1
REMARK  1 active torsions:
REMARK  status: ('A' for Active; 'I' for Inactive)
REMARK    1  A    between atoms: N_2  and  C1_3 
ROOT
ATOM      1  C1  UNL d   1      -3.940  -3.069   1.553  0.00  0.00     0.143 A 
ATOM      2  C2  UNL d   1      -4.423  -4.328   1.924  0.00  0.00    -0.057 A 
ATOM      3  C3  UNL d   1      -4.105  -5.475   1.187  0.00  0.00     0.033 A 
ATOM      4  C4  UNL d   1      -3.318  -5.378   0.043  0.00  0.00    -0.042 A 
ATOM      5  C5  UNL d   1      -2.848  -4.133  -0.359  0.00  0.00     0.033 A 
ATOM      6  C6  UNL d   1      -3.164  -2.992   0.385  0.00  0.00    -0.057 A 
ENDROOT
BRANCH   1   7
ATOM      7  N   UNL d   1      -4.302  -1.879   2.188  0.00  0.00    -0.732 N 
ATOM      8  C   UNL d   1      -4.226  -0.616   1.485  0.00  0.00     0.284 C 
ATOM      9  H3  UNL d   1      -5.133  -1.984   2.765  0.00  0.00     0.395 HD
ENDBRANCH   1   7
TORSDOF 1
ENDMDL
