MODEL 1
REMARK minimizedAffinity 0.555308282
REMARK minimizedRMSD -1
REMARK  1 active torsions:
REMARK  status: ('A' for Active; 'I' for Inactive)
REMARK    1  A    between atoms: N_2  and  C1_3 
ROOT
ATOM      1  C1  UNL d   1      -1.445   5.999  -0.997  0.00  0.00     0.143 A 
ATOM      2  C2  UNL d   1      -2.739   5.987  -0.467  0.00  0.00    -0.057 A 
ATOM      3  C3  UNL d   1      -2.958   6.000   0.916  0.00  0.00     0.033 A 
ATOM      4  C4  UNL d   1      -1.881   5.995   1.796  0.00  0.00    -0.042 A 
ATOM      5  C5  UNL d   1      -0.585   5.982   1.292  0.00  0.00     0.033 A 
ATOM      6  C6  UNL d   1      -0.374   5.976  -0.090  0.00  0.00    -0.057 A 
ENDROOT
BRANCH   1   7
ATOM      7  N   UNL d   1      -1.162   5.888  -2.361  0.00  0.00    -0.732 N 
ATOM      8  C   UNL d   1      -1.121   4.591  -3.002  0.00  0.00     0.284 C 
ATOM      9  H3  UNL d   1      -1.619   6.611  -2.912  0.00  0.00     0.395 HD
ENDBRANCH   1   7
TORSDOF 1
ENDMDL
