MODEL 1
REMARK minimizedAffinity 6.67360306
REMARK minimizedRMSD -1
REMARK  1 active torsions:
REMARK  status: ('A' for Active; 'I' for Inactive)
REMARK    1  A    between atoms: N_2  and  C1_3 
ROOT
ATOM      1  C1  UNL d   1       3.850  -2.205  -2.537  0.00  0.00     0.143 A 
ATOM      2  C2  UNL d   1       5.024  -1.609  -3.009  0.00  0.00    -0.057 A 
ATOM      3  C3  UNL d   1       5.474  -0.386  -2.498  0.00  0.00     0.033 A 
ATOM      4  C4  UNL d   1       4.740   0.280  -1.522  0.00  0.00    -0.042 A 
ATOM      5  C5  UNL d   1       3.556  -0.282  -1.055  0.00  0.00     0.033 A 
ATOM      6  C6  UNL d   1       3.115  -1.507  -1.565  0.00  0.00    -0.057 A 
ENDROOT
BRANCH   1   7
ATOM      7  N   UNL d   1       3.298  -3.370  -3.074  0.00  0.00    -0.732 N 
ATOM      8  C   UNL d   1       3.021  -3.469  -4.491  0.00  0.00     0.284 C 
ATOM      9  H3  UNL d   1       3.700  -4.213  -2.669  0.00  0.00     0.395 HD
ENDBRANCH   1   7
TORSDOF 1
ENDMDL
