MODEL 1
REMARK minimizedAffinity 2.08833885
REMARK minimizedRMSD -1
REMARK  1 active torsions:
REMARK  status: ('A' for Active; 'I' for Inactive)
REMARK    1  A    between atoms: N_2  and  C1_3 
ROOT
ATOM      1  C1  UNL d   1       3.705  -1.399  -0.207  0.00  0.00     0.143 A 
ATOM      2  C2  UNL d   1       3.273  -0.509   0.782  0.00  0.00    -0.057 A 
ATOM      3  C3  UNL d   1       2.206  -0.828   1.631  0.00  0.00     0.033 A 
ATOM      4  C4  UNL d   1       1.532  -2.036   1.486  0.00  0.00    -0.042 A 
ATOM      5  C5  UNL d   1       1.928  -2.926   0.494  0.00  0.00     0.033 A 
ATOM      6  C6  UNL d   1       2.998  -2.604  -0.347  0.00  0.00    -0.057 A 
ENDROOT
BRANCH   1   7
ATOM      7  N   UNL d   1       4.695  -1.098  -1.146  0.00  0.00    -0.732 N 
ATOM      8  C   UNL d   1       4.455  -0.116  -2.181  0.00  0.00     0.284 C 
ATOM      9  H3  UNL d   1       5.622  -1.045  -0.729  0.00  0.00     0.395 HD
ENDBRANCH   1   7
TORSDOF 1
ENDMDL
