MODEL 1
REMARK minimizedAffinity 4.84637117
REMARK minimizedRMSD -1
REMARK  1 active torsions:
REMARK  status: ('A' for Active; 'I' for Inactive)
REMARK    1  A    between atoms: N_2  and  C1_3 
ROOT
ATOM      1  C1  UNL d   1      -0.154   3.520  -2.304  0.00  0.00     0.143 A 
ATOM      2  C2  UNL d   1       0.942   3.197  -3.112  0.00  0.00    -0.057 A 
ATOM      3  C3  UNL d   1       0.840   2.234  -4.123  0.00  0.00     0.033 A 
ATOM      4  C4  UNL d   1      -0.357   1.553  -4.325  0.00  0.00    -0.042 A 
ATOM      5  C5  UNL d   1      -1.452   1.840  -3.518  0.00  0.00     0.033 A 
ATOM      6  C6  UNL d   1      -1.345   2.808  -2.514  0.00  0.00    -0.057 A 
ENDROOT
BRANCH   1   7
ATOM      7  N   UNL d   1      -0.088   4.397  -1.219  0.00  0.00    -0.732 N 
ATOM      8  C   UNL d   1       0.009   3.891   0.134  0.00  0.00     0.284 C 
ATOM      9  H3  UNL d   1       0.506   5.202  -1.405  0.00  0.00     0.395 HD
ENDBRANCH   1   7
TORSDOF 1
ENDMDL
