MODEL 1
REMARK minimizedAffinity 11.4954481
REMARK minimizedRMSD -1
REMARK  1 active torsions:
REMARK  status: ('A' for Active; 'I' for Inactive)
REMARK    1  A    between atoms: N_2  and  C1_3 
ROOT
ATOM      1  C1  UNL d   1      -0.170   1.172  -3.785  0.00  0.00     0.143 A 
ATOM      2  C2  UNL d   1       0.815   2.163  -3.848  0.00  0.00    -0.057 A 
ATOM      3  C3  UNL d   1       0.563   3.467  -3.404  0.00  0.00     0.033 A 
ATOM      4  C4  UNL d   1      -0.693   3.810  -2.915  0.00  0.00    -0.042 A 
ATOM      5  C5  UNL d   1      -1.695   2.848  -2.866  0.00  0.00     0.033 A 
ATOM      6  C6  UNL d   1      -1.435   1.546  -3.304  0.00  0.00    -0.057 A 
ENDROOT
BRANCH   1   7
ATOM      7  N   UNL d   1      -0.012  -0.117  -4.302  0.00  0.00    -0.732 N 
ATOM      8  C   UNL d   1       0.035  -1.264  -3.420  0.00  0.00     0.284 C 
ATOM      9  H3  UNL d   1      -0.556  -0.265  -5.149  0.00  0.00     0.395 HD
ENDBRANCH   1   7
TORSDOF 1
ENDMDL
