MODEL 1
REMARK minimizedAffinity 9.54217339
REMARK minimizedRMSD -1
REMARK  1 active torsions:
REMARK  status: ('A' for Active; 'I' for Inactive)
REMARK    1  A    between atoms: N_2  and  C1_3 
ROOT
ATOM      1  C1  UNL d   1       0.965   2.950  -3.772  0.00  0.00     0.143 A 
ATOM      2  C2  UNL d   1       0.442   1.840  -4.443  0.00  0.00    -0.057 A 
ATOM      3  C3  UNL d   1      -0.888   1.442  -4.263  0.00  0.00     0.033 A 
ATOM      4  C4  UNL d   1      -1.714   2.133  -3.383  0.00  0.00    -0.042 A 
ATOM      5  C5  UNL d   1      -1.209   3.225  -2.686  0.00  0.00     0.033 A 
ATOM      6  C6  UNL d   1       0.119   3.621  -2.875  0.00  0.00    -0.057 A 
ENDROOT
BRANCH   1   7
ATOM      7  N   UNL d   1       2.306   3.337  -3.833  0.00  0.00    -0.732 N 
ATOM      8  C   UNL d   1       2.870   3.849  -5.064  0.00  0.00     0.284 C 
ATOM      9  H3  UNL d   1       2.605   3.837  -2.999  0.00  0.00     0.395 HD
ENDBRANCH   1   7
TORSDOF 1
ENDMDL
