MODEL 1
REMARK minimizedAffinity 2.84183025
REMARK minimizedRMSD -1
REMARK  1 active torsions:
REMARK  status: ('A' for Active; 'I' for Inactive)
REMARK    1  A    between atoms: N_2  and  C1_3 
ROOT
ATOM      1  C1  UNL d   1       4.572  -0.677  -1.860  0.00  0.00     0.143 A 
ATOM      2  C2  UNL d   1       4.112  -1.781  -1.134  0.00  0.00    -0.057 A 
ATOM      3  C3  UNL d   1       2.897  -1.738  -0.439  0.00  0.00     0.033 A 
ATOM      4  C4  UNL d   1       2.132  -0.576  -0.435  0.00  0.00    -0.042 A 
ATOM      5  C5  UNL d   1       2.582   0.541  -1.130  0.00  0.00     0.033 A 
ATOM      6  C6  UNL d   1       3.793   0.490  -1.827  0.00  0.00    -0.057 A 
ENDROOT
BRANCH   1   7
ATOM      7  N   UNL d   1       5.818  -0.625  -2.489  0.00  0.00    -0.732 N 
ATOM      8  C   UNL d   1       5.998   0.138  -3.706  0.00  0.00     0.284 C 
ATOM      9  H3  UNL d   1       6.585  -0.537  -1.826  0.00  0.00     0.395 HD
ENDBRANCH   1   7
TORSDOF 1
ENDMDL
