MODEL 1
REMARK minimizedAffinity 3.07798886
REMARK minimizedRMSD -1
REMARK  1 active torsions:
REMARK  status: ('A' for Active; 'I' for Inactive)
REMARK    1  A    between atoms: N_2  and  C1_3 
ROOT
ATOM      1  C1  UNL d   1       4.312  -1.144  -2.076  0.00  0.00     0.143 A 
ATOM      2  C2  UNL d   1       3.718  -2.237  -2.716  0.00  0.00    -0.057 A 
ATOM      3  C3  UNL d   1       2.586  -2.864  -2.182  0.00  0.00     0.033 A 
ATOM      4  C4  UNL d   1       2.043  -2.425  -0.979  0.00  0.00    -0.042 A 
ATOM      5  C5  UNL d   1       2.632  -1.356  -0.313  0.00  0.00     0.033 A 
ATOM      6  C6  UNL d   1       3.759  -0.730  -0.855  0.00  0.00    -0.057 A 
ENDROOT
BRANCH   1   7
ATOM      7  N   UNL d   1       5.497  -0.541  -2.506  0.00  0.00    -0.732 N 
ATOM      8  C   UNL d   1       5.991  -0.760  -3.848  0.00  0.00     0.284 C 
ATOM      9  H3  UNL d   1       5.583   0.420  -2.182  0.00  0.00     0.395 HD
ENDBRANCH   1   7
TORSDOF 1
ENDMDL
