MODEL 1
REMARK minimizedAffinity 5.07470846
REMARK minimizedRMSD -1
REMARK  0 active torsions:
REMARK  status: ('A' for Active; 'I' for Inactive)
ROOT
ATOM      1  C   UNL d   1       2.605   3.224  -0.659  0.00  0.00     0.020 A 
ATOM      2  C1  UNL d   1       1.989   1.979  -0.783  0.00  0.00     0.020 A 
ATOM      3  C2  UNL d   1       0.843   1.843  -1.569  0.00  0.00     0.034 A 
ATOM      4  C3  UNL d   1       0.310   2.953  -2.235  0.00  0.00     0.017 A 
ATOM      5  C4  UNL d   1       0.929   4.202  -2.109  0.00  0.00     0.017 A 
ATOM      6  C5  UNL d   1       2.077   4.333  -1.321  0.00  0.00     0.034 A 
ATOM      7 Cl   UNL d   1       0.330   5.617  -2.900  0.00  0.00    -0.070 Cl
ATOM      8 Cl1  UNL d   1      -1.109   2.712  -3.190  0.00  0.00    -0.070 Cl
ENDROOT
TORSDOF 0
ENDMDL
