MODEL 1
REMARK minimizedAffinity -0.22618866
REMARK minimizedRMSD -1
REMARK  0 active torsions:
REMARK  status: ('A' for Active; 'I' for Inactive)
ROOT
ATOM      1  C   UNL d   1       0.193  -0.053   0.426  0.00  0.00     0.020 A 
ATOM      2  C1  UNL d   1      -0.747   0.975   0.365  0.00  0.00     0.020 A 
ATOM      3  C2  UNL d   1      -0.399   2.207  -0.191  0.00  0.00     0.034 A 
ATOM      4  C3  UNL d   1       0.893   2.415  -0.689  0.00  0.00     0.017 A 
ATOM      5  C4  UNL d   1       1.836   1.383  -0.627  0.00  0.00     0.017 A 
ATOM      6  C5  UNL d   1       1.482   0.151  -0.069  0.00  0.00     0.034 A 
ATOM      7 Cl   UNL d   1       3.449   1.564  -1.221  0.00  0.00    -0.070 Cl
ATOM      8 Cl1  UNL d   1       1.254   3.964  -1.363  0.00  0.00    -0.070 Cl
ENDROOT
TORSDOF 0
ENDMDL
