MODEL 1
REMARK minimizedAffinity 1.09247804
REMARK minimizedRMSD -1
REMARK  0 active torsions:
REMARK  status: ('A' for Active; 'I' for Inactive)
ROOT
ATOM      1  C   UNL d   1       0.513   0.645  -1.441  0.00  0.00     0.020 A 
ATOM      2  C1  UNL d   1      -0.746   0.251  -0.989  0.00  0.00     0.020 A 
ATOM      3  C2  UNL d   1      -0.858  -0.612   0.103  0.00  0.00     0.034 A 
ATOM      4  C3  UNL d   1       0.291  -1.084   0.747  0.00  0.00     0.017 A 
ATOM      5  C4  UNL d   1       1.555  -0.688   0.293  0.00  0.00     0.017 A 
ATOM      6  C5  UNL d   1       1.661   0.177  -0.801  0.00  0.00     0.034 A 
ATOM      7 Cl   UNL d   1       3.018  -1.228   1.037  0.00  0.00    -0.070 Cl
ATOM      8 Cl1  UNL d   1       0.079  -2.149   2.091  0.00  0.00    -0.070 Cl
ENDROOT
TORSDOF 0
ENDMDL
