MODEL 1
REMARK minimizedAffinity 7.09279203
REMARK minimizedRMSD -1
REMARK  0 active torsions:
REMARK  status: ('A' for Active; 'I' for Inactive)
ROOT
ATOM      1  C   UNL d   1       1.100   2.865  -1.001  0.00  0.00     0.020 A 
ATOM      2  C1  UNL d   1       1.175   3.859  -0.027  0.00  0.00     0.020 A 
ATOM      3  C2  UNL d   1       2.418   4.261   0.467  0.00  0.00     0.034 A 
ATOM      4  C3  UNL d   1       3.591   3.667  -0.013  0.00  0.00     0.017 A 
ATOM      5  C4  UNL d   1       3.515   2.669  -0.991  0.00  0.00     0.017 A 
ATOM      6  C5  UNL d   1       2.268   2.271  -1.482  0.00  0.00     0.034 A 
ATOM      7 Cl   UNL d   1       4.919   1.891  -1.632  0.00  0.00    -0.070 Cl
ATOM      8 Cl1  UNL d   1       5.094   4.213   0.643  0.00  0.00    -0.070 Cl
ENDROOT
TORSDOF 0
ENDMDL
