MODEL 1
REMARK minimizedAffinity -1.93615448
REMARK minimizedRMSD -1
REMARK  0 active torsions:
REMARK  status: ('A' for Active; 'I' for Inactive)
ROOT
ATOM      1  C   UNL d   1       2.498  -1.549   0.257  0.00  0.00     0.020 A 
ATOM      2  C1  UNL d   1       2.000  -2.852   0.250  0.00  0.00     0.020 A 
ATOM      3  C2  UNL d   1       0.621  -3.071   0.246  0.00  0.00     0.034 A 
ATOM      4  C3  UNL d   1      -0.264  -1.988   0.250  0.00  0.00     0.017 A 
ATOM      5  C4  UNL d   1       0.237  -0.681   0.257  0.00  0.00     0.017 A 
ATOM      6  C5  UNL d   1       1.618  -0.466   0.260  0.00  0.00     0.034 A 
ATOM      7 Cl   UNL d   1      -0.793   0.707   0.261  0.00  0.00    -0.070 Cl
ATOM      8 Cl1  UNL d   1      -1.957  -2.333   0.245  0.00  0.00    -0.070 Cl
ENDROOT
TORSDOF 0
ENDMDL
