MODEL 1
REMARK minimizedAffinity 11.616189
REMARK minimizedRMSD -1
REMARK  0 active torsions:
REMARK  status: ('A' for Active; 'I' for Inactive)
ROOT
ATOM      1  C   UNL d   1       4.663  -0.075   2.642  0.00  0.00     0.020 A 
ATOM      2  C1  UNL d   1       5.136   0.711   1.592  0.00  0.00     0.020 A 
ATOM      3  C2  UNL d   1       4.265   1.123   0.581  0.00  0.00     0.034 A 
ATOM      4  C3  UNL d   1       2.916   0.748   0.618  0.00  0.00     0.017 A 
ATOM      5  C4  UNL d   1       2.443  -0.041   1.672  0.00  0.00     0.017 A 
ATOM      6  C5  UNL d   1       3.320  -0.450   2.682  0.00  0.00     0.034 A 
ATOM      7 Cl   UNL d   1       0.793  -0.543   1.787  0.00  0.00    -0.070 Cl
ATOM      8 Cl1  UNL d   1       1.896   1.293  -0.666  0.00  0.00    -0.070 Cl
ENDROOT
TORSDOF 0
ENDMDL
