MODEL 1
REMARK minimizedAffinity 5.01137877
REMARK minimizedRMSD -1
REMARK  0 active torsions:
REMARK  status: ('A' for Active; 'I' for Inactive)
ROOT
ATOM      1  C   UNL d   1       4.282  -6.000  -5.176  0.00  0.00     0.020 A 
ATOM      2  C1  UNL d   1       5.615  -5.719  -4.879  0.00  0.00     0.020 A 
ATOM      3  C2  UNL d   1       5.998  -4.417  -4.549  0.00  0.00     0.034 A 
ATOM      4  C3  UNL d   1       5.046  -3.391  -4.515  0.00  0.00     0.017 A 
ATOM      5  C4  UNL d   1       3.708  -3.674  -4.813  0.00  0.00     0.017 A 
ATOM      6  C5  UNL d   1       3.331  -4.979  -5.143  0.00  0.00     0.034 A 
ATOM      7 Cl   UNL d   1       2.478  -2.461  -4.792  0.00  0.00    -0.070 Cl
ATOM      8 Cl1  UNL d   1       5.590  -1.805  -4.099  0.00  0.00    -0.070 Cl
ENDROOT
TORSDOF 0
ENDMDL
