MODEL 1
REMARK minimizedAffinity 4.09339237
REMARK minimizedRMSD -1
REMARK  0 active torsions:
REMARK  status: ('A' for Active; 'I' for Inactive)
ROOT
ATOM      1  C   UNL d   1      -4.115  -4.373  -3.500  0.00  0.00     0.020 A 
ATOM      2  C1  UNL d   1      -4.915  -5.514  -3.533  0.00  0.00     0.020 A 
ATOM      3  C2  UNL d   1      -5.487  -6.000  -2.355  0.00  0.00     0.034 A 
ATOM      4  C3  UNL d   1      -5.260  -5.344  -1.140  0.00  0.00     0.017 A 
ATOM      5  C4  UNL d   1      -4.457  -4.198  -1.108  0.00  0.00     0.017 A 
ATOM      6  C5  UNL d   1      -3.887  -3.716  -2.291  0.00  0.00     0.034 A 
ATOM      7 Cl   UNL d   1      -4.131  -3.334   0.353  0.00  0.00    -0.070 Cl
ATOM      8 Cl1  UNL d   1      -6.000  -5.999   0.277  0.00  0.00    -0.070 Cl
ENDROOT
TORSDOF 0
ENDMDL
