MODEL 1
REMARK minimizedAffinity 9.15402699
REMARK minimizedRMSD -1
REMARK  0 active torsions:
REMARK  status: ('A' for Active; 'I' for Inactive)
ROOT
ATOM      1  C   UNL d   1       0.017  -1.094   1.080  0.00  0.00     0.020 A 
ATOM      2  C1  UNL d   1       1.178  -0.670   0.435  0.00  0.00     0.020 A 
ATOM      3  C2  UNL d   1       1.221   0.589  -0.169  0.00  0.00     0.034 A 
ATOM      4  C3  UNL d   1       0.102   1.428  -0.130  0.00  0.00     0.017 A 
ATOM      5  C4  UNL d   1      -1.063   1.001   0.518  0.00  0.00     0.017 A 
ATOM      6  C5  UNL d   1      -1.101  -0.260   1.121  0.00  0.00     0.034 A 
ATOM      7 Cl   UNL d   1      -2.485   1.980   0.609  0.00  0.00    -0.070 Cl
ATOM      8 Cl1  UNL d   1       0.226   2.971  -0.897  0.00  0.00    -0.070 Cl
ENDROOT
TORSDOF 0
ENDMDL
