MODEL 1
REMARK minimizedAffinity 3.6349175
REMARK minimizedRMSD -1
REMARK  0 active torsions:
REMARK  status: ('A' for Active; 'I' for Inactive)
ROOT
ATOM      1  C   UNL d   1      -0.618   0.230   0.714  0.00  0.00     0.020 A 
ATOM      2  C1  UNL d   1       0.383  -0.740   0.689  0.00  0.00     0.020 A 
ATOM      3  C2  UNL d   1       1.634  -0.440   0.146  0.00  0.00     0.034 A 
ATOM      4  C3  UNL d   1       1.888   0.835  -0.373  0.00  0.00     0.017 A 
ATOM      5  C4  UNL d   1       0.883   1.809  -0.348  0.00  0.00     0.017 A 
ATOM      6  C5  UNL d   1      -0.368   1.502   0.197  0.00  0.00     0.034 A 
ATOM      7 Cl   UNL d   1       1.122   3.403  -0.970  0.00  0.00    -0.070 Cl
ATOM      8 Cl1  UNL d   1       3.458   1.137  -1.029  0.00  0.00    -0.070 Cl
ENDROOT
TORSDOF 0
ENDMDL
