MODEL 1
REMARK minimizedAffinity -0.60123688
REMARK minimizedRMSD -1
REMARK  0 active torsions:
REMARK  status: ('A' for Active; 'I' for Inactive)
ROOT
ATOM      1  C   UNL d   1       4.521  -5.984  -5.637  0.00  0.00     0.020 A 
ATOM      2  C1  UNL d   1       5.558  -5.997  -4.704  0.00  0.00     0.020 A 
ATOM      3  C2  UNL d   1       5.999  -4.801  -4.134  0.00  0.00     0.034 A 
ATOM      4  C3  UNL d   1       5.404  -3.587  -4.496  0.00  0.00     0.017 A 
ATOM      5  C4  UNL d   1       4.363  -3.575  -5.432  0.00  0.00     0.017 A 
ATOM      6  C5  UNL d   1       3.925  -4.776  -6.000  0.00  0.00     0.034 A 
ATOM      7 Cl   UNL d   1       3.580  -2.117  -5.929  0.00  0.00    -0.070 Cl
ATOM      8 Cl1  UNL d   1       6.000  -2.146  -3.751  0.00  0.00    -0.070 Cl
ENDROOT
TORSDOF 0
ENDMDL
