MODEL 1
REMARK minimizedAffinity 2.13900185
REMARK minimizedRMSD -1
REMARK  0 active torsions:
REMARK  status: ('A' for Active; 'I' for Inactive)
ROOT
ATOM      1  C   UNL d   1       3.031   1.929  -0.924  0.00  0.00     0.020 A 
ATOM      2  C1  UNL d   1       1.990   2.854  -0.997  0.00  0.00     0.020 A 
ATOM      3  C2  UNL d   1       0.697   2.481  -0.626  0.00  0.00     0.034 A 
ATOM      4  C3  UNL d   1       0.440   1.179  -0.181  0.00  0.00     0.017 A 
ATOM      5  C4  UNL d   1       1.485   0.251  -0.108  0.00  0.00     0.017 A 
ATOM      6  C5  UNL d   1       2.778   0.630  -0.481  0.00  0.00     0.034 A 
ATOM      7 Cl   UNL d   1       1.246  -1.374   0.431  0.00  0.00    -0.070 Cl
ATOM      8 Cl1  UNL d   1      -1.183   0.787   0.261  0.00  0.00    -0.070 Cl
ENDROOT
TORSDOF 0
ENDMDL
