MODEL 1
REMARK minimizedAffinity -3.10743165
REMARK minimizedRMSD -1
REMARK  0 active torsions:
REMARK  status: ('A' for Active; 'I' for Inactive)
ROOT
ATOM      1  C   UNL d   1       0.757  -0.904   1.729  0.00  0.00     0.020 A 
ATOM      2  C1  UNL d   1       0.506  -0.918   0.357  0.00  0.00     0.020 A 
ATOM      3  C2  UNL d   1      -0.591  -1.620  -0.145  0.00  0.00     0.034 A 
ATOM      4  C3  UNL d   1      -1.442  -2.312   0.725  0.00  0.00     0.017 A 
ATOM      5  C4  UNL d   1      -1.190  -2.297   2.102  0.00  0.00     0.017 A 
ATOM      6  C5  UNL d   1      -0.089  -1.592   2.599  0.00  0.00     0.034 A 
ATOM      7 Cl   UNL d   1      -2.195  -3.126   3.237  0.00  0.00    -0.070 Cl
ATOM      8 Cl1  UNL d   1      -2.781  -3.159   0.035  0.00  0.00    -0.070 Cl
ENDROOT
TORSDOF 0
ENDMDL
