MODEL 1
REMARK minimizedAffinity 0.954548061
REMARK minimizedRMSD -1
REMARK  0 active torsions:
REMARK  status: ('A' for Active; 'I' for Inactive)
ROOT
ATOM      1  C   UNL d   1      -0.244   0.211   0.449  0.00  0.00     0.020 A 
ATOM      2  C1  UNL d   1       0.900  -0.581   0.362  0.00  0.00     0.020 A 
ATOM      3  C2  UNL d   1       2.051  -0.080  -0.250  0.00  0.00     0.034 A 
ATOM      4  C3  UNL d   1       2.061   1.217  -0.778  0.00  0.00     0.017 A 
ATOM      5  C4  UNL d   1       0.911   2.011  -0.690  0.00  0.00     0.017 A 
ATOM      6  C5  UNL d   1      -0.238   1.504  -0.076  0.00  0.00     0.034 A 
ATOM      7 Cl   UNL d   1       0.847   3.620  -1.318  0.00  0.00    -0.070 Cl
ATOM      8 Cl1  UNL d   1       3.519   1.771  -1.521  0.00  0.00    -0.070 Cl
ENDROOT
TORSDOF 0
ENDMDL
