MODEL 1
REMARK minimizedAffinity 11.5179472
REMARK minimizedRMSD -1
REMARK  0 active torsions:
REMARK  status: ('A' for Active; 'I' for Inactive)
ROOT
ATOM      1  C   UNL d   1      -2.708   2.735  -3.110  0.00  0.00     0.020 A 
ATOM      2  C1  UNL d   1      -2.467   3.115  -4.430  0.00  0.00     0.020 A 
ATOM      3  C2  UNL d   1      -1.253   3.714  -4.773  0.00  0.00     0.034 A 
ATOM      4  C3  UNL d   1      -0.276   3.935  -3.795  0.00  0.00     0.017 A 
ATOM      5  C4  UNL d   1      -0.519   3.553  -2.471  0.00  0.00     0.017 A 
ATOM      6  C5  UNL d   1      -1.736   2.954  -2.133  0.00  0.00     0.034 A 
ATOM      7 Cl   UNL d   1       0.638   3.794  -1.210  0.00  0.00    -0.070 Cl
ATOM      8 Cl1  UNL d   1       1.202   4.681  -4.291  0.00  0.00    -0.070 Cl
ENDROOT
TORSDOF 0
ENDMDL
