MODEL 1
REMARK minimizedAffinity 14.2702322
REMARK minimizedRMSD -1
REMARK  0 active torsions:
REMARK  status: ('A' for Active; 'I' for Inactive)
ROOT
ATOM      1  C   UNL d   1      -2.061  -4.086  -3.217  0.00  0.00     0.020 A 
ATOM      2  C1  UNL d   1      -2.392  -5.429  -3.396  0.00  0.00     0.020 A 
ATOM      3  C2  UNL d   1      -3.422  -6.000  -2.646  0.00  0.00     0.034 A 
ATOM      4  C3  UNL d   1      -4.126  -5.228  -1.714  0.00  0.00     0.017 A 
ATOM      5  C4  UNL d   1      -3.794  -3.880  -1.536  0.00  0.00     0.017 A 
ATOM      6  C5  UNL d   1      -2.761  -3.314  -2.290  0.00  0.00     0.034 A 
ATOM      7 Cl   UNL d   1      -4.617  -2.864  -0.406  0.00  0.00    -0.070 Cl
ATOM      8 Cl1  UNL d   1      -5.389  -5.999  -0.822  0.00  0.00    -0.070 Cl
ENDROOT
TORSDOF 0
ENDMDL
