MODEL 1
REMARK minimizedAffinity 10.9374275
REMARK minimizedRMSD -1
REMARK  0 active torsions:
REMARK  status: ('A' for Active; 'I' for Inactive)
ROOT
ATOM      1  C   UNL d   1      -1.075   0.484   0.988  0.00  0.00     0.020 A 
ATOM      2  C1  UNL d   1      -0.567  -0.692   1.537  0.00  0.00     0.020 A 
ATOM      3  C2  UNL d   1       0.799  -0.972   1.449  0.00  0.00     0.034 A 
ATOM      4  C3  UNL d   1       1.661  -0.074   0.810  0.00  0.00     0.017 A 
ATOM      5  C4  UNL d   1       1.150   1.107   0.258  0.00  0.00     0.017 A 
ATOM      6  C5  UNL d   1      -0.218   1.382   0.350  0.00  0.00     0.034 A 
ATOM      7 Cl   UNL d   1       2.152   2.263  -0.546  0.00  0.00    -0.070 Cl
ATOM      8 Cl1  UNL d   1       3.338  -0.483   0.738  0.00  0.00    -0.070 Cl
ENDROOT
TORSDOF 0
ENDMDL
