MODEL 1
REMARK minimizedAffinity 10.772418
REMARK minimizedRMSD -1
REMARK  0 active torsions:
REMARK  status: ('A' for Active; 'I' for Inactive)
ROOT
ATOM      1  C   UNL d   1       1.927   2.086  -0.596  0.00  0.00     0.020 A 
ATOM      2  C1  UNL d   1       1.914   0.702  -0.422  0.00  0.00     0.020 A 
ATOM      3  C2  UNL d   1       2.842  -0.094  -1.096  0.00  0.00     0.034 A 
ATOM      4  C3  UNL d   1       3.786   0.492  -1.947  0.00  0.00     0.017 A 
ATOM      5  C4  UNL d   1       3.798   1.880  -2.120  0.00  0.00     0.017 A 
ATOM      6  C5  UNL d   1       2.867   2.673  -1.443  0.00  0.00     0.034 A 
ATOM      7 Cl   UNL d   1       4.933   2.676  -3.153  0.00  0.00    -0.070 Cl
ATOM      8 Cl1  UNL d   1       4.904  -0.554  -2.748  0.00  0.00    -0.070 Cl
ENDROOT
TORSDOF 0
ENDMDL
