MODEL 1
REMARK minimizedAffinity 3.38041019
REMARK minimizedRMSD -1
REMARK  0 active torsions:
REMARK  status: ('A' for Active; 'I' for Inactive)
ROOT
ATOM      1  C   UNL d   1      -5.127  -5.510   3.373  0.00  0.00     0.020 A 
ATOM      2  C1  UNL d   1      -4.323  -4.371   3.386  0.00  0.00     0.020 A 
ATOM      3  C2  UNL d   1      -4.022  -3.716   2.190  0.00  0.00     0.034 A 
ATOM      4  C3  UNL d   1      -4.524  -4.200   0.977  0.00  0.00     0.017 A 
ATOM      5  C4  UNL d   1      -5.331  -5.343   0.965  0.00  0.00     0.017 A 
ATOM      6  C5  UNL d   1      -5.630  -5.995   2.165  0.00  0.00     0.034 A 
ATOM      7 Cl   UNL d   1      -5.988  -6.000  -0.493  0.00  0.00    -0.070 Cl
ATOM      8 Cl1  UNL d   1      -4.111  -3.340  -0.464  0.00  0.00    -0.070 Cl
ENDROOT
TORSDOF 0
ENDMDL
