MODEL 1
REMARK minimizedAffinity 15.7366552
REMARK minimizedRMSD -1
REMARK  0 active torsions:
REMARK  status: ('A' for Active; 'I' for Inactive)
ROOT
ATOM      1  C   UNL d   1       1.098   0.981  -0.239  0.00  0.00     0.124 A 
ATOM      2  C1  UNL d   1       0.534   1.204  -1.487  0.00  0.00     0.062 A 
ATOM      3  C2  UNL d   1       1.266   1.849  -2.481  0.00  0.00     0.162 A 
ATOM      4  C3  UNL d   1       2.570   2.276  -2.230  0.00  0.00    -0.034 A 
ATOM      5  C4  UNL d   1       3.130   2.049  -0.971  0.00  0.00     0.162 A 
ATOM      6  C5  UNL d   1       2.395   1.404   0.018  0.00  0.00     0.062 A 
ATOM      7  F   UNL d   1       2.941   1.189   1.224  0.00  0.00    -0.097 F 
ATOM      8  F1  UNL d   1       4.381   2.445  -0.696  0.00  0.00    -0.096 F 
ATOM      9  I   UNL d   1       3.667   3.240  -3.712  0.00  0.00    -0.060 I 
ATOM     10  F2  UNL d   1       0.696   2.052  -3.678  0.00  0.00    -0.096 F 
ATOM     11  F3  UNL d   1      -0.719   0.798  -1.738  0.00  0.00    -0.097 F 
ATOM     12  F4  UNL d   1       0.392   0.361   0.715  0.00  0.00    -0.092 F 
ENDROOT
TORSDOF 0
ENDMDL
