MODEL 1
REMARK minimizedAffinity 25.1710491
REMARK minimizedRMSD -1
REMARK  0 active torsions:
REMARK  status: ('A' for Active; 'I' for Inactive)
ROOT
ATOM      1  C   UNL d   1      -0.146  -2.878   0.740  0.00  0.00     0.124 A 
ATOM      2  C1  UNL d   1       0.663  -2.207   1.646  0.00  0.00     0.062 A 
ATOM      3  C2  UNL d   1       0.137  -1.185   2.431  0.00  0.00     0.162 A 
ATOM      4  C3  UNL d   1      -1.206  -0.828   2.314  0.00  0.00    -0.034 A 
ATOM      5  C4  UNL d   1      -2.013  -1.507   1.399  0.00  0.00     0.162 A 
ATOM      6  C5  UNL d   1      -1.483  -2.528   0.617  0.00  0.00     0.062 A 
ATOM      7  F   UNL d   1      -2.267  -3.175  -0.258  0.00  0.00    -0.097 F 
ATOM      8  F1  UNL d   1      -3.309  -1.189   1.261  0.00  0.00    -0.096 F 
ATOM      9  I   UNL d   1      -1.996   0.700   3.486  0.00  0.00    -0.060 I 
ATOM     10  F2  UNL d   1       0.943  -0.554   3.298  0.00  0.00    -0.096 F 
ATOM     11  F3  UNL d   1       1.956  -2.544   1.765  0.00  0.00    -0.097 F 
ATOM     12  F4  UNL d   1       0.363  -3.861  -0.015  0.00  0.00    -0.092 F 
ENDROOT
TORSDOF 0
ENDMDL
