MODEL 1
REMARK minimizedAffinity 21.1861954
REMARK minimizedRMSD -1
REMARK  0 active torsions:
REMARK  status: ('A' for Active; 'I' for Inactive)
ROOT
ATOM      1  C   UNL d   1      -2.590   0.910   2.784  0.00  0.00     0.124 A 
ATOM      2  C1  UNL d   1      -2.125   0.877   4.092  0.00  0.00     0.062 A 
ATOM      3  C2  UNL d   1      -1.096   0.009   4.447  0.00  0.00     0.162 A 
ATOM      4  C3  UNL d   1      -0.524  -0.832   3.493  0.00  0.00    -0.034 A 
ATOM      5  C4  UNL d   1      -0.998  -0.794   2.180  0.00  0.00     0.162 A 
ATOM      6  C5  UNL d   1      -2.026   0.075   1.830  0.00  0.00     0.062 A 
ATOM      7  F   UNL d   1      -2.475   0.105   0.567  0.00  0.00    -0.097 F 
ATOM      8  F1  UNL d   1      -0.471  -1.589   1.237  0.00  0.00    -0.096 F 
ATOM      9  I   UNL d   1       1.015  -2.131   4.019  0.00  0.00    -0.060 I 
ATOM     10  F2  UNL d   1      -0.666  -0.002   5.717  0.00  0.00    -0.096 F 
ATOM     11  F3  UNL d   1      -2.668   1.682   5.016  0.00  0.00    -0.097 F 
ATOM     12  F4  UNL d   1      -3.581   1.745   2.446  0.00  0.00    -0.092 F 
ENDROOT
TORSDOF 0
ENDMDL
