MODEL 1
REMARK minimizedAffinity 27.2966499
REMARK minimizedRMSD -1
REMARK  0 active torsions:
REMARK  status: ('A' for Active; 'I' for Inactive)
ROOT
ATOM      1  C   UNL d   1      -5.513   0.707  -0.561  0.00  0.00     0.124 A 
ATOM      2  C1  UNL d   1      -5.708   0.691  -1.935  0.00  0.00     0.062 A 
ATOM      3  C2  UNL d   1      -5.812   1.886  -2.641  0.00  0.00     0.162 A 
ATOM      4  C3  UNL d   1      -5.722   3.108  -1.975  0.00  0.00    -0.034 A 
ATOM      5  C4  UNL d   1      -5.527   3.116  -0.592  0.00  0.00     0.162 A 
ATOM      6  C5  UNL d   1      -5.423   1.919   0.109  0.00  0.00     0.062 A 
ATOM      7  F   UNL d   1      -5.236   1.937   1.437  0.00  0.00    -0.097 F 
ATOM      8  F1  UNL d   1      -5.435   4.273   0.080  0.00  0.00    -0.096 F 
ATOM      9  I   UNL d   1      -5.877   4.897  -3.027  0.00  0.00    -0.060 I 
ATOM     10  F2  UNL d   1      -6.000   1.841  -3.969  0.00  0.00    -0.096 F 
ATOM     11  F3  UNL d   1      -5.796  -0.478  -2.585  0.00  0.00    -0.097 F 
ATOM     12  F4  UNL d   1      -5.414  -0.444   0.116  0.00  0.00    -0.092 F 
ENDROOT
TORSDOF 0
ENDMDL
