MODEL 1
REMARK minimizedAffinity 23.0594559
REMARK minimizedRMSD -1
REMARK  0 active torsions:
REMARK  status: ('A' for Active; 'I' for Inactive)
ROOT
ATOM      1  C   UNL d   1       3.965   2.133   1.010  0.00  0.00     0.124 A 
ATOM      2  C1  UNL d   1       4.985   2.909   0.478  0.00  0.00     0.062 A 
ATOM      3  C2  UNL d   1       4.960   3.273  -0.865  0.00  0.00     0.162 A 
ATOM      4  C3  UNL d   1       3.910   2.863  -1.686  0.00  0.00    -0.034 A 
ATOM      5  C4  UNL d   1       2.887   2.082  -1.144  0.00  0.00     0.162 A 
ATOM      6  C5  UNL d   1       2.917   1.720   0.199  0.00  0.00     0.062 A 
ATOM      7  F   UNL d   1       1.931   0.971   0.712  0.00  0.00    -0.097 F 
ATOM      8  F1  UNL d   1       1.863   1.670  -1.905  0.00  0.00    -0.096 F 
ATOM      9  I   UNL d   1       3.868   3.405  -3.695  0.00  0.00    -0.060 I 
ATOM     10  F2  UNL d   1       5.959   4.024  -1.353  0.00  0.00    -0.096 F 
ATOM     11  F3  UNL d   1       5.999   3.309   1.259  0.00  0.00    -0.097 F 
ATOM     12  F4  UNL d   1       3.992   1.783   2.303  0.00  0.00    -0.092 F 
ENDROOT
TORSDOF 0
ENDMDL
