MODEL 1
REMARK minimizedAffinity 26.6515923
REMARK minimizedRMSD -1
REMARK  0 active torsions:
REMARK  status: ('A' for Active; 'I' for Inactive)
ROOT
ATOM      1  C   UNL d   1      -2.828  -3.592   1.617  0.00  0.00     0.124 A 
ATOM      2  C1  UNL d   1      -3.937  -3.090   2.285  0.00  0.00     0.062 A 
ATOM      3  C2  UNL d   1      -3.871  -1.851   2.917  0.00  0.00     0.162 A 
ATOM      4  C3  UNL d   1      -2.694  -1.105   2.882  0.00  0.00    -0.034 A 
ATOM      5  C4  UNL d   1      -1.583  -1.617   2.209  0.00  0.00     0.162 A 
ATOM      6  C5  UNL d   1      -1.653  -2.855   1.580  0.00  0.00     0.062 A 
ATOM      7  F   UNL d   1      -0.581  -3.339   0.935  0.00  0.00    -0.097 F 
ATOM      8  F1  UNL d   1      -0.435  -0.926   2.157  0.00  0.00    -0.096 F 
ATOM      9  I   UNL d   1      -2.592   0.747   3.825  0.00  0.00    -0.060 I 
ATOM     10  F2  UNL d   1      -4.958  -1.391   3.555  0.00  0.00    -0.096 F 
ATOM     11  F3  UNL d   1      -5.073  -3.800   2.323  0.00  0.00    -0.097 F 
ATOM     12  F4  UNL d   1      -2.893  -4.785   1.011  0.00  0.00    -0.092 F 
ENDROOT
TORSDOF 0
ENDMDL
