MODEL 1
REMARK minimizedAffinity 28.4512482
REMARK minimizedRMSD -1
REMARK  0 active torsions:
REMARK  status: ('A' for Active; 'I' for Inactive)
ROOT
ATOM      1  C   UNL d   1       3.191   3.459  -4.614  0.00  0.00     0.124 A 
ATOM      2  C1  UNL d   1       2.001   3.959  -4.103  0.00  0.00     0.062 A 
ATOM      3  C2  UNL d   1       1.497   3.473  -2.900  0.00  0.00     0.162 A 
ATOM      4  C3  UNL d   1       2.183   2.482  -2.199  0.00  0.00    -0.034 A 
ATOM      5  C4  UNL d   1       3.378   1.983  -2.719  0.00  0.00     0.162 A 
ATOM      6  C5  UNL d   1       3.878   2.472  -3.922  0.00  0.00     0.062 A 
ATOM      7  F   UNL d   1       5.028   1.988  -4.414  0.00  0.00    -0.097 F 
ATOM      8  F1  UNL d   1       4.063   1.030  -2.070  0.00  0.00    -0.096 F 
ATOM      9  I   UNL d   1       1.432   1.753  -0.400  0.00  0.00    -0.060 I 
ATOM     10  F2  UNL d   1       0.345   3.975  -2.430  0.00  0.00    -0.096 F 
ATOM     11  F3  UNL d   1       1.335   4.912  -4.770  0.00  0.00    -0.097 F 
ATOM     12  F4  UNL d   1       3.673   3.928  -5.772  0.00  0.00    -0.092 F 
ENDROOT
TORSDOF 0
ENDMDL
