MODEL 1
REMARK minimizedAffinity 25.374155
REMARK minimizedRMSD -1
REMARK  0 active torsions:
REMARK  status: ('A' for Active; 'I' for Inactive)
ROOT
ATOM      1  C   UNL d   1       4.514   4.082  -4.157  0.00  0.00     0.124 A 
ATOM      2  C1  UNL d   1       3.755   3.141  -3.474  0.00  0.00     0.062 A 
ATOM      3  C2  UNL d   1       3.749   3.124  -2.083  0.00  0.00     0.162 A 
ATOM      4  C3  UNL d   1       4.503   4.052  -1.364  0.00  0.00    -0.034 A 
ATOM      5  C4  UNL d   1       5.264   4.994  -2.057  0.00  0.00     0.162 A 
ATOM      6  C5  UNL d   1       5.267   5.008  -3.448  0.00  0.00     0.062 A 
ATOM      7  F   UNL d   1       6.000   5.917  -4.106  0.00  0.00    -0.097 F 
ATOM      8  F1  UNL d   1       6.000   5.901  -1.398  0.00  0.00    -0.096 F 
ATOM      9  I   UNL d   1       4.496   4.029   0.717  0.00  0.00    -0.060 I 
ATOM     10  F2  UNL d   1       3.007   2.204  -1.449  0.00  0.00    -0.096 F 
ATOM     11  F3  UNL d   1       3.027   2.246  -4.157  0.00  0.00    -0.097 F 
ATOM     12  F4  UNL d   1       4.519   4.096  -5.496  0.00  0.00    -0.092 F 
ENDROOT
TORSDOF 0
ENDMDL
