MODEL 1
REMARK minimizedAffinity 26.8653812
REMARK minimizedRMSD -1
REMARK  0 active torsions:
REMARK  status: ('A' for Active; 'I' for Inactive)
ROOT
ATOM      1  C   UNL d   1       3.189  -3.963  -0.105  0.00  0.00     0.124 A 
ATOM      2  C1  UNL d   1       4.129  -3.115  -0.673  0.00  0.00     0.062 A 
ATOM      3  C2  UNL d   1       4.159  -1.768  -0.323  0.00  0.00     0.162 A 
ATOM      4  C3  UNL d   1       3.246  -1.261   0.602  0.00  0.00    -0.034 A 
ATOM      5  C4  UNL d   1       2.302  -2.120   1.168  0.00  0.00     0.162 A 
ATOM      6  C5  UNL d   1       2.277  -3.465   0.814  0.00  0.00     0.062 A 
ATOM      7  F   UNL d   1       1.367  -4.284   1.364  0.00  0.00    -0.097 F 
ATOM      8  F1  UNL d   1       1.409  -1.666   2.060  0.00  0.00    -0.096 F 
ATOM      9  I   UNL d   1       3.287   0.752   1.128  0.00  0.00    -0.060 I 
ATOM     10  F2  UNL d   1       5.079  -0.971  -0.887  0.00  0.00    -0.096 F 
ATOM     11  F3  UNL d   1       5.011  -3.593  -1.562  0.00  0.00    -0.097 F 
ATOM     12  F4  UNL d   1       3.162  -5.258  -0.445  0.00  0.00    -0.092 F 
ENDROOT
TORSDOF 0
ENDMDL
