MODEL 1
REMARK minimizedAffinity 23.7971249
REMARK minimizedRMSD -1
REMARK  0 active torsions:
REMARK  status: ('A' for Active; 'I' for Inactive)
ROOT
ATOM      1  C   UNL d   1       3.874   2.826  -0.668  0.00  0.00     0.124 A 
ATOM      2  C1  UNL d   1       3.663   2.586  -2.018  0.00  0.00     0.062 A 
ATOM      3  C2  UNL d   1       4.241   3.417  -2.975  0.00  0.00     0.162 A 
ATOM      4  C3  UNL d   1       5.035   4.495  -2.584  0.00  0.00    -0.034 A 
ATOM      5  C4  UNL d   1       5.241   4.730  -1.223  0.00  0.00     0.162 A 
ATOM      6  C5  UNL d   1       4.662   3.897  -0.271  0.00  0.00     0.062 A 
ATOM      7  F   UNL d   1       4.866   4.131   1.033  0.00  0.00    -0.097 F 
ATOM      8  F1  UNL d   1       5.999   5.758  -0.813  0.00  0.00    -0.096 F 
ATOM      9  I   UNL d   1       5.900   5.739  -4.011  0.00  0.00    -0.060 I 
ATOM     10  F2  UNL d   1       4.020   3.161  -4.273  0.00  0.00    -0.096 F 
ATOM     11  F3  UNL d   1       2.901   1.553  -2.404  0.00  0.00    -0.097 F 
ATOM     12  F4  UNL d   1       3.316   2.026   0.251  0.00  0.00    -0.092 F 
ENDROOT
TORSDOF 0
ENDMDL
