MODEL 1
REMARK minimizedAffinity 22.0350056
REMARK minimizedRMSD -1
REMARK  0 active torsions:
REMARK  status: ('A' for Active; 'I' for Inactive)
ROOT
ATOM      1  C   UNL d   1      -5.964  -0.894  -4.502  0.00  0.00     0.124 A 
ATOM      2  C1  UNL d   1      -5.953   0.485  -4.651  0.00  0.00     0.062 A 
ATOM      3  C2  UNL d   1      -5.930   1.311  -3.531  0.00  0.00     0.162 A 
ATOM      4  C3  UNL d   1      -5.919   0.759  -2.250  0.00  0.00    -0.034 A 
ATOM      5  C4  UNL d   1      -5.931  -0.630  -2.107  0.00  0.00     0.162 A 
ATOM      6  C5  UNL d   1      -5.954  -1.451  -3.230  0.00  0.00     0.062 A 
ATOM      7  F   UNL d   1      -5.965  -2.783  -3.084  0.00  0.00    -0.097 F 
ATOM      8  F1  UNL d   1      -5.921  -1.194  -0.890  0.00  0.00    -0.096 F 
ATOM      9  I   UNL d   1      -5.885   1.990  -0.572  0.00  0.00    -0.060 I 
ATOM     10  F2  UNL d   1      -5.919   2.641  -3.705  0.00  0.00    -0.096 F 
ATOM     11  F3  UNL d   1      -5.964   1.025  -5.879  0.00  0.00    -0.097 F 
ATOM     12  F4  UNL d   1      -5.987  -1.686  -5.581  0.00  0.00    -0.092 F 
ENDROOT
TORSDOF 0
ENDMDL
