MODEL 1
REMARK minimizedAffinity 24.2087994
REMARK minimizedRMSD -1
REMARK  0 active torsions:
REMARK  status: ('A' for Active; 'I' for Inactive)
ROOT
ATOM      1  C   UNL d   1      -2.472   5.133  -1.740  0.00  0.00     0.124 A 
ATOM      2  C1  UNL d   1      -1.085   5.179  -1.768  0.00  0.00     0.062 A 
ATOM      3  C2  UNL d   1      -0.411   5.275  -2.982  0.00  0.00     0.162 A 
ATOM      4  C3  UNL d   1      -1.124   5.326  -4.180  0.00  0.00    -0.034 A 
ATOM      5  C4  UNL d   1      -2.519   5.279  -4.145  0.00  0.00     0.162 A 
ATOM      6  C5  UNL d   1      -3.187   5.183  -2.928  0.00  0.00     0.062 A 
ATOM      7  F   UNL d   1      -4.527   5.139  -2.904  0.00  0.00    -0.097 F 
ATOM      8  F1  UNL d   1      -3.235   5.327  -5.277  0.00  0.00    -0.096 F 
ATOM      9  I   UNL d   1      -0.121   5.470  -5.998  0.00  0.00    -0.060 I 
ATOM     10  F2  UNL d   1       0.929   5.317  -2.978  0.00  0.00    -0.096 F 
ATOM     11  F3  UNL d   1      -0.391   5.130  -0.621  0.00  0.00    -0.097 F 
ATOM     12  F4  UNL d   1      -3.117   5.040  -0.571  0.00  0.00    -0.092 F 
ENDROOT
TORSDOF 0
ENDMDL
