MODEL 1
REMARK minimizedAffinity 19.8442993
REMARK minimizedRMSD -1
REMARK  0 active torsions:
REMARK  status: ('A' for Active; 'I' for Inactive)
ROOT
ATOM      1  C   UNL d   1      -2.767  -0.940   1.899  0.00  0.00     0.124 A 
ATOM      2  C1  UNL d   1      -1.999  -0.650   3.018  0.00  0.00     0.062 A 
ATOM      3  C2  UNL d   1      -2.455   0.265   3.963  0.00  0.00     0.162 A 
ATOM      4  C3  UNL d   1      -3.688   0.896   3.792  0.00  0.00    -0.034 A 
ATOM      5  C4  UNL d   1      -4.454   0.599   2.664  0.00  0.00     0.162 A 
ATOM      6  C5  UNL d   1      -3.993  -0.316   1.723  0.00  0.00     0.062 A 
ATOM      7  F   UNL d   1      -4.736  -0.595   0.642  0.00  0.00    -0.097 F 
ATOM      8  F1  UNL d   1      -5.644   1.188   2.469  0.00  0.00    -0.096 F 
ATOM      9  I   UNL d   1      -4.375   2.265   5.202  0.00  0.00    -0.060 I 
ATOM     10  F2  UNL d   1      -1.693   0.527   5.034  0.00  0.00    -0.096 F 
ATOM     11  F3  UNL d   1      -0.813  -1.251   3.190  0.00  0.00    -0.097 F 
ATOM     12  F4  UNL d   1      -2.324  -1.820   0.992  0.00  0.00    -0.092 F 
ENDROOT
TORSDOF 0
ENDMDL
