MODEL 1
REMARK minimizedAffinity 25.6126137
REMARK minimizedRMSD -1
REMARK  0 active torsions:
REMARK  status: ('A' for Active; 'I' for Inactive)
ROOT
ATOM      1  C   UNL d   1      -3.245  -3.414   2.452  0.00  0.00     0.124 A 
ATOM      2  C1  UNL d   1      -3.155  -2.914   3.744  0.00  0.00     0.062 A 
ATOM      3  C2  UNL d   1      -3.941  -3.453   4.758  0.00  0.00     0.162 A 
ATOM      4  C3  UNL d   1      -4.823  -4.499   4.485  0.00  0.00    -0.034 A 
ATOM      5  C4  UNL d   1      -4.908  -4.995   3.183  0.00  0.00     0.162 A 
ATOM      6  C5  UNL d   1      -4.121  -4.453   2.173  0.00  0.00     0.062 A 
ATOM      7  F   UNL d   1      -4.209  -4.937   0.925  0.00  0.00    -0.097 F 
ATOM      8  F1  UNL d   1      -5.746  -6.000   2.886  0.00  0.00    -0.096 F 
ATOM      9  I   UNL d   1      -6.000  -5.307   6.000  0.00  0.00    -0.060 I 
ATOM     10  F2  UNL d   1      -3.834  -2.951   5.997  0.00  0.00    -0.096 F 
ATOM     11  F3  UNL d   1      -2.310  -1.910   4.015  0.00  0.00    -0.097 F 
ATOM     12  F4  UNL d   1      -2.488  -2.893   1.477  0.00  0.00    -0.092 F 
ENDROOT
TORSDOF 0
ENDMDL
