MODEL 1
REMARK minimizedAffinity 2.32931018
REMARK minimizedRMSD -1
REMARK  1 active torsions:
REMARK  status: ('A' for Active; 'I' for Inactive)
REMARK    1  A    between atoms: C3_4  and  O_7 
ROOT
ATOM      1  C   UNL d   1       3.019  -0.535   0.138  0.00  0.00    -0.033 A 
ATOM      2  C1  UNL d   1       2.465   0.425  -0.711  0.00  0.00     0.039 A 
ATOM      3  C2  UNL d   1       1.079   0.523  -0.847  0.00  0.00    -0.080 A 
ATOM      4  C3  UNL d   1       0.259  -0.343  -0.129  0.00  0.00     0.150 A 
ATOM      5  C4  UNL d   1       0.804  -1.300   0.722  0.00  0.00    -0.007 A 
ATOM      6  C5  UNL d   1       2.189  -1.396   0.856  0.00  0.00     0.039 A 
ENDROOT
BRANCH   4   7
ATOM      7  O   UNL d   1      -1.099  -0.289  -0.232  0.00  0.00    -0.526 OA
ATOM      8  H5  UNL d   1      -1.331   0.400  -0.877  0.00  0.00     0.418 HD
ENDBRANCH   4   7
TORSDOF 1
ENDMDL
