MODEL 1
REMARK minimizedAffinity -0.432876766
REMARK minimizedRMSD -1
REMARK  1 active torsions:
REMARK  status: ('A' for Active; 'I' for Inactive)
REMARK    1  A    between atoms: C3_4  and  O_7 
ROOT
ATOM      1  C   UNL d   1      -2.748   0.037   0.459  0.00  0.00    -0.033 A 
ATOM      2  C1  UNL d   1      -2.022  -0.585  -0.558  0.00  0.00     0.039 A 
ATOM      3  C2  UNL d   1      -0.673  -0.891  -0.368  0.00  0.00    -0.080 A 
ATOM      4  C3  UNL d   1      -0.063  -0.570   0.841  0.00  0.00     0.150 A 
ATOM      5  C4  UNL d   1      -0.781   0.046   1.860  0.00  0.00    -0.007 A 
ATOM      6  C5  UNL d   1      -2.128   0.352   1.669  0.00  0.00     0.039 A 
ENDROOT
BRANCH   4   7
ATOM      7  O   UNL d   1       1.253  -0.845   1.071  0.00  0.00    -0.526 OA
ATOM      8  H5  UNL d   1       1.628  -1.245   0.269  0.00  0.00     0.418 HD
ENDBRANCH   4   7
TORSDOF 1
ENDMDL
