MODEL 1
REMARK minimizedAffinity -1.82425761
REMARK minimizedRMSD -1
REMARK  1 active torsions:
REMARK  status: ('A' for Active; 'I' for Inactive)
REMARK    1  A    between atoms: C3_4  and  O_7 
ROOT
ATOM      1  C   UNL d   1       2.403   3.495   1.450  0.00  0.00    -0.033 A 
ATOM      2  C1  UNL d   1       2.660   4.797   1.016  0.00  0.00     0.039 A 
ATOM      3  C2  UNL d   1       3.633   5.568   1.655  0.00  0.00    -0.080 A 
ATOM      4  C3  UNL d   1       4.342   5.025   2.724  0.00  0.00     0.150 A 
ATOM      5  C4  UNL d   1       4.093   3.727   3.158  0.00  0.00    -0.007 A 
ATOM      6  C5  UNL d   1       3.120   2.960   2.519  0.00  0.00     0.039 A 
ENDROOT
BRANCH   4   7
ATOM      7  O   UNL d   1       5.298   5.741   3.382  0.00  0.00    -0.526 OA
ATOM      8  H5  UNL d   1       5.340   6.629   2.991  0.00  0.00     0.418 HD
ENDBRANCH   4   7
TORSDOF 1
ENDMDL
