MODEL 1
REMARK minimizedAffinity -1.23634088
REMARK minimizedRMSD -1
REMARK  1 active torsions:
REMARK  status: ('A' for Active; 'I' for Inactive)
REMARK    1  A    between atoms: C3_4  and  O_7 
ROOT
ATOM      1  C   UNL d   1       2.713   2.029   0.723  0.00  0.00    -0.033 A 
ATOM      2  C1  UNL d   1       3.193   2.940  -0.220  0.00  0.00     0.039 A 
ATOM      3  C2  UNL d   1       3.733   2.483  -1.424  0.00  0.00    -0.080 A 
ATOM      4  C3  UNL d   1       3.786   1.114  -1.673  0.00  0.00     0.150 A 
ATOM      5  C4  UNL d   1       3.307   0.201  -0.740  0.00  0.00    -0.007 A 
ATOM      6  C5  UNL d   1       2.769   0.659   0.462  0.00  0.00     0.039 A 
ENDROOT
BRANCH   4   7
ATOM      7  O   UNL d   1       4.309   0.621  -2.831  0.00  0.00    -0.526 OA
ATOM      8  H5  UNL d   1       4.627   1.366  -3.367  0.00  0.00     0.418 HD
ENDBRANCH   4   7
TORSDOF 1
ENDMDL
