MODEL 1
REMARK minimizedAffinity 0.812014341
REMARK minimizedRMSD -1
REMARK  1 active torsions:
REMARK  status: ('A' for Active; 'I' for Inactive)
REMARK    1  A    between atoms: C3_4  and  O_7 
ROOT
ATOM      1  C   UNL d   1      -2.294   0.088   0.512  0.00  0.00    -0.033 A 
ATOM      2  C1  UNL d   1      -1.400  -0.030  -0.554  0.00  0.00     0.039 A 
ATOM      3  C2  UNL d   1      -0.069  -0.378  -0.315  0.00  0.00    -0.080 A 
ATOM      4  C3  UNL d   1       0.354  -0.605   0.992  0.00  0.00     0.150 A 
ATOM      5  C4  UNL d   1      -0.533  -0.493   2.058  0.00  0.00    -0.007 A 
ATOM      6  C5  UNL d   1      -1.861  -0.145   1.817  0.00  0.00     0.039 A 
ENDROOT
BRANCH   4   7
ATOM      7  O   UNL d   1       1.644  -0.942   1.275  0.00  0.00    -0.526 OA
ATOM      8  H5  UNL d   1       2.149  -0.954   0.444  0.00  0.00     0.418 HD
ENDBRANCH   4   7
TORSDOF 1
ENDMDL
