MODEL 1
REMARK minimizedAffinity -0.368357748
REMARK minimizedRMSD -1
REMARK  1 active torsions:
REMARK  status: ('A' for Active; 'I' for Inactive)
REMARK    1  A    between atoms: C3_4  and  O_7 
ROOT
ATOM      1  C   UNL d   1       3.332   1.347  -2.062  0.00  0.00    -0.033 A 
ATOM      2  C1  UNL d   1       4.359   0.678  -2.731  0.00  0.00     0.039 A 
ATOM      3  C2  UNL d   1       5.255  -0.121  -2.018  0.00  0.00    -0.080 A 
ATOM      4  C3  UNL d   1       5.113  -0.243  -0.639  0.00  0.00     0.150 A 
ATOM      5  C4  UNL d   1       4.091   0.418   0.034  0.00  0.00    -0.007 A 
ATOM      6  C5  UNL d   1       3.197   1.216  -0.680  0.00  0.00     0.039 A 
ENDROOT
BRANCH   4   7
ATOM      7  O   UNL d   1       5.966  -1.008   0.100  0.00  0.00    -0.526 OA
ATOM      8  H5  UNL d   1       6.639  -1.380  -0.494  0.00  0.00     0.418 HD
ENDBRANCH   4   7
TORSDOF 1
ENDMDL
