MODEL 1
REMARK minimizedAffinity -2.0611167
REMARK minimizedRMSD -1
REMARK  1 active torsions:
REMARK  status: ('A' for Active; 'I' for Inactive)
REMARK    1  A    between atoms: C1_2  and  C2_3 
ROOT
ATOM      1  C2  UNL d   1      -3.469  -0.874  -3.634  0.00  0.00    -0.077 A 
ATOM      2  C3  UNL d   1      -2.535  -0.368  -4.549  0.00  0.00     0.002 A 
ATOM      3  C4  UNL d   1      -2.962   0.248  -5.727  0.00  0.00     0.002 A 
ATOM      4  C5  UNL d   1      -4.323   0.366  -6.000  0.00  0.00    -0.004 A 
ATOM      5  C6  UNL d   1      -5.260  -0.136  -5.097  0.00  0.00     0.002 A 
ATOM      6  C7  UNL d   1      -4.835  -0.752  -3.919  0.00  0.00     0.002 A 
ENDROOT
BRANCH   1   7
ATOM      7  C1  UNL d   1      -3.012  -1.493  -2.340  0.00  0.00     0.055 C 
ATOM      8  C   UNL d   1      -2.668  -0.429  -1.308  0.00  0.00     0.019 C 
ENDBRANCH   1   7
TORSDOF 1
ENDMDL
