MODEL 1
REMARK minimizedAffinity 0.829884946
REMARK minimizedRMSD -1
REMARK  1 active torsions:
REMARK  status: ('A' for Active; 'I' for Inactive)
REMARK    1  A    between atoms: C1_2  and  C2_3 
ROOT
ATOM      1  C2  UNL d   1       3.530   5.227  -5.747  0.00  0.00    -0.077 A 
ATOM      2  C3  UNL d   1       3.527   3.825  -5.746  0.00  0.00     0.002 A 
ATOM      3  C4  UNL d   1       4.723   3.116  -5.873  0.00  0.00     0.002 A 
ATOM      4  C5  UNL d   1       5.931   3.800  -5.996  0.00  0.00    -0.004 A 
ATOM      5  C6  UNL d   1       5.944   5.194  -6.000  0.00  0.00     0.002 A 
ATOM      6  C7  UNL d   1       4.750   5.905  -5.875  0.00  0.00     0.002 A 
ENDROOT
BRANCH   1   7
ATOM      7  C1  UNL d   1       2.247   5.994  -5.561  0.00  0.00     0.055 C 
ATOM      8  C   UNL d   1       1.049   5.058  -5.493  0.00  0.00     0.019 C 
ENDBRANCH   1   7
TORSDOF 1
ENDMDL
