MODEL 1
REMARK minimizedAffinity 6.21386623
REMARK minimizedRMSD -1
REMARK  1 active torsions:
REMARK  status: ('A' for Active; 'I' for Inactive)
REMARK    1  A    between atoms: C1_2  and  C2_3 
ROOT
ATOM      1  C2  UNL d   1       4.091   3.814  -5.255  0.00  0.00    -0.077 A 
ATOM      2  C3  UNL d   1       4.302   4.985  -5.995  0.00  0.00     0.002 A 
ATOM      3  C4  UNL d   1       3.343   6.000  -6.000  0.00  0.00     0.002 A 
ATOM      4  C5  UNL d   1       2.170   5.855  -5.262  0.00  0.00    -0.004 A 
ATOM      5  C6  UNL d   1       1.950   4.693  -4.524  0.00  0.00     0.002 A 
ATOM      6  C7  UNL d   1       2.907   3.677  -4.520  0.00  0.00     0.002 A 
ENDROOT
BRANCH   1   7
ATOM      7  C1  UNL d   1       5.146   2.739  -5.210  0.00  0.00     0.055 C 
ATOM      8  C   UNL d   1       4.864   1.732  -4.104  0.00  0.00     0.019 C 
ENDBRANCH   1   7
TORSDOF 1
ENDMDL
