MODEL 1
REMARK minimizedAffinity 13.9429073
REMARK minimizedRMSD -1
REMARK  1 active torsions:
REMARK  status: ('A' for Active; 'I' for Inactive)
REMARK    1  A    between atoms: C1_2  and  C2_3 
ROOT
ATOM      1  C2  UNL d   1      -4.222   1.499  -5.070  0.00  0.00    -0.077 A 
ATOM      2  C3  UNL d   1      -3.241   1.125  -6.000  0.00  0.00     0.002 A 
ATOM      3  C4  UNL d   1      -1.909   1.497  -5.810  0.00  0.00     0.002 A 
ATOM      4  C5  UNL d   1      -1.545   2.242  -4.690  0.00  0.00    -0.004 A 
ATOM      5  C6  UNL d   1      -2.513   2.621  -3.761  0.00  0.00     0.002 A 
ATOM      6  C7  UNL d   1      -3.845   2.251  -3.950  0.00  0.00     0.002 A 
ENDROOT
BRANCH   1   7
ATOM      7  C1  UNL d   1      -5.651   1.057  -5.248  0.00  0.00     0.055 C 
ATOM      8  C   UNL d   1      -6.000  -0.080  -4.298  0.00  0.00     0.019 C 
ENDBRANCH   1   7
TORSDOF 1
ENDMDL
