MODEL 1
REMARK minimizedAffinity 3.73503137
REMARK minimizedRMSD -1
REMARK  1 active torsions:
REMARK  status: ('A' for Active; 'I' for Inactive)
REMARK    1  A    between atoms: C1_2  and  C2_3 
ROOT
ATOM      1  C2  UNL d   1       0.674  -0.937   2.395  0.00  0.00    -0.077 A 
ATOM      2  C3  UNL d   1      -0.671  -0.802   2.765  0.00  0.00     0.002 A 
ATOM      3  C4  UNL d   1      -1.092   0.305   3.505  0.00  0.00     0.002 A 
ATOM      4  C5  UNL d   1      -0.175   1.285   3.878  0.00  0.00    -0.004 A 
ATOM      5  C6  UNL d   1       1.166   1.158   3.517  0.00  0.00     0.002 A 
ATOM      6  C7  UNL d   1       1.588   0.053   2.778  0.00  0.00     0.002 A 
ENDROOT
BRANCH   1   7
ATOM      7  C1  UNL d   1       1.121  -2.105   1.555  0.00  0.00     0.055 C 
ATOM      8  C   UNL d   1       1.831  -1.639   0.292  0.00  0.00     0.019 C 
ENDBRANCH   1   7
TORSDOF 1
ENDMDL
