MODEL 1
REMARK minimizedAffinity 6.17287016
REMARK minimizedRMSD -1
REMARK  1 active torsions:
REMARK  status: ('A' for Active; 'I' for Inactive)
REMARK    1  A    between atoms: C1_2  and  C2_3 
ROOT
ATOM      1  C2  UNL d   1      -3.864   2.230  -3.541  0.00  0.00    -0.077 A 
ATOM      2  C3  UNL d   1      -4.677   1.149  -3.911  0.00  0.00     0.002 A 
ATOM      3  C4  UNL d   1      -5.741   1.337  -4.795  0.00  0.00     0.002 A 
ATOM      4  C5  UNL d   1      -5.999   2.601  -5.319  0.00  0.00    -0.004 A 
ATOM      5  C6  UNL d   1      -5.198   3.683  -4.955  0.00  0.00     0.002 A 
ATOM      6  C7  UNL d   1      -4.134   3.498  -4.071  0.00  0.00     0.002 A 
ENDROOT
BRANCH   1   7
ATOM      7  C1  UNL d   1      -2.685   2.020  -2.626  0.00  0.00     0.055 C 
ATOM      8  C   UNL d   1      -2.657   0.602  -2.075  0.00  0.00     0.019 C 
ENDBRANCH   1   7
TORSDOF 1
ENDMDL
