MODEL 1
REMARK minimizedAffinity 7.92215395
REMARK minimizedRMSD -1
REMARK  1 active torsions:
REMARK  status: ('A' for Active; 'I' for Inactive)
REMARK    1  A    between atoms: C1_2  and  C2_3 
ROOT
ATOM      1  C2  UNL d   1       4.627  -4.822   3.251  0.00  0.00    -0.077 A 
ATOM      2  C3  UNL d   1       4.450  -5.992   4.004  0.00  0.00     0.002 A 
ATOM      3  C4  UNL d   1       4.728  -6.000   5.372  0.00  0.00     0.002 A 
ATOM      4  C5  UNL d   1       5.181  -4.841   6.000  0.00  0.00    -0.004 A 
ATOM      5  C6  UNL d   1       5.362  -3.674   5.259  0.00  0.00     0.002 A 
ATOM      6  C7  UNL d   1       5.086  -3.664   3.892  0.00  0.00     0.002 A 
ENDROOT
BRANCH   1   7
ATOM      7  C1  UNL d   1       4.281  -4.798   1.785  0.00  0.00     0.055 C 
ATOM      8  C   UNL d   1       5.487  -5.148   0.926  0.00  0.00     0.019 C 
ENDBRANCH   1   7
TORSDOF 1
ENDMDL
