MODEL 1
REMARK minimizedAffinity 9.85293674
REMARK minimizedRMSD -1
REMARK  1 active torsions:
REMARK  status: ('A' for Active; 'I' for Inactive)
REMARK    1  A    between atoms: C1_2  and  C2_3 
ROOT
ATOM      1  C2  UNL d   1       4.941  -4.904   3.588  0.00  0.00    -0.077 A 
ATOM      2  C3  UNL d   1       5.564  -3.649   3.599  0.00  0.00     0.002 A 
ATOM      3  C4  UNL d   1       5.998  -3.085   4.800  0.00  0.00     0.002 A 
ATOM      4  C5  UNL d   1       5.817  -3.772   5.999  0.00  0.00    -0.004 A 
ATOM      5  C6  UNL d   1       5.196  -5.020   5.999  0.00  0.00     0.002 A 
ATOM      6  C7  UNL d   1       4.760  -5.584   4.799  0.00  0.00     0.002 A 
ENDROOT
BRANCH   1   7
ATOM      7  C1  UNL d   1       4.516  -5.535   2.288  0.00  0.00     0.055 C 
ATOM      8  C   UNL d   1       4.283  -4.484   1.213  0.00  0.00     0.019 C 
ENDBRANCH   1   7
TORSDOF 1
ENDMDL
