MODEL 1
REMARK minimizedAffinity 7.34509897
REMARK minimizedRMSD -1
REMARK  1 active torsions:
REMARK  status: ('A' for Active; 'I' for Inactive)
REMARK    1  A    between atoms: C1_2  and  C2_3 
ROOT
ATOM      1  C2  UNL d   1      -1.910   0.402   0.200  0.00  0.00    -0.081 A 
ATOM      2  C3  UNL d   1      -2.815   0.387   1.268  0.00  0.00     0.006 A 
ATOM      3  C4  UNL d   1      -4.142   0.001   1.067  0.00  0.00     0.002 A 
ATOM      4  C5  UNL d   1      -4.584  -0.384  -0.203  0.00  0.00    -0.080 A 
ATOM      5  C6  UNL d   1      -5.999  -0.830  -0.427  0.00  0.00     0.076 C 
ATOM      6  C7  UNL d   1      -3.684  -0.353  -1.274  0.00  0.00     0.002 A 
ATOM      7  C8  UNL d   1      -2.358   0.034  -1.073  0.00  0.00     0.006 A 
ENDROOT
BRANCH   1   8
ATOM      8  C1  UNL d   1      -0.462   0.756   0.427  0.00  0.00     0.054 C 
ATOM      9  C   UNL d   1       0.449  -0.001  -0.529  0.00  0.00     0.018 C 
ENDBRANCH   1   8
TORSDOF 1
ENDMDL
