MODEL 1
REMARK minimizedAffinity 0.6918329
REMARK minimizedRMSD -1
REMARK  1 active torsions:
REMARK  status: ('A' for Active; 'I' for Inactive)
REMARK    1  A    between atoms: C1_2  and  C2_3 
ROOT
ATOM      1  C2  UNL d   1       3.224  -0.180  -0.480  0.00  0.00    -0.081 A 
ATOM      2  C3  UNL d   1       3.613  -1.491  -0.779  0.00  0.00     0.006 A 
ATOM      3  C4  UNL d   1       2.659  -2.505  -0.893  0.00  0.00     0.002 A 
ATOM      4  C5  UNL d   1       1.300  -2.223  -0.718  0.00  0.00    -0.080 A 
ATOM      5  C6  UNL d   1       0.262  -3.296  -0.867  0.00  0.00     0.076 C 
ATOM      6  C7  UNL d   1       0.912  -0.916  -0.402  0.00  0.00     0.002 A 
ATOM      7  C8  UNL d   1       1.866   0.097  -0.287  0.00  0.00     0.006 A 
ENDROOT
BRANCH   1   8
ATOM      8  C1  UNL d   1       4.244   0.928  -0.421  0.00  0.00     0.054 C 
ATOM      9  C   UNL d   1       5.293   0.774  -1.513  0.00  0.00     0.018 C 
ENDBRANCH   1   8
TORSDOF 1
ENDMDL
