MODEL 1
REMARK minimizedAffinity 8.54630852
REMARK minimizedRMSD -1
REMARK  1 active torsions:
REMARK  status: ('A' for Active; 'I' for Inactive)
REMARK    1  A    between atoms: C1_2  and  C2_3 
ROOT
ATOM      1  C2  UNL d   1       1.790  -1.413  -0.822  0.00  0.00    -0.081 A 
ATOM      2  C3  UNL d   1       1.458  -0.770   0.376  0.00  0.00     0.006 A 
ATOM      3  C4  UNL d   1       0.121  -0.631   0.759  0.00  0.00     0.002 A 
ATOM      4  C5  UNL d   1      -0.904  -1.140  -0.045  0.00  0.00    -0.080 A 
ATOM      5  C6  UNL d   1      -2.341  -1.024   0.369  0.00  0.00     0.076 C 
ATOM      6  C7  UNL d   1      -0.573  -1.768  -1.251  0.00  0.00     0.002 A 
ATOM      7  C8  UNL d   1       0.763  -1.906  -1.634  0.00  0.00     0.006 A 
ENDROOT
BRANCH   1   8
ATOM      8  C1  UNL d   1       3.232  -1.622  -1.206  0.00  0.00     0.054 C 
ATOM      9  C   UNL d   1       3.351  -2.371  -2.525  0.00  0.00     0.018 C 
ENDBRANCH   1   8
TORSDOF 1
ENDMDL
