MODEL 1
REMARK minimizedAffinity -2.96918535
REMARK minimizedRMSD -1
REMARK  1 active torsions:
REMARK  status: ('A' for Active; 'I' for Inactive)
REMARK    1  A    between atoms: C1_2  and  C2_3 
ROOT
ATOM      1  C2  UNL d   1       1.770  -0.510  -0.188  0.00  0.00    -0.081 A 
ATOM      2  C3  UNL d   1       1.582   0.872  -0.055  0.00  0.00     0.006 A 
ATOM      3  C4  UNL d   1       0.308   1.393   0.178  0.00  0.00     0.002 A 
ATOM      4  C5  UNL d   1      -0.798   0.543   0.290  0.00  0.00    -0.080 A 
ATOM      5  C6  UNL d   1      -2.167   1.088   0.571  0.00  0.00     0.076 C 
ATOM      6  C7  UNL d   1      -0.613  -0.835   0.140  0.00  0.00     0.002 A 
ATOM      7  C8  UNL d   1       0.661  -1.357  -0.094  0.00  0.00     0.006 A 
ENDROOT
BRANCH   1   8
ATOM      8  C1  UNL d   1       3.153  -1.080  -0.375  0.00  0.00     0.054 C 
ATOM      9  C   UNL d   1       4.153   0.004  -0.752  0.00  0.00     0.018 C 
ENDBRANCH   1   8
TORSDOF 1
ENDMDL
