MODEL 1
REMARK minimizedAffinity 9.29826641
REMARK minimizedRMSD -1
REMARK  1 active torsions:
REMARK  status: ('A' for Active; 'I' for Inactive)
REMARK    1  A    between atoms: C1_2  and  C2_3 
ROOT
ATOM      1  C2  UNL d   1       1.464  -2.606  -1.127  0.00  0.00    -0.081 A 
ATOM      2  C3  UNL d   1       1.811  -1.326  -0.676  0.00  0.00     0.006 A 
ATOM      3  C4  UNL d   1       3.000  -0.726  -1.097  0.00  0.00     0.002 A 
ATOM      4  C5  UNL d   1       3.856  -1.390  -1.982  0.00  0.00    -0.080 A 
ATOM      5  C6  UNL d   1       5.121  -0.744  -2.466  0.00  0.00     0.076 C 
ATOM      6  C7  UNL d   1       3.518  -2.675  -2.419  0.00  0.00     0.002 A 
ATOM      7  C8  UNL d   1       2.330  -3.276  -1.998  0.00  0.00     0.006 A 
ENDROOT
BRANCH   1   8
ATOM      8  C1  UNL d   1       0.152  -3.230  -0.726  0.00  0.00     0.054 C 
ATOM      9  C   UNL d   1      -0.947  -2.183  -0.613  0.00  0.00     0.018 C 
ENDBRANCH   1   8
TORSDOF 1
ENDMDL
