MODEL 1
REMARK minimizedAffinity 5.02780914
REMARK minimizedRMSD -1
REMARK  1 active torsions:
REMARK  status: ('A' for Active; 'I' for Inactive)
REMARK    1  A    between atoms: C1_2  and  C2_3 
ROOT
ATOM      1  C2  UNL d   1       2.325  -0.338  -0.580  0.00  0.00    -0.081 A 
ATOM      2  C3  UNL d   1       2.687  -1.682  -0.732  0.00  0.00     0.006 A 
ATOM      3  C4  UNL d   1       1.707  -2.674  -0.811  0.00  0.00     0.002 A 
ATOM      4  C5  UNL d   1       0.350  -2.339  -0.746  0.00  0.00    -0.080 A 
ATOM      5  C6  UNL d   1      -0.712  -3.392  -0.859  0.00  0.00     0.076 C 
ATOM      6  C7  UNL d   1      -0.011  -0.999  -0.576  0.00  0.00     0.002 A 
ATOM      7  C8  UNL d   1       0.968  -0.006  -0.497  0.00  0.00     0.006 A 
ENDROOT
BRANCH   1   8
ATOM      8  C1  UNL d   1       3.377   0.742  -0.560  0.00  0.00     0.054 C 
ATOM      9  C   UNL d   1       4.565   0.372  -1.436  0.00  0.00     0.018 C 
ENDBRANCH   1   8
TORSDOF 1
ENDMDL
