MODEL 1
REMARK minimizedAffinity 6.2615056
REMARK minimizedRMSD -1
REMARK  1 active torsions:
REMARK  status: ('A' for Active; 'I' for Inactive)
REMARK    1  A    between atoms: C1_2  and  C2_3 
ROOT
ATOM      1  C2  UNL d   1       1.359  -1.445  -0.724  0.00  0.00    -0.081 A 
ATOM      2  C3  UNL d   1       1.884  -0.157  -0.562  0.00  0.00     0.006 A 
ATOM      3  C4  UNL d   1       3.169   0.147  -1.019  0.00  0.00     0.002 A 
ATOM      4  C5  UNL d   1       3.946  -0.829  -1.652  0.00  0.00    -0.080 A 
ATOM      5  C6  UNL d   1       5.315  -0.507  -2.174  0.00  0.00     0.076 C 
ATOM      6  C7  UNL d   1       3.429  -2.120  -1.798  0.00  0.00     0.002 A 
ATOM      7  C8  UNL d   1       2.145  -2.425  -1.340  0.00  0.00     0.006 A 
ENDROOT
BRANCH   1   8
ATOM      8  C1  UNL d   1      -0.050  -1.759  -0.290  0.00  0.00     0.054 C 
ATOM      9  C   UNL d   1      -0.743  -2.679  -1.285  0.00  0.00     0.018 C 
ENDBRANCH   1   8
TORSDOF 1
ENDMDL
