MODEL 1
REMARK minimizedAffinity 3.77190876
REMARK minimizedRMSD -1
REMARK  1 active torsions:
REMARK  status: ('A' for Active; 'I' for Inactive)
REMARK    1  A    between atoms: C1_2  and  C2_3 
ROOT
ATOM      1  C2  UNL d   1       1.663  -1.229  -0.323  0.00  0.00    -0.081 A 
ATOM      2  C3  UNL d   1       2.946  -1.331  -0.875  0.00  0.00     0.006 A 
ATOM      3  C4  UNL d   1       3.830  -0.251  -0.816  0.00  0.00     0.002 A 
ATOM      4  C5  UNL d   1       3.450   0.945  -0.198  0.00  0.00    -0.080 A 
ATOM      5  C6  UNL d   1       4.400   2.101  -0.101  0.00  0.00     0.076 C 
ATOM      6  C7  UNL d   1       2.162   1.053   0.338  0.00  0.00     0.002 A 
ATOM      7  C8  UNL d   1       1.277  -0.026   0.279  0.00  0.00     0.006 A 
ENDROOT
BRANCH   1   8
ATOM      8  C1  UNL d   1       0.730  -2.413  -0.328  0.00  0.00     0.054 C 
ATOM      9  C   UNL d   1      -0.695  -1.993  -0.659  0.00  0.00     0.018 C 
ENDBRANCH   1   8
TORSDOF 1
ENDMDL
