MODEL 1
REMARK minimizedAffinity 13.8642645
REMARK minimizedRMSD -1
REMARK  1 active torsions:
REMARK  status: ('A' for Active; 'I' for Inactive)
REMARK    1  A    between atoms: C1_2  and  C2_3 
ROOT
ATOM      1  C2  UNL d   1      -5.475   0.185  -2.685  0.00  0.00    -0.081 A 
ATOM      2  C3  UNL d   1      -6.000  -0.664  -1.703  0.00  0.00     0.006 A 
ATOM      3  C4  UNL d   1      -5.555  -0.577  -0.382  0.00  0.00     0.002 A 
ATOM      4  C5  UNL d   1      -4.585   0.364  -0.019  0.00  0.00    -0.080 A 
ATOM      5  C6  UNL d   1      -4.120   0.487   1.401  0.00  0.00     0.076 C 
ATOM      6  C7  UNL d   1      -4.048   1.200  -1.004  0.00  0.00     0.002 A 
ATOM      7  C8  UNL d   1      -4.492   1.113  -2.326  0.00  0.00     0.006 A 
ENDROOT
BRANCH   1   8
ATOM      8  C1  UNL d   1      -6.000   0.138  -4.098  0.00  0.00     0.054 C 
ATOM      9  C   UNL d   1      -5.743   1.449  -4.827  0.00  0.00     0.018 C 
ENDBRANCH   1   8
TORSDOF 1
ENDMDL
