MODEL 1
REMARK minimizedAffinity 7.22270536
REMARK minimizedRMSD -1
REMARK  1 active torsions:
REMARK  status: ('A' for Active; 'I' for Inactive)
REMARK    1  A    between atoms: C1_2  and  C2_3 
ROOT
ATOM      1  C2  UNL d   1      -1.540  -4.578  -2.361  0.00  0.00    -0.081 A 
ATOM      2  C3  UNL d   1      -0.972  -3.377  -2.804  0.00  0.00     0.006 A 
ATOM      3  C4  UNL d   1       0.010  -2.735  -2.045  0.00  0.00     0.002 A 
ATOM      4  C5  UNL d   1       0.445  -3.287  -0.835  0.00  0.00    -0.080 A 
ATOM      5  C6  UNL d   1       1.520  -2.625  -0.025  0.00  0.00     0.076 C 
ATOM      6  C7  UNL d   1      -0.135  -4.478  -0.384  0.00  0.00     0.002 A 
ATOM      7  C8  UNL d   1      -1.116  -5.119  -1.142  0.00  0.00     0.006 A 
ENDROOT
BRANCH   1   8
ATOM      8  C1  UNL d   1      -2.552  -5.305  -3.209  0.00  0.00     0.054 C 
ATOM      9  C   UNL d   1      -1.888  -5.999  -4.390  0.00  0.00     0.018 C 
ENDBRANCH   1   8
TORSDOF 1
ENDMDL
