MODEL 1
REMARK minimizedAffinity 10.6563444
REMARK minimizedRMSD -1
REMARK  0 active torsions:
REMARK  status: ('A' for Active; 'I' for Inactive)
ROOT
ATOM      1  O1  BZF d   1       5.055  -1.505   1.542  0.00  0.00    -0.204 OA
ATOM      2  C2  BZF d   1       5.932  -2.161   2.384  0.00  0.00     0.174 A 
ATOM      3  C3  BZF d   1       5.274  -2.717   3.422  0.00  0.00    -0.012 A 
ATOM      4  C3A BZF d   1       3.888  -2.466   3.166  0.00  0.00    -0.107 A 
ATOM      5  C4  BZF d   1       2.738  -2.785   3.830  0.00  0.00     0.055 A 
ATOM      6  C5  BZF d   1       1.551  -2.327   3.353  0.00  0.00    -0.016 A 
ATOM      7  C6  BZF d   1       1.478  -1.544   2.219  0.00  0.00     0.022 A 
ATOM      8  C7  BZF d   1       2.591  -1.206   1.524  0.00  0.00     0.029 A 
ATOM      9  C7A BZF d   1       3.789  -1.695   1.985  0.00  0.00     0.058 A 
ENDROOT
TORSDOF 0
ENDMDL
