MODEL 1
REMARK minimizedAffinity 15.699584
REMARK minimizedRMSD -1
REMARK  0 active torsions:
REMARK  status: ('A' for Active; 'I' for Inactive)
ROOT
ATOM      1  O1  BZF d   1      -3.696  -2.492  -4.712  0.00  0.00    -0.204 OA
ATOM      2  C2  BZF d   1      -4.282  -1.976  -3.572  0.00  0.00     0.174 A 
ATOM      3  C3  BZF d   1      -5.243  -2.802  -3.112  0.00  0.00    -0.012 A 
ATOM      4  C3A BZF d   1      -5.195  -3.948  -3.967  0.00  0.00    -0.107 A 
ATOM      5  C4  BZF d   1      -5.895  -5.120  -4.006  0.00  0.00     0.055 A 
ATOM      6  C5  BZF d   1      -5.654  -6.000  -5.013  0.00  0.00    -0.016 A 
ATOM      7  C6  BZF d   1      -4.726  -5.738  -5.999  0.00  0.00     0.022 A 
ATOM      8  C7  BZF d   1      -4.003  -4.592  -6.000  0.00  0.00     0.029 A 
ATOM      9  C7A BZF d   1      -4.221  -3.715  -4.965  0.00  0.00     0.058 A 
ENDROOT
TORSDOF 0
ENDMDL
