MODEL 1
REMARK minimizedAffinity 7.77936459
REMARK minimizedRMSD -1
REMARK  0 active torsions:
REMARK  status: ('A' for Active; 'I' for Inactive)
ROOT
ATOM      1  O1  BZF d   1       0.149  -4.143   5.812  0.00  0.00    -0.204 OA
ATOM      2  C2  BZF d   1       0.580  -5.442   5.998  0.00  0.00     0.174 A 
ATOM      3  C3  BZF d   1       1.117  -5.935   4.863  0.00  0.00    -0.012 A 
ATOM      4  C3A BZF d   1       1.101  -4.846   3.935  0.00  0.00    -0.107 A 
ATOM      5  C4  BZF d   1       1.516  -4.709   2.641  0.00  0.00     0.055 A 
ATOM      6  C5  BZF d   1       1.289  -3.535   1.996  0.00  0.00    -0.016 A 
ATOM      7  C6  BZF d   1       0.646  -2.481   2.611  0.00  0.00     0.022 A 
ATOM      8  C7  BZF d   1       0.220  -2.568   3.894  0.00  0.00     0.029 A 
ATOM      9  C7A BZF d   1       0.477  -3.742   4.560  0.00  0.00     0.058 A 
ENDROOT
TORSDOF 0
ENDMDL
