MODEL 1
REMARK minimizedAffinity 0.391553968
REMARK minimizedRMSD -1
REMARK  0 active torsions:
REMARK  status: ('A' for Active; 'I' for Inactive)
ROOT
ATOM      1  O1  BZF d   1       3.445   2.365  -5.542  0.00  0.00    -0.204 OA
ATOM      2  C2  BZF d   1       4.487   3.155  -5.990  0.00  0.00     0.174 A 
ATOM      3  C3  BZF d   1       5.643   2.461  -6.000  0.00  0.00    -0.012 A 
ATOM      4  C3A BZF d   1       5.287   1.130  -5.616  0.00  0.00    -0.107 A 
ATOM      5  C4  BZF d   1       5.999  -0.025  -5.459  0.00  0.00     0.055 A 
ATOM      6  C5  BZF d   1       5.364  -1.136  -5.003  0.00  0.00    -0.016 A 
ATOM      7  C6  BZF d   1       4.020  -1.127  -4.690  0.00  0.00     0.022 A 
ATOM      8  C7  BZF d   1       3.271  -0.008  -4.835  0.00  0.00     0.029 A 
ATOM      9  C7A BZF d   1       3.903   1.108  -5.327  0.00  0.00     0.058 A 
ENDROOT
TORSDOF 0
ENDMDL
