MODEL 1
REMARK minimizedAffinity 6.93491077
REMARK minimizedRMSD -1
REMARK  0 active torsions:
REMARK  status: ('A' for Active; 'I' for Inactive)
ROOT
ATOM      1  O1  BZF d   1       0.109  -1.178   5.145  0.00  0.00    -0.204 OA
ATOM      2  C2  BZF d   1       0.392  -2.377   5.771  0.00  0.00     0.174 A 
ATOM      3  C3  BZF d   1       1.041  -3.212   4.934  0.00  0.00    -0.012 A 
ATOM      4  C3A BZF d   1       1.254  -2.455   3.738  0.00  0.00    -0.107 A 
ATOM      5  C4  BZF d   1       1.861  -2.733   2.547  0.00  0.00     0.055 A 
ATOM      6  C5  BZF d   1       1.834  -1.801   1.558  0.00  0.00    -0.016 A 
ATOM      7  C6  BZF d   1       1.205  -0.585   1.725  0.00  0.00     0.022 A 
ATOM      8  C7  BZF d   1       0.594  -0.262   2.890  0.00  0.00     0.029 A 
ATOM      9  C7A BZF d   1       0.648  -1.188   3.902  0.00  0.00     0.058 A 
ENDROOT
TORSDOF 0
ENDMDL
