MODEL 1
REMARK minimizedAffinity 6.60010576
REMARK minimizedRMSD -1
REMARK  0 active torsions:
REMARK  status: ('A' for Active; 'I' for Inactive)
ROOT
ATOM      1  O1  BZF d   1       0.564  -1.672   3.422  0.00  0.00    -0.204 OA
ATOM      2  C2  BZF d   1       1.050  -2.965   3.470  0.00  0.00     0.174 A 
ATOM      3  C3  BZF d   1       2.051  -3.133   2.583  0.00  0.00    -0.012 A 
ATOM      4  C3A BZF d   1       2.263  -1.841   2.005  0.00  0.00    -0.107 A 
ATOM      5  C4  BZF d   1       3.135  -1.362   1.070  0.00  0.00     0.055 A 
ATOM      6  C5  BZF d   1       3.033  -0.067   0.674  0.00  0.00    -0.016 A 
ATOM      7  C6  BZF d   1       2.069   0.776   1.187  0.00  0.00     0.022 A 
ATOM      8  C7  BZF d   1       1.185   0.348   2.121  0.00  0.00     0.029 A 
ATOM      9  C7A BZF d   1       1.306  -0.952   2.548  0.00  0.00     0.058 A 
ENDROOT
TORSDOF 0
ENDMDL
