MODEL 1
REMARK minimizedAffinity 14.9813881
REMARK minimizedRMSD -1
REMARK  0 active torsions:
REMARK  status: ('A' for Active; 'I' for Inactive)
ROOT
ATOM      1  O1  BZF d   1      -1.827   0.387  -0.505  0.00  0.00    -0.204 OA
ATOM      2  C2  BZF d   1      -2.081   1.575   0.153  0.00  0.00     0.174 A 
ATOM      3  C3  BZF d   1      -3.066   2.262  -0.462  0.00  0.00    -0.012 A 
ATOM      4  C3A BZF d   1      -3.515   1.410  -1.520  0.00  0.00    -0.107 A 
ATOM      5  C4  BZF d   1      -4.485   1.529  -2.474  0.00  0.00     0.055 A 
ATOM      6  C5  BZF d   1      -4.619   0.548  -3.405  0.00  0.00    -0.016 A 
ATOM      7  C6  BZF d   1      -3.799  -0.562  -3.414  0.00  0.00     0.022 A 
ATOM      8  C7  BZF d   1      -2.826  -0.726  -2.486  0.00  0.00     0.029 A 
ATOM      9  C7A BZF d   1      -2.709   0.247  -1.524  0.00  0.00     0.058 A 
ENDROOT
TORSDOF 0
ENDMDL
