MODEL 1
REMARK minimizedAffinity 7.75841808
REMARK minimizedRMSD -1
REMARK  0 active torsions:
REMARK  status: ('A' for Active; 'I' for Inactive)
ROOT
ATOM      1  O1  BZF d   1      -5.896  -2.635  -5.108  0.00  0.00    -0.204 OA
ATOM      2  C2  BZF d   1      -5.458  -1.911  -4.016  0.00  0.00     0.174 A 
ATOM      3  C3  BZF d   1      -4.580  -2.629  -3.287  0.00  0.00    -0.012 A 
ATOM      4  C3A BZF d   1      -4.392  -3.846  -4.016  0.00  0.00    -0.107 A 
ATOM      5  C4  BZF d   1      -3.623  -4.956  -3.809  0.00  0.00     0.055 A 
ATOM      6  C5  BZF d   1      -3.724  -6.000  -4.673  0.00  0.00    -0.016 A 
ATOM      7  C6  BZF d   1      -4.585  -5.970  -5.750  0.00  0.00     0.022 A 
ATOM      8  C7  BZF d   1      -5.364  -4.889  -6.000  0.00  0.00     0.029 A 
ATOM      9  C7A BZF d   1      -5.240  -3.819  -5.147  0.00  0.00     0.058 A 
ENDROOT
TORSDOF 0
ENDMDL
