MODEL 1
REMARK minimizedAffinity 1.75611138
REMARK minimizedRMSD -1
REMARK  0 active torsions:
REMARK  status: ('A' for Active; 'I' for Inactive)
ROOT
ATOM      1  O1  BZF d   1       1.626  -2.029   1.125  0.00  0.00    -0.204 OA
ATOM      2  C2  BZF d   1       1.449  -1.380   2.332  0.00  0.00     0.174 A 
ATOM      3  C3  BZF d   1       2.625  -1.240   2.977  0.00  0.00    -0.012 A 
ATOM      4  C3A BZF d   1       3.611  -1.755   2.078  0.00  0.00    -0.107 A 
ATOM      5  C4  BZF d   1       4.970  -1.875   2.143  0.00  0.00     0.055 A 
ATOM      6  C5  BZF d   1       5.628  -2.490   1.125  0.00  0.00    -0.016 A 
ATOM      7  C6  BZF d   1       4.960  -3.000   0.031  0.00  0.00     0.022 A 
ATOM      8  C7  BZF d   1       3.613  -2.900  -0.080  0.00  0.00     0.029 A 
ATOM      9  C7A BZF d   1       2.949  -2.250   0.931  0.00  0.00     0.058 A 
ENDROOT
TORSDOF 0
ENDMDL
