MODEL 1
REMARK minimizedAffinity -1.99222755
REMARK minimizedRMSD -1
REMARK  0 active torsions:
REMARK  status: ('A' for Active; 'I' for Inactive)
ROOT
ATOM      1  C   UNL d   1      -5.558  -3.132  -3.220  0.00  0.00     0.077 C 
ATOM      2  C1  UNL d   1      -4.996  -4.130  -4.188  0.00  0.00    -0.074 A 
ATOM      3  C2  UNL d   1      -5.824  -4.794  -5.099  0.00  0.00    -0.005 A 
ATOM      4  C3  UNL d   1      -5.285  -5.712  -6.000  0.00  0.00     0.006 A 
ATOM      5  C4  UNL d   1      -3.915  -5.976  -5.999  0.00  0.00    -0.005 A 
ATOM      6  C5  UNL d   1      -3.071  -5.322  -5.096  0.00  0.00    -0.074 A 
ATOM      7  C6  UNL d   1      -1.595  -5.587  -5.089  0.00  0.00     0.077 C 
ATOM      8  C7  UNL d   1      -3.619  -4.395  -4.199  0.00  0.00    -0.001 A 
ENDROOT
TORSDOF 0
ENDMDL
