MODEL 1
REMARK minimizedAffinity -3.1284821
REMARK minimizedRMSD -1
REMARK  0 active torsions:
REMARK  status: ('A' for Active; 'I' for Inactive)
ROOT
ATOM      1  C   UNL d   1      -5.968  -2.250  -4.782  0.00  0.00     0.077 C 
ATOM      2  C1  UNL d   1      -5.287  -3.544  -5.116  0.00  0.00    -0.074 A 
ATOM      3  C2  UNL d   1      -5.999  -4.605  -5.686  0.00  0.00    -0.005 A 
ATOM      4  C3  UNL d   1      -5.350  -5.799  -6.000  0.00  0.00     0.006 A 
ATOM      5  C4  UNL d   1      -3.985  -5.944  -5.748  0.00  0.00    -0.005 A 
ATOM      6  C5  UNL d   1      -3.257  -4.894  -5.180  0.00  0.00    -0.074 A 
ATOM      7  C6  UNL d   1      -1.787  -5.030  -4.912  0.00  0.00     0.077 C 
ATOM      8  C7  UNL d   1      -3.914  -3.695  -4.874  0.00  0.00    -0.001 A 
ENDROOT
TORSDOF 0
ENDMDL
