MODEL 1
REMARK minimizedAffinity -2.67635345
REMARK minimizedRMSD -1
REMARK  0 active torsions:
REMARK  status: ('A' for Active; 'I' for Inactive)
ROOT
ATOM      1  C   UNL d   1      -2.677  -5.678  -6.000  0.00  0.00     0.077 C 
ATOM      2  C1  UNL d   1      -3.280  -4.534  -5.240  0.00  0.00    -0.074 A 
ATOM      3  C2  UNL d   1      -3.159  -4.452  -3.849  0.00  0.00    -0.005 A 
ATOM      4  C3  UNL d   1      -3.717  -3.377  -3.157  0.00  0.00     0.006 A 
ATOM      5  C4  UNL d   1      -4.401  -2.376  -3.847  0.00  0.00    -0.005 A 
ATOM      6  C5  UNL d   1      -4.531  -2.441  -5.238  0.00  0.00    -0.074 A 
ATOM      7  C6  UNL d   1      -5.255  -1.368  -5.996  0.00  0.00     0.077 C 
ATOM      8  C7  UNL d   1      -3.962  -3.520  -5.927  0.00  0.00    -0.001 A 
ENDROOT
TORSDOF 0
ENDMDL
