MODEL 1
REMARK minimizedAffinity -3.23802137
REMARK minimizedRMSD -1
REMARK  0 active torsions:
REMARK  status: ('A' for Active; 'I' for Inactive)
ROOT
ATOM      1  C   UNL d   1      -1.764  -4.975  -4.756  0.00  0.00     0.077 C 
ATOM      2  C1  UNL d   1      -3.205  -4.879  -5.161  0.00  0.00    -0.074 A 
ATOM      3  C2  UNL d   1      -3.894  -6.000  -5.636  0.00  0.00    -0.005 A 
ATOM      4  C3  UNL d   1      -5.237  -5.898  -6.000  0.00  0.00     0.006 A 
ATOM      5  C4  UNL d   1      -5.903  -4.676  -5.892  0.00  0.00    -0.005 A 
ATOM      6  C5  UNL d   1      -5.230  -3.545  -5.419  0.00  0.00    -0.074 A 
ATOM      7  C6  UNL d   1      -5.934  -2.227  -5.288  0.00  0.00     0.077 C 
ATOM      8  C7  UNL d   1      -3.883  -3.658  -5.049  0.00  0.00    -0.001 A 
ENDROOT
TORSDOF 0
ENDMDL
