MODEL 1
REMARK minimizedAffinity -1.16627026
REMARK minimizedRMSD -1
REMARK  0 active torsions:
REMARK  status: ('A' for Active; 'I' for Inactive)
ROOT
ATOM      1  C   UNL d   1      -2.214  -4.921  -3.287  0.00  0.00     0.077 C 
ATOM      2  C1  UNL d   1      -3.376  -4.692  -4.207  0.00  0.00    -0.074 A 
ATOM      3  C2  UNL d   1      -3.741  -5.651  -5.157  0.00  0.00    -0.005 A 
ATOM      4  C3  UNL d   1      -4.830  -5.428  -6.000  0.00  0.00     0.006 A 
ATOM      5  C4  UNL d   1      -5.564  -4.245  -5.900  0.00  0.00    -0.005 A 
ATOM      6  C5  UNL d   1      -5.215  -3.275  -4.955  0.00  0.00    -0.074 A 
ATOM      7  C6  UNL d   1      -6.000  -2.003  -4.828  0.00  0.00     0.077 C 
ATOM      8  C7  UNL d   1      -4.124  -3.510  -4.108  0.00  0.00    -0.001 A 
ENDROOT
TORSDOF 0
ENDMDL
