MODEL 1
REMARK minimizedAffinity 2.88186049
REMARK minimizedRMSD -1
REMARK  0 active torsions:
REMARK  status: ('A' for Active; 'I' for Inactive)
ROOT
ATOM      1  C   UNL d   1      -4.977  -5.909  -6.000  0.00  0.00     0.077 C 
ATOM      2  C1  UNL d   1      -5.003  -4.630  -5.217  0.00  0.00    -0.074 A 
ATOM      3  C2  UNL d   1      -5.980  -3.659  -5.460  0.00  0.00    -0.005 A 
ATOM      4  C3  UNL d   1      -5.997  -2.478  -4.717  0.00  0.00     0.006 A 
ATOM      5  C4  UNL d   1      -5.040  -2.257  -3.726  0.00  0.00    -0.005 A 
ATOM      6  C5  UNL d   1      -4.056  -3.218  -3.469  0.00  0.00    -0.074 A 
ATOM      7  C6  UNL d   1      -3.025  -3.000  -2.401  0.00  0.00     0.077 C 
ATOM      8  C7  UNL d   1      -4.049  -4.405  -4.215  0.00  0.00    -0.001 A 
ENDROOT
TORSDOF 0
ENDMDL
