MODEL 1
REMARK minimizedAffinity 1.8081944
REMARK minimizedRMSD -1
REMARK  0 active torsions:
REMARK  status: ('A' for Active; 'I' for Inactive)
ROOT
ATOM      1  C   UNL d   1      -4.334  -0.297  -0.871  0.00  0.00     0.077 C 
ATOM      2  C1  UNL d   1      -3.154  -0.982  -0.248  0.00  0.00    -0.074 A 
ATOM      3  C2  UNL d   1      -3.224  -2.325   0.137  0.00  0.00    -0.005 A 
ATOM      4  C3  UNL d   1      -2.115  -2.952   0.706  0.00  0.00     0.006 A 
ATOM      5  C4  UNL d   1      -0.928  -2.243   0.896  0.00  0.00    -0.005 A 
ATOM      6  C5  UNL d   1      -0.839  -0.900   0.517  0.00  0.00    -0.074 A 
ATOM      7  C6  UNL d   1       0.432  -0.127   0.705  0.00  0.00     0.077 C 
ATOM      8  C7  UNL d   1      -1.955  -0.279  -0.061  0.00  0.00    -0.001 A 
ENDROOT
TORSDOF 0
ENDMDL
