MODEL 1
REMARK minimizedAffinity -1.91221786
REMARK minimizedRMSD -1
REMARK  0 active torsions:
REMARK  status: ('A' for Active; 'I' for Inactive)
ROOT
ATOM      1  C   UNL d   1      -5.628  -2.335  -4.872  0.00  0.00     0.077 C 
ATOM      2  C1  UNL d   1      -4.916  -3.619  -5.179  0.00  0.00    -0.074 A 
ATOM      3  C2  UNL d   1      -5.605  -4.714  -5.711  0.00  0.00    -0.005 A 
ATOM      4  C3  UNL d   1      -4.927  -5.898  -6.000  0.00  0.00     0.006 A 
ATOM      5  C4  UNL d   1      -3.556  -6.000  -5.760  0.00  0.00    -0.005 A 
ATOM      6  C5  UNL d   1      -2.850  -4.916  -5.230  0.00  0.00    -0.074 A 
ATOM      7  C6  UNL d   1      -1.375  -5.005  -4.976  0.00  0.00     0.077 C 
ATOM      8  C7  UNL d   1      -3.537  -3.726  -4.948  0.00  0.00    -0.001 A 
ENDROOT
TORSDOF 0
ENDMDL
