MODEL 1
REMARK minimizedAffinity -2.54033899
REMARK minimizedRMSD -1
REMARK  0 active torsions:
REMARK  status: ('A' for Active; 'I' for Inactive)
ROOT
ATOM      1  C   UNL d   1      -1.199  -5.676  -6.000  0.00  0.00     0.077 C 
ATOM      2  C1  UNL d   1      -2.349  -5.089  -5.238  0.00  0.00    -0.074 A 
ATOM      3  C2  UNL d   1      -2.350  -5.070  -3.839  0.00  0.00    -0.005 A 
ATOM      4  C3  UNL d   1      -3.423  -4.513  -3.144  0.00  0.00     0.006 A 
ATOM      5  C4  UNL d   1      -4.505  -3.969  -3.839  0.00  0.00    -0.005 A 
ATOM      6  C5  UNL d   1      -4.521  -3.978  -5.237  0.00  0.00    -0.074 A 
ATOM      7  C6  UNL d   1      -5.671  -3.390  -6.000  0.00  0.00     0.077 C 
ATOM      8  C7  UNL d   1      -3.436  -4.534  -5.929  0.00  0.00    -0.001 A 
ENDROOT
TORSDOF 0
ENDMDL
