MODEL 1
REMARK minimizedAffinity -2.99433231
REMARK minimizedRMSD -1
REMARK  0 active torsions:
REMARK  status: ('A' for Active; 'I' for Inactive)
ROOT
ATOM      1  C   UNL d   1      -1.596  -5.237  -4.115  0.00  0.00     0.077 C 
ATOM      2  C1  UNL d   1      -3.006  -5.084  -4.603  0.00  0.00    -0.074 A 
ATOM      3  C2  UNL d   1      -3.534  -5.958  -5.559  0.00  0.00    -0.005 A 
ATOM      4  C3  UNL d   1      -4.850  -5.810  -5.997  0.00  0.00     0.006 A 
ATOM      5  C4  UNL d   1      -5.650  -4.787  -5.484  0.00  0.00    -0.005 A 
ATOM      6  C5  UNL d   1      -5.139  -3.905  -4.527  0.00  0.00    -0.074 A 
ATOM      7  C6  UNL d   1      -5.989  -2.807  -3.959  0.00  0.00     0.077 C 
ATOM      8  C7  UNL d   1      -3.818  -4.065  -4.087  0.00  0.00    -0.001 A 
ENDROOT
TORSDOF 0
ENDMDL
