MODEL 1
REMARK minimizedAffinity -1.73075986
REMARK minimizedRMSD -1
REMARK  0 active torsions:
REMARK  status: ('A' for Active; 'I' for Inactive)
ROOT
ATOM      1  C   UNL d   1      -1.784  -5.162  -4.899  0.00  0.00     0.077 C 
ATOM      2  C1  UNL d   1      -3.252  -4.993  -5.152  0.00  0.00    -0.074 A 
ATOM      3  C2  UNL d   1      -3.994  -5.999  -5.779  0.00  0.00    -0.005 A 
ATOM      4  C3  UNL d   1      -5.361  -5.831  -5.999  0.00  0.00     0.006 A 
ATOM      5  C4  UNL d   1      -5.999  -4.658  -5.595  0.00  0.00    -0.005 A 
ATOM      6  C5  UNL d   1      -5.274  -3.642  -4.965  0.00  0.00    -0.074 A 
ATOM      7  C6  UNL d   1      -5.946  -2.379  -4.516  0.00  0.00     0.077 C 
ATOM      8  C7  UNL d   1      -3.902  -3.821  -4.742  0.00  0.00    -0.001 A 
ENDROOT
TORSDOF 0
ENDMDL
