MODEL 1
REMARK minimizedAffinity 7.69323874
REMARK minimizedRMSD -1
REMARK  0 active torsions:
REMARK  status: ('A' for Active; 'I' for Inactive)
ROOT
ATOM      1  C   UNL d   1      -2.320  -4.029  -3.439  0.00  0.00     0.077 C 
ATOM      2  C1  UNL d   1      -3.599  -3.638  -4.117  0.00  0.00    -0.074 A 
ATOM      3  C2  UNL d   1      -4.235  -4.507  -5.010  0.00  0.00    -0.005 A 
ATOM      4  C3  UNL d   1      -5.429  -4.134  -5.626  0.00  0.00     0.006 A 
ATOM      5  C4  UNL d   1      -6.000  -2.889  -5.355  0.00  0.00    -0.005 A 
ATOM      6  C5  UNL d   1      -5.380  -2.007  -4.465  0.00  0.00    -0.074 A 
ATOM      7  C6  UNL d   1      -5.985  -0.670  -4.156  0.00  0.00     0.077 C 
ATOM      8  C7  UNL d   1      -4.183  -2.393  -3.845  0.00  0.00    -0.001 A 
ENDROOT
TORSDOF 0
ENDMDL
