MODEL 1
REMARK minimizedAffinity -1.21010208
REMARK minimizedRMSD -1
REMARK  0 active torsions:
REMARK  status: ('A' for Active; 'I' for Inactive)
ROOT
ATOM      1  C   UNL d   1      -4.682  -4.926  -5.966  0.00  0.00     0.077 C 
ATOM      2  C1  UNL d   1      -3.408  -5.305  -5.270  0.00  0.00    -0.074 A 
ATOM      3  C2  UNL d   1      -2.268  -5.659  -5.999  0.00  0.00    -0.005 A 
ATOM      4  C3  UNL d   1      -1.088  -6.000  -5.337  0.00  0.00     0.006 A 
ATOM      5  C4  UNL d   1      -1.037  -5.990  -3.943  0.00  0.00    -0.005 A 
ATOM      6  C5  UNL d   1      -2.166  -5.639  -3.197  0.00  0.00    -0.074 A 
ATOM      7  C6  UNL d   1      -2.125  -5.614  -1.698  0.00  0.00     0.077 C 
ATOM      8  C7  UNL d   1      -3.346  -5.291  -3.869  0.00  0.00    -0.001 A 
ENDROOT
TORSDOF 0
ENDMDL
