MODEL 1
REMARK minimizedAffinity -2.72305393
REMARK minimizedRMSD -1
REMARK  0 active torsions:
REMARK  status: ('A' for Active; 'I' for Inactive)
ROOT
ATOM      1  C   UNL d   1      -1.533  -4.875  -5.141  0.00  0.00     0.077 C 
ATOM      2  C1  UNL d   1      -3.022  -4.872  -5.326  0.00  0.00    -0.074 A 
ATOM      3  C2  UNL d   1      -3.684  -5.990  -5.843  0.00  0.00    -0.005 A 
ATOM      4  C3  UNL d   1      -5.070  -5.976  -6.000  0.00  0.00     0.006 A 
ATOM      5  C4  UNL d   1      -5.807  -4.846  -5.642  0.00  0.00    -0.005 A 
ATOM      6  C5  UNL d   1      -5.161  -3.719  -5.123  0.00  0.00    -0.074 A 
ATOM      7  C6  UNL d   1      -5.939  -2.500  -4.724  0.00  0.00     0.077 C 
ATOM      8  C7  UNL d   1      -3.769  -3.744  -4.961  0.00  0.00    -0.001 A 
ENDROOT
TORSDOF 0
ENDMDL
