MODEL 1
REMARK minimizedAffinity -2.72095609
REMARK minimizedRMSD -1
REMARK  0 active torsions:
REMARK  status: ('A' for Active; 'I' for Inactive)
ROOT
ATOM      1  C   UNL d   1      -5.995  -2.458  -4.216  0.00  0.00     0.077 C 
ATOM      2  C1  UNL d   1      -5.318  -3.699  -4.719  0.00  0.00    -0.074 A 
ATOM      3  C2  UNL d   1      -6.000  -4.610  -5.532  0.00  0.00    -0.005 A 
ATOM      4  C3  UNL d   1      -5.355  -5.755  -5.999  0.00  0.00     0.006 A 
ATOM      5  C4  UNL d   1      -4.024  -6.000  -5.658  0.00  0.00    -0.005 A 
ATOM      6  C5  UNL d   1      -3.326  -5.100  -4.847  0.00  0.00    -0.074 A 
ATOM      7  C6  UNL d   1      -1.893  -5.343  -4.479  0.00  0.00     0.077 C 
ATOM      8  C7  UNL d   1      -3.979  -3.948  -4.387  0.00  0.00    -0.001 A 
ENDROOT
TORSDOF 0
ENDMDL
