MODEL 1
REMARK minimizedAffinity 0.582472861
REMARK minimizedRMSD -1
REMARK  0 active torsions:
REMARK  status: ('A' for Active; 'I' for Inactive)
ROOT
ATOM      1  C   UNL d   1      -1.657  -4.914  -3.307  0.00  0.00     0.077 C 
ATOM      2  C1  UNL d   1      -2.843  -4.947  -4.224  0.00  0.00    -0.074 A 
ATOM      3  C2  UNL d   1      -3.000  -5.975  -5.160  0.00  0.00    -0.005 A 
ATOM      4  C3  UNL d   1      -4.113  -5.998  -5.999  0.00  0.00     0.006 A 
ATOM      5  C4  UNL d   1      -5.080  -4.995  -5.912  0.00  0.00    -0.005 A 
ATOM      6  C5  UNL d   1      -4.940  -3.960  -4.982  0.00  0.00    -0.074 A 
ATOM      7  C6  UNL d   1      -5.975  -2.880  -4.869  0.00  0.00     0.077 C 
ATOM      8  C7  UNL d   1      -3.822  -3.948  -4.137  0.00  0.00    -0.001 A 
ENDROOT
TORSDOF 0
ENDMDL
