MODEL 1
REMARK minimizedAffinity -2.26105952
REMARK minimizedRMSD -1
REMARK  0 active torsions:
REMARK  status: ('A' for Active; 'I' for Inactive)
ROOT
ATOM      1  C   UNL d   1      -5.993  -2.561  -4.485  0.00  0.00     0.077 C 
ATOM      2  C1  UNL d   1      -5.248  -3.767  -4.975  0.00  0.00    -0.074 A 
ATOM      3  C2  UNL d   1      -5.928  -4.851  -5.539  0.00  0.00    -0.005 A 
ATOM      4  C3  UNL d   1      -5.221  -5.962  -5.999  0.00  0.00     0.006 A 
ATOM      5  C4  UNL d   1      -3.830  -6.000  -5.900  0.00  0.00    -0.005 A 
ATOM      6  C5  UNL d   1      -3.133  -4.924  -5.340  0.00  0.00    -0.074 A 
ATOM      7  C6  UNL d   1      -1.637  -4.945  -5.236  0.00  0.00     0.077 C 
ATOM      8  C7  UNL d   1      -3.850  -3.809  -4.886  0.00  0.00    -0.001 A 
ENDROOT
TORSDOF 0
ENDMDL
