MODEL 1
REMARK minimizedAffinity -2.9700377
REMARK minimizedRMSD -1
REMARK  0 active torsions:
REMARK  status: ('A' for Active; 'I' for Inactive)
ROOT
ATOM      1  C   UNL d   1      -1.906  -5.022  -4.367  0.00  0.00     0.077 C 
ATOM      2  C1  UNL d   1      -3.296  -4.901  -4.917  0.00  0.00    -0.074 A 
ATOM      3  C2  UNL d   1      -3.936  -6.000  -5.500  0.00  0.00    -0.005 A 
ATOM      4  C3  UNL d   1      -5.233  -5.875  -5.999  0.00  0.00     0.006 A 
ATOM      5  C4  UNL d   1      -5.901  -4.652  -5.921  0.00  0.00    -0.005 A 
ATOM      6  C5  UNL d   1      -5.277  -3.543  -5.341  0.00  0.00    -0.074 A 
ATOM      7  C6  UNL d   1      -5.984  -2.224  -5.241  0.00  0.00     0.077 C 
ATOM      8  C7  UNL d   1      -3.977  -3.678  -4.835  0.00  0.00    -0.001 A 
ENDROOT
TORSDOF 0
ENDMDL
