MODEL 1
REMARK minimizedAffinity -2.96535468
REMARK minimizedRMSD -1
REMARK  0 active torsions:
REMARK  status: ('A' for Active; 'I' for Inactive)
ROOT
ATOM      1  C2' OXE d   1      -4.091  -5.967  -2.229  0.00  0.00     0.078 C 
ATOM      2  C1' OXE d   1      -5.999  -3.909  -2.219  0.00  0.00     0.078 C 
ATOM      3  C1  OXE d   1      -5.506  -4.404  -3.556  0.00  0.00    -0.078 A 
ATOM      4  C2  OXE d   1      -4.537  -5.379  -3.550  0.00  0.00    -0.078 A 
ATOM      5  C3  OXE d   1      -4.086  -5.910  -4.755  0.00  0.00     0.003 A 
ATOM      6  C4  OXE d   1      -4.497  -5.353  -5.973  0.00  0.00    -0.002 A 
ATOM      7  C5  OXE d   1      -5.453  -4.333  -6.000  0.00  0.00    -0.002 A 
ATOM      8  C6  OXE d   1      -5.998  -3.877  -4.804  0.00  0.00     0.003 A 
ENDROOT
TORSDOF 0
ENDMDL
