MODEL 1
REMARK minimizedAffinity -1.90827215
REMARK minimizedRMSD -1
REMARK  0 active torsions:
REMARK  status: ('A' for Active; 'I' for Inactive)
ROOT
ATOM      1  C2' OXE d   1      -5.998  -3.150  -5.767  0.00  0.00     0.078 C 
ATOM      2  C1' OXE d   1      -5.994  -5.957  -5.800  0.00  0.00     0.078 C 
ATOM      3  C1  OXE d   1      -5.666  -5.268  -4.499  0.00  0.00    -0.078 A 
ATOM      4  C2  OXE d   1      -5.624  -3.895  -4.504  0.00  0.00    -0.078 A 
ATOM      5  C3  OXE d   1      -5.381  -3.208  -3.318  0.00  0.00     0.003 A 
ATOM      6  C4  OXE d   1      -5.027  -3.904  -2.156  0.00  0.00    -0.002 A 
ATOM      7  C5  OXE d   1      -5.024  -5.303  -2.139  0.00  0.00    -0.002 A 
ATOM      8  C6  OXE d   1      -5.382  -5.999  -3.288  0.00  0.00     0.003 A 
ENDROOT
TORSDOF 0
ENDMDL
