MODEL 1
REMARK minimizedAffinity 0.499665856
REMARK minimizedRMSD -1
REMARK  0 active torsions:
REMARK  status: ('A' for Active; 'I' for Inactive)
ROOT
ATOM      1  C2' OXE d   1      -5.907  -3.264  -2.174  0.00  0.00     0.078 C 
ATOM      2  C1' OXE d   1      -5.279  -6.000  -2.242  0.00  0.00     0.078 C 
ATOM      3  C1  OXE d   1      -5.492  -5.293  -3.558  0.00  0.00    -0.078 A 
ATOM      4  C2  OXE d   1      -5.844  -3.966  -3.513  0.00  0.00    -0.078 A 
ATOM      5  C3  OXE d   1      -5.998  -3.253  -4.699  0.00  0.00     0.003 A 
ATOM      6  C4  OXE d   1      -5.948  -3.912  -5.934  0.00  0.00    -0.002 A 
ATOM      7  C5  OXE d   1      -5.630  -5.273  -6.000  0.00  0.00    -0.002 A 
ATOM      8  C6  OXE d   1      -5.357  -5.967  -4.826  0.00  0.00     0.003 A 
ENDROOT
TORSDOF 0
ENDMDL
