MODEL 1
REMARK minimizedAffinity -1.6545856
REMARK minimizedRMSD -1
REMARK  0 active torsions:
REMARK  status: ('A' for Active; 'I' for Inactive)
ROOT
ATOM      1  C2' OXE d   1      -5.130  -6.000  -2.276  0.00  0.00     0.078 C 
ATOM      2  C1' OXE d   1      -5.267  -3.196  -2.281  0.00  0.00     0.078 C 
ATOM      3  C1  OXE d   1      -5.507  -3.914  -3.586  0.00  0.00    -0.078 A 
ATOM      4  C2  OXE d   1      -5.392  -5.284  -3.584  0.00  0.00    -0.078 A 
ATOM      5  C3  OXE d   1      -5.658  -5.999  -4.748  0.00  0.00     0.003 A 
ATOM      6  C4  OXE d   1      -5.889  -5.329  -5.955  0.00  0.00    -0.002 A 
ATOM      7  C5  OXE d   1      -5.971  -3.933  -5.987  0.00  0.00    -0.002 A 
ATOM      8  C6  OXE d   1      -5.825  -3.214  -4.806  0.00  0.00     0.003 A 
ENDROOT
TORSDOF 0
ENDMDL
