MODEL 1
REMARK minimizedAffinity -0.972932935
REMARK minimizedRMSD -1
REMARK  0 active torsions:
REMARK  status: ('A' for Active; 'I' for Inactive)
ROOT
ATOM      1  C2' OXE d   1      -5.860  -3.175  -5.945  0.00  0.00     0.078 C 
ATOM      2  C1' OXE d   1      -5.676  -5.976  -5.999  0.00  0.00     0.078 C 
ATOM      3  C1  OXE d   1      -5.401  -5.278  -4.691  0.00  0.00    -0.078 A 
ATOM      4  C2  OXE d   1      -5.447  -3.905  -4.684  0.00  0.00    -0.078 A 
ATOM      5  C3  OXE d   1      -5.255  -3.214  -3.491  0.00  0.00     0.003 A 
ATOM      6  C4  OXE d   1      -4.864  -3.896  -2.332  0.00  0.00    -0.002 A 
ATOM      7  C5  OXE d   1      -4.772  -5.292  -2.327  0.00  0.00    -0.002 A 
ATOM      8  C6  OXE d   1      -5.078  -5.999  -3.484  0.00  0.00     0.003 A 
ENDROOT
TORSDOF 0
ENDMDL
