MODEL 1
REMARK minimizedAffinity -5.40968227
REMARK minimizedRMSD -1
REMARK  1 active torsions:
REMARK  status: ('A' for Active; 'I' for Inactive)
REMARK    1  A    between atoms: C1_2  and  C2_3 
ROOT
ATOM      1  C2  UNL d   1      -0.453   1.639  -0.165  0.00  0.00    -0.076 A 
ATOM      2  C3  UNL d   1      -1.015   2.727   0.526  0.00  0.00     0.004 A 
ATOM      3  C4  UNL d   1      -1.132   2.711   1.915  0.00  0.00    -0.003 A 
ATOM      4  C5  UNL d   1      -0.688   1.607   2.636  0.00  0.00     0.000 A 
ATOM      5  C6  UNL d   1      -0.112   0.527   1.968  0.00  0.00     0.000 A 
ATOM      6  C7  UNL d   1       0.028   0.534   0.569  0.00  0.00    -0.073 A 
ATOM      7  C8  UNL d   1       0.651  -0.660  -0.100  0.00  0.00     0.078 C 
ENDROOT
BRANCH   1   8
ATOM      8  C1  UNL d   1      -0.378   1.701  -1.674  0.00  0.00     0.053 C 
ATOM      9  C   UNL d   1      -0.723   3.079  -2.218  0.00  0.00     0.018 C 
ENDBRANCH   1   8
TORSDOF 1
ENDMDL
