MODEL 1
REMARK minimizedAffinity -4.35283518
REMARK minimizedRMSD -1
REMARK  1 active torsions:
REMARK  status: ('A' for Active; 'I' for Inactive)
REMARK    1  A    between atoms: C1_2  and  C2_3 
ROOT
ATOM      1  C2  UNL d   1      -0.945   1.385  -0.332  0.00  0.00    -0.076 A 
ATOM      2  C3  UNL d   1      -0.491   0.289  -1.087  0.00  0.00     0.004 A 
ATOM      3  C4  UNL d   1       0.247  -0.734  -0.494  0.00  0.00    -0.003 A 
ATOM      4  C5  UNL d   1       0.541  -0.679   0.864  0.00  0.00     0.000 A 
ATOM      5  C6  UNL d   1       0.083   0.391   1.632  0.00  0.00     0.000 A 
ATOM      6  C7  UNL d   1      -0.676   1.423   1.053  0.00  0.00    -0.073 A 
ATOM      7  C8  UNL d   1      -1.139   2.556   1.927  0.00  0.00     0.078 C 
ENDROOT
BRANCH   1   8
ATOM      8  C1  UNL d   1      -1.717   2.478  -1.035  0.00  0.00     0.053 C 
ATOM      9  C   UNL d   1      -0.820   3.384  -1.864  0.00  0.00     0.018 C 
ENDBRANCH   1   8
TORSDOF 1
ENDMDL
