MODEL 1
REMARK minimizedAffinity -3.62978888
REMARK minimizedRMSD -1
REMARK  1 active torsions:
REMARK  status: ('A' for Active; 'I' for Inactive)
REMARK    1  A    between atoms: C1_2  and  C2_3 
ROOT
ATOM      1  C2  UNL d   1      -0.531   0.805   0.248  0.00  0.00    -0.076 A 
ATOM      2  C3  UNL d   1      -0.657   1.980  -0.514  0.00  0.00     0.004 A 
ATOM      3  C4  UNL d   1      -0.759   3.227   0.102  0.00  0.00    -0.003 A 
ATOM      4  C5  UNL d   1      -0.735   3.319   1.489  0.00  0.00     0.000 A 
ATOM      5  C6  UNL d   1      -0.592   2.165   2.260  0.00  0.00     0.000 A 
ATOM      6  C7  UNL d   1      -0.472   0.903   1.655  0.00  0.00    -0.073 A 
ATOM      7  C8  UNL d   1      -0.327  -0.309   2.535  0.00  0.00     0.078 C 
ENDROOT
BRANCH   1   8
ATOM      8  C1  UNL d   1      -0.452  -0.521  -0.474  0.00  0.00     0.053 C 
ATOM      9  C   UNL d   1       0.980  -0.992  -0.673  0.00  0.00     0.018 C 
ENDBRANCH   1   8
TORSDOF 1
ENDMDL
