MODEL 1
REMARK minimizedAffinity -4.84836006
REMARK minimizedRMSD -1
REMARK  1 active torsions:
REMARK  status: ('A' for Active; 'I' for Inactive)
REMARK    1  A    between atoms: C1_2  and  C2_3 
ROOT
ATOM      1  C2  UNL d   1       0.524   0.925   0.532  0.00  0.00    -0.076 A 
ATOM      2  C3  UNL d   1       0.986  -0.178   1.271  0.00  0.00     0.004 A 
ATOM      3  C4  UNL d   1       1.393  -1.349   0.633  0.00  0.00    -0.003 A 
ATOM      4  C5  UNL d   1       1.345  -1.435  -0.754  0.00  0.00     0.000 A 
ATOM      5  C6  UNL d   1       0.907  -0.345  -1.504  0.00  0.00     0.000 A 
ATOM      6  C7  UNL d   1       0.508   0.849  -0.877  0.00  0.00    -0.073 A 
ATOM      7  C8  UNL d   1       0.038   1.992  -1.735  0.00  0.00     0.078 C 
ENDROOT
BRANCH   1   8
ATOM      8  C1  UNL d   1       0.070   2.158   1.279  0.00  0.00     0.053 C 
ATOM      9  C   UNL d   1      -1.389   2.080   1.701  0.00  0.00     0.018 C 
ENDBRANCH   1   8
TORSDOF 1
ENDMDL
