MODEL 1
REMARK minimizedAffinity 13.772028
REMARK minimizedRMSD -1
REMARK  0 active torsions:
REMARK  status: ('A' for Active; 'I' for Inactive)
ROOT
ATOM      1  O1  BZF d   1       0.695  -1.441   3.424  0.00  0.00    -0.204 OA
ATOM      2  C2  BZF d   1       1.229  -2.714   3.489  0.00  0.00     0.174 A 
ATOM      3  C3  BZF d   1       2.168  -2.889   2.537  0.00  0.00    -0.012 A 
ATOM      4  C3A BZF d   1       2.290  -1.617   1.891  0.00  0.00    -0.107 A 
ATOM      5  C4  BZF d   1       3.073  -1.153   0.873  0.00  0.00     0.055 A 
ATOM      6  C5  BZF d   1       2.895   0.120   0.432  0.00  0.00    -0.016 A 
ATOM      7  C6  BZF d   1       1.942   0.953   0.981  0.00  0.00     0.022 A 
ATOM      8  C7  BZF d   1       1.145   0.538   1.996  0.00  0.00     0.029 A 
ATOM      9  C7A BZF d   1       1.345  -0.737   2.466  0.00  0.00     0.058 A 
ENDROOT
TORSDOF 0
ENDMDL
