MODEL 1
REMARK minimizedAffinity 8.76651955
REMARK minimizedRMSD -1
REMARK  0 active torsions:
REMARK  status: ('A' for Active; 'I' for Inactive)
ROOT
ATOM      1  O1  BZF d   1      -3.115   1.359  -3.255  0.00  0.00    -0.204 OA
ATOM      2  C2  BZF d   1      -3.565   2.496  -2.612  0.00  0.00     0.174 A 
ATOM      3  C3  BZF d   1      -4.577   2.201  -1.770  0.00  0.00    -0.012 A 
ATOM      4  C3A BZF d   1      -4.710   0.777  -1.826  0.00  0.00    -0.107 A 
ATOM      5  C4  BZF d   1      -5.533  -0.114  -1.199  0.00  0.00     0.055 A 
ATOM      6  C5  BZF d   1      -5.456  -1.430  -1.530  0.00  0.00    -0.016 A 
ATOM      7  C6  BZF d   1      -4.572  -1.887  -2.485  0.00  0.00     0.022 A 
ATOM      8  C7  BZF d   1      -3.732  -1.042  -3.130  0.00  0.00     0.029 A 
ATOM      9  C7A BZF d   1      -3.785   0.284  -2.774  0.00  0.00     0.058 A 
ENDROOT
TORSDOF 0
ENDMDL
