MODEL 1
REMARK minimizedAffinity 14.8493347
REMARK minimizedRMSD -1
REMARK  0 active torsions:
REMARK  status: ('A' for Active; 'I' for Inactive)
ROOT
ATOM      1  O1  BZF d   1       3.803   5.335  -5.237  0.00  0.00    -0.204 OA
ATOM      2  C2  BZF d   1       4.938   5.620  -5.972  0.00  0.00     0.174 A 
ATOM      3  C3  BZF d   1       5.957   5.969  -5.161  0.00  0.00    -0.012 A 
ATOM      4  C3A BZF d   1       5.453   5.809  -3.831  0.00  0.00    -0.107 A 
ATOM      5  C4  BZF d   1       5.999   5.986  -2.592  0.00  0.00     0.055 A 
ATOM      6  C5  BZF d   1       5.216   5.814  -1.495  0.00  0.00    -0.016 A 
ATOM      7  C6  BZF d   1       3.884   5.471  -1.600  0.00  0.00     0.022 A 
ATOM      8  C7  BZF d   1       3.299   5.279  -2.807  0.00  0.00     0.029 A 
ATOM      9  C7A BZF d   1       4.096   5.420  -3.917  0.00  0.00     0.058 A 
ENDROOT
TORSDOF 0
ENDMDL
