MODEL 1
REMARK minimizedAffinity 7.51561928
REMARK minimizedRMSD -1
REMARK  0 active torsions:
REMARK  status: ('A' for Active; 'I' for Inactive)
ROOT
ATOM      1  O1  BZF d   1       1.061  -0.713   3.455  0.00  0.00    -0.204 OA
ATOM      2  C2  BZF d   1       1.234  -2.082   3.535  0.00  0.00     0.174 A 
ATOM      3  C3  BZF d   1       1.924  -2.539   2.470  0.00  0.00    -0.012 A 
ATOM      4  C3A BZF d   1       2.279  -1.373   1.722  0.00  0.00    -0.107 A 
ATOM      5  C4  BZF d   1       2.984  -1.175   0.569  0.00  0.00     0.055 A 
ATOM      6  C5  BZF d   1       3.088   0.083   0.066  0.00  0.00    -0.016 A 
ATOM      7  C6  BZF d   1       2.497   1.164   0.686  0.00  0.00     0.022 A 
ATOM      8  C7  BZF d   1       1.793   1.019   1.835  0.00  0.00     0.029 A 
ATOM      9  C7A BZF d   1       1.713  -0.247   2.363  0.00  0.00     0.058 A 
ENDROOT
TORSDOF 0
ENDMDL
