MODEL 1
REMARK minimizedAffinity 16.5965862
REMARK minimizedRMSD -1
REMARK  0 active torsions:
REMARK  status: ('A' for Active; 'I' for Inactive)
ROOT
ATOM      1  O1  BZF d   1      -5.891  -2.341  -5.455  0.00  0.00    -0.204 OA
ATOM      2  C2  BZF d   1      -5.254  -1.534  -4.532  0.00  0.00     0.174 A 
ATOM      3  C3  BZF d   1      -4.430  -2.260  -3.750  0.00  0.00    -0.012 A 
ATOM      4  C3A BZF d   1      -4.490  -3.591  -4.273  0.00  0.00    -0.107 A 
ATOM      5  C4  BZF d   1      -3.878  -4.763  -3.931  0.00  0.00     0.055 A 
ATOM      6  C5  BZF d   1      -4.209  -5.900  -4.597  0.00  0.00    -0.016 A 
ATOM      7  C6  BZF d   1      -5.150  -5.902  -5.606  0.00  0.00     0.022 A 
ATOM      8  C7  BZF d   1      -5.780  -4.764  -5.984  0.00  0.00     0.029 A 
ATOM      9  C7A BZF d   1      -5.423  -3.607  -5.335  0.00  0.00     0.058 A 
ENDROOT
TORSDOF 0
ENDMDL
