MODEL 1
REMARK minimizedAffinity 16.4082146
REMARK minimizedRMSD -1
REMARK  0 active torsions:
REMARK  status: ('A' for Active; 'I' for Inactive)
ROOT
ATOM      1  O1  BZF d   1       0.739  -0.400   5.541  0.00  0.00    -0.204 OA
ATOM      2  C2  BZF d   1       0.321  -1.713   5.437  0.00  0.00     0.174 A 
ATOM      3  C3  BZF d   1       0.448  -2.156   4.169  0.00  0.00    -0.012 A 
ATOM      4  C3A BZF d   1       1.064  -1.081   3.454  0.00  0.00    -0.107 A 
ATOM      5  C4  BZF d   1       1.462  -0.922   2.158  0.00  0.00     0.055 A 
ATOM      6  C5  BZF d   1       1.963   0.278   1.763  0.00  0.00    -0.016 A 
ATOM      7  C6  BZF d   1       2.076   1.341   2.636  0.00  0.00     0.022 A 
ATOM      8  C7  BZF d   1       1.699   1.229   3.933  0.00  0.00     0.029 A 
ATOM      9  C7A BZF d   1       1.223   0.008   4.343  0.00  0.00     0.058 A 
ENDROOT
TORSDOF 0
ENDMDL
