MODEL 1
REMARK minimizedAffinity 13.9458733
REMARK minimizedRMSD -1
REMARK  0 active torsions:
REMARK  status: ('A' for Active; 'I' for Inactive)
ROOT
ATOM      1  O1  BZF d   1      -4.758   3.090   2.470  0.00  0.00    -0.204 OA
ATOM      2  C2  BZF d   1      -6.000   3.371   1.933  0.00  0.00     0.174 A 
ATOM      3  C3  BZF d   1      -6.000   3.175   0.599  0.00  0.00    -0.012 A 
ATOM      4  C3A BZF d   1      -4.701   2.656   0.295  0.00  0.00    -0.107 A 
ATOM      5  C4  BZF d   1      -4.100   2.250  -0.862  0.00  0.00     0.055 A 
ATOM      6  C5  BZF d   1      -2.797   1.864  -0.829  0.00  0.00    -0.016 A 
ATOM      7  C6  BZF d   1      -2.066   1.877   0.341  0.00  0.00     0.022 A 
ATOM      8  C7  BZF d   1      -2.621   2.267   1.514  0.00  0.00     0.029 A 
ATOM      9  C7A BZF d   1      -3.946   2.625   1.490  0.00  0.00     0.058 A 
ENDROOT
TORSDOF 0
ENDMDL
