MODEL 1
REMARK minimizedAffinity 9.93766689
REMARK minimizedRMSD -1
REMARK  0 active torsions:
REMARK  status: ('A' for Active; 'I' for Inactive)
ROOT
ATOM      1  O1  BZF d   1      -4.658   3.508   2.234  0.00  0.00    -0.204 OA
ATOM      2  C2  BZF d   1      -5.644   3.985   1.391  0.00  0.00     0.174 A 
ATOM      3  C3  BZF d   1      -5.183   4.092   0.128  0.00  0.00    -0.012 A 
ATOM      4  C3A BZF d   1      -3.852   3.568   0.167  0.00  0.00    -0.107 A 
ATOM      5  C4  BZF d   1      -2.884   3.392  -0.780  0.00  0.00     0.055 A 
ATOM      6  C5  BZF d   1      -1.667   2.923  -0.401  0.00  0.00    -0.016 A 
ATOM      7  C6  BZF d   1      -1.381   2.625   0.916  0.00  0.00     0.022 A 
ATOM      8  C7  BZF d   1      -2.311   2.778   1.890  0.00  0.00     0.029 A 
ATOM      9  C7A BZF d   1      -3.552   3.221   1.505  0.00  0.00     0.058 A 
ENDROOT
TORSDOF 0
ENDMDL
