MODEL 1
REMARK minimizedAffinity 4.57960129
REMARK minimizedRMSD -1
REMARK  0 active torsions:
REMARK  status: ('A' for Active; 'I' for Inactive)
ROOT
ATOM      1  O1  BZF d   1       1.227   0.985   1.381  0.00  0.00    -0.204 OA
ATOM      2  C2  BZF d   1       2.574   0.838   1.651  0.00  0.00     0.174 A 
ATOM      3  C3  BZF d   1       2.916  -0.467   1.683  0.00  0.00    -0.012 A 
ATOM      4  C3A BZF d   1       1.726  -1.176   1.325  0.00  0.00    -0.107 A 
ATOM      5  C4  BZF d   1       1.434  -2.501   1.168  0.00  0.00     0.055 A 
ATOM      6  C5  BZF d   1       0.157  -2.867   0.885  0.00  0.00    -0.016 A 
ATOM      7  C6  BZF d   1      -0.854  -1.937   0.757  0.00  0.00     0.022 A 
ATOM      8  C7  BZF d   1      -0.612  -0.611   0.899  0.00  0.00     0.029 A 
ATOM      9  C7A BZF d   1       0.684  -0.236   1.153  0.00  0.00     0.058 A 
ENDROOT
TORSDOF 0
ENDMDL
