MODEL 1
REMARK minimizedAffinity 15.6179867
REMARK minimizedRMSD -1
REMARK  2 active torsions:
REMARK  status: ('A' for Active; 'I' for Inactive)
REMARK    1  A    between atoms: C2'_3  and  C1'_4 
REMARK    2  A    between atoms: C1'_4  and  C1_5 
ROOT
ATOM      1  C1  I4B d   1       1.109  -2.710   3.858  0.00  0.00    -0.075 A 
ATOM      2  C2  I4B d   1       0.620  -1.455   3.592  0.00  0.00     0.003 A 
ATOM      3  C3  I4B d   1       0.573  -0.976   2.260  0.00  0.00     0.002 A 
ATOM      4  C4  I4B d   1       1.068  -1.760   1.238  0.00  0.00    -0.004 A 
ATOM      5  C5  I4B d   1       1.543  -3.040   1.507  0.00  0.00     0.002 A 
ATOM      6  C6  I4B d   1       1.552  -3.524   2.823  0.00  0.00     0.003 A 
ENDROOT
BRANCH   1   7
ATOM      7  C1' I4B d   1       1.175  -3.172   5.279  0.00  0.00     0.060 C 
BRANCH   7   8
ATOM      8  C2' I4B d   1       1.917  -4.492   5.307  0.00  0.00    -0.013 C 
ATOM      9  C4' I4B d   1       3.247  -4.356   5.999  0.00  0.00     0.013 C 
ATOM     10  C3' I4B d   1       1.046  -5.498   6.000  0.00  0.00     0.013 C 
ENDBRANCH   7   8
ENDBRANCH   1   7
TORSDOF 2
ENDMDL
