MODEL 1
REMARK minimizedAffinity 11.381732
REMARK minimizedRMSD -1
REMARK  2 active torsions:
REMARK  status: ('A' for Active; 'I' for Inactive)
REMARK    1  A    between atoms: C2'_3  and  C1'_4 
REMARK    2  A    between atoms: C1'_4  and  C1_5 
ROOT
ATOM      1  C1  I4B d   1      -3.679   2.839  -3.065  0.00  0.00    -0.075 A 
ATOM      2  C2  I4B d   1      -3.838   4.195  -2.933  0.00  0.00     0.003 A 
ATOM      3  C3  I4B d   1      -3.757   5.037  -4.069  0.00  0.00     0.002 A 
ATOM      4  C4  I4B d   1      -3.467   4.489  -5.301  0.00  0.00    -0.004 A 
ATOM      5  C5  I4B d   1      -3.328   3.110  -5.437  0.00  0.00     0.002 A 
ATOM      6  C6  I4B d   1      -3.447   2.278  -4.315  0.00  0.00     0.003 A 
ENDROOT
BRANCH   1   7
ATOM      7  C1' I4B d   1      -3.738   1.983  -1.840  0.00  0.00     0.060 C 
BRANCH   7   8
ATOM      8  C2' I4B d   1      -2.465   1.163  -1.781  0.00  0.00    -0.013 C 
ATOM      9  C4' I4B d   1      -1.867   1.182  -0.398  0.00  0.00     0.013 C 
ATOM     10  C3' I4B d   1      -2.794  -0.235  -2.209  0.00  0.00     0.013 C 
ENDBRANCH   7   8
ENDBRANCH   1   7
TORSDOF 2
ENDMDL
