MODEL 1
REMARK minimizedAffinity 8.4661808
REMARK minimizedRMSD -1
REMARK  2 active torsions:
REMARK  status: ('A' for Active; 'I' for Inactive)
REMARK    1  A    between atoms: C2'_3  and  C1'_4 
REMARK    2  A    between atoms: C1'_4  and  C1_5 
ROOT
ATOM      1  C1  I4B d   1       1.569  -2.616   3.214  0.00  0.00    -0.075 A 
ATOM      2  C2  I4B d   1       1.143  -1.531   3.938  0.00  0.00     0.003 A 
ATOM      3  C3  I4B d   1       1.170  -1.563   5.353  0.00  0.00     0.002 A 
ATOM      4  C4  I4B d   1       1.580  -2.710   6.000  0.00  0.00    -0.004 A 
ATOM      5  C5  I4B d   1       2.034  -3.802   5.264  0.00  0.00     0.002 A 
ATOM      6  C6  I4B d   1       2.041  -3.750   3.863  0.00  0.00     0.003 A 
ENDROOT
BRANCH   1   7
ATOM      7  C1' I4B d   1       1.496  -2.561   1.721  0.00  0.00     0.060 C 
BRANCH   7   8
ATOM      8  C2' I4B d   1       2.282  -1.350   1.260  0.00  0.00    -0.013 C 
ATOM      9  C4' I4B d   1       3.207  -1.700   0.125  0.00  0.00     0.013 C 
ATOM     10  C3' I4B d   1       1.302  -0.290   0.853  0.00  0.00     0.013 C 
ENDBRANCH   7   8
ENDBRANCH   1   7
TORSDOF 2
ENDMDL
