MODEL 1
REMARK minimizedAffinity 3.68092775
REMARK minimizedRMSD -1
REMARK  0 active torsions:
REMARK  status: ('A' for Active; 'I' for Inactive)
ROOT
ATOM      1  C   UNL d   1       1.793  -0.243  -0.216  0.00  0.00     0.077 C 
ATOM      2  C1  UNL d   1       2.435  -0.078  -1.562  0.00  0.00    -0.074 A 
ATOM      3  C2  UNL d   1       3.803  -0.308  -1.739  0.00  0.00    -0.005 A 
ATOM      4  C3  UNL d   1       4.384  -0.160  -2.998  0.00  0.00     0.006 A 
ATOM      5  C4  UNL d   1       3.604   0.221  -4.091  0.00  0.00    -0.005 A 
ATOM      6  C5  UNL d   1       2.234   0.455  -3.933  0.00  0.00    -0.074 A 
ATOM      7  C6  UNL d   1       1.380   0.855  -5.099  0.00  0.00     0.077 C 
ATOM      8  C7  UNL d   1       1.657   0.297  -2.666  0.00  0.00    -0.001 A 
ENDROOT
TORSDOF 0
ENDMDL
