MODEL 1
REMARK minimizedAffinity 7.01415777
REMARK minimizedRMSD -1
REMARK  0 active torsions:
REMARK  status: ('A' for Active; 'I' for Inactive)
ROOT
ATOM      1  C   UNL d   1       0.002  -0.150  -6.000  0.00  0.00     0.077 C 
ATOM      2  C1  UNL d   1       1.031   0.137  -4.947  0.00  0.00    -0.074 A 
ATOM      3  C2  UNL d   1       2.248   0.742  -5.278  0.00  0.00    -0.005 A 
ATOM      4  C3  UNL d   1       3.192   1.011  -4.287  0.00  0.00     0.006 A 
ATOM      5  C4  UNL d   1       2.929   0.678  -2.957  0.00  0.00    -0.005 A 
ATOM      6  C5  UNL d   1       1.718   0.073  -2.608  0.00  0.00    -0.074 A 
ATOM      7  C6  UNL d   1       1.415  -0.282  -1.182  0.00  0.00     0.077 C 
ATOM      8  C7  UNL d   1       0.772  -0.187  -3.608  0.00  0.00    -0.001 A 
ENDROOT
TORSDOF 0
ENDMDL
