MODEL 1
REMARK minimizedAffinity 8.33208561
REMARK minimizedRMSD -1
REMARK  0 active torsions:
REMARK  status: ('A' for Active; 'I' for Inactive)
ROOT
ATOM      1  C   UNL d   1       0.195  -0.705  -4.993  0.00  0.00     0.077 C 
ATOM      2  C1  UNL d   1       1.320  -0.134  -4.182  0.00  0.00    -0.074 A 
ATOM      3  C2  UNL d   1       2.650  -0.461  -4.466  0.00  0.00    -0.005 A 
ATOM      4  C3  UNL d   1       3.686   0.085  -3.709  0.00  0.00     0.006 A 
ATOM      5  C4  UNL d   1       3.404   0.963  -2.662  0.00  0.00    -0.005 A 
ATOM      6  C5  UNL d   1       2.080   1.303  -2.364  0.00  0.00    -0.074 A 
ATOM      7  C6  UNL d   1       1.760   2.253  -1.248  0.00  0.00     0.077 C 
ATOM      8  C7  UNL d   1       1.045   0.755  -3.133  0.00  0.00    -0.001 A 
ENDROOT
TORSDOF 0
ENDMDL
