MODEL 1
REMARK minimizedAffinity 5.27427149
REMARK minimizedRMSD -1
REMARK  0 active torsions:
REMARK  status: ('A' for Active; 'I' for Inactive)
ROOT
ATOM      1  C   UNL d   1       0.398  -0.256  -4.850  0.00  0.00     0.077 C 
ATOM      2  C1  UNL d   1       1.382   0.412  -3.936  0.00  0.00    -0.074 A 
ATOM      3  C2  UNL d   1       0.957   1.055  -2.769  0.00  0.00    -0.005 A 
ATOM      4  C3  UNL d   1       1.884   1.664  -1.923  0.00  0.00     0.006 A 
ATOM      5  C4  UNL d   1       3.244   1.635  -2.235  0.00  0.00    -0.005 A 
ATOM      6  C5  UNL d   1       3.688   0.995  -3.397  0.00  0.00    -0.074 A 
ATOM      7  C6  UNL d   1       5.147   0.946  -3.741  0.00  0.00     0.077 C 
ATOM      8  C7  UNL d   1       2.751   0.380  -4.238  0.00  0.00    -0.001 A 
ENDROOT
TORSDOF 0
ENDMDL
