MODEL 1
REMARK minimizedAffinity 3.09573984
REMARK minimizedRMSD -1
REMARK  0 active torsions:
REMARK  status: ('A' for Active; 'I' for Inactive)
ROOT
ATOM      1  C   UNL d   1      -0.581  -0.485  -4.537  0.00  0.00     0.077 C 
ATOM      2  C1  UNL d   1       0.443   0.003  -3.556  0.00  0.00    -0.074 A 
ATOM      3  C2  UNL d   1       1.333   1.026  -3.895  0.00  0.00    -0.005 A 
ATOM      4  C3  UNL d   1       2.274   1.476  -2.969  0.00  0.00     0.006 A 
ATOM      5  C4  UNL d   1       2.334   0.908  -1.696  0.00  0.00    -0.005 A 
ATOM      6  C5  UNL d   1       1.451  -0.116  -1.338  0.00  0.00    -0.074 A 
ATOM      7  C6  UNL d   1       1.495  -0.731   0.029  0.00  0.00     0.077 C 
ATOM      8  C7  UNL d   1       0.504  -0.558  -2.272  0.00  0.00    -0.001 A 
ENDROOT
TORSDOF 0
ENDMDL
