MODEL 1
REMARK minimizedAffinity 4.37927532
REMARK minimizedRMSD -1
REMARK  0 active torsions:
REMARK  status: ('A' for Active; 'I' for Inactive)
ROOT
ATOM      1  C   UNL d   1      -2.765  -0.848   1.145  0.00  0.00     0.077 C 
ATOM      2  C1  UNL d   1      -1.555  -0.138   1.676  0.00  0.00    -0.074 A 
ATOM      3  C2  UNL d   1      -1.683   0.919   2.584  0.00  0.00    -0.005 A 
ATOM      4  C3  UNL d   1      -0.549   1.564   3.077  0.00  0.00     0.006 A 
ATOM      5  C4  UNL d   1       0.723   1.160   2.668  0.00  0.00    -0.005 A 
ATOM      6  C5  UNL d   1       0.870   0.105   1.761  0.00  0.00    -0.074 A 
ATOM      7  C6  UNL d   1       2.230  -0.348   1.319  0.00  0.00     0.077 C 
ATOM      8  C7  UNL d   1      -0.274  -0.543   1.276  0.00  0.00    -0.001 A 
ENDROOT
TORSDOF 0
ENDMDL
