MODEL 1
REMARK minimizedAffinity 0.624433756
REMARK minimizedRMSD -1
REMARK  0 active torsions:
REMARK  status: ('A' for Active; 'I' for Inactive)
ROOT
ATOM      1  C   UNL d   1       1.533  -0.965  -0.321  0.00  0.00     0.077 C 
ATOM      2  C1  UNL d   1       1.946  -0.475  -1.677  0.00  0.00    -0.074 A 
ATOM      3  C2  UNL d   1       3.295  -0.290  -1.995  0.00  0.00    -0.005 A 
ATOM      4  C3  UNL d   1       3.665   0.157  -3.263  0.00  0.00     0.006 A 
ATOM      5  C4  UNL d   1       2.690   0.424  -4.225  0.00  0.00    -0.005 A 
ATOM      6  C5  UNL d   1       1.336   0.244  -3.927  0.00  0.00    -0.074 A 
ATOM      7  C6  UNL d   1       0.276   0.517  -4.953  0.00  0.00     0.077 C 
ATOM      8  C7  UNL d   1       0.973  -0.212  -2.652  0.00  0.00    -0.001 A 
ENDROOT
TORSDOF 0
ENDMDL
