MODEL 1
REMARK minimizedAffinity -2.52447653
REMARK minimizedRMSD -1
REMARK  0 active torsions:
REMARK  status: ('A' for Active; 'I' for Inactive)
ROOT
ATOM      1  C   UNL d   1       4.916  -4.265  -4.054  0.00  0.00     0.078 C 
ATOM      2  C1  UNL d   1       4.288  -4.081  -2.705  0.00  0.00    -0.077 A 
ATOM      3  C2  UNL d   1       3.134  -3.303  -2.546  0.00  0.00    -0.001 A 
ATOM      4  C3  UNL d   1       2.566  -3.133  -1.283  0.00  0.00     0.003 A 
ATOM      5  C4  UNL d   1       3.145  -3.736  -0.168  0.00  0.00    -0.005 A 
ATOM      6  C5  UNL d   1       4.295  -4.510  -0.315  0.00  0.00     0.003 A 
ATOM      7  C6  UNL d   1       4.864  -4.681  -1.578  0.00  0.00    -0.001 A 
ENDROOT
TORSDOF 0
ENDMDL
