MODEL 1
REMARK minimizedAffinity -3.10470009
REMARK minimizedRMSD -1
REMARK  0 active torsions:
REMARK  status: ('A' for Active; 'I' for Inactive)
ROOT
ATOM      1  C   UNL d   1       2.172  -2.022  -0.524  0.00  0.00     0.078 C 
ATOM      2  C1  UNL d   1       2.796  -2.886  -1.580  0.00  0.00    -0.077 A 
ATOM      3  C2  UNL d   1       3.697  -3.902  -1.240  0.00  0.00    -0.001 A 
ATOM      4  C3  UNL d   1       4.277  -4.692  -2.233  0.00  0.00     0.003 A 
ATOM      5  C4  UNL d   1       3.964  -4.474  -3.573  0.00  0.00    -0.005 A 
ATOM      6  C5  UNL d   1       3.070  -3.463  -3.921  0.00  0.00     0.003 A 
ATOM      7  C6  UNL d   1       2.488  -2.672  -2.929  0.00  0.00    -0.001 A 
ENDROOT
TORSDOF 0
ENDMDL
