MODEL 1
REMARK minimizedAffinity -0.294231713
REMARK minimizedRMSD -1
REMARK  0 active torsions:
REMARK  status: ('A' for Active; 'I' for Inactive)
ROOT
ATOM      1  C   UNL d   1       3.112  -4.503  -4.405  0.00  0.00     0.078 C 
ATOM      2  C1  UNL d   1       3.430  -4.384  -2.944  0.00  0.00    -0.077 A 
ATOM      3  C2  UNL d   1       2.769  -3.452  -2.136  0.00  0.00    -0.001 A 
ATOM      4  C3  UNL d   1       3.081  -3.346  -0.780  0.00  0.00     0.003 A 
ATOM      5  C4  UNL d   1       4.057  -4.168  -0.220  0.00  0.00    -0.005 A 
ATOM      6  C5  UNL d   1       4.722  -5.097  -1.017  0.00  0.00     0.003 A 
ATOM      7  C6  UNL d   1       4.411  -5.205  -2.373  0.00  0.00    -0.001 A 
ENDROOT
TORSDOF 0
ENDMDL
