MODEL 1
REMARK minimizedAffinity 6.72751427
REMARK minimizedRMSD -1
REMARK  0 active torsions:
REMARK  status: ('A' for Active; 'I' for Inactive)
ROOT
ATOM      1  C   UNL d   1       4.429  -4.879  -0.300  0.00  0.00     0.078 C 
ATOM      2  C1  UNL d   1       3.578  -4.680  -1.519  0.00  0.00    -0.077 A 
ATOM      3  C2  UNL d   1       4.036  -5.056  -2.787  0.00  0.00    -0.001 A 
ATOM      4  C3  UNL d   1       3.237  -4.855  -3.914  0.00  0.00     0.003 A 
ATOM      5  C4  UNL d   1       1.975  -4.278  -3.783  0.00  0.00    -0.005 A 
ATOM      6  C5  UNL d   1       1.512  -3.898  -2.525  0.00  0.00     0.003 A 
ATOM      7  C6  UNL d   1       2.310  -4.098  -1.397  0.00  0.00    -0.001 A 
ENDROOT
TORSDOF 0
ENDMDL
