MODEL 1
REMARK minimizedAffinity -5.50601482
REMARK minimizedRMSD -1
REMARK  0 active torsions:
REMARK  status: ('A' for Active; 'I' for Inactive)
ROOT
ATOM      1  C   UNL d   1       3.763  -5.211  -3.542  0.00  0.00     0.078 C 
ATOM      2  C1  UNL d   1       3.466  -4.084  -2.598  0.00  0.00    -0.077 A 
ATOM      3  C2  UNL d   1       3.759  -4.190  -1.233  0.00  0.00    -0.001 A 
ATOM      4  C3  UNL d   1       3.469  -3.136  -0.365  0.00  0.00     0.003 A 
ATOM      5  C4  UNL d   1       2.883  -1.969  -0.851  0.00  0.00    -0.005 A 
ATOM      6  C5  UNL d   1       2.586  -1.855  -2.208  0.00  0.00     0.003 A 
ATOM      7  C6  UNL d   1       2.875  -2.908  -3.078  0.00  0.00    -0.001 A 
ENDROOT
TORSDOF 0
ENDMDL
