MODEL 1
REMARK minimizedAffinity 3.92816854
REMARK minimizedRMSD -1
REMARK  0 active torsions:
REMARK  status: ('A' for Active; 'I' for Inactive)
ROOT
ATOM      1  C   UNL d   1       3.690  -3.795  -0.085  0.00  0.00     0.078 C 
ATOM      2  C1  UNL d   1       3.712  -3.819  -1.584  0.00  0.00    -0.077 A 
ATOM      3  C2  UNL d   1       4.826  -4.299  -2.283  0.00  0.00    -0.001 A 
ATOM      4  C3  UNL d   1       4.836  -4.306  -3.678  0.00  0.00     0.003 A 
ATOM      5  C4  UNL d   1       3.734  -3.832  -4.388  0.00  0.00    -0.005 A 
ATOM      6  C5  UNL d   1       2.621  -3.351  -3.702  0.00  0.00     0.003 A 
ATOM      7  C6  UNL d   1       2.610  -3.343  -2.306  0.00  0.00    -0.001 A 
ENDROOT
TORSDOF 0
ENDMDL
