MODEL 1
REMARK minimizedAffinity 0.152187824
REMARK minimizedRMSD -1
REMARK  0 active torsions:
REMARK  status: ('A' for Active; 'I' for Inactive)
ROOT
ATOM      1  C   UNL d   1       2.350  -0.381  -1.876  0.00  0.00     0.078 C 
ATOM      2  C1  UNL d   1       2.758  -1.824  -1.895  0.00  0.00    -0.077 A 
ATOM      3  C2  UNL d   1       2.940  -2.506  -3.105  0.00  0.00    -0.001 A 
ATOM      4  C3  UNL d   1       3.312  -3.851  -3.107  0.00  0.00     0.003 A 
ATOM      5  C4  UNL d   1       3.503  -4.527  -1.903  0.00  0.00    -0.005 A 
ATOM      6  C5  UNL d   1       3.322  -3.857  -0.695  0.00  0.00     0.003 A 
ATOM      7  C6  UNL d   1       2.951  -2.511  -0.690  0.00  0.00    -0.001 A 
ENDROOT
TORSDOF 0
ENDMDL
