MODEL 1
REMARK minimizedAffinity 0.225315049
REMARK minimizedRMSD -1
REMARK  0 active torsions:
REMARK  status: ('A' for Active; 'I' for Inactive)
ROOT
ATOM      1  C   UNL d   1       3.811  -4.733   0.033  0.00  0.00     0.078 C 
ATOM      2  C1  UNL d   1       3.576  -4.476  -1.425  0.00  0.00    -0.077 A 
ATOM      3  C2  UNL d   1       4.605  -4.634  -2.361  0.00  0.00    -0.001 A 
ATOM      4  C3  UNL d   1       4.374  -4.382  -3.714  0.00  0.00     0.003 A 
ATOM      5  C4  UNL d   1       3.115  -3.969  -4.144  0.00  0.00    -0.005 A 
ATOM      6  C5  UNL d   1       2.085  -3.806  -3.220  0.00  0.00     0.003 A 
ATOM      7  C6  UNL d   1       2.314  -4.058  -1.866  0.00  0.00    -0.001 A 
ENDROOT
TORSDOF 0
ENDMDL
