MODEL 1
REMARK minimizedAffinity -4.18022776
REMARK minimizedRMSD -1
REMARK  0 active torsions:
REMARK  status: ('A' for Active; 'I' for Inactive)
ROOT
ATOM      1  C   UNL d   1       3.847  -4.468   0.083  0.00  0.00     0.078 C 
ATOM      2  C1  UNL d   1       3.730  -4.144  -1.376  0.00  0.00    -0.077 A 
ATOM      3  C2  UNL d   1       4.620  -4.689  -2.310  0.00  0.00    -0.001 A 
ATOM      4  C3  UNL d   1       4.505  -4.370  -3.664  0.00  0.00     0.003 A 
ATOM      5  C4  UNL d   1       3.502  -3.505  -4.097  0.00  0.00    -0.005 A 
ATOM      6  C5  UNL d   1       2.613  -2.956  -3.175  0.00  0.00     0.003 A 
ATOM      7  C6  UNL d   1       2.727  -3.273  -1.820  0.00  0.00    -0.001 A 
ENDROOT
TORSDOF 0
ENDMDL
