MODEL 1
REMARK minimizedAffinity -0.835508764
REMARK minimizedRMSD -1
REMARK  0 active torsions:
REMARK  status: ('A' for Active; 'I' for Inactive)
ROOT
ATOM      1  C   UNL d   1      -2.169   2.037   4.903  0.00  0.00     0.078 C 
ATOM      2  C1  UNL d   1      -1.534   0.680   4.977  0.00  0.00    -0.077 A 
ATOM      3  C2  UNL d   1      -0.566   0.389   5.946  0.00  0.00    -0.001 A 
ATOM      4  C3  UNL d   1       0.023  -0.876   5.997  0.00  0.00     0.003 A 
ATOM      5  C4  UNL d   1      -0.348  -1.858   5.082  0.00  0.00    -0.005 A 
ATOM      6  C5  UNL d   1      -1.309  -1.577   4.113  0.00  0.00     0.003 A 
ATOM      7  C6  UNL d   1      -1.900  -0.313   4.060  0.00  0.00    -0.001 A 
ENDROOT
TORSDOF 0
ENDMDL
