MODEL 1
REMARK minimizedAffinity -0.265296042
REMARK minimizedRMSD -1
REMARK  0 active torsions:
REMARK  status: ('A' for Active; 'I' for Inactive)
ROOT
ATOM      1  C   UNL d   1       1.259  -2.349  -0.083  0.00  0.00     0.078 C 
ATOM      2  C1  UNL d   1       0.059  -2.757   0.719  0.00  0.00    -0.077 A 
ATOM      3  C2  UNL d   1      -1.004  -3.448   0.127  0.00  0.00    -0.001 A 
ATOM      4  C3  UNL d   1      -2.119  -3.813   0.884  0.00  0.00     0.003 A 
ATOM      5  C4  UNL d   1      -2.181  -3.489   2.238  0.00  0.00    -0.005 A 
ATOM      6  C5  UNL d   1      -1.129  -2.799   2.836  0.00  0.00     0.003 A 
ATOM      7  C6  UNL d   1      -0.013  -2.434   2.080  0.00  0.00    -0.001 A 
ENDROOT
TORSDOF 0
ENDMDL
