MODEL 1
REMARK minimizedAffinity 4.71981764
REMARK minimizedRMSD -1
REMARK  0 active torsions:
REMARK  status: ('A' for Active; 'I' for Inactive)
ROOT
ATOM      1  C   UNL d   1      -2.994  -4.145  -5.694  0.00  0.00     0.078 C 
ATOM      2  C1  UNL d   1      -2.655  -4.173  -4.233  0.00  0.00    -0.077 A 
ATOM      3  C2  UNL d   1      -1.889  -5.212  -3.691  0.00  0.00    -0.001 A 
ATOM      4  C3  UNL d   1      -1.589  -5.230  -2.328  0.00  0.00     0.003 A 
ATOM      5  C4  UNL d   1      -2.053  -4.213  -1.495  0.00  0.00    -0.005 A 
ATOM      6  C5  UNL d   1      -2.818  -3.177  -2.026  0.00  0.00     0.003 A 
ATOM      7  C6  UNL d   1      -3.118  -3.156  -3.389  0.00  0.00    -0.001 A 
ENDROOT
TORSDOF 0
ENDMDL
