MODEL 1
REMARK minimizedAffinity -0.880770683
REMARK minimizedRMSD -1
REMARK  0 active torsions:
REMARK  status: ('A' for Active; 'I' for Inactive)
ROOT
ATOM      1  C   UNL d   1      -2.761   2.402   2.325  0.00  0.00     0.078 C 
ATOM      2  C1  UNL d   1      -1.930   1.658   3.327  0.00  0.00    -0.077 A 
ATOM      3  C2  UNL d   1      -0.605   1.304   3.044  0.00  0.00    -0.001 A 
ATOM      4  C3  UNL d   1       0.153   0.602   3.983  0.00  0.00     0.003 A 
ATOM      5  C4  UNL d   1      -0.405   0.247   5.209  0.00  0.00    -0.005 A 
ATOM      6  C5  UNL d   1      -1.723   0.593   5.499  0.00  0.00     0.003 A 
ATOM      7  C6  UNL d   1      -2.483   1.295   4.561  0.00  0.00    -0.001 A 
ENDROOT
TORSDOF 0
ENDMDL
