MODEL 1
REMARK minimizedAffinity 2.87834978
REMARK minimizedRMSD -1
REMARK  0 active torsions:
REMARK  status: ('A' for Active; 'I' for Inactive)
ROOT
ATOM      1  C   UNL d   1       1.495   2.533  -2.425  0.00  0.00     0.078 C 
ATOM      2  C1  UNL d   1       1.595   3.671  -1.454  0.00  0.00    -0.077 A 
ATOM      3  C2  UNL d   1       1.967   4.952  -1.880  0.00  0.00    -0.001 A 
ATOM      4  C3  UNL d   1       2.065   6.000  -0.964  0.00  0.00     0.003 A 
ATOM      5  C4  UNL d   1       1.795   5.778   0.385  0.00  0.00    -0.005 A 
ATOM      6  C5  UNL d   1       1.427   4.506   0.819  0.00  0.00     0.003 A 
ATOM      7  C6  UNL d   1       1.328   3.457  -0.096  0.00  0.00    -0.001 A 
ENDROOT
TORSDOF 0
ENDMDL
