MODEL 1
REMARK minimizedAffinity -0.0690329224
REMARK minimizedRMSD -1
REMARK  0 active torsions:
REMARK  status: ('A' for Active; 'I' for Inactive)
ROOT
ATOM      1  C   UNL d   1      -1.103  -2.003   3.755  0.00  0.00     0.078 C 
ATOM      2  C1  UNL d   1      -2.233  -1.100   3.362  0.00  0.00    -0.077 A 
ATOM      3  C2  UNL d   1      -2.124   0.290   3.489  0.00  0.00    -0.001 A 
ATOM      4  C3  UNL d   1      -3.188   1.118   3.129  0.00  0.00     0.003 A 
ATOM      5  C4  UNL d   1      -4.369   0.566   2.639  0.00  0.00    -0.005 A 
ATOM      6  C5  UNL d   1      -4.489  -0.817   2.511  0.00  0.00     0.003 A 
ATOM      7  C6  UNL d   1      -3.426  -1.646   2.871  0.00  0.00    -0.001 A 
ENDROOT
TORSDOF 0
ENDMDL
