MODEL 1
REMARK minimizedAffinity -0.953581989
REMARK minimizedRMSD -1
REMARK  0 active torsions:
REMARK  status: ('A' for Active; 'I' for Inactive)
ROOT
ATOM      1  C   UNL d   1       1.925   1.417  -2.333  0.00  0.00     0.078 C 
ATOM      2  C1  UNL d   1       1.811   2.670  -1.517  0.00  0.00    -0.077 A 
ATOM      3  C2  UNL d   1       2.202   3.909  -2.040  0.00  0.00    -0.001 A 
ATOM      4  C3  UNL d   1       2.100   5.066  -1.266  0.00  0.00     0.003 A 
ATOM      5  C4  UNL d   1       1.608   4.996   0.036  0.00  0.00    -0.005 A 
ATOM      6  C5  UNL d   1       1.219   3.767   0.565  0.00  0.00     0.003 A 
ATOM      7  C6  UNL d   1       1.320   2.609  -0.207  0.00  0.00    -0.001 A 
ENDROOT
TORSDOF 0
ENDMDL
