MODEL 1
REMARK minimizedAffinity 0.134018153
REMARK minimizedRMSD -1
REMARK  0 active torsions:
REMARK  status: ('A' for Active; 'I' for Inactive)
ROOT
ATOM      1  C   UNL d   1       1.866   5.527  -0.760  0.00  0.00     0.078 C 
ATOM      2  C1  UNL d   1       1.561   4.262  -1.505  0.00  0.00    -0.077 A 
ATOM      3  C2  UNL d   1       2.233   3.070  -1.208  0.00  0.00    -0.001 A 
ATOM      4  C3  UNL d   1       1.946   1.902  -1.916  0.00  0.00     0.003 A 
ATOM      5  C4  UNL d   1       0.987   1.915  -2.927  0.00  0.00    -0.005 A 
ATOM      6  C5  UNL d   1       0.315   3.096  -3.232  0.00  0.00     0.003 A 
ATOM      7  C6  UNL d   1       0.601   4.265  -2.525  0.00  0.00    -0.001 A 
ENDROOT
TORSDOF 0
ENDMDL
