MODEL 1
REMARK minimizedAffinity 7.06480646
REMARK minimizedRMSD -1
REMARK  0 active torsions:
REMARK  status: ('A' for Active; 'I' for Inactive)
ROOT
ATOM      1  C   UNL d   1      -1.383  -4.674  -1.130  0.00  0.00     0.078 C 
ATOM      2  C1  UNL d   1      -1.546  -4.124  -2.515  0.00  0.00    -0.077 A 
ATOM      3  C2  UNL d   1      -2.231  -2.923  -2.738  0.00  0.00    -0.001 A 
ATOM      4  C3  UNL d   1      -2.384  -2.427  -4.034  0.00  0.00     0.003 A 
ATOM      5  C4  UNL d   1      -1.855  -3.126  -5.117  0.00  0.00    -0.005 A 
ATOM      6  C5  UNL d   1      -1.174  -4.323  -4.906  0.00  0.00     0.003 A 
ATOM      7  C6  UNL d   1      -1.020  -4.820  -3.611  0.00  0.00    -0.001 A 
ENDROOT
TORSDOF 0
ENDMDL
