MODEL 1
REMARK minimizedAffinity 2.79301667
REMARK minimizedRMSD -1
REMARK  0 active torsions:
REMARK  status: ('A' for Active; 'I' for Inactive)
ROOT
ATOM      1  C   UNL d   1      -0.181  -1.225   2.570  0.00  0.00     0.124 A 
ATOM      2  C1  UNL d   1      -0.804  -0.726   1.435  0.00  0.00     0.062 A 
ATOM      3  C2  UNL d   1      -0.044  -0.216   0.386  0.00  0.00     0.162 A 
ATOM      4  C3  UNL d   1       1.349  -0.203   0.467  0.00  0.00    -0.034 A 
ATOM      5  C4  UNL d   1       1.968  -0.706   1.613  0.00  0.00     0.162 A 
ATOM      6  C5  UNL d   1       1.204  -1.215   2.658  0.00  0.00     0.062 A 
ATOM      7  F   UNL d   1       1.808  -1.697   3.754  0.00  0.00    -0.097 F 
ATOM      8  F1  UNL d   1       3.305  -0.709   1.724  0.00  0.00    -0.096 F 
ATOM      9  I   UNL d   1       2.489   0.559  -1.098  0.00  0.00    -0.060 I 
ATOM     10  F2  UNL d   1      -0.673   0.260  -0.699  0.00  0.00    -0.096 F 
ATOM     11  F3  UNL d   1      -2.142  -0.734   1.347  0.00  0.00    -0.097 F 
ATOM     12  F4  UNL d   1      -0.914  -1.715   3.578  0.00  0.00    -0.092 F 
ENDROOT
TORSDOF 0
ENDMDL
