MODEL 1
REMARK minimizedAffinity 6.70571327
REMARK minimizedRMSD -1
REMARK  0 active torsions:
REMARK  status: ('A' for Active; 'I' for Inactive)
ROOT
ATOM      1  C   UNL d   1      -0.172  -1.475   2.502  0.00  0.00     0.124 A 
ATOM      2  C1  UNL d   1      -0.773  -0.897   1.393  0.00  0.00     0.062 A 
ATOM      3  C2  UNL d   1       0.002  -0.244   0.439  0.00  0.00     0.162 A 
ATOM      4  C3  UNL d   1       1.386  -0.166   0.589  0.00  0.00    -0.034 A 
ATOM      5  C4  UNL d   1       1.983  -0.749   1.708  0.00  0.00     0.162 A 
ATOM      6  C5  UNL d   1       1.204  -1.401   2.659  0.00  0.00     0.062 A 
ATOM      7  F   UNL d   1       1.786  -1.960   3.730  0.00  0.00    -0.097 F 
ATOM      8  F1  UNL d   1       3.311  -0.693   1.884  0.00  0.00    -0.096 F 
ATOM      9  I   UNL d   1       2.548   0.810  -0.835  0.00  0.00    -0.060 I 
ATOM     10  F2  UNL d   1      -0.606   0.306  -0.624  0.00  0.00    -0.096 F 
ATOM     11  F3  UNL d   1      -2.103  -0.966   1.240  0.00  0.00    -0.097 F 
ATOM     12  F4  UNL d   1      -0.920  -2.103   3.419  0.00  0.00    -0.092 F 
ENDROOT
TORSDOF 0
ENDMDL
