MODEL 1
REMARK minimizedAffinity -4.3353529
REMARK minimizedRMSD -1
REMARK  0 active torsions:
REMARK  status: ('A' for Active; 'I' for Inactive)
ROOT
ATOM      1  C   UNL d   1       0.342  -1.142  -0.989  0.00  0.00     0.124 A 
ATOM      2  C1  UNL d   1      -0.553  -0.656  -0.045  0.00  0.00     0.062 A 
ATOM      3  C2  UNL d   1      -0.195  -0.608   1.299  0.00  0.00     0.162 A 
ATOM      4  C3  UNL d   1       1.064  -1.047   1.708  0.00  0.00    -0.034 A 
ATOM      5  C4  UNL d   1       1.958  -1.535   0.753  0.00  0.00     0.162 A 
ATOM      6  C5  UNL d   1       1.596  -1.581  -0.589  0.00  0.00     0.062 A 
ATOM      7  F   UNL d   1       2.461  -2.051  -1.499  0.00  0.00    -0.097 F 
ATOM      8  F1  UNL d   1       3.177  -1.965   1.112  0.00  0.00    -0.096 F 
ATOM      9  I   UNL d   1       1.604  -0.977   3.717  0.00  0.00    -0.060 I 
ATOM     10  F2  UNL d   1      -1.079  -0.134   2.189  0.00  0.00    -0.096 F 
ATOM     11  F3  UNL d   1      -1.766  -0.232  -0.429  0.00  0.00    -0.097 F 
ATOM     12  F4  UNL d   1      -0.006  -1.188  -2.281  0.00  0.00    -0.092 F 
ENDROOT
TORSDOF 0
ENDMDL
