MODEL 1
REMARK minimizedAffinity 0.295104593
REMARK minimizedRMSD -1
REMARK  0 active torsions:
REMARK  status: ('A' for Active; 'I' for Inactive)
ROOT
ATOM      1  C   UNL d   1       0.760  -1.478   1.403  0.00  0.00     0.124 A 
ATOM      2  C1  UNL d   1      -0.093  -0.444   1.765  0.00  0.00     0.062 A 
ATOM      3  C2  UNL d   1      -0.460   0.520   0.831  0.00  0.00     0.162 A 
ATOM      4  C3  UNL d   1       0.026   0.456  -0.475  0.00  0.00    -0.034 A 
ATOM      5  C4  UNL d   1       0.885  -0.585  -0.831  0.00  0.00     0.162 A 
ATOM      6  C5  UNL d   1       1.248  -1.547   0.106  0.00  0.00     0.062 A 
ATOM      7  F   UNL d   1       2.073  -2.544  -0.246  0.00  0.00    -0.097 F 
ATOM      8  F1  UNL d   1       1.371  -0.677  -2.078  0.00  0.00    -0.096 F 
ATOM      9  I   UNL d   1      -0.519   1.897  -1.874  0.00  0.00    -0.060 I 
ATOM     10  F2  UNL d   1      -1.286   1.507   1.209  0.00  0.00    -0.096 F 
ATOM     11  F3  UNL d   1      -0.565  -0.375   3.018  0.00  0.00    -0.097 F 
ATOM     12  F4  UNL d   1       1.112  -2.404   2.304  0.00  0.00    -0.092 F 
ENDROOT
TORSDOF 0
ENDMDL
