MODEL 1
REMARK minimizedAffinity -1.01675045
REMARK minimizedRMSD -1
REMARK  0 active torsions:
REMARK  status: ('A' for Active; 'I' for Inactive)
ROOT
ATOM      1  C   UNL d   1       0.848  -1.153   1.909  0.00  0.00     0.124 A 
ATOM      2  C1  UNL d   1      -0.520  -0.925   1.966  0.00  0.00     0.062 A 
ATOM      3  C2  UNL d   1      -1.165  -0.266   0.924  0.00  0.00     0.162 A 
ATOM      4  C3  UNL d   1      -0.442   0.170  -0.187  0.00  0.00    -0.034 A 
ATOM      5  C4  UNL d   1       0.933  -0.061  -0.237  0.00  0.00     0.162 A 
ATOM      6  C5  UNL d   1       1.573  -0.721   0.807  0.00  0.00     0.062 A 
ATOM      7  F   UNL d   1       2.895  -0.939   0.749  0.00  0.00    -0.097 F 
ATOM      8  F1  UNL d   1       1.658   0.345  -1.290  0.00  0.00    -0.096 F 
ATOM      9  I   UNL d   1      -1.403   1.156  -1.748  0.00  0.00    -0.060 I 
ATOM     10  F2  UNL d   1      -2.488  -0.060   1.007  0.00  0.00    -0.096 F 
ATOM     11  F3  UNL d   1      -1.223  -1.341   3.030  0.00  0.00    -0.097 F 
ATOM     12  F4  UNL d   1       1.466  -1.786   2.914  0.00  0.00    -0.092 F 
ENDROOT
TORSDOF 0
ENDMDL
