MODEL 1
REMARK minimizedAffinity 5.98915291
REMARK minimizedRMSD -1
REMARK  0 active torsions:
REMARK  status: ('A' for Active; 'I' for Inactive)
ROOT
ATOM      1  C   UNL d   1       1.099  -1.856   1.652  0.00  0.00     0.124 A 
ATOM      2  C1  UNL d   1       0.050  -1.040   2.051  0.00  0.00     0.062 A 
ATOM      3  C2  UNL d   1      -0.445  -0.064   1.191  0.00  0.00     0.162 A 
ATOM      4  C3  UNL d   1       0.109   0.101  -0.078  0.00  0.00    -0.034 A 
ATOM      5  C4  UNL d   1       1.164  -0.723  -0.473  0.00  0.00     0.162 A 
ATOM      6  C5  UNL d   1       1.655  -1.697   0.390  0.00  0.00     0.062 A 
ATOM      7  F   UNL d   1       2.668  -2.485   0.002  0.00  0.00    -0.097 F 
ATOM      8  F1  UNL d   1       1.719  -0.591  -1.687  0.00  0.00    -0.096 F 
ATOM      9  I   UNL d   1      -0.628   1.560  -1.367  0.00  0.00    -0.060 I 
ATOM     10  F2  UNL d   1      -1.459   0.711   1.604  0.00  0.00    -0.096 F 
ATOM     11  F3  UNL d   1      -0.489  -1.191   3.270  0.00  0.00    -0.097 F 
ATOM     12  F4  UNL d   1       1.573  -2.794   2.481  0.00  0.00    -0.092 F 
ENDROOT
TORSDOF 0
ENDMDL
