MODEL 1
REMARK minimizedAffinity 0.993410349
REMARK minimizedRMSD -1
REMARK  0 active torsions:
REMARK  status: ('A' for Active; 'I' for Inactive)
ROOT
ATOM      1  C   UNL d   1       1.061  -1.623   1.545  0.00  0.00     0.124 A 
ATOM      2  C1  UNL d   1      -0.009  -0.818   1.910  0.00  0.00     0.062 A 
ATOM      3  C2  UNL d   1      -0.651  -0.033   0.957  0.00  0.00     0.162 A 
ATOM      4  C3  UNL d   1      -0.225  -0.048  -0.371  0.00  0.00    -0.034 A 
ATOM      5  C4  UNL d   1       0.854  -0.859  -0.730  0.00  0.00     0.162 A 
ATOM      6  C5  UNL d   1       1.492  -1.643   0.226  0.00  0.00     0.062 A 
ATOM      7  F   UNL d   1       2.526  -2.419  -0.128  0.00  0.00    -0.097 F 
ATOM      8  F1  UNL d   1       1.289  -0.898  -1.998  0.00  0.00    -0.096 F 
ATOM      9  I   UNL d   1      -1.181   1.125  -1.799  0.00  0.00    -0.060 I 
ATOM     10  F2  UNL d   1      -1.683   0.735   1.338  0.00  0.00    -0.096 F 
ATOM     11  F3  UNL d   1      -0.427  -0.797   3.184  0.00  0.00    -0.097 F 
ATOM     12  F4  UNL d   1       1.677  -2.377   2.464  0.00  0.00    -0.092 F 
ENDROOT
TORSDOF 0
ENDMDL
