MODEL 1
REMARK minimizedAffinity -4.83827448
REMARK minimizedRMSD -1
REMARK  0 active torsions:
REMARK  status: ('A' for Active; 'I' for Inactive)
ROOT
ATOM      1  C   UNL d   1       1.755  -1.940   1.527  0.00  0.00     0.124 A 
ATOM      2  C1  UNL d   1       0.763  -1.063   1.941  0.00  0.00     0.062 A 
ATOM      3  C2  UNL d   1       0.033  -0.338   1.004  0.00  0.00     0.162 A 
ATOM      4  C3  UNL d   1       0.292  -0.488  -0.359  0.00  0.00    -0.034 A 
ATOM      5  C4  UNL d   1       1.293  -1.372  -0.768  0.00  0.00     0.162 A 
ATOM      6  C5  UNL d   1       2.019  -2.094   0.173  0.00  0.00     0.062 A 
ATOM      7  F   UNL d   1       2.978  -2.941  -0.229  0.00  0.00    -0.097 F 
ATOM      8  F1  UNL d   1       1.568  -1.540  -2.070  0.00  0.00    -0.096 F 
ATOM      9  I   UNL d   1      -0.797   0.594  -1.764  0.00  0.00    -0.060 I 
ATOM     10  F2  UNL d   1      -0.920   0.503   1.433  0.00  0.00    -0.096 F 
ATOM     11  F3  UNL d   1       0.507  -0.911   3.249  0.00  0.00    -0.097 F 
ATOM     12  F4  UNL d   1       2.457  -2.635   2.432  0.00  0.00    -0.092 F 
ENDROOT
TORSDOF 0
ENDMDL
