MODEL 1
REMARK minimizedAffinity 1.0695951
REMARK minimizedRMSD -1
REMARK  0 active torsions:
REMARK  status: ('A' for Active; 'I' for Inactive)
ROOT
ATOM      1  C   UNL d   1       1.228  -1.533   1.676  0.00  0.00     0.124 A 
ATOM      2  C1  UNL d   1       1.651  -1.578   0.355  0.00  0.00     0.062 A 
ATOM      3  C2  UNL d   1       0.990  -0.832  -0.617  0.00  0.00     0.162 A 
ATOM      4  C3  UNL d   1      -0.100  -0.034  -0.271  0.00  0.00    -0.034 A 
ATOM      5  C4  UNL d   1      -0.520   0.005   1.060  0.00  0.00     0.162 A 
ATOM      6  C5  UNL d   1       0.143  -0.742   2.027  0.00  0.00     0.062 A 
ATOM      7  F   UNL d   1      -0.267  -0.698   3.303  0.00  0.00    -0.097 F 
ATOM      8  F1  UNL d   1      -1.565   0.762   1.427  0.00  0.00    -0.096 F 
ATOM      9  I   UNL d   1      -1.090   1.083  -1.721  0.00  0.00    -0.060 I 
ATOM     10  F2  UNL d   1       1.421  -0.894  -1.886  0.00  0.00    -0.096 F 
ATOM     11  F3  UNL d   1       2.698  -2.342   0.013  0.00  0.00    -0.097 F 
ATOM     12  F4  UNL d   1       1.864  -2.253   2.609  0.00  0.00    -0.092 F 
ENDROOT
TORSDOF 0
ENDMDL
