MODEL 1
REMARK minimizedAffinity -2.48449159
REMARK minimizedRMSD -1
REMARK  0 active torsions:
REMARK  status: ('A' for Active; 'I' for Inactive)
ROOT
ATOM      1  C   UNL d   1      -0.491  -1.297  -1.168  0.00  0.00     0.124 A 
ATOM      2  C1  UNL d   1       0.896  -1.337  -1.141  0.00  0.00     0.062 A 
ATOM      3  C2  UNL d   1       1.582  -1.044   0.033  0.00  0.00     0.162 A 
ATOM      4  C3  UNL d   1       0.882  -0.708   1.192  0.00  0.00    -0.034 A 
ATOM      5  C4  UNL d   1      -0.513  -0.668   1.157  0.00  0.00     0.162 A 
ATOM      6  C5  UNL d   1      -1.194  -0.962  -0.020  0.00  0.00     0.062 A 
ATOM      7  F   UNL d   1      -2.534  -0.923  -0.044  0.00  0.00    -0.097 F 
ATOM      8  F1  UNL d   1      -1.217  -0.349   2.253  0.00  0.00    -0.096 F 
ATOM      9  I   UNL d   1       1.904  -0.269   2.951  0.00  0.00    -0.060 I 
ATOM     10  F2  UNL d   1       2.923  -1.091   0.030  0.00  0.00    -0.096 F 
ATOM     11  F3  UNL d   1       1.578  -1.659  -2.250  0.00  0.00    -0.097 F 
ATOM     12  F4  UNL d   1      -1.149  -1.578  -2.300  0.00  0.00    -0.092 F 
ENDROOT
TORSDOF 0
ENDMDL
