MODEL 1
REMARK minimizedAffinity 13.8188515
REMARK minimizedRMSD -1
REMARK  0 active torsions:
REMARK  status: ('A' for Active; 'I' for Inactive)
ROOT
ATOM      1  N1  IND d   1       3.928   0.163  -2.351  0.00  0.00    -0.196 N 
ATOM      2  C2  IND d   1       3.904   1.242  -3.190  0.00  0.00     0.054 A 
ATOM      3  C3  IND d   1       3.217   2.261  -2.626  0.00  0.00    -0.031 A 
ATOM      4  C4  IND d   1       2.135   2.412  -0.295  0.00  0.00     0.051 A 
ATOM      5  C5  IND d   1       1.864   1.665   0.817  0.00  0.00    -0.031 A 
ATOM      6  C6  IND d   1       2.279   0.354   0.934  0.00  0.00     0.015 A 
ATOM      7  C7  IND d   1       2.992  -0.259  -0.057  0.00  0.00    -0.016 A 
ATOM      8  C8  IND d   1       3.262   0.494  -1.191  0.00  0.00    -0.047 A 
ATOM      9  C9  IND d   1       2.808   1.812  -1.333  0.00  0.00    -0.096 A 
ATOM     10  HN1 IND d   1       4.297  -0.596  -2.519  0.00  0.00     0.298 HD
ENDROOT
TORSDOF 0
ENDMDL
