MODEL 1
REMARK minimizedAffinity 11.4879675
REMARK minimizedRMSD -1
REMARK  0 active torsions:
REMARK  status: ('A' for Active; 'I' for Inactive)
ROOT
ATOM      1  N1  IND d   1       1.176   3.932   0.704  0.00  0.00    -0.196 N 
ATOM      2  C2  IND d   1       0.076   3.991   1.513  0.00  0.00     0.054 A 
ATOM      3  C3  IND d   1      -0.070   2.831   2.193  0.00  0.00    -0.031 A 
ATOM      4  C4  IND d   1       1.434   0.742   2.206  0.00  0.00     0.051 A 
ATOM      5  C5  IND d   1       2.534   0.203   1.601  0.00  0.00    -0.031 A 
ATOM      6  C6  IND d   1       3.255   0.895   0.648  0.00  0.00     0.015 A 
ATOM      7  C7  IND d   1       2.906   2.161   0.272  0.00  0.00    -0.016 A 
ATOM      8  C8  IND d   1       1.785   2.709   0.879  0.00  0.00    -0.047 A 
ATOM      9  C9  IND d   1       1.025   1.996   1.816  0.00  0.00    -0.096 A 
ATOM     10  HN1 IND d   1       1.443   4.554   0.173  0.00  0.00     0.298 HD
ENDROOT
TORSDOF 0
ENDMDL
