MODEL 1
REMARK minimizedAffinity 10.1007261
REMARK minimizedRMSD -1
REMARK  0 active torsions:
REMARK  status: ('A' for Active; 'I' for Inactive)
ROOT
ATOM      1  N1  IND d   1      -1.334  -2.983  -5.976  0.00  0.00    -0.196 N 
ATOM      2  C2  IND d   1      -2.126  -4.097  -5.961  0.00  0.00     0.054 A 
ATOM      3  C3  IND d   1      -1.366  -5.215  -5.967  0.00  0.00    -0.031 A 
ATOM      4  C4  IND d   1       1.197  -5.450  -5.900  0.00  0.00     0.051 A 
ATOM      5  C5  IND d   1       2.348  -4.714  -5.941  0.00  0.00    -0.031 A 
ATOM      6  C6  IND d   1       2.330  -3.335  -5.994  0.00  0.00     0.015 A 
ATOM      7  C7  IND d   1       1.155  -2.638  -5.996  0.00  0.00    -0.016 A 
ATOM      8  C8  IND d   1      -0.015  -3.382  -5.962  0.00  0.00    -0.047 A 
ATOM      9  C9  IND d   1      -0.004  -4.783  -5.951  0.00  0.00    -0.096 A 
ATOM     10  HN1 IND d   1      -1.612  -2.169  -5.991  0.00  0.00     0.298 HD
ENDROOT
TORSDOF 0
ENDMDL
