MODEL 1
REMARK minimizedAffinity 17.4946918
REMARK minimizedRMSD -1
REMARK  0 active torsions:
REMARK  status: ('A' for Active; 'I' for Inactive)
ROOT
ATOM      1  N1  IND d   1      -0.179   2.339   2.921  0.00  0.00    -0.196 N 
ATOM      2  C2  IND d   1      -0.352   3.441   2.131  0.00  0.00     0.054 A 
ATOM      3  C3  IND d   1       0.613   3.497   1.186  0.00  0.00    -0.031 A 
ATOM      4  C4  IND d   1       2.515   1.835   0.688  0.00  0.00     0.051 A 
ATOM      5  C5  IND d   1       3.101   0.696   1.163  0.00  0.00    -0.031 A 
ATOM      6  C6  IND d   1       2.612   0.030   2.269  0.00  0.00     0.015 A 
ATOM      7  C7  IND d   1       1.507   0.476   2.937  0.00  0.00    -0.016 A 
ATOM      8  C8  IND d   1       0.914   1.637   2.462  0.00  0.00    -0.047 A 
ATOM      9  C9  IND d   1       1.430   2.340   1.366  0.00  0.00    -0.096 A 
ATOM     10  HN1 IND d   1      -0.670   2.121   3.593  0.00  0.00     0.298 HD
ENDROOT
TORSDOF 0
ENDMDL
