MODEL 1
REMARK minimizedAffinity -0.392731458
REMARK minimizedRMSD -1
REMARK  0 active torsions:
REMARK  status: ('A' for Active; 'I' for Inactive)
ROOT
ATOM      1  N1  IND d   1       5.942   1.323   0.114  0.00  0.00    -0.196 N 
ATOM      2  C2  IND d   1       5.977   2.558  -0.471  0.00  0.00     0.054 A 
ATOM      3  C3  IND d   1       4.754   3.133  -0.429  0.00  0.00    -0.031 A 
ATOM      4  C4  IND d   1       2.578   2.271   0.642  0.00  0.00     0.051 A 
ATOM      5  C5  IND d   1       2.042   1.178   1.263  0.00  0.00    -0.031 A 
ATOM      6  C6  IND d   1       2.795   0.055   1.541  0.00  0.00     0.015 A 
ATOM      7  C7  IND d   1       4.121  -0.012   1.217  0.00  0.00    -0.016 A 
ATOM      8  C8  IND d   1       4.666   1.094   0.580  0.00  0.00    -0.047 A 
ATOM      9  C9  IND d   1       3.896   2.219   0.257  0.00  0.00    -0.096 A 
ATOM     10  HN1 IND d   1       6.606   0.780   0.180  0.00  0.00     0.298 HD
ENDROOT
TORSDOF 0
ENDMDL
