MODEL 1
REMARK minimizedAffinity 7.02811193
REMARK minimizedRMSD -1
REMARK  0 active torsions:
REMARK  status: ('A' for Active; 'I' for Inactive)
ROOT
ATOM      1  N1  IND d   1      -2.498  -2.317  -2.402  0.00  0.00    -0.196 N 
ATOM      2  C2  IND d   1      -3.767  -2.802  -2.558  0.00  0.00     0.054 A 
ATOM      3  C3  IND d   1      -4.222  -3.314  -1.392  0.00  0.00    -0.031 A 
ATOM      4  C4  IND d   1      -3.092  -3.369   0.920  0.00  0.00     0.051 A 
ATOM      5  C5  IND d   1      -1.915  -3.078   1.552  0.00  0.00    -0.031 A 
ATOM      6  C6  IND d   1      -0.852  -2.505   0.884  0.00  0.00     0.015 A 
ATOM      7  C7  IND d   1      -0.931  -2.189  -0.443  0.00  0.00    -0.016 A 
ATOM      8  C8  IND d   1      -2.122  -2.489  -1.088  0.00  0.00    -0.047 A 
ATOM      9  C9  IND d   1      -3.189  -3.110  -0.426  0.00  0.00    -0.096 A 
ATOM     10  HN1 IND d   1      -2.017  -1.964  -3.021  0.00  0.00     0.298 HD
ENDROOT
TORSDOF 0
ENDMDL
