MODEL 1
REMARK minimizedAffinity 9.22114086
REMARK minimizedRMSD -1
REMARK  0 active torsions:
REMARK  status: ('A' for Active; 'I' for Inactive)
ROOT
ATOM      1  N1  IND d   1      -3.534  -2.249  -2.273  0.00  0.00    -0.196 N 
ATOM      2  C2  IND d   1      -2.256  -2.520  -1.870  0.00  0.00     0.054 A 
ATOM      3  C3  IND d   1      -2.110  -3.842  -1.629  0.00  0.00    -0.031 A 
ATOM      4  C4  IND d   1      -3.804  -5.757  -1.929  0.00  0.00     0.051 A 
ATOM      5  C5  IND d   1      -5.112  -5.999  -2.240  0.00  0.00    -0.031 A 
ATOM      6  C6  IND d   1      -5.979  -4.983  -2.588  0.00  0.00     0.015 A 
ATOM      7  C7  IND d   1      -5.564  -3.682  -2.649  0.00  0.00    -0.016 A 
ATOM      8  C8  IND d   1      -4.237  -3.432  -2.326  0.00  0.00    -0.047 A 
ATOM      9  C9  IND d   1      -3.365  -4.454  -1.931  0.00  0.00    -0.096 A 
ATOM     10  HN1 IND d   1      -3.847  -1.470  -2.461  0.00  0.00     0.298 HD
ENDROOT
TORSDOF 0
ENDMDL
