MODEL 1
REMARK minimizedAffinity 3.83769011
REMARK minimizedRMSD -1
REMARK  0 active torsions:
REMARK  status: ('A' for Active; 'I' for Inactive)
ROOT
ATOM      1  N1  IND d   1       5.947   4.003   4.966  0.00  0.00    -0.196 N 
ATOM      2  C2  IND d   1       5.795   5.048   5.834  0.00  0.00     0.054 A 
ATOM      3  C3  IND d   1       4.999   5.998   5.292  0.00  0.00    -0.031 A 
ATOM      4  C4  IND d   1       3.756   5.999   3.038  0.00  0.00     0.051 A 
ATOM      5  C5  IND d   1       3.615   5.278   1.885  0.00  0.00    -0.031 A 
ATOM      6  C6  IND d   1       4.255   4.070   1.698  0.00  0.00     0.015 A 
ATOM      7  C7  IND d   1       5.054   3.530   2.665  0.00  0.00    -0.016 A 
ATOM      8  C8  IND d   1       5.205   4.262   3.834  0.00  0.00    -0.047 A 
ATOM      9  C9  IND d   1       4.592   5.509   4.013  0.00  0.00    -0.096 A 
ATOM     10  HN1 IND d   1       6.425   3.302   5.103  0.00  0.00     0.298 HD
ENDROOT
TORSDOF 0
ENDMDL
