MODEL 1
REMARK minimizedAffinity 14.6843557
REMARK minimizedRMSD -1
REMARK  0 active torsions:
REMARK  status: ('A' for Active; 'I' for Inactive)
ROOT
ATOM      1  N1  IND d   1      -4.081   4.055   5.240  0.00  0.00    -0.196 N 
ATOM      2  C2  IND d   1      -4.557   5.091   5.995  0.00  0.00     0.054 A 
ATOM      3  C3  IND d   1      -5.316   5.915   5.237  0.00  0.00    -0.031 A 
ATOM      4  C4  IND d   1      -5.994   5.700   2.763  0.00  0.00     0.051 A 
ATOM      5  C5  IND d   1      -5.775   4.940   1.648  0.00  0.00    -0.031 A 
ATOM      6  C6  IND d   1      -4.967   3.822   1.675  0.00  0.00     0.015 A 
ATOM      7  C7  IND d   1      -4.353   3.414   2.825  0.00  0.00    -0.016 A 
ATOM      8  C8  IND d   1      -4.567   4.187   3.958  0.00  0.00    -0.047 A 
ATOM      9  C9  IND d   1      -5.352   5.347   3.927  0.00  0.00    -0.096 A 
ATOM     10  HN1 IND d   1      -3.566   3.426   5.519  0.00  0.00     0.298 HD
ENDROOT
TORSDOF 0
ENDMDL
