MODEL 1
REMARK minimizedAffinity 16.0525188
REMARK minimizedRMSD -1
REMARK  0 active torsions:
REMARK  status: ('A' for Active; 'I' for Inactive)
ROOT
ATOM      1  N1  IND d   1      -4.631   2.758   2.657  0.00  0.00    -0.196 N 
ATOM      2  C2  IND d   1      -3.792   2.058   3.479  0.00  0.00     0.054 A 
ATOM      3  C3  IND d   1      -3.588   2.736   4.630  0.00  0.00    -0.031 A 
ATOM      4  C4  IND d   1      -4.608   4.964   5.420  0.00  0.00     0.051 A 
ATOM      5  C5  IND d   1      -5.402   5.994   5.000  0.00  0.00    -0.031 A 
ATOM      6  C6  IND d   1      -5.994   5.997   3.753  0.00  0.00     0.015 A 
ATOM      7  C7  IND d   1      -5.822   4.960   2.881  0.00  0.00    -0.016 A 
ATOM      8  C8  IND d   1      -5.011   3.916   3.301  0.00  0.00    -0.047 A 
ATOM      9  C9  IND d   1      -4.373   3.927   4.548  0.00  0.00    -0.096 A 
ATOM     10  HN1 IND d   1      -4.880   2.517   1.870  0.00  0.00     0.298 HD
ENDROOT
TORSDOF 0
ENDMDL
