MODEL 1
REMARK minimizedAffinity 15.8720999
REMARK minimizedRMSD -1
REMARK  0 active torsions:
REMARK  status: ('A' for Active; 'I' for Inactive)
ROOT
ATOM      1  N1  IND d   1      -3.850  -2.203  -3.021  0.00  0.00    -0.196 N 
ATOM      2  C2  IND d   1      -2.540  -2.258  -2.632  0.00  0.00     0.054 A 
ATOM      3  C3  IND d   1      -2.248  -3.480  -2.133  0.00  0.00    -0.031 A 
ATOM      4  C4  IND d   1      -3.738  -5.572  -1.953  0.00  0.00     0.051 A 
ATOM      5  C5  IND d   1      -5.021  -6.000  -2.146  0.00  0.00    -0.031 A 
ATOM      6  C6  IND d   1      -5.999  -5.169  -2.654  0.00  0.00     0.015 A 
ATOM      7  C7  IND d   1      -5.725  -3.876  -2.999  0.00  0.00    -0.016 A 
ATOM      8  C8  IND d   1      -4.425  -3.435  -2.798  0.00  0.00    -0.047 A 
ATOM      9  C9  IND d   1      -3.439  -4.261  -2.244  0.00  0.00    -0.096 A 
ATOM     10  HN1 IND d   1      -4.247  -1.516  -3.350  0.00  0.00     0.298 HD
ENDROOT
TORSDOF 0
ENDMDL
