MODEL 1
REMARK minimizedAffinity 9.66880703
REMARK minimizedRMSD -1
REMARK  0 active torsions:
REMARK  status: ('A' for Active; 'I' for Inactive)
ROOT
ATOM      1  N1  IND d   1      -3.960  -5.855   0.381  0.00  0.00    -0.196 N 
ATOM      2  C2  IND d   1      -5.249  -5.999   0.812  0.00  0.00     0.054 A 
ATOM      3  C3  IND d   1      -6.000  -4.949   0.411  0.00  0.00    -0.031 A 
ATOM      4  C4  IND d   1      -5.343  -2.931  -1.047  0.00  0.00     0.051 A 
ATOM      5  C5  IND d   1      -4.267  -2.342  -1.649  0.00  0.00    -0.031 A 
ATOM      6  C6  IND d   1      -3.008  -2.907  -1.607  0.00  0.00     0.015 A 
ATOM      7  C7  IND d   1      -2.781  -4.093  -0.967  0.00  0.00    -0.016 A 
ATOM      8  C8  IND d   1      -3.870  -4.690  -0.349  0.00  0.00    -0.047 A 
ATOM      9  C9  IND d   1      -5.140  -4.100  -0.352  0.00  0.00    -0.096 A 
ATOM     10  HN1 IND d   1      -3.314  -6.399   0.540  0.00  0.00     0.298 HD
ENDROOT
TORSDOF 0
ENDMDL
