MODEL 1
REMARK minimizedAffinity 13.7927923
REMARK minimizedRMSD -1
REMARK  0 active torsions:
REMARK  status: ('A' for Active; 'I' for Inactive)
ROOT
ATOM      1  N1  IND d   1       2.113  -4.127  -2.632  0.00  0.00    -0.196 N 
ATOM      2  C2  IND d   1       1.173  -4.770  -1.877  0.00  0.00     0.054 A 
ATOM      3  C3  IND d   1       0.001  -4.843  -2.546  0.00  0.00    -0.031 A 
ATOM      4  C4  IND d   1      -0.570  -4.064  -4.933  0.00  0.00     0.051 A 
ATOM      5  C5  IND d   1      -0.047  -3.389  -6.000  0.00  0.00    -0.031 A 
ATOM      6  C6  IND d   1       1.250  -2.919  -6.000  0.00  0.00     0.015 A 
ATOM      7  C7  IND d   1       2.080  -3.117  -4.933  0.00  0.00    -0.016 A 
ATOM      8  C8  IND d   1       1.550  -3.795  -3.845  0.00  0.00    -0.047 A 
ATOM      9  C9  IND d   1       0.221  -4.238  -3.822  0.00  0.00    -0.096 A 
ATOM     10  HN1 IND d   1       2.921  -3.959  -2.391  0.00  0.00     0.298 HD
ENDROOT
TORSDOF 0
ENDMDL
