MODEL 1
REMARK minimizedAffinity 10.2231474
REMARK minimizedRMSD -1
REMARK  0 active torsions:
REMARK  status: ('A' for Active; 'I' for Inactive)
ROOT
ATOM      1  N1  IND d   1      -1.654   2.633   2.033  0.00  0.00    -0.196 N 
ATOM      2  C2  IND d   1      -2.743   2.040   2.609  0.00  0.00     0.054 A 
ATOM      3  C3  IND d   1      -2.461   0.759   2.940  0.00  0.00    -0.031 A 
ATOM      4  C4  IND d   1      -0.248  -0.537   2.720  0.00  0.00     0.051 A 
ATOM      5  C5  IND d   1       1.019  -0.429   2.220  0.00  0.00    -0.031 A 
ATOM      6  C6  IND d   1       1.470   0.730   1.622  0.00  0.00     0.015 A 
ATOM      7  C7  IND d   1       0.671   1.833   1.512  0.00  0.00    -0.016 A 
ATOM      8  C8  IND d   1      -0.619   1.724   2.013  0.00  0.00    -0.047 A 
ATOM      9  C9  IND d   1      -1.096   0.536   2.582  0.00  0.00    -0.096 A 
ATOM     10  HN1 IND d   1      -1.621   3.438   1.734  0.00  0.00     0.298 HD
ENDROOT
TORSDOF 0
ENDMDL
