MODEL 1
REMARK minimizedAffinity 0.791391134
REMARK minimizedRMSD -1
REMARK  0 active torsions:
REMARK  status: ('A' for Active; 'I' for Inactive)
ROOT
ATOM      1  N1  IND d   1       0.409   2.208   2.241  0.00  0.00    -0.196 N 
ATOM      2  C2  IND d   1       1.314   1.258   1.860  0.00  0.00     0.054 A 
ATOM      3  C3  IND d   1       0.726   0.041   1.810  0.00  0.00    -0.031 A 
ATOM      4  C4  IND d   1      -1.733  -0.604   2.214  0.00  0.00     0.051 A 
ATOM      5  C5  IND d   1      -2.930  -0.086   2.622  0.00  0.00    -0.031 A 
ATOM      6  C6  IND d   1      -3.079   1.252   2.926  0.00  0.00     0.015 A 
ATOM      7  C7  IND d   1      -2.034   2.127   2.824  0.00  0.00    -0.016 A 
ATOM      8  C8  IND d   1      -0.816   1.602   2.417  0.00  0.00    -0.047 A 
ATOM      9  C9  IND d   1      -0.648   0.238   2.148  0.00  0.00    -0.096 A 
ATOM     10  HN1 IND d   1       0.576   3.044   2.352  0.00  0.00     0.298 HD
ENDROOT
TORSDOF 0
ENDMDL
