MODEL 1
REMARK minimizedAffinity 11.1871176
REMARK minimizedRMSD -1
REMARK  0 active torsions:
REMARK  status: ('A' for Active; 'I' for Inactive)
ROOT
ATOM      1  N1  IND d   1      -4.089   2.989   4.128  0.00  0.00    -0.196 N 
ATOM      2  C2  IND d   1      -4.918   2.086   4.732  0.00  0.00     0.054 A 
ATOM      3  C3  IND d   1      -4.624   0.831   4.323  0.00  0.00    -0.031 A 
ATOM      4  C4  IND d   1      -2.757   0.020   2.747  0.00  0.00     0.051 A 
ATOM      5  C5  IND d   1      -1.769   0.479   1.921  0.00  0.00    -0.031 A 
ATOM      6  C6  IND d   1      -1.497   1.826   1.788  0.00  0.00     0.015 A 
ATOM      7  C7  IND d   1      -2.198   2.766   2.488  0.00  0.00    -0.016 A 
ATOM      8  C8  IND d   1      -3.207   2.304   3.322  0.00  0.00    -0.047 A 
ATOM      9  C9  IND d   1      -3.516   0.942   3.429  0.00  0.00    -0.096 A 
ATOM     10  HN1 IND d   1      -4.115   3.842   4.234  0.00  0.00     0.298 HD
ENDROOT
TORSDOF 0
ENDMDL
