MODEL 1
REMARK minimizedAffinity 1.09863818
REMARK minimizedRMSD -1
REMARK  0 active torsions:
REMARK  status: ('A' for Active; 'I' for Inactive)
ROOT
ATOM      1  N1  IND d   1      -5.608  -3.679  -5.191  0.00  0.00    -0.196 N 
ATOM      2  C2  IND d   1      -4.525  -3.914  -5.991  0.00  0.00     0.054 A 
ATOM      3  C3  IND d   1      -3.385  -3.563  -5.355  0.00  0.00    -0.031 A 
ATOM      4  C4  IND d   1      -3.055  -2.678  -2.960  0.00  0.00     0.051 A 
ATOM      5  C5  IND d   1      -3.751  -2.266  -1.859  0.00  0.00    -0.031 A 
ATOM      6  C6  IND d   1      -5.130  -2.307  -1.810  0.00  0.00     0.015 A 
ATOM      7  C7  IND d   1      -5.866  -2.775  -2.861  0.00  0.00    -0.016 A 
ATOM      8  C8  IND d   1      -5.163  -3.188  -3.984  0.00  0.00    -0.047 A 
ATOM      9  C9  IND d   1      -3.766  -3.109  -4.055  0.00  0.00    -0.096 A 
ATOM     10  HN1 IND d   1      -6.429  -3.816  -5.406  0.00  0.00     0.298 HD
ENDROOT
TORSDOF 0
ENDMDL
