MODEL 1
REMARK minimizedAffinity 2.70038915
REMARK minimizedRMSD -1
REMARK  0 active torsions:
REMARK  status: ('A' for Active; 'I' for Inactive)
ROOT
ATOM      1  N1  IND d   1      -1.462  -0.628   2.494  0.00  0.00    -0.196 N 
ATOM      2  C2  IND d   1      -2.568   0.172   2.429  0.00  0.00     0.054 A 
ATOM      3  C3  IND d   1      -2.204   1.468   2.306  0.00  0.00    -0.031 A 
ATOM      4  C4  IND d   1       0.147   2.493   2.091  0.00  0.00     0.051 A 
ATOM      5  C5  IND d   1       1.473   2.165   2.133  0.00  0.00    -0.031 A 
ATOM      6  C6  IND d   1       1.897   0.863   2.298  0.00  0.00     0.015 A 
ATOM      7  C7  IND d   1       1.007  -0.167   2.416  0.00  0.00    -0.016 A 
ATOM      8  C8  IND d   1      -0.341   0.164   2.381  0.00  0.00    -0.047 A 
ATOM      9  C9  IND d   1      -0.777   1.489   2.256  0.00  0.00    -0.096 A 
ATOM     10  HN1 IND d   1      -1.466  -1.483   2.589  0.00  0.00     0.298 HD
ENDROOT
TORSDOF 0
ENDMDL
