MODEL 1
REMARK minimizedAffinity -4.94435883
REMARK minimizedRMSD -1
REMARK  1 active torsions:
REMARK  status: ('A' for Active; 'I' for Inactive)
REMARK    1  A    between atoms: C1_2  and  C2_3 
ROOT
ATOM      1  C2  UNL d   1      -0.550   0.125   0.535  0.00  0.00    -0.076 A 
ATOM      2  C3  UNL d   1       0.700   0.035   1.171  0.00  0.00     0.004 A 
ATOM      3  C4  UNL d   1       0.791  -0.177   2.546  0.00  0.00    -0.003 A 
ATOM      4  C5  UNL d   1      -0.366  -0.304   3.306  0.00  0.00     0.000 A 
ATOM      5  C6  UNL d   1      -1.614  -0.236   2.689  0.00  0.00     0.000 A 
ATOM      6  C7  UNL d   1      -1.724  -0.038   1.301  0.00  0.00    -0.073 A 
ATOM      7  C8  UNL d   1      -3.096   0.033   0.689  0.00  0.00     0.078 C 
ENDROOT
BRANCH   1   8
ATOM      8  C1  UNL d   1      -0.588   0.383  -0.955  0.00  0.00     0.053 C 
ATOM      9  C   UNL d   1       0.580  -0.259  -1.687  0.00  0.00     0.018 C 
ENDBRANCH   1   8
TORSDOF 1
ENDMDL
