MODEL 1
REMARK minimizedAffinity -4.50656509
REMARK minimizedRMSD -1
REMARK  1 active torsions:
REMARK  status: ('A' for Active; 'I' for Inactive)
REMARK    1  A    between atoms: C1_2  and  C2_3 
ROOT
ATOM      1  C2  UNL d   1      -0.888  -0.084   0.956  0.00  0.00    -0.076 A 
ATOM      2  C3  UNL d   1      -2.081   0.052   0.226  0.00  0.00     0.004 A 
ATOM      3  C4  UNL d   1      -3.299   0.253   0.872  0.00  0.00    -0.003 A 
ATOM      4  C5  UNL d   1      -3.344   0.321   2.260  0.00  0.00     0.000 A 
ATOM      5  C6  UNL d   1      -2.168   0.206   3.000  0.00  0.00     0.000 A 
ATOM      6  C7  UNL d   1      -0.929   0.019   2.363  0.00  0.00    -0.073 A 
ATOM      7  C8  UNL d   1       0.307  -0.105   3.211  0.00  0.00     0.078 C 
ENDROOT
BRANCH   1   8
ATOM      8  C1  UNL d   1       0.400  -0.327   0.202  0.00  0.00     0.053 C 
ATOM      9  C   UNL d   1       0.312   0.104  -1.254  0.00  0.00     0.018 C 
ENDBRANCH   1   8
TORSDOF 1
ENDMDL
