MODEL 1
REMARK minimizedAffinity -5.54954433
REMARK minimizedRMSD -1
REMARK  1 active torsions:
REMARK  status: ('A' for Active; 'I' for Inactive)
REMARK    1  A    between atoms: C1_2  and  C2_3 
ROOT
ATOM      1  C2  UNL d   1      -0.809  -0.259   0.293  0.00  0.00    -0.076 A 
ATOM      2  C3  UNL d   1      -2.183  -0.280   0.589  0.00  0.00     0.004 A 
ATOM      3  C4  UNL d   1      -2.635  -0.201   1.905  0.00  0.00    -0.003 A 
ATOM      4  C5  UNL d   1      -1.720  -0.100   2.947  0.00  0.00     0.000 A 
ATOM      5  C6  UNL d   1      -0.353  -0.060   2.671  0.00  0.00     0.000 A 
ATOM      6  C7  UNL d   1       0.118  -0.122   1.348  0.00  0.00    -0.073 A 
ATOM      7  C8  UNL d   1       1.602  -0.081   1.108  0.00  0.00     0.078 C 
ENDROOT
BRANCH   1   8
ATOM      8  C1  UNL d   1      -0.378  -0.375  -1.151  0.00  0.00     0.053 C 
ATOM      9  C   UNL d   1      -0.075   0.976  -1.779  0.00  0.00     0.018 C 
ENDBRANCH   1   8
TORSDOF 1
ENDMDL
