MODEL 1
REMARK minimizedAffinity -3.95768547
REMARK minimizedRMSD -1
REMARK  1 active torsions:
REMARK  status: ('A' for Active; 'I' for Inactive)
REMARK    1  A    between atoms: C1_2  and  C2_3 
ROOT
ATOM      1  C2  UNL d   1       0.137   0.206  -0.256  0.00  0.00    -0.076 A 
ATOM      2  C3  UNL d   1      -1.143  -0.245   0.110  0.00  0.00     0.004 A 
ATOM      3  C4  UNL d   1      -1.428  -0.603   1.427  0.00  0.00    -0.003 A 
ATOM      4  C5  UNL d   1      -0.437  -0.516   2.398  0.00  0.00     0.000 A 
ATOM      5  C6  UNL d   1       0.833  -0.054   2.056  0.00  0.00     0.000 A 
ATOM      6  C7  UNL d   1       1.132   0.327   0.737  0.00  0.00    -0.073 A 
ATOM      7  C8  UNL d   1       2.520   0.813   0.422  0.00  0.00     0.078 C 
ENDROOT
BRANCH   1   8
ATOM      8  C1  UNL d   1       0.394   0.555  -1.705  0.00  0.00     0.053 C 
ATOM      9  C   UNL d   1       0.714  -0.668  -2.551  0.00  0.00     0.018 C 
ENDBRANCH   1   8
TORSDOF 1
ENDMDL
