MODEL 1
REMARK minimizedAffinity -5.14979076
REMARK minimizedRMSD -1
REMARK  1 active torsions:
REMARK  status: ('A' for Active; 'I' for Inactive)
REMARK    1  A    between atoms: C1_2  and  C2_3 
ROOT
ATOM      1  C2  UNL d   1      -0.780   0.227   1.808  0.00  0.00    -0.076 A 
ATOM      2  C3  UNL d   1      -2.181   0.303   1.719  0.00  0.00     0.004 A 
ATOM      3  C4  UNL d   1      -2.805   0.678   0.530  0.00  0.00    -0.003 A 
ATOM      4  C5  UNL d   1      -2.039   0.983  -0.589  0.00  0.00     0.000 A 
ATOM      5  C6  UNL d   1      -0.649   0.896  -0.524  0.00  0.00     0.000 A 
ATOM      6  C7  UNL d   1      -0.004   0.504   0.662  0.00  0.00    -0.073 A 
ATOM      7  C8  UNL d   1       1.498   0.433   0.678  0.00  0.00     0.078 C 
ENDROOT
BRANCH   1   8
ATOM      8  C1  UNL d   1      -0.158  -0.159   3.131  0.00  0.00     0.053 C 
ATOM      9  C   UNL d   1      -0.991  -1.181   3.890  0.00  0.00     0.018 C 
ENDBRANCH   1   8
TORSDOF 1
ENDMDL
