MODEL 1
REMARK minimizedAffinity -5.36919069
REMARK minimizedRMSD -1
REMARK  1 active torsions:
REMARK  status: ('A' for Active; 'I' for Inactive)
REMARK    1  A    between atoms: C1_2  and  C2_3 
ROOT
ATOM      1  C2  UNL d   1      -0.827  -0.322   0.843  0.00  0.00    -0.076 A 
ATOM      2  C3  UNL d   1      -0.091  -0.689   1.983  0.00  0.00     0.004 A 
ATOM      3  C4  UNL d   1      -0.656  -0.622   3.255  0.00  0.00    -0.003 A 
ATOM      4  C5  UNL d   1      -1.968  -0.187   3.408  0.00  0.00     0.000 A 
ATOM      5  C6  UNL d   1      -2.719   0.164   2.287  0.00  0.00     0.000 A 
ATOM      6  C7  UNL d   1      -2.169   0.086   0.996  0.00  0.00    -0.073 A 
ATOM      7  C8  UNL d   1      -3.023   0.484  -0.177  0.00  0.00     0.078 C 
ENDROOT
BRANCH   1   8
ATOM      8  C1  UNL d   1      -0.152  -0.390  -0.508  0.00  0.00     0.053 C 
ATOM      9  C   UNL d   1       0.504   0.926  -0.898  0.00  0.00     0.018 C 
ENDBRANCH   1   8
TORSDOF 1
ENDMDL
