MODEL 1
REMARK minimizedAffinity -2.48102164
REMARK minimizedRMSD -1
REMARK  1 active torsions:
REMARK  status: ('A' for Active; 'I' for Inactive)
REMARK    1  A    between atoms: C1_2  and  C2_3 
ROOT
ATOM      1  C2  UNL d   1       0.825   0.172  -1.530  0.00  0.00    -0.076 A 
ATOM      2  C3  UNL d   1       1.928   0.003  -0.676  0.00  0.00     0.004 A 
ATOM      3  C4  UNL d   1       1.795   0.149   0.704  0.00  0.00    -0.003 A 
ATOM      4  C5  UNL d   1       0.557   0.467   1.252  0.00  0.00     0.000 A 
ATOM      5  C6  UNL d   1      -0.552   0.621   0.420  0.00  0.00     0.000 A 
ATOM      6  C7  UNL d   1      -0.439   0.461  -0.971  0.00  0.00    -0.073 A 
ATOM      7  C8  UNL d   1      -1.666   0.644  -1.821  0.00  0.00     0.078 C 
ENDROOT
BRANCH   1   8
ATOM      8  C1  UNL d   1       1.034   0.027  -3.021  0.00  0.00     0.053 C 
ATOM      9  C   UNL d   1       0.932  -1.417  -3.486  0.00  0.00     0.018 C 
ENDBRANCH   1   8
TORSDOF 1
ENDMDL
