MODEL 1
REMARK minimizedAffinity -6.04299688
REMARK minimizedRMSD -1
REMARK  1 active torsions:
REMARK  status: ('A' for Active; 'I' for Inactive)
REMARK    1  A    between atoms: C1_2  and  C2_3 
ROOT
ATOM      1  C2  UNL d   1      -0.581   0.276   0.572  0.00  0.00    -0.076 A 
ATOM      2  C3  UNL d   1      -1.928   0.046   0.904  0.00  0.00     0.004 A 
ATOM      3  C4  UNL d   1      -2.333  -0.044   2.235  0.00  0.00    -0.003 A 
ATOM      4  C5  UNL d   1      -1.399   0.094   3.255  0.00  0.00     0.000 A 
ATOM      5  C6  UNL d   1      -0.062   0.339   2.944  0.00  0.00     0.000 A 
ATOM      6  C7  UNL d   1       0.361   0.450   1.608  0.00  0.00    -0.073 A 
ATOM      7  C8  UNL d   1       1.816   0.709   1.331  0.00  0.00     0.078 C 
ENDROOT
BRANCH   1   8
ATOM      8  C1  UNL d   1      -0.196   0.337  -0.889  0.00  0.00     0.053 C 
ATOM      9  C   UNL d   1      -0.970   1.401  -1.651  0.00  0.00     0.018 C 
ENDBRANCH   1   8
TORSDOF 1
ENDMDL
