MODEL 1
REMARK minimizedAffinity -4.46112823
REMARK minimizedRMSD -1
REMARK  1 active torsions:
REMARK  status: ('A' for Active; 'I' for Inactive)
REMARK    1  A    between atoms: C1_2  and  C2_3 
ROOT
ATOM      1  C2  UNL d   1       0.009   0.013   1.561  0.00  0.00    -0.076 A 
ATOM      2  C3  UNL d   1      -0.843   0.118   2.674  0.00  0.00     0.004 A 
ATOM      3  C4  UNL d   1      -2.207   0.359   2.514  0.00  0.00    -0.003 A 
ATOM      4  C5  UNL d   1      -2.741   0.497   1.238  0.00  0.00     0.000 A 
ATOM      5  C6  UNL d   1      -1.913   0.379   0.122  0.00  0.00     0.000 A 
ATOM      6  C7  UNL d   1      -0.539   0.120   0.265  0.00  0.00    -0.073 A 
ATOM      7  C8  UNL d   1       0.307   0.008  -0.973  0.00  0.00     0.078 C 
ENDROOT
BRANCH   1   8
ATOM      8  C1  UNL d   1       1.484  -0.221   1.797  0.00  0.00     0.053 C 
ATOM      9  C   UNL d   1       2.332   0.988   1.434  0.00  0.00     0.018 C 
ENDBRANCH   1   8
TORSDOF 1
ENDMDL
