MODEL 1
REMARK minimizedAffinity -5.38085365
REMARK minimizedRMSD -1
REMARK  1 active torsions:
REMARK  status: ('A' for Active; 'I' for Inactive)
REMARK    1  A    between atoms: C1_2  and  C2_3 
ROOT
ATOM      1  C2  UNL d   1      -0.680   0.009   0.887  0.00  0.00    -0.076 A 
ATOM      2  C3  UNL d   1      -1.983   0.361   0.496  0.00  0.00     0.004 A 
ATOM      3  C4  UNL d   1      -3.056   0.229   1.375  0.00  0.00    -0.003 A 
ATOM      4  C5  UNL d   1      -2.843  -0.258   2.660  0.00  0.00     0.000 A 
ATOM      5  C6  UNL d   1      -1.554  -0.596   3.071  0.00  0.00     0.000 A 
ATOM      6  C7  UNL d   1      -0.459  -0.453   2.202  0.00  0.00    -0.073 A 
ATOM      7  C8  UNL d   1       0.909  -0.839   2.695  0.00  0.00     0.078 C 
ENDROOT
BRANCH   1   8
ATOM      8  C1  UNL d   1       0.441   0.148  -0.119  0.00  0.00     0.053 C 
ATOM      9  C   UNL d   1      -0.066   0.210  -1.551  0.00  0.00     0.018 C 
ENDBRANCH   1   8
TORSDOF 1
ENDMDL
