MODEL 1
REMARK minimizedAffinity -6.02669621
REMARK minimizedRMSD -1
REMARK  1 active torsions:
REMARK  status: ('A' for Active; 'I' for Inactive)
REMARK    1  A    between atoms: C1_2  and  C2_3 
ROOT
ATOM      1  C2  UNL d   1      -1.145  -0.003   0.795  0.00  0.00    -0.076 A 
ATOM      2  C3  UNL d   1       0.070  -0.340   1.418  0.00  0.00     0.004 A 
ATOM      3  C4  UNL d   1       0.121  -0.634   2.779  0.00  0.00    -0.003 A 
ATOM      4  C5  UNL d   1      -1.042  -0.596   3.541  0.00  0.00     0.000 A 
ATOM      5  C6  UNL d   1      -2.258  -0.280   2.936  0.00  0.00     0.000 A 
ATOM      6  C7  UNL d   1      -2.330   0.003   1.561  0.00  0.00    -0.073 A 
ATOM      7  C8  UNL d   1      -3.667   0.343   0.963  0.00  0.00     0.078 C 
ENDROOT
BRANCH   1   8
ATOM      8  C1  UNL d   1      -1.134   0.333  -0.679  0.00  0.00     0.053 C 
ATOM      9  C   UNL d   1       0.266   0.307  -1.273  0.00  0.00     0.018 C 
ENDBRANCH   1   8
TORSDOF 1
ENDMDL
