MODEL 1
REMARK minimizedAffinity -2.42891312
REMARK minimizedRMSD -1
REMARK  1 active torsions:
REMARK  status: ('A' for Active; 'I' for Inactive)
REMARK    1  A    between atoms: C1_2  and  C2_3 
ROOT
ATOM      1  C2  UNL d   1      -0.640   0.499   0.944  0.00  0.00    -0.076 A 
ATOM      2  C3  UNL d   1      -0.282   0.518   2.304  0.00  0.00     0.004 A 
ATOM      3  C4  UNL d   1       1.043   0.346   2.699  0.00  0.00    -0.003 A 
ATOM      4  C5  UNL d   1       2.033   0.154   1.741  0.00  0.00     0.000 A 
ATOM      5  C6  UNL d   1       1.698   0.151   0.387  0.00  0.00     0.000 A 
ATOM      6  C7  UNL d   1       0.369   0.339  -0.029  0.00  0.00    -0.073 A 
ATOM      7  C8  UNL d   1       0.064   0.320  -1.502  0.00  0.00     0.078 C 
ENDROOT
BRANCH   1   8
ATOM      8  C1  UNL d   1      -2.098   0.664   0.577  0.00  0.00     0.053 C 
ATOM      9  C   UNL d   1      -2.964   1.021   1.775  0.00  0.00     0.018 C 
ENDBRANCH   1   8
TORSDOF 1
ENDMDL
