MODEL 1
REMARK minimizedAffinity -5.25257158
REMARK minimizedRMSD -1
REMARK  3 active torsions:
REMARK  status: ('A' for Active; 'I' for Inactive)
REMARK    1  A    between atoms: C3'_2  and  C2'_3 
REMARK    2  A    between atoms: C2'_3  and  C1'_4 
REMARK    3  A    between atoms: C1'_4  and  C1_5 
ROOT
ATOM      1  C1  N4B d   1      -0.108   0.140   0.222  0.00  0.00    -0.075 A 
ATOM      2  C2  N4B d   1      -1.489   0.125   0.516  0.00  0.00     0.002 A 
ATOM      3  C3  N4B d   1      -1.973   0.850   1.577  0.00  0.00     0.002 A 
ATOM      4  C4  N4B d   1      -1.096   1.579   2.366  0.00  0.00    -0.004 A 
ATOM      5  C5  N4B d   1       0.233   1.608   2.060  0.00  0.00     0.002 A 
ATOM      6  C6  N4B d   1       0.733   0.888   0.994  0.00  0.00     0.002 A 
ENDROOT
BRANCH   1   7
ATOM      7  C1' N4B d   1       0.480  -0.705  -0.875  0.00  0.00     0.057 C 
BRANCH   7   8
ATOM      8  C2' N4B d   1      -0.022  -0.195  -2.223  0.00  0.00     0.009 C 
BRANCH   8   9
ATOM      9  C3' N4B d   1       1.058   0.552  -2.986  0.00  0.00     0.004 C 
ATOM     10  C4' N4B d   1       0.594   1.035  -4.327  0.00  0.00     0.003 C 
ENDBRANCH   8   9
ENDBRANCH   7   8
ENDBRANCH   1   7
TORSDOF 3
ENDMDL
