MODEL 1
REMARK minimizedAffinity -4.51340294
REMARK minimizedRMSD -1
REMARK  3 active torsions:
REMARK  status: ('A' for Active; 'I' for Inactive)
REMARK    1  A    between atoms: C3'_2  and  C2'_3 
REMARK    2  A    between atoms: C2'_3  and  C1'_4 
REMARK    3  A    between atoms: C1'_4  and  C1_5 
ROOT
ATOM      1  C1  N4B d   1      -0.861   0.318   0.473  0.00  0.00    -0.075 A 
ATOM      2  C2  N4B d   1       0.113   1.166   1.045  0.00  0.00     0.002 A 
ATOM      3  C3  N4B d   1      -0.006   1.562   2.354  0.00  0.00     0.002 A 
ATOM      4  C4  N4B d   1      -1.095   1.141   3.103  0.00  0.00    -0.004 A 
ATOM      5  C5  N4B d   1      -2.018   0.302   2.551  0.00  0.00     0.002 A 
ATOM      6  C6  N4B d   1      -1.909  -0.108   1.237  0.00  0.00     0.002 A 
ENDROOT
BRANCH   1   7
ATOM      7  C1' N4B d   1      -0.820  -0.074  -0.978  0.00  0.00     0.057 C 
BRANCH   7   8
ATOM      8  C2' N4B d   1       0.630  -0.096  -1.450  0.00  0.00     0.009 C 
BRANCH   8   9
ATOM      9  C3' N4B d   1       0.741  -0.399  -2.935  0.00  0.00     0.004 C 
ATOM     10  C4' N4B d   1       1.775   0.440  -3.623  0.00  0.00     0.003 C 
ENDBRANCH   8   9
ENDBRANCH   7   8
ENDBRANCH   1   7
TORSDOF 3
ENDMDL
