MODEL 1
REMARK minimizedAffinity -4.94083118
REMARK minimizedRMSD -1
REMARK  3 active torsions:
REMARK  status: ('A' for Active; 'I' for Inactive)
REMARK    1  A    between atoms: C3'_2  and  C2'_3 
REMARK    2  A    between atoms: C2'_3  and  C1'_4 
REMARK    3  A    between atoms: C1'_4  and  C1_5 
ROOT
ATOM      1  C1  N4B d   1      -0.257   0.340  -0.099  0.00  0.00    -0.075 A 
ATOM      2  C2  N4B d   1       0.806   0.576   0.800  0.00  0.00     0.002 A 
ATOM      3  C3  N4B d   1       0.540   0.933   2.100  0.00  0.00     0.002 A 
ATOM      4  C4  N4B d   1      -0.775   1.079   2.515  0.00  0.00    -0.004 A 
ATOM      5  C5  N4B d   1      -1.796   0.824   1.648  0.00  0.00     0.002 A 
ATOM      6  C6  N4B d   1      -1.544   0.461   0.340  0.00  0.00     0.002 A 
ENDROOT
BRANCH   1   7
ATOM      7  C1' N4B d   1      -0.015   0.031  -1.551  0.00  0.00     0.057 C 
BRANCH   7   8
ATOM      8  C2' N4B d   1       0.925   1.081  -2.137  0.00  0.00     0.009 C 
BRANCH   8   9
ATOM      9  C3' N4B d   1       0.942   1.044  -3.655  0.00  0.00     0.004 C 
ATOM     10  C4' N4B d   1       0.276  -0.177  -4.214  0.00  0.00     0.003 C 
ENDBRANCH   8   9
ENDBRANCH   7   8
ENDBRANCH   1   7
TORSDOF 3
ENDMDL
