MODEL 1
REMARK minimizedAffinity -5.41348743
REMARK minimizedRMSD -1
REMARK  3 active torsions:
REMARK  status: ('A' for Active; 'I' for Inactive)
REMARK    1  A    between atoms: C3'_2  and  C2'_3 
REMARK    2  A    between atoms: C2'_3  and  C1'_4 
REMARK    3  A    between atoms: C1'_4  and  C1_5 
ROOT
ATOM      1  C1  N4B d   1       0.231  -0.337   0.598  0.00  0.00    -0.075 A 
ATOM      2  C2  N4B d   1      -1.004   0.329   0.759  0.00  0.00     0.002 A 
ATOM      3  C3  N4B d   1      -1.405   0.737   2.007  0.00  0.00     0.002 A 
ATOM      4  C4  N4B d   1      -0.602   0.474   3.106  0.00  0.00    -0.004 A 
ATOM      5  C5  N4B d   1       0.601  -0.147   2.938  0.00  0.00     0.002 A 
ATOM      6  C6  N4B d   1       1.019  -0.559   1.689  0.00  0.00     0.002 A 
ENDROOT
BRANCH   1   7
ATOM      7  C1' N4B d   1       0.673  -0.879  -0.735  0.00  0.00     0.057 C 
BRANCH   7   8
ATOM      8  C2' N4B d   1       0.726   0.263  -1.746  0.00  0.00     0.009 C 
BRANCH   8   9
ATOM      9  C3' N4B d   1       0.678  -0.244  -3.177  0.00  0.00     0.004 C 
ATOM     10  C4' N4B d   1       1.092   0.796  -4.176  0.00  0.00     0.003 C 
ENDBRANCH   8   9
ENDBRANCH   7   8
ENDBRANCH   1   7
TORSDOF 3
ENDMDL
