MODEL 1
REMARK minimizedAffinity -5.76611853
REMARK minimizedRMSD -1
REMARK  2 active torsions:
REMARK  status: ('A' for Active; 'I' for Inactive)
REMARK    1  A    between atoms: C1_2  and  C2_3 
REMARK    2  A    between atoms: C2_3  and  C3_4 
ROOT
ATOM      1  C3  UNL d   1      -0.210   0.347  -0.187  0.00  0.00    -0.075 A 
ATOM      2  C4  UNL d   1       0.540   1.095   0.732  0.00  0.00     0.002 A 
ATOM      3  C5  UNL d   1      -0.058   1.609   1.883  0.00  0.00     0.002 A 
ATOM      4  C6  UNL d   1      -1.413   1.392   2.124  0.00  0.00    -0.004 A 
ATOM      5  C7  UNL d   1      -2.172   0.665   1.209  0.00  0.00     0.002 A 
ATOM      6  C8  UNL d   1      -1.575   0.145   0.059  0.00  0.00     0.002 A 
ENDROOT
BRANCH   1   7
ATOM      7  C2  UNL d   1       0.438  -0.237  -1.420  0.00  0.00     0.056 C 
BRANCH   7   8
ATOM      8  C1  UNL d   1       1.267   0.769  -2.225  0.00  0.00     0.007 C 
ATOM      9  C   UNL d   1       0.799   0.914  -3.667  0.00  0.00     0.009 C 
ENDBRANCH   7   8
ENDBRANCH   1   7
TORSDOF 2
ENDMDL
