MODEL 1
REMARK minimizedAffinity -3.67051744
REMARK minimizedRMSD -1
REMARK  2 active torsions:
REMARK  status: ('A' for Active; 'I' for Inactive)
REMARK    1  A    between atoms: C1_2  and  C2_3 
REMARK    2  A    between atoms: C2_3  and  C3_4 
ROOT
ATOM      1  C3  UNL d   1       0.512   0.831   1.107  0.00  0.00    -0.075 A 
ATOM      2  C4  UNL d   1       1.647   0.101   1.488  0.00  0.00     0.002 A 
ATOM      3  C5  UNL d   1       2.062  -1.003   0.744  0.00  0.00     0.002 A 
ATOM      4  C6  UNL d   1       1.344  -1.397  -0.383  0.00  0.00    -0.004 A 
ATOM      5  C7  UNL d   1       0.205  -0.690  -0.761  0.00  0.00     0.002 A 
ATOM      6  C8  UNL d   1      -0.210   0.418  -0.021  0.00  0.00     0.002 A 
ENDROOT
BRANCH   1   7
ATOM      7  C2  UNL d   1       0.074   2.045   1.891  0.00  0.00     0.056 C 
BRANCH   7   8
ATOM      8  C1  UNL d   1      -0.833   1.723   3.084  0.00  0.00     0.007 C 
ATOM      9  C   UNL d   1      -1.598   0.417   2.920  0.00  0.00     0.009 C 
ENDBRANCH   7   8
ENDBRANCH   1   7
TORSDOF 2
ENDMDL
