MODEL 1
REMARK minimizedAffinity -3.89902306
REMARK minimizedRMSD -1
REMARK  2 active torsions:
REMARK  status: ('A' for Active; 'I' for Inactive)
REMARK    1  A    between atoms: C1_2  and  C2_3 
REMARK    2  A    between atoms: C2_3  and  C3_4 
ROOT
ATOM      1  C3  UNL d   1       0.212  -0.265  -0.604  0.00  0.00    -0.075 A 
ATOM      2  C4  UNL d   1      -1.184  -0.133  -0.565  0.00  0.00     0.002 A 
ATOM      3  C5  UNL d   1      -1.821   0.323   0.590  0.00  0.00     0.002 A 
ATOM      4  C6  UNL d   1      -1.073   0.643   1.721  0.00  0.00    -0.004 A 
ATOM      5  C7  UNL d   1       0.313   0.501   1.699  0.00  0.00     0.002 A 
ATOM      6  C8  UNL d   1       0.953   0.049   0.543  0.00  0.00     0.002 A 
ENDROOT
BRANCH   1   7
ATOM      7  C2  UNL d   1       0.909  -0.730  -1.860  0.00  0.00     0.056 C 
BRANCH   7   8
ATOM      8  C1  UNL d   1       1.475   0.408  -2.717  0.00  0.00     0.007 C 
ATOM      9  C   UNL d   1       1.201   0.232  -4.204  0.00  0.00     0.009 C 
ENDBRANCH   7   8
ENDBRANCH   1   7
TORSDOF 2
ENDMDL
