MODEL 1
REMARK minimizedAffinity -0.747955501
REMARK minimizedRMSD -1
REMARK  2 active torsions:
REMARK  status: ('A' for Active; 'I' for Inactive)
REMARK    1  A    between atoms: C1_2  and  C2_3 
REMARK    2  A    between atoms: C2_3  and  C3_4 
ROOT
ATOM      1  C3  UNL d   1       0.884  -0.418   0.019  0.00  0.00    -0.075 A 
ATOM      2  C4  UNL d   1       0.672   0.853   0.572  0.00  0.00     0.002 A 
ATOM      3  C5  UNL d   1       1.513   1.339   1.574  0.00  0.00     0.002 A 
ATOM      4  C6  UNL d   1       2.568   0.559   2.041  0.00  0.00    -0.004 A 
ATOM      5  C7  UNL d   1       2.778  -0.712   1.510  0.00  0.00     0.002 A 
ATOM      6  C8  UNL d   1       1.941  -1.199   0.505  0.00  0.00     0.002 A 
ENDROOT
BRANCH   1   7
ATOM      7  C2  UNL d   1      -0.005  -0.937  -1.086  0.00  0.00     0.056 C 
BRANCH   7   8
ATOM      8  C1  UNL d   1      -1.483  -0.567  -0.924  0.00  0.00     0.007 C 
ATOM      9  C   UNL d   1      -2.134  -1.216   0.290  0.00  0.00     0.009 C 
ENDBRANCH   7   8
ENDBRANCH   1   7
TORSDOF 2
ENDMDL
