MODEL 1
REMARK minimizedAffinity -5.53736877
REMARK minimizedRMSD -1
REMARK  2 active torsions:
REMARK  status: ('A' for Active; 'I' for Inactive)
REMARK    1  A    between atoms: C1_2  and  C2_3 
REMARK    2  A    between atoms: C2_3  and  C3_4 
ROOT
ATOM      1  C3  UNL d   1       0.379  -0.108  -0.709  0.00  0.00    -0.075 A 
ATOM      2  C4  UNL d   1      -0.460   0.985  -0.445  0.00  0.00     0.002 A 
ATOM      3  C5  UNL d   1      -0.432   1.614   0.800  0.00  0.00     0.002 A 
ATOM      4  C6  UNL d   1       0.425   1.154   1.798  0.00  0.00    -0.004 A 
ATOM      5  C7  UNL d   1       1.250   0.059   1.551  0.00  0.00     0.002 A 
ATOM      6  C8  UNL d   1       1.228  -0.570   0.305  0.00  0.00     0.002 A 
ENDROOT
BRANCH   1   7
ATOM      7  C2  UNL d   1       0.375  -0.774  -2.064  0.00  0.00     0.056 C 
BRANCH   7   8
ATOM      8  C1  UNL d   1       1.073   0.037  -3.161  0.00  0.00     0.007 C 
ATOM      9  C   UNL d   1       0.102   0.710  -4.121  0.00  0.00     0.009 C 
ENDBRANCH   7   8
ENDBRANCH   1   7
TORSDOF 2
ENDMDL
