MODEL 1
REMARK minimizedAffinity -5.79483366
REMARK minimizedRMSD -1
REMARK  2 active torsions:
REMARK  status: ('A' for Active; 'I' for Inactive)
REMARK    1  A    between atoms: C1_2  and  C2_3 
REMARK    2  A    between atoms: C2_3  and  C3_4 
ROOT
ATOM      1  C3  UNL d   1      -0.028   0.173  -0.059  0.00  0.00    -0.075 A 
ATOM      2  C4  UNL d   1      -1.428   0.129   0.016  0.00  0.00     0.002 A 
ATOM      3  C5  UNL d   1      -2.109   0.883   0.973  0.00  0.00     0.002 A 
ATOM      4  C6  UNL d   1      -1.401   1.680   1.870  0.00  0.00    -0.004 A 
ATOM      5  C7  UNL d   1      -0.009   1.717   1.814  0.00  0.00     0.002 A 
ATOM      6  C8  UNL d   1       0.675   0.968   0.856  0.00  0.00     0.002 A 
ENDROOT
BRANCH   1   7
ATOM      7  C2  UNL d   1       0.713  -0.618  -1.111  0.00  0.00     0.056 C 
BRANCH   7   8
ATOM      8  C1  UNL d   1       0.347  -0.239  -2.550  0.00  0.00     0.007 C 
ATOM      9  C   UNL d   1       1.454   0.515  -3.273  0.00  0.00     0.009 C 
ENDBRANCH   7   8
ENDBRANCH   1   7
TORSDOF 2
ENDMDL
