MODEL 1
REMARK minimizedAffinity -1.79192352
REMARK minimizedRMSD -1
REMARK  0 active torsions:
REMARK  status: ('A' for Active; 'I' for Inactive)
ROOT
ATOM      1  C1  BNZ d   1       1.626  -1.861   1.152  0.00  0.00     0.000 A 
ATOM      2  C2  BNZ d   1       0.825  -1.494   2.200  0.00  0.00     0.000 A 
ATOM      3  C3  BNZ d   1      -0.061  -0.461   2.075  0.00  0.00     0.000 A 
ATOM      4  C4  BNZ d   1      -0.116   0.230   0.918  0.00  0.00     0.000 A 
ATOM      5  C5  BNZ d   1       0.692  -0.122  -0.145  0.00  0.00     0.000 A 
ATOM      6  C6  BNZ d   1       1.555  -1.188  -0.029  0.00  0.00     0.000 A 
ENDROOT
TORSDOF 0
ENDMDL
