MODEL 1
REMARK minimizedAffinity -1.30720031
REMARK minimizedRMSD -1
REMARK  0 active torsions:
REMARK  status: ('A' for Active; 'I' for Inactive)
ROOT
ATOM      1  C1  BNZ d   1      -1.352   0.799  -0.140  0.00  0.00     0.000 A 
ATOM      2  C2  BNZ d   1      -0.374   0.826  -1.099  0.00  0.00     0.000 A 
ATOM      3  C3  BNZ d   1       0.741   0.044  -0.983  0.00  0.00     0.000 A 
ATOM      4  C4  BNZ d   1       0.896  -0.732   0.109  0.00  0.00     0.000 A 
ATOM      5  C5  BNZ d   1      -0.077  -0.762   1.089  0.00  0.00     0.000 A 
ATOM      6  C6  BNZ d   1      -1.216  -0.003   0.950  0.00  0.00     0.000 A 
ENDROOT
TORSDOF 0
ENDMDL
