MODEL 1
REMARK minimizedAffinity -2.56828475
REMARK minimizedRMSD -1
REMARK  0 active torsions:
REMARK  status: ('A' for Active; 'I' for Inactive)
ROOT
ATOM      1  C1  BNZ d   1       0.848  -1.375   1.657  0.00  0.00     0.000 A 
ATOM      2  C2  BNZ d   1       1.174  -1.300   0.329  0.00  0.00     0.000 A 
ATOM      3  C3  BNZ d   1       0.444  -0.524  -0.528  0.00  0.00     0.000 A 
ATOM      4  C4  BNZ d   1      -0.633   0.142  -0.065  0.00  0.00     0.000 A 
ATOM      5  C5  BNZ d   1      -0.981   0.068   1.269  0.00  0.00     0.000 A 
ATOM      6  C6  BNZ d   1      -0.221  -0.682   2.136  0.00  0.00     0.000 A 
ENDROOT
TORSDOF 0
ENDMDL
