MODEL 1
REMARK minimizedAffinity -0.600605488
REMARK minimizedRMSD -1
REMARK  0 active torsions:
REMARK  status: ('A' for Active; 'I' for Inactive)
ROOT
ATOM      1  C1  BNZ d   1       0.495  -0.202  -1.269  0.00  0.00     0.000 A 
ATOM      2  C2  BNZ d   1       0.149  -0.428   0.036  0.00  0.00     0.000 A 
ATOM      3  C3  BNZ d   1      -0.840   0.302   0.634  0.00  0.00     0.000 A 
ATOM      4  C4  BNZ d   1      -1.453   1.283  -0.060  0.00  0.00     0.000 A 
ATOM      5  C5  BNZ d   1      -1.108   1.529  -1.374  0.00  0.00     0.000 A 
ATOM      6  C6  BNZ d   1      -0.139   0.766  -1.985  0.00  0.00     0.000 A 
ENDROOT
TORSDOF 0
ENDMDL
