MODEL 1
REMARK minimizedAffinity 2.44709086
REMARK minimizedRMSD -1
REMARK  0 active torsions:
REMARK  status: ('A' for Active; 'I' for Inactive)
ROOT
ATOM      1  C1  BNZ d   1      -3.709   0.742  -4.710  0.00  0.00     0.000 A 
ATOM      2  C2  BNZ d   1      -3.723   1.352  -3.484  0.00  0.00     0.000 A 
ATOM      3  C3  BNZ d   1      -4.875   1.892  -2.984  0.00  0.00     0.000 A 
ATOM      4  C4  BNZ d   1      -6.000   1.858  -3.727  0.00  0.00     0.000 A 
ATOM      5  C5  BNZ d   1      -6.000   1.255  -4.969  0.00  0.00     0.000 A 
ATOM      6  C6  BNZ d   1      -4.848   0.678  -5.452  0.00  0.00     0.000 A 
ENDROOT
TORSDOF 0
ENDMDL
