MODEL 1
REMARK minimizedAffinity -5.41325998
REMARK minimizedRMSD -1
REMARK  0 active torsions:
REMARK  status: ('A' for Active; 'I' for Inactive)
ROOT
ATOM      1  C1  BNZ d   1       1.149  -0.529   2.898  0.00  0.00     0.000 A 
ATOM      2  C2  BNZ d   1       2.154  -1.460   2.911  0.00  0.00     0.000 A 
ATOM      3  C3  BNZ d   1       2.739  -1.874   1.748  0.00  0.00     0.000 A 
ATOM      4  C4  BNZ d   1       2.293  -1.388   0.571  0.00  0.00     0.000 A 
ATOM      5  C5  BNZ d   1       1.276  -0.456   0.541  0.00  0.00     0.000 A 
ATOM      6  C6  BNZ d   1       0.715  -0.012   1.716  0.00  0.00     0.000 A 
ENDROOT
TORSDOF 0
ENDMDL
