MODEL 1
REMARK minimizedAffinity -5.00123644
REMARK minimizedRMSD -1
REMARK  0 active torsions:
REMARK  status: ('A' for Active; 'I' for Inactive)
ROOT
ATOM      1  C1  BNZ d   1       0.298  -0.350   1.502  0.00  0.00     0.000 A 
ATOM      2  C2  BNZ d   1       0.765  -0.487   0.222  0.00  0.00     0.000 A 
ATOM      3  C3  BNZ d   1       1.839  -1.287  -0.050  0.00  0.00     0.000 A 
ATOM      4  C4  BNZ d   1       2.469  -1.917   0.962  0.00  0.00     0.000 A 
ATOM      5  C5  BNZ d   1       2.017  -1.782   2.260  0.00  0.00     0.000 A 
ATOM      6  C6  BNZ d   1       0.911  -1.006   2.524  0.00  0.00     0.000 A 
ENDROOT
TORSDOF 0
ENDMDL
