MODEL 1
REMARK minimizedAffinity 5.4635129
REMARK minimizedRMSD -1
REMARK  0 active torsions:
REMARK  status: ('A' for Active; 'I' for Inactive)
ROOT
ATOM      1  C   UNL d   1       0.750   1.316  -4.284  0.00  0.00    -0.002 A 
ATOM      2  C1  UNL d   1       1.821   0.434  -4.295  0.00  0.00     0.010 A 
ATOM      3  C2  UNL d   1       2.177  -0.267  -3.141  0.00  0.00     0.041 A 
ATOM      4  C3  UNL d   1       1.429  -0.066  -1.964  0.00  0.00    -0.075 A 
ATOM      5  S   UNL d   1       1.680  -0.816  -0.433  0.00  0.00     0.015 SA
ATOM      6  C4  UNL d   1       0.371   0.015   0.273  0.00  0.00     0.022 A 
ATOM      7  C5  UNL d   1      -0.254   0.850  -0.624  0.00  0.00     0.026 A 
ATOM      8  C6  UNL d   1       0.345   0.816  -1.928  0.00  0.00    -0.082 A 
ATOM      9  C7  UNL d   1       0.011   1.513  -3.114  0.00  0.00     0.045 A 
ENDROOT
TORSDOF 0
ENDMDL
