MODEL 1
REMARK minimizedAffinity -1.32813156
REMARK minimizedRMSD -1
REMARK  0 active torsions:
REMARK  status: ('A' for Active; 'I' for Inactive)
ROOT
ATOM      1  C   UNL d   1       0.742   1.663   1.510  0.00  0.00    -0.002 A 
ATOM      2  C1  UNL d   1       0.767   1.179   0.210  0.00  0.00     0.010 A 
ATOM      3  C2  UNL d   1      -0.188   0.258  -0.224  0.00  0.00     0.041 A 
ATOM      4  C3  UNL d   1      -1.180  -0.172   0.679  0.00  0.00    -0.075 A 
ATOM      5  S   UNL d   1      -2.452  -1.293   0.369  0.00  0.00     0.015 SA
ATOM      6  C4  UNL d   1      -3.060  -1.156   1.955  0.00  0.00     0.022 A 
ATOM      7  C5  UNL d   1      -2.322  -0.281   2.717  0.00  0.00     0.026 A 
ATOM      8  C6  UNL d   1      -1.227   0.302   1.993  0.00  0.00    -0.082 A 
ATOM      9  C7  UNL d   1      -0.244   1.234   2.403  0.00  0.00     0.045 A 
ENDROOT
TORSDOF 0
ENDMDL
