MODEL 1
REMARK minimizedAffinity -0.0458744504
REMARK minimizedRMSD -1
REMARK  0 active torsions:
REMARK  status: ('A' for Active; 'I' for Inactive)
ROOT
ATOM      1  C   UNL d   1       1.274   0.994   1.897  0.00  0.00    -0.002 A 
ATOM      2  C1  UNL d   1       0.155   1.606   2.444  0.00  0.00     0.010 A 
ATOM      3  C2  UNL d   1      -1.128   1.230   2.042  0.00  0.00     0.041 A 
ATOM      4  C3  UNL d   1      -1.269   0.217   1.073  0.00  0.00    -0.075 A 
ATOM      5  S   UNL d   1      -2.742  -0.408   0.429  0.00  0.00     0.015 SA
ATOM      6  C4  UNL d   1      -1.920  -1.503  -0.586  0.00  0.00     0.022 A 
ATOM      7  C5  UNL d   1      -0.555  -1.407  -0.450  0.00  0.00     0.026 A 
ATOM      8  C6  UNL d   1      -0.158  -0.415   0.508  0.00  0.00    -0.082 A 
ATOM      9  C7  UNL d   1       1.130  -0.011   0.936  0.00  0.00     0.045 A 
ENDROOT
TORSDOF 0
ENDMDL
