MODEL 1
REMARK minimizedAffinity -1.91819334
REMARK minimizedRMSD -1
REMARK  0 active torsions:
REMARK  status: ('A' for Active; 'I' for Inactive)
ROOT
ATOM      1  C   UNL d   1       0.520   1.504   2.270  0.00  0.00    -0.002 A 
ATOM      2  C1  UNL d   1      -0.561   0.794   2.771  0.00  0.00     0.010 A 
ATOM      3  C2  UNL d   1      -1.254  -0.109   1.962  0.00  0.00     0.041 A 
ATOM      4  C3  UNL d   1      -0.836  -0.290   0.629  0.00  0.00    -0.075 A 
ATOM      5  S   UNL d   1      -1.532  -1.343  -0.546  0.00  0.00     0.015 SA
ATOM      6  C4  UNL d   1      -0.409  -0.875  -1.740  0.00  0.00     0.022 A 
ATOM      7  C5  UNL d   1       0.482   0.061  -1.271  0.00  0.00     0.026 A 
ATOM      8  C6  UNL d   1       0.251   0.413   0.102  0.00  0.00    -0.082 A 
ATOM      9  C7  UNL d   1       0.932   1.323   0.947  0.00  0.00     0.045 A 
ENDROOT
TORSDOF 0
ENDMDL
