MODEL 1
REMARK minimizedAffinity 0.504450679
REMARK minimizedRMSD -1
REMARK  3 active torsions:
REMARK  status: ('A' for Active; 'I' for Inactive)
REMARK    1  A    between atoms: C3'_2  and  C2'_3 
REMARK    2  A    between atoms: C2'_3  and  C1'_4 
REMARK    3  A    between atoms: C1'_4  and  C1_5 
ROOT
ATOM      1  C1  N4B d   1      -0.802   0.133  -1.377  0.00  0.00    -0.075 A 
ATOM      2  C2  N4B d   1      -1.724   1.158  -1.070  0.00  0.00     0.002 A 
ATOM      3  C3  N4B d   1      -2.349   1.177   0.152  0.00  0.00     0.002 A 
ATOM      4  C4  N4B d   1      -2.084   0.174   1.073  0.00  0.00    -0.004 A 
ATOM      5  C5  N4B d   1      -1.174  -0.799   0.779  0.00  0.00     0.002 A 
ATOM      6  C6  N4B d   1      -0.535  -0.828  -0.444  0.00  0.00     0.002 A 
ENDROOT
BRANCH   1   7
ATOM      7  C1' N4B d   1      -0.159   0.022  -2.732  0.00  0.00     0.057 C 
BRANCH   7   8
ATOM      8  C2' N4B d   1       0.082   1.423  -3.287  0.00  0.00     0.009 C 
BRANCH   8   9
ATOM      9  C3' N4B d   1       1.561   1.708  -3.487  0.00  0.00     0.004 C 
ATOM     10  C4' N4B d   1       2.259   2.075  -2.212  0.00  0.00     0.003 C 
ENDBRANCH   8   9
ENDBRANCH   7   8
ENDBRANCH   1   7
TORSDOF 3
ENDMDL
