MODEL 1
REMARK minimizedAffinity -3.69297767
REMARK minimizedRMSD -1
REMARK  3 active torsions:
REMARK  status: ('A' for Active; 'I' for Inactive)
REMARK    1  A    between atoms: C3'_2  and  C2'_3 
REMARK    2  A    between atoms: C2'_3  and  C1'_4 
REMARK    3  A    between atoms: C1'_4  and  C1_5 
ROOT
ATOM      1  C1  N4B d   1      -0.582   0.165  -0.048  0.00  0.00    -0.075 A 
ATOM      2  C2  N4B d   1       0.524   0.242   0.827  0.00  0.00     0.002 A 
ATOM      3  C3  N4B d   1       0.364   0.754   2.092  0.00  0.00     0.002 A 
ATOM      4  C4  N4B d   1      -0.882   1.211   2.494  0.00  0.00    -0.004 A 
ATOM      5  C5  N4B d   1      -1.950   1.109   1.652  0.00  0.00     0.002 A 
ATOM      6  C6  N4B d   1      -1.805   0.593   0.380  0.00  0.00     0.002 A 
ENDROOT
BRANCH   1   7
ATOM      7  C1' N4B d   1      -0.438  -0.307  -1.469  0.00  0.00     0.057 C 
BRANCH   7   8
ATOM      8  C2' N4B d   1       0.353   0.727  -2.263  0.00  0.00     0.009 C 
BRANCH   8   9
ATOM      9  C3' N4B d   1       0.447   0.363  -3.735  0.00  0.00     0.004 C 
ATOM     10  C4' N4B d   1       1.779   0.705  -4.334  0.00  0.00     0.003 C 
ENDBRANCH   8   9
ENDBRANCH   7   8
ENDBRANCH   1   7
TORSDOF 3
ENDMDL
