MODEL 1
REMARK minimizedAffinity -6.71809006
REMARK minimizedRMSD -1
REMARK  3 active torsions:
REMARK  status: ('A' for Active; 'I' for Inactive)
REMARK    1  A    between atoms: C3'_2  and  C2'_3 
REMARK    2  A    between atoms: C2'_3  and  C1'_4 
REMARK    3  A    between atoms: C1'_4  and  C1_5 
ROOT
ATOM      1  C1  N4B d   1       0.016   0.304   1.287  0.00  0.00    -0.075 A 
ATOM      2  C2  N4B d   1       1.141  -0.332   1.857  0.00  0.00     0.002 A 
ATOM      3  C3  N4B d   1       1.427  -0.156   3.188  0.00  0.00     0.002 A 
ATOM      4  C4  N4B d   1       0.618   0.661   3.962  0.00  0.00    -0.004 A 
ATOM      5  C5  N4B d   1      -0.482   1.251   3.410  0.00  0.00     0.002 A 
ATOM      6  C6  N4B d   1      -0.784   1.080   2.074  0.00  0.00     0.002 A 
ENDROOT
BRANCH   1   7
ATOM      7  C1' N4B d   1      -0.289   0.211  -0.183  0.00  0.00     0.057 C 
BRANCH   7   8
ATOM      8  C2' N4B d   1       0.651  -0.805  -0.827  0.00  0.00     0.009 C 
BRANCH   8   9
ATOM      9  C3' N4B d   1       0.755  -0.611  -2.330  0.00  0.00     0.004 C 
ATOM     10  C4' N4B d   1       1.927   0.236  -2.727  0.00  0.00     0.003 C 
ENDBRANCH   8   9
ENDBRANCH   7   8
ENDBRANCH   1   7
TORSDOF 3
ENDMDL
