MODEL 1
REMARK minimizedAffinity 8.28015995
REMARK minimizedRMSD -1
REMARK  0 active torsions:
REMARK  status: ('A' for Active; 'I' for Inactive)
ROOT
ATOM      1  O1  BZF d   1      -4.145  -3.109  -3.028  0.00  0.00    -0.204 OA
ATOM      2  C2  BZF d   1      -4.846  -1.941  -3.256  0.00  0.00     0.174 A 
ATOM      3  C3  BZF d   1      -5.626  -2.058  -4.350  0.00  0.00    -0.012 A 
ATOM      4  C3A BZF d   1      -5.468  -3.412  -4.783  0.00  0.00    -0.107 A 
ATOM      5  C4  BZF d   1      -6.000  -4.138  -5.810  0.00  0.00     0.055 A 
ATOM      6  C5  BZF d   1      -5.583  -5.417  -6.000  0.00  0.00    -0.016 A 
ATOM      7  C6  BZF d   1      -4.633  -6.000  -5.187  0.00  0.00     0.022 A 
ATOM      8  C7  BZF d   1      -4.080  -5.321  -4.152  0.00  0.00     0.029 A 
ATOM      9  C7A BZF d   1      -4.524  -4.039  -3.937  0.00  0.00     0.058 A 
ENDROOT
TORSDOF 0
ENDMDL
