MODEL 1
REMARK minimizedAffinity 6.14185333
REMARK minimizedRMSD -1
REMARK  0 active torsions:
REMARK  status: ('A' for Active; 'I' for Inactive)
ROOT
ATOM      1  O1  BZF d   1       5.551   5.887  -1.038  0.00  0.00    -0.204 OA
ATOM      2  C2  BZF d   1       4.439   5.574  -0.281  0.00  0.00     0.174 A 
ATOM      3  C3  BZF d   1       3.379   5.312  -1.074  0.00  0.00    -0.012 A 
ATOM      4  C3A BZF d   1       3.883   5.381  -2.411  0.00  0.00    -0.107 A 
ATOM      5  C4  BZF d   1       3.314   5.199  -3.639  0.00  0.00     0.055 A 
ATOM      6  C5  BZF d   1       4.064   5.412  -4.752  0.00  0.00    -0.016 A 
ATOM      7  C6  BZF d   1       5.382   5.812  -4.674  0.00  0.00     0.022 A 
ATOM      8  C7  BZF d   1       5.991   6.000  -3.478  0.00  0.00     0.029 A 
ATOM      9  C7A BZF d   1       5.246   5.754  -2.351  0.00  0.00     0.058 A 
ENDROOT
TORSDOF 0
ENDMDL
