MODEL 1
REMARK minimizedAffinity 7.96782064
REMARK minimizedRMSD -1
REMARK  0 active torsions:
REMARK  status: ('A' for Active; 'I' for Inactive)
ROOT
ATOM      1  O1  BZF d   1       1.136   0.406   4.804  0.00  0.00    -0.204 OA
ATOM      2  C2  BZF d   1       0.967  -0.732   5.570  0.00  0.00     0.174 A 
ATOM      3  C3  BZF d   1       0.943  -1.833   4.793  0.00  0.00    -0.012 A 
ATOM      4  C3A BZF d   1       1.201  -1.363   3.466  0.00  0.00    -0.107 A 
ATOM      5  C4  BZF d   1       1.317  -1.985   2.256  0.00  0.00     0.055 A 
ATOM      6  C5  BZF d   1       1.498  -1.230   1.140  0.00  0.00    -0.016 A 
ATOM      7  C6  BZF d   1       1.561   0.147   1.197  0.00  0.00     0.022 A 
ATOM      8  C7  BZF d   1       1.456   0.808   2.376  0.00  0.00     0.029 A 
ATOM      9  C7A BZF d   1       1.306   0.046   3.509  0.00  0.00     0.058 A 
ENDROOT
TORSDOF 0
ENDMDL
