MODEL 1
REMARK minimizedAffinity 7.77475739
REMARK minimizedRMSD -1
REMARK  0 active torsions:
REMARK  status: ('A' for Active; 'I' for Inactive)
ROOT
ATOM      1  O1  BZF d   1       0.652  -0.476   5.083  0.00  0.00    -0.204 OA
ATOM      2  C2  BZF d   1       1.139  -1.516   5.852  0.00  0.00     0.174 A 
ATOM      3  C3  BZF d   1       1.765  -2.428   5.082  0.00  0.00    -0.012 A 
ATOM      4  C3A BZF d   1       1.743  -1.883   3.759  0.00  0.00    -0.107 A 
ATOM      5  C4  BZF d   1       2.223  -2.317   2.557  0.00  0.00     0.055 A 
ATOM      6  C5  BZF d   1       1.972  -1.582   1.441  0.00  0.00    -0.016 A 
ATOM      7  C6  BZF d   1       1.241  -0.413   1.491  0.00  0.00     0.022 A 
ATOM      8  C7  BZF d   1       0.749   0.060   2.662  0.00  0.00     0.029 A 
ATOM      9  C7A BZF d   1       1.029  -0.663   3.796  0.00  0.00     0.058 A 
ENDROOT
TORSDOF 0
ENDMDL
