MODEL 1
REMARK minimizedAffinity 1.21759641
REMARK minimizedRMSD -1
REMARK  0 active torsions:
REMARK  status: ('A' for Active; 'I' for Inactive)
ROOT
ATOM      1  O1  BZF d   1       0.826  -0.813   5.278  0.00  0.00    -0.204 OA
ATOM      2  C2  BZF d   1       1.049  -2.032   5.888  0.00  0.00     0.174 A 
ATOM      3  C3  BZF d   1       1.640  -2.893   5.035  0.00  0.00    -0.012 A 
ATOM      4  C3A BZF d   1       1.880  -2.138   3.844  0.00  0.00    -0.107 A 
ATOM      5  C4  BZF d   1       2.455  -2.438   2.642  0.00  0.00     0.055 A 
ATOM      6  C5  BZF d   1       2.468  -1.496   1.663  0.00  0.00    -0.016 A 
ATOM      7  C6  BZF d   1       1.910  -0.248   1.848  0.00  0.00     0.022 A 
ATOM      8  C7  BZF d   1       1.332   0.097   3.025  0.00  0.00     0.029 A 
ATOM      9  C7A BZF d   1       1.348  -0.841   4.028  0.00  0.00     0.058 A 
ENDROOT
TORSDOF 0
ENDMDL
