MODEL 1
REMARK minimizedAffinity 4.06193447
REMARK minimizedRMSD -1
REMARK  0 active torsions:
REMARK  status: ('A' for Active; 'I' for Inactive)
ROOT
ATOM      1  O1  BZF d   1       1.973  -3.629   5.002  0.00  0.00    -0.204 OA
ATOM      2  C2  BZF d   1       1.096  -3.243   5.998  0.00  0.00     0.174 A 
ATOM      3  C3  BZF d   1       0.578  -2.026   5.733  0.00  0.00    -0.012 A 
ATOM      4  C3A BZF d   1       1.097  -1.667   4.450  0.00  0.00    -0.107 A 
ATOM      5  C4  BZF d   1       0.933  -0.578   3.642  0.00  0.00     0.055 A 
ATOM      6  C5  BZF d   1       1.638  -0.503   2.483  0.00  0.00    -0.016 A 
ATOM      7  C6  BZF d   1       2.520  -1.494   2.104  0.00  0.00     0.022 A 
ATOM      8  C7  BZF d   1       2.713  -2.596   2.870  0.00  0.00     0.029 A 
ATOM      9  C7A BZF d   1       1.976  -2.690   4.026  0.00  0.00     0.058 A 
ENDROOT
TORSDOF 0
ENDMDL
