MODEL 1
REMARK minimizedAffinity -3.13757348
REMARK minimizedRMSD -1
REMARK  0 active torsions:
REMARK  status: ('A' for Active; 'I' for Inactive)
ROOT
ATOM      1  C2' OXE d   1       1.879   0.765  -3.304  0.00  0.00     0.078 C 
ATOM      2  C1' OXE d   1       0.168  -1.418  -3.733  0.00  0.00     0.078 C 
ATOM      3  C1  OXE d   1      -0.014  -0.620  -2.466  0.00  0.00    -0.078 A 
ATOM      4  C2  OXE d   1       0.858   0.418  -2.242  0.00  0.00    -0.078 A 
ATOM      5  C3  OXE d   1       0.701   1.220  -1.116  0.00  0.00     0.003 A 
ATOM      6  C4  OXE d   1      -0.239   0.886  -0.133  0.00  0.00    -0.002 A 
ATOM      7  C5  OXE d   1      -1.111  -0.191  -0.323  0.00  0.00    -0.002 A 
ATOM      8  C6  OXE d   1      -1.040  -0.927  -1.500  0.00  0.00     0.003 A 
ENDROOT
TORSDOF 0
ENDMDL
