MODEL 1
REMARK minimizedAffinity -5.11740685
REMARK minimizedRMSD -1
REMARK  0 active torsions:
REMARK  status: ('A' for Active; 'I' for Inactive)
ROOT
ATOM      1  C2' OXE d   1       0.729  -0.735  -0.671  0.00  0.00     0.078 C 
ATOM      2  C1' OXE d   1       2.124  -0.745   1.765  0.00  0.00     0.078 C 
ATOM      3  C1  OXE d   1       0.650  -0.423   1.799  0.00  0.00    -0.078 A 
ATOM      4  C2  OXE d   1      -0.014  -0.375   0.597  0.00  0.00    -0.078 A 
ATOM      5  C3  OXE d   1      -1.385  -0.136   0.576  0.00  0.00     0.003 A 
ATOM      6  C4  OXE d   1      -2.063   0.206   1.753  0.00  0.00    -0.002 A 
ATOM      7  C5  OXE d   1      -1.397   0.202   2.983  0.00  0.00    -0.002 A 
ATOM      8  C6  OXE d   1      -0.052  -0.152   3.029  0.00  0.00     0.003 A 
ENDROOT
TORSDOF 0
ENDMDL
