MODEL 1
REMARK minimizedAffinity -4.96480608
REMARK minimizedRMSD -1
REMARK  0 active torsions:
REMARK  status: ('A' for Active; 'I' for Inactive)
ROOT
ATOM      1  C2' OXE d   1      -0.367   1.116   3.751  0.00  0.00     0.078 C 
ATOM      2  C1' OXE d   1       1.954   0.284   2.410  0.00  0.00     0.078 C 
ATOM      3  C1  OXE d   1       0.671   0.351   1.620  0.00  0.00    -0.078 A 
ATOM      4  C2  OXE d   1      -0.469   0.715   2.296  0.00  0.00    -0.078 A 
ATOM      5  C3  OXE d   1      -1.669   0.846   1.602  0.00  0.00     0.003 A 
ATOM      6  C4  OXE d   1      -1.756   0.463   0.258  0.00  0.00    -0.002 A 
ATOM      7  C5  OXE d   1      -0.615   0.052  -0.438  0.00  0.00    -0.002 A 
ATOM      8  C6  OXE d   1       0.612   0.032   0.215  0.00  0.00     0.003 A 
ENDROOT
TORSDOF 0
ENDMDL
