MODEL 1
REMARK minimizedAffinity -4.59421682
REMARK minimizedRMSD -1
REMARK  0 active torsions:
REMARK  status: ('A' for Active; 'I' for Inactive)
ROOT
ATOM      1  C2' OXE d   1      -0.657   1.652   2.476  0.00  0.00     0.078 C 
ATOM      2  C1' OXE d   1      -0.850   0.355  -0.006  0.00  0.00     0.078 C 
ATOM      3  C1  OXE d   1       0.287  -0.034   0.905  0.00  0.00    -0.078 A 
ATOM      4  C2  OXE d   1       0.401   0.639   2.098  0.00  0.00    -0.078 A 
ATOM      5  C3  OXE d   1       1.400   0.281   2.999  0.00  0.00     0.003 A 
ATOM      6  C4  OXE d   1       2.381  -0.650   2.637  0.00  0.00    -0.002 A 
ATOM      7  C5  OXE d   1       2.306  -1.319   1.410  0.00  0.00    -0.002 A 
ATOM      8  C6  OXE d   1       1.244  -1.054   0.553  0.00  0.00     0.003 A 
ENDROOT
TORSDOF 0
ENDMDL
