MODEL 1
REMARK minimizedAffinity -5.37946272
REMARK minimizedRMSD -1
REMARK  0 active torsions:
REMARK  status: ('A' for Active; 'I' for Inactive)
ROOT
ATOM      1  C2' OXE d   1      -2.224  -0.074  -0.230  0.00  0.00     0.078 C 
ATOM      2  C1' OXE d   1       0.470  -0.418  -0.940  0.00  0.00     0.078 C 
ATOM      3  C1  OXE d   1       0.165   0.017   0.471  0.00  0.00    -0.078 A 
ATOM      4  C2  OXE d   1      -1.153   0.228   0.797  0.00  0.00    -0.078 A 
ATOM      5  C3  OXE d   1      -1.494   0.577   2.101  0.00  0.00     0.003 A 
ATOM      6  C4  OXE d   1      -0.498   0.865   3.041  0.00  0.00    -0.002 A 
ATOM      7  C5  OXE d   1       0.853   0.694   2.719  0.00  0.00    -0.002 A 
ATOM      8  C6  OXE d   1       1.199   0.231   1.454  0.00  0.00     0.003 A 
ENDROOT
TORSDOF 0
ENDMDL
