MODEL 1
REMARK minimizedAffinity -1.7774353
REMARK minimizedRMSD -1
REMARK  0 active torsions:
REMARK  status: ('A' for Active; 'I' for Inactive)
ROOT
ATOM      1  C2' OXE d   1      -2.181   0.402   0.065  0.00  0.00     0.078 C 
ATOM      2  C1' OXE d   1       0.235  -0.485  -1.056  0.00  0.00     0.078 C 
ATOM      3  C1  OXE d   1       0.170  -0.329   0.443  0.00  0.00    -0.078 A 
ATOM      4  C2  OXE d   1      -1.001   0.150   0.979  0.00  0.00    -0.078 A 
ATOM      5  C3  OXE d   1      -1.133   0.261   2.360  0.00  0.00     0.003 A 
ATOM      6  C4  OXE d   1      -0.034   0.036   3.197  0.00  0.00    -0.002 A 
ATOM      7  C5  OXE d   1       1.181  -0.415   2.669  0.00  0.00    -0.002 A 
ATOM      8  C6  OXE d   1       1.286  -0.643   1.301  0.00  0.00     0.003 A 
ENDROOT
TORSDOF 0
ENDMDL
