MODEL 1
REMARK minimizedAffinity -1.23579121
REMARK minimizedRMSD -1
REMARK  0 active torsions:
REMARK  status: ('A' for Active; 'I' for Inactive)
ROOT
ATOM      1  C2' OXE d   1       0.390  -0.856  -1.454  0.00  0.00     0.078 C 
ATOM      2  C1' OXE d   1       2.239  -0.969   0.656  0.00  0.00     0.078 C 
ATOM      3  C1  OXE d   1       0.919  -0.286   0.913  0.00  0.00    -0.078 A 
ATOM      4  C2  OXE d   1       0.039  -0.194  -0.139  0.00  0.00    -0.078 A 
ATOM      5  C3  OXE d   1      -1.214   0.378   0.059  0.00  0.00     0.003 A 
ATOM      6  C4  OXE d   1      -1.527   0.997   1.275  0.00  0.00    -0.002 A 
ATOM      7  C5  OXE d   1      -0.629   0.950   2.347  0.00  0.00    -0.002 A 
ATOM      8  C6  OXE d   1       0.578   0.277   2.196  0.00  0.00     0.003 A 
ENDROOT
TORSDOF 0
ENDMDL
