MODEL 1
REMARK minimizedAffinity -2.58580971
REMARK minimizedRMSD -1
REMARK  0 active torsions:
REMARK  status: ('A' for Active; 'I' for Inactive)
ROOT
ATOM      1  C2' OXE d   1      -1.610  -0.085   0.041  0.00  0.00     0.078 C 
ATOM      2  C1' OXE d   1       0.811  -1.456   0.417  0.00  0.00     0.078 C 
ATOM      3  C1  OXE d   1       0.215  -0.742   1.604  0.00  0.00    -0.078 A 
ATOM      4  C2  OXE d   1      -0.946  -0.035   1.400  0.00  0.00    -0.078 A 
ATOM      5  C3  OXE d   1      -1.566   0.597   2.474  0.00  0.00     0.003 A 
ATOM      6  C4  OXE d   1      -0.940   0.647   3.725  0.00  0.00    -0.002 A 
ATOM      7  C5  OXE d   1       0.263  -0.033   3.945  0.00  0.00    -0.002 A 
ATOM      8  C6  OXE d   1       0.830  -0.766   2.908  0.00  0.00     0.003 A 
ENDROOT
TORSDOF 0
ENDMDL
