MODEL 1
REMARK minimizedAffinity 13.5938377
REMARK minimizedRMSD -1
REMARK  2 active torsions:
REMARK  status: ('A' for Active; 'I' for Inactive)
REMARK    1  A    between atoms: C1_2  and  C2_3 
REMARK    2  A    between atoms: C2_3  and  C3_4 
ROOT
ATOM      1  C3  UNL d   1      -3.000   2.870  -5.472  0.00  0.00    -0.075 A 
ATOM      2  C4  UNL d   1      -2.779   1.909  -4.475  0.00  0.00     0.002 A 
ATOM      3  C5  UNL d   1      -1.494   1.682  -3.982  0.00  0.00     0.002 A 
ATOM      4  C6  UNL d   1      -0.414   2.404  -4.485  0.00  0.00    -0.004 A 
ATOM      5  C7  UNL d   1      -0.619   3.350  -5.487  0.00  0.00     0.002 A 
ATOM      6  C8  UNL d   1      -1.905   3.582  -5.980  0.00  0.00     0.002 A 
ENDROOT
BRANCH   1   7
ATOM      7  C2  UNL d   1      -4.393   3.141  -5.989  0.00  0.00     0.056 C 
BRANCH   7   8
ATOM      8  C1  UNL d   1      -5.181   4.156  -5.154  0.00  0.00     0.007 C 
ATOM      9  C   UNL d   1      -5.993   5.127  -6.000  0.00  0.00     0.009 C 
ENDBRANCH   7   8
ENDBRANCH   1   7
TORSDOF 2
ENDMDL
