MODEL 1
REMARK minimizedAffinity 4.92529488
REMARK minimizedRMSD -1
REMARK  2 active torsions:
REMARK  status: ('A' for Active; 'I' for Inactive)
REMARK    1  A    between atoms: C1_2  and  C2_3 
REMARK    2  A    between atoms: C2_3  and  C3_4 
ROOT
ATOM      1  C3  UNL d   1       3.832   1.744   3.299  0.00  0.00    -0.075 A 
ATOM      2  C4  UNL d   1       3.328   2.612   2.320  0.00  0.00     0.002 A 
ATOM      3  C5  UNL d   1       3.750   2.506   0.994  0.00  0.00     0.002 A 
ATOM      4  C6  UNL d   1       4.687   1.540   0.633  0.00  0.00    -0.004 A 
ATOM      5  C7  UNL d   1       5.207   0.683   1.601  0.00  0.00     0.002 A 
ATOM      6  C8  UNL d   1       4.783   0.784   2.927  0.00  0.00     0.002 A 
ENDROOT
BRANCH   1   7
ATOM      7  C2  UNL d   1       3.358   1.834   4.730  0.00  0.00     0.056 C 
BRANCH   7   8
ATOM      8  C1  UNL d   1       4.275   2.657   5.640  0.00  0.00     0.007 C 
ATOM      9  C   UNL d   1       3.700   4.021   5.998  0.00  0.00     0.009 C 
ENDBRANCH   7   8
ENDBRANCH   1   7
TORSDOF 2
ENDMDL
