MODEL 1
REMARK minimizedAffinity 20.1855793
REMARK minimizedRMSD -1
REMARK  2 active torsions:
REMARK  status: ('A' for Active; 'I' for Inactive)
REMARK    1  A    between atoms: C1_2  and  C2_3 
REMARK    2  A    between atoms: C2_3  and  C3_4 
ROOT
ATOM      1  C3  UNL d   1      -0.814  -2.607  -0.844  0.00  0.00    -0.075 A 
ATOM      2  C4  UNL d   1      -0.196  -3.172   0.281  0.00  0.00     0.002 A 
ATOM      3  C5  UNL d   1      -0.561  -2.771   1.566  0.00  0.00     0.002 A 
ATOM      4  C6  UNL d   1      -1.539  -1.795   1.744  0.00  0.00    -0.004 A 
ATOM      5  C7  UNL d   1      -2.148  -1.215   0.633  0.00  0.00     0.002 A 
ATOM      6  C8  UNL d   1      -1.787  -1.617  -0.654  0.00  0.00     0.002 A 
ENDROOT
BRANCH   1   7
ATOM      7  C2  UNL d   1      -0.444  -3.057  -2.237  0.00  0.00     0.056 C 
BRANCH   7   8
ATOM      8  C1  UNL d   1      -0.680  -1.997  -3.318  0.00  0.00     0.007 C 
ATOM      9  C   UNL d   1      -1.868  -2.311  -4.218  0.00  0.00     0.009 C 
ENDBRANCH   7   8
ENDBRANCH   1   7
TORSDOF 2
ENDMDL
