MODEL 1
REMARK minimizedAffinity 11.2247772
REMARK minimizedRMSD -1
REMARK  2 active torsions:
REMARK  status: ('A' for Active; 'I' for Inactive)
REMARK    1  A    between atoms: C1_2  and  C2_3 
REMARK    2  A    between atoms: C2_3  and  C3_4 
ROOT
ATOM      1  C3  UNL d   1      -2.618  -0.736   1.683  0.00  0.00    -0.075 A 
ATOM      2  C4  UNL d   1      -2.729  -1.357   2.935  0.00  0.00     0.002 A 
ATOM      3  C5  UNL d   1      -2.718  -0.598   4.106  0.00  0.00     0.002 A 
ATOM      4  C6  UNL d   1      -2.587   0.787   4.040  0.00  0.00    -0.004 A 
ATOM      5  C7  UNL d   1      -2.459   1.413   2.802  0.00  0.00     0.002 A 
ATOM      6  C8  UNL d   1      -2.473   0.657   1.629  0.00  0.00     0.002 A 
ENDROOT
BRANCH   1   7
ATOM      7  C2  UNL d   1      -2.658  -1.549   0.411  0.00  0.00     0.056 C 
BRANCH   7   8
ATOM      8  C1  UNL d   1      -1.420  -1.381  -0.476  0.00  0.00     0.007 C 
ATOM      9  C   UNL d   1      -1.754  -1.254  -1.956  0.00  0.00     0.009 C 
ENDBRANCH   7   8
ENDBRANCH   1   7
TORSDOF 2
ENDMDL
