MODEL 1
REMARK minimizedAffinity 14.7618275
REMARK minimizedRMSD -1
REMARK  2 active torsions:
REMARK  status: ('A' for Active; 'I' for Inactive)
REMARK    1  A    between atoms: C1_2  and  C2_3 
REMARK    2  A    between atoms: C2_3  and  C3_4 
ROOT
ATOM      1  C3  UNL d   1      -3.647   3.982  -1.870  0.00  0.00    -0.075 A 
ATOM      2  C4  UNL d   1      -3.942   5.099  -1.075  0.00  0.00     0.002 A 
ATOM      3  C5  UNL d   1      -4.531   4.939   0.179  0.00  0.00     0.002 A 
ATOM      4  C6  UNL d   1      -4.842   3.665   0.649  0.00  0.00    -0.004 A 
ATOM      5  C7  UNL d   1      -4.568   2.550  -0.139  0.00  0.00     0.002 A 
ATOM      6  C8  UNL d   1      -3.974   2.706  -1.393  0.00  0.00     0.002 A 
ENDROOT
BRANCH   1   7
ATOM      7  C2  UNL d   1      -2.982   4.146  -3.216  0.00  0.00     0.056 C 
BRANCH   7   8
ATOM      8  C1  UNL d   1      -2.986   2.876  -4.073  0.00  0.00     0.007 C 
ATOM      9  C   UNL d   1      -1.735   2.723  -4.927  0.00  0.00     0.009 C 
ENDBRANCH   7   8
ENDBRANCH   1   7
TORSDOF 2
ENDMDL
