MODEL 1
REMARK minimizedAffinity 5.28413916
REMARK minimizedRMSD -1
REMARK  2 active torsions:
REMARK  status: ('A' for Active; 'I' for Inactive)
REMARK    1  A    between atoms: C1_2  and  C2_3 
REMARK    2  A    between atoms: C2_3  and  C3_4 
ROOT
ATOM      1  C3  UNL d   1      -0.887  -3.616   1.367  0.00  0.00    -0.075 A 
ATOM      2  C4  UNL d   1      -1.812  -2.974   2.204  0.00  0.00     0.002 A 
ATOM      3  C5  UNL d   1      -2.606  -1.936   1.717  0.00  0.00     0.002 A 
ATOM      4  C6  UNL d   1      -2.480  -1.520   0.393  0.00  0.00    -0.004 A 
ATOM      5  C7  UNL d   1      -1.553  -2.139  -0.442  0.00  0.00     0.002 A 
ATOM      6  C8  UNL d   1      -0.760  -3.181   0.041  0.00  0.00     0.002 A 
ENDROOT
BRANCH   1   7
ATOM      7  C2  UNL d   1      -0.046  -4.760   1.880  0.00  0.00     0.056 C 
BRANCH   7   8
ATOM      8  C1  UNL d   1      -0.855  -5.995   2.290  0.00  0.00     0.007 C 
ATOM      9  C   UNL d   1      -1.237  -6.000   3.764  0.00  0.00     0.009 C 
ENDBRANCH   7   8
ENDBRANCH   1   7
TORSDOF 2
ENDMDL
