MODEL 1
REMARK minimizedAffinity 16.9739628
REMARK minimizedRMSD -1
REMARK  2 active torsions:
REMARK  status: ('A' for Active; 'I' for Inactive)
REMARK    1  A    between atoms: C1_2  and  C2_3 
REMARK    2  A    between atoms: C2_3  and  C3_4 
ROOT
ATOM      1  C3  UNL d   1       3.657   0.327  -2.374  0.00  0.00    -0.075 A 
ATOM      2  C4  UNL d   1       4.189  -0.957  -2.562  0.00  0.00     0.002 A 
ATOM      3  C5  UNL d   1       5.357  -1.137  -3.304  0.00  0.00     0.002 A 
ATOM      4  C6  UNL d   1       6.000  -0.041  -3.875  0.00  0.00    -0.004 A 
ATOM      5  C7  UNL d   1       5.470   1.237  -3.708  0.00  0.00     0.002 A 
ATOM      6  C8  UNL d   1       4.305   1.421  -2.963  0.00  0.00     0.002 A 
ENDROOT
BRANCH   1   7
ATOM      7  C2  UNL d   1       2.410   0.532  -1.548  0.00  0.00     0.056 C 
BRANCH   7   8
ATOM      8  C1  UNL d   1       2.154   1.992  -1.156  0.00  0.00     0.007 C 
ATOM      9  C   UNL d   1       2.828   2.389   0.151  0.00  0.00     0.009 C 
ENDBRANCH   7   8
ENDBRANCH   1   7
TORSDOF 2
ENDMDL
