MODEL 1
REMARK minimizedAffinity 12.8754358
REMARK minimizedRMSD -1
REMARK  2 active torsions:
REMARK  status: ('A' for Active; 'I' for Inactive)
REMARK    1  A    between atoms: C1_2  and  C2_3 
REMARK    2  A    between atoms: C2_3  and  C3_4 
ROOT
ATOM      1  C3  UNL d   1      -1.339  -3.335   0.969  0.00  0.00    -0.075 A 
ATOM      2  C4  UNL d   1      -1.113  -4.466   0.171  0.00  0.00     0.002 A 
ATOM      3  C5  UNL d   1      -0.613  -5.641   0.732  0.00  0.00     0.002 A 
ATOM      4  C6  UNL d   1      -0.323  -5.698   2.094  0.00  0.00    -0.004 A 
ATOM      5  C7  UNL d   1      -0.528  -4.576   2.893  0.00  0.00     0.002 A 
ATOM      6  C8  UNL d   1      -1.033  -3.400   2.335  0.00  0.00     0.002 A 
ENDROOT
BRANCH   1   7
ATOM      7  C2  UNL d   1      -1.907  -2.070   0.373  0.00  0.00     0.056 C 
BRANCH   7   8
ATOM      8  C1  UNL d   1      -1.239  -1.643  -0.938  0.00  0.00     0.007 C 
ATOM      9  C   UNL d   1      -2.229  -1.141  -1.981  0.00  0.00     0.009 C 
ENDBRANCH   7   8
ENDBRANCH   1   7
TORSDOF 2
ENDMDL
