MODEL 1
REMARK minimizedAffinity 12.6617212
REMARK minimizedRMSD -1
REMARK  2 active torsions:
REMARK  status: ('A' for Active; 'I' for Inactive)
REMARK    1  A    between atoms: C1_2  and  C2_3 
REMARK    2  A    between atoms: C2_3  and  C3_4 
ROOT
ATOM      1  C3  UNL d   1       4.512   1.779   2.859  0.00  0.00    -0.075 A 
ATOM      2  C4  UNL d   1       3.763   2.662   2.068  0.00  0.00     0.002 A 
ATOM      3  C5  UNL d   1       4.122   2.905   0.742  0.00  0.00     0.002 A 
ATOM      4  C6  UNL d   1       5.238   2.277   0.193  0.00  0.00    -0.004 A 
ATOM      5  C7  UNL d   1       6.000   1.410   0.974  0.00  0.00     0.002 A 
ATOM      6  C8  UNL d   1       5.640   1.162   2.300  0.00  0.00     0.002 A 
ENDROOT
BRANCH   1   7
ATOM      7  C2  UNL d   1       4.112   1.490   4.285  0.00  0.00     0.056 C 
BRANCH   7   8
ATOM      8  C1  UNL d   1       3.354   2.635   4.965  0.00  0.00     0.007 C 
ATOM      9  C   UNL d   1       4.190   3.377   6.000  0.00  0.00     0.009 C 
ENDBRANCH   7   8
ENDBRANCH   1   7
TORSDOF 2
ENDMDL
