MODEL 1
REMARK minimizedAffinity 8.11715317
REMARK minimizedRMSD -1
REMARK  2 active torsions:
REMARK  status: ('A' for Active; 'I' for Inactive)
REMARK    1  A    between atoms: C1_2  and  C2_3 
REMARK    2  A    between atoms: C2_3  and  C3_4 
ROOT
ATOM      1  C3  UNL d   1       4.898   2.812   1.122  0.00  0.00    -0.075 A 
ATOM      2  C4  UNL d   1       5.672   1.719   0.705  0.00  0.00     0.002 A 
ATOM      3  C5  UNL d   1       5.993   0.697   1.599  0.00  0.00     0.002 A 
ATOM      4  C6  UNL d   1       5.553   0.758   2.919  0.00  0.00    -0.004 A 
ATOM      5  C7  UNL d   1       4.798   1.848   3.348  0.00  0.00     0.002 A 
ATOM      6  C8  UNL d   1       4.472   2.870   2.455  0.00  0.00     0.002 A 
ENDROOT
BRANCH   1   7
ATOM      7  C2  UNL d   1       4.523   3.907   0.152  0.00  0.00     0.056 C 
BRANCH   7   8
ATOM      8  C1  UNL d   1       5.460   5.118   0.186  0.00  0.00     0.007 C 
ATOM      9  C   UNL d   1       5.261   5.998   1.413  0.00  0.00     0.009 C 
ENDBRANCH   7   8
ENDBRANCH   1   7
TORSDOF 2
ENDMDL
