MODEL 1
REMARK minimizedAffinity 11.5510454
REMARK minimizedRMSD -1
REMARK  2 active torsions:
REMARK  status: ('A' for Active; 'I' for Inactive)
REMARK    1  A    between atoms: C1_2  and  C2_3 
REMARK    2  A    between atoms: C2_3  and  C3_4 
ROOT
ATOM      1  C3  UNL d   1       4.698   2.239   3.033  0.00  0.00    -0.075 A 
ATOM      2  C4  UNL d   1       5.621   1.268   2.616  0.00  0.00     0.002 A 
ATOM      3  C5  UNL d   1       5.999   1.180   1.276  0.00  0.00     0.002 A 
ATOM      4  C6  UNL d   1       5.453   2.051   0.336  0.00  0.00    -0.004 A 
ATOM      5  C7  UNL d   1       4.523   3.008   0.736  0.00  0.00     0.002 A 
ATOM      6  C8  UNL d   1       4.147   3.102   2.077  0.00  0.00     0.002 A 
ENDROOT
BRANCH   1   7
ATOM      7  C2  UNL d   1       4.307   2.359   4.487  0.00  0.00     0.056 C 
BRANCH   7   8
ATOM      8  C1  UNL d   1       4.812   3.637   5.165  0.00  0.00     0.007 C 
ATOM      9  C   UNL d   1       3.747   4.334   6.000  0.00  0.00     0.009 C 
ENDBRANCH   7   8
ENDBRANCH   1   7
TORSDOF 2
ENDMDL
