MODEL 1
REMARK minimizedAffinity 4.55226231
REMARK minimizedRMSD -1
REMARK  2 active torsions:
REMARK  status: ('A' for Active; 'I' for Inactive)
REMARK    1  A    between atoms: C1_2  and  C2_3 
REMARK    2  A    between atoms: C2_3  and  C3_4 
ROOT
ATOM      1  C3  UNL d   1      -1.970  -2.398   0.298  0.00  0.00    -0.075 A 
ATOM      2  C4  UNL d   1      -2.949  -2.211   1.284  0.00  0.00     0.002 A 
ATOM      3  C5  UNL d   1      -2.905  -2.940   2.473  0.00  0.00     0.002 A 
ATOM      4  C6  UNL d   1      -1.890  -3.870   2.686  0.00  0.00    -0.004 A 
ATOM      5  C7  UNL d   1      -0.921  -4.076   1.706  0.00  0.00     0.002 A 
ATOM      6  C8  UNL d   1      -0.960  -3.345   0.518  0.00  0.00     0.002 A 
ENDROOT
BRANCH   1   7
ATOM      7  C2  UNL d   1      -1.995  -1.591  -0.978  0.00  0.00     0.056 C 
BRANCH   7   8
ATOM      8  C1  UNL d   1      -0.616  -1.384  -1.613  0.00  0.00     0.007 C 
ATOM      9  C   UNL d   1      -0.652  -1.362  -3.135  0.00  0.00     0.009 C 
ENDBRANCH   7   8
ENDBRANCH   1   7
TORSDOF 2
ENDMDL
