MODEL 1
REMARK minimizedAffinity 16.0574799
REMARK minimizedRMSD -1
REMARK  2 active torsions:
REMARK  status: ('A' for Active; 'I' for Inactive)
REMARK    1  A    between atoms: C1_2  and  C2_3 
REMARK    2  A    between atoms: C2_3  and  C3_4 
ROOT
ATOM      1  C3  UNL d   1       4.288   2.512   2.451  0.00  0.00    -0.075 A 
ATOM      2  C4  UNL d   1       4.100   3.428   1.405  0.00  0.00     0.002 A 
ATOM      3  C5  UNL d   1       4.833   3.313   0.223  0.00  0.00     0.002 A 
ATOM      4  C6  UNL d   1       5.767   2.290   0.076  0.00  0.00    -0.004 A 
ATOM      5  C7  UNL d   1       5.973   1.385   1.114  0.00  0.00     0.002 A 
ATOM      6  C8  UNL d   1       5.239   1.495   2.296  0.00  0.00     0.002 A 
ENDROOT
BRANCH   1   7
ATOM      7  C2  UNL d   1       3.477   2.614   3.721  0.00  0.00     0.056 C 
BRANCH   7   8
ATOM      8  C1  UNL d   1       4.177   3.381   4.848  0.00  0.00     0.007 C 
ATOM      9  C   UNL d   1       3.243   3.752   5.992  0.00  0.00     0.009 C 
ENDBRANCH   7   8
ENDBRANCH   1   7
TORSDOF 2
ENDMDL
