MODEL 1
REMARK minimizedAffinity 9.23795033
REMARK minimizedRMSD -1
REMARK  2 active torsions:
REMARK  status: ('A' for Active; 'I' for Inactive)
REMARK    1  A    between atoms: C1_2  and  C2_3 
REMARK    2  A    between atoms: C2_3  and  C3_4 
ROOT
ATOM      1  C3  UNL d   1      -3.452  -0.536   5.369  0.00  0.00    -0.075 A 
ATOM      2  C4  UNL d   1      -4.814  -0.836   5.510  0.00  0.00     0.002 A 
ATOM      3  C5  UNL d   1      -5.733   0.168   5.818  0.00  0.00     0.002 A 
ATOM      4  C6  UNL d   1      -5.300   1.480   5.999  0.00  0.00    -0.004 A 
ATOM      5  C7  UNL d   1      -3.947   1.787   5.878  0.00  0.00     0.002 A 
ATOM      6  C8  UNL d   1      -3.026   0.785   5.566  0.00  0.00     0.002 A 
ENDROOT
BRANCH   1   7
ATOM      7  C2  UNL d   1      -2.457  -1.612   5.007  0.00  0.00     0.056 C 
BRANCH   7   8
ATOM      8  C1  UNL d   1      -2.899  -2.505   3.842  0.00  0.00     0.007 C 
ATOM      9  C   UNL d   1      -1.784  -3.395   3.311  0.00  0.00     0.009 C 
ENDBRANCH   7   8
ENDBRANCH   1   7
TORSDOF 2
ENDMDL
