MODEL 1
REMARK minimizedAffinity 13.7801991
REMARK minimizedRMSD -1
REMARK  2 active torsions:
REMARK  status: ('A' for Active; 'I' for Inactive)
REMARK    1  A    between atoms: C1_2  and  C2_3 
REMARK    2  A    between atoms: C2_3  and  C3_4 
ROOT
ATOM      1  C3  UNL d   1      -0.803  -1.301  -1.640  0.00  0.00    -0.075 A 
ATOM      2  C4  UNL d   1      -1.902  -0.560  -1.181  0.00  0.00     0.002 A 
ATOM      3  C5  UNL d   1      -2.636  -0.992  -0.076  0.00  0.00     0.002 A 
ATOM      4  C6  UNL d   1      -2.288  -2.173   0.577  0.00  0.00    -0.004 A 
ATOM      5  C7  UNL d   1      -1.208  -2.925   0.120  0.00  0.00     0.002 A 
ATOM      6  C8  UNL d   1      -0.470  -2.493  -0.983  0.00  0.00     0.002 A 
ENDROOT
BRANCH   1   7
ATOM      7  C2  UNL d   1       0.013  -0.824  -2.817  0.00  0.00     0.056 C 
BRANCH   7   8
ATOM      8  C1  UNL d   1       0.925   0.366  -2.502  0.00  0.00     0.007 C 
ATOM      9  C   UNL d   1       2.378  -0.032  -2.283  0.00  0.00     0.009 C 
ENDBRANCH   7   8
ENDBRANCH   1   7
TORSDOF 2
ENDMDL
