MODEL 1
REMARK minimizedAffinity 8.19333553
REMARK minimizedRMSD -1
REMARK  2 active torsions:
REMARK  status: ('A' for Active; 'I' for Inactive)
REMARK    1  A    between atoms: C1_2  and  C2_3 
REMARK    2  A    between atoms: C2_3  and  C3_4 
ROOT
ATOM      1  C3  UNL d   1      -0.918  -3.048   0.260  0.00  0.00    -0.075 A 
ATOM      2  C4  UNL d   1      -1.992  -2.745   1.109  0.00  0.00     0.002 A 
ATOM      3  C5  UNL d   1      -2.959  -1.815   0.723  0.00  0.00     0.002 A 
ATOM      4  C6  UNL d   1      -2.858  -1.171  -0.508  0.00  0.00    -0.004 A 
ATOM      5  C7  UNL d   1      -1.785  -1.452  -1.352  0.00  0.00     0.002 A 
ATOM      6  C8  UNL d   1      -0.819  -2.385  -0.970  0.00  0.00     0.002 A 
ENDROOT
BRANCH   1   7
ATOM      7  C2  UNL d   1       0.116  -4.075   0.658  0.00  0.00     0.056 C 
BRANCH   7   8
ATOM      8  C1  UNL d   1      -0.378  -5.523   0.570  0.00  0.00     0.007 C 
ATOM      9  C   UNL d   1      -0.672  -5.971  -0.855  0.00  0.00     0.009 C 
ENDBRANCH   7   8
ENDBRANCH   1   7
TORSDOF 2
ENDMDL
