MODEL 1
REMARK minimizedAffinity -2.86232758
REMARK minimizedRMSD -1
REMARK  1 active torsions:
REMARK  status: ('A' for Active; 'I' for Inactive)
REMARK    1  A    between atoms: C1_2  and  C2_3 
ROOT
ATOM      1  C2  UNL d   1       0.758  -0.695   0.565  0.00  0.00    -0.077 A 
ATOM      2  C3  UNL d   1       0.069  -1.851   0.956  0.00  0.00     0.002 A 
ATOM      3  C4  UNL d   1       0.671  -2.778   1.809  0.00  0.00     0.002 A 
ATOM      4  C5  UNL d   1       1.963  -2.556   2.281  0.00  0.00    -0.004 A 
ATOM      5  C6  UNL d   1       2.658  -1.410   1.896  0.00  0.00     0.002 A 
ATOM      6  C7  UNL d   1       2.058  -0.483   1.043  0.00  0.00     0.002 A 
ENDROOT
BRANCH   1   7
ATOM      7  C1  UNL d   1       0.092   0.330  -0.315  0.00  0.00     0.055 C 
ATOM      8  C   UNL d   1      -1.382   0.010  -0.520  0.00  0.00     0.019 C 
ENDBRANCH   1   7
TORSDOF 1
ENDMDL
