MODEL 1
REMARK minimizedAffinity -4.87355804
REMARK minimizedRMSD -1
REMARK  1 active torsions:
REMARK  status: ('A' for Active; 'I' for Inactive)
REMARK    1  A    between atoms: C1_2  and  C2_3 
ROOT
ATOM      1  C2  UNL d   1       0.604  -1.028   0.617  0.00  0.00    -0.077 A 
ATOM      2  C3  UNL d   1       1.145  -2.212   1.139  0.00  0.00     0.002 A 
ATOM      3  C4  UNL d   1       2.463  -2.244   1.597  0.00  0.00     0.002 A 
ATOM      4  C5  UNL d   1       3.250  -1.095   1.542  0.00  0.00    -0.004 A 
ATOM      5  C6  UNL d   1       2.722   0.086   1.023  0.00  0.00     0.002 A 
ATOM      6  C7  UNL d   1       1.405   0.120   0.563  0.00  0.00     0.002 A 
ENDROOT
BRANCH   1   7
ATOM      7  C1  UNL d   1      -0.833  -0.979   0.168  0.00  0.00     0.055 C 
ATOM      8  C   UNL d   1      -1.308   0.456  -0.010  0.00  0.00     0.019 C 
ENDBRANCH   1   7
TORSDOF 1
ENDMDL
