MODEL 1
REMARK minimizedAffinity -3.44936633
REMARK minimizedRMSD -1
REMARK  1 active torsions:
REMARK  status: ('A' for Active; 'I' for Inactive)
REMARK    1  A    between atoms: C1_2  and  C2_3 
ROOT
ATOM      1  C2  UNL d   1       0.474  -0.756   1.081  0.00  0.00    -0.077 A 
ATOM      2  C3  UNL d   1       1.363  -1.543   0.337  0.00  0.00     0.002 A 
ATOM      3  C4  UNL d   1       2.643  -1.072   0.037  0.00  0.00     0.002 A 
ATOM      4  C5  UNL d   1       3.046   0.186   0.481  0.00  0.00    -0.004 A 
ATOM      5  C6  UNL d   1       2.168   0.977   1.220  0.00  0.00     0.002 A 
ATOM      6  C7  UNL d   1       0.888   0.509   1.520  0.00  0.00     0.002 A 
ENDROOT
BRANCH   1   7
ATOM      7  C1  UNL d   1      -0.889  -1.282   1.448  0.00  0.00     0.055 C 
ATOM      8  C   UNL d   1      -0.795  -2.652   2.104  0.00  0.00     0.019 C 
ENDBRANCH   1   7
TORSDOF 1
ENDMDL
