MODEL 1
REMARK minimizedAffinity -3.15313673
REMARK minimizedRMSD -1
REMARK  1 active torsions:
REMARK  status: ('A' for Active; 'I' for Inactive)
REMARK    1  A    between atoms: C1_2  and  C2_3 
ROOT
ATOM      1  C2  UNL d   1      -1.933   0.020  -0.962  0.00  0.00    -0.077 A 
ATOM      2  C3  UNL d   1      -1.832  -1.058  -1.852  0.00  0.00     0.002 A 
ATOM      3  C4  UNL d   1      -2.545  -1.053  -3.053  0.00  0.00     0.002 A 
ATOM      4  C5  UNL d   1      -3.360   0.030  -3.376  0.00  0.00    -0.004 A 
ATOM      5  C6  UNL d   1      -3.469   1.107  -2.497  0.00  0.00     0.002 A 
ATOM      6  C7  UNL d   1      -2.758   1.102  -1.296  0.00  0.00     0.002 A 
ENDROOT
BRANCH   1   7
ATOM      7  C1  UNL d   1      -1.127   0.038   0.310  0.00  0.00     0.055 C 
ATOM      8  C   UNL d   1       0.290   0.535   0.061  0.00  0.00     0.019 C 
ENDBRANCH   1   7
TORSDOF 1
ENDMDL
