MODEL 1
REMARK minimizedAffinity -4.65957546
REMARK minimizedRMSD -1
REMARK  1 active torsions:
REMARK  status: ('A' for Active; 'I' for Inactive)
REMARK    1  A    between atoms: C1_2  and  C2_3 
ROOT
ATOM      1  C2  UNL d   1       0.617  -0.105   0.533  0.00  0.00    -0.077 A 
ATOM      2  C3  UNL d   1       1.541  -1.093   0.167  0.00  0.00     0.002 A 
ATOM      3  C4  UNL d   1       2.896  -0.938   0.464  0.00  0.00     0.002 A 
ATOM      4  C5  UNL d   1       3.338   0.202   1.132  0.00  0.00    -0.004 A 
ATOM      5  C6  UNL d   1       2.427   1.192   1.499  0.00  0.00     0.002 A 
ATOM      6  C7  UNL d   1       1.072   1.039   1.201  0.00  0.00     0.002 A 
ENDROOT
BRANCH   1   7
ATOM      7  C1  UNL d   1      -0.852  -0.294   0.257  0.00  0.00     0.055 C 
ATOM      8  C   UNL d   1      -1.407  -1.494   1.010  0.00  0.00     0.019 C 
ENDBRANCH   1   7
TORSDOF 1
ENDMDL
