MODEL 1
REMARK minimizedAffinity -2.75654507
REMARK minimizedRMSD -1
REMARK  1 active torsions:
REMARK  status: ('A' for Active; 'I' for Inactive)
REMARK    1  A    between atoms: C1_2  and  C2_3 
ROOT
ATOM      1  C2  UNL d   1       1.452   0.139   1.014  0.00  0.00    -0.077 A 
ATOM      2  C3  UNL d   1       0.834   1.361   0.716  0.00  0.00     0.002 A 
ATOM      3  C4  UNL d   1      -0.524   1.406   0.394  0.00  0.00     0.002 A 
ATOM      4  C5  UNL d   1      -1.275   0.233   0.370  0.00  0.00    -0.004 A 
ATOM      5  C6  UNL d   1      -0.669  -0.988   0.663  0.00  0.00     0.002 A 
ATOM      6  C7  UNL d   1       0.688  -1.035   0.984  0.00  0.00     0.002 A 
ENDROOT
BRANCH   1   7
ATOM      7  C1  UNL d   1       2.905   0.094   1.410  0.00  0.00     0.055 C 
ATOM      8  C   UNL d   1       3.566  -1.194   0.943  0.00  0.00     0.019 C 
ENDBRANCH   1   7
TORSDOF 1
ENDMDL
