MODEL 1
REMARK minimizedAffinity -5.95371723
REMARK minimizedRMSD -1
REMARK  1 active torsions:
REMARK  status: ('A' for Active; 'I' for Inactive)
REMARK    1  A    between atoms: C1_2  and  C2_3 
ROOT
ATOM      1  C2  UNL d   1       0.665  -0.595   1.006  0.00  0.00    -0.077 A 
ATOM      2  C3  UNL d   1       1.195  -1.702   1.685  0.00  0.00     0.002 A 
ATOM      3  C4  UNL d   1       2.569  -1.803   1.906  0.00  0.00     0.002 A 
ATOM      4  C5  UNL d   1       3.425  -0.799   1.456  0.00  0.00    -0.004 A 
ATOM      5  C6  UNL d   1       2.908   0.304   0.779  0.00  0.00     0.002 A 
ATOM      6  C7  UNL d   1       1.534   0.406   0.555  0.00  0.00     0.002 A 
ENDROOT
BRANCH   1   7
ATOM      7  C1  UNL d   1      -0.823  -0.461   0.810  0.00  0.00     0.055 C 
ATOM      8  C   UNL d   1      -1.165  -0.166  -0.643  0.00  0.00     0.019 C 
ENDBRANCH   1   7
TORSDOF 1
ENDMDL
