MODEL 1
REMARK minimizedAffinity -4.01748466
REMARK minimizedRMSD -1
REMARK  1 active torsions:
REMARK  status: ('A' for Active; 'I' for Inactive)
REMARK    1  A    between atoms: C1_2  and  C2_3 
ROOT
ATOM      1  C2  UNL d   1      -2.046  -0.087  -1.343  0.00  0.00    -0.077 A 
ATOM      2  C3  UNL d   1      -2.457   1.095  -1.976  0.00  0.00     0.002 A 
ATOM      3  C4  UNL d   1      -3.148   1.044  -3.188  0.00  0.00     0.002 A 
ATOM      4  C5  UNL d   1      -3.438  -0.186  -3.776  0.00  0.00    -0.004 A 
ATOM      5  C6  UNL d   1      -3.031  -1.367  -3.156  0.00  0.00     0.002 A 
ATOM      6  C7  UNL d   1      -2.340  -1.317  -1.944  0.00  0.00     0.002 A 
ENDROOT
BRANCH   1   7
ATOM      7  C1  UNL d   1      -1.344  -0.036  -0.012  0.00  0.00     0.055 C 
ATOM      8  C   UNL d   1      -0.179   0.943  -0.037  0.00  0.00     0.019 C 
ENDBRANCH   1   7
TORSDOF 1
ENDMDL
