MODEL 1
REMARK minimizedAffinity -5.6276679
REMARK minimizedRMSD -1
REMARK  1 active torsions:
REMARK  status: ('A' for Active; 'I' for Inactive)
REMARK    1  A    between atoms: C1_2  and  C2_3 
ROOT
ATOM      1  C2  UNL d   1      -0.283   0.003   0.410  0.00  0.00    -0.077 A 
ATOM      2  C3  UNL d   1       0.124   1.320   0.155  0.00  0.00     0.002 A 
ATOM      3  C4  UNL d   1       1.435   1.718   0.421  0.00  0.00     0.002 A 
ATOM      4  C5  UNL d   1       2.351   0.805   0.940  0.00  0.00    -0.004 A 
ATOM      5  C6  UNL d   1       1.955  -0.507   1.199  0.00  0.00     0.002 A 
ATOM      6  C7  UNL d   1       0.645  -0.906   0.935  0.00  0.00     0.002 A 
ENDROOT
BRANCH   1   7
ATOM      7  C1  UNL d   1      -1.683  -0.442   0.078  0.00  0.00     0.055 C 
ATOM      8  C   UNL d   1      -2.010  -0.193  -1.387  0.00  0.00     0.019 C 
ENDBRANCH   1   7
TORSDOF 1
ENDMDL
