MODEL 1
REMARK minimizedAffinity -1.98547697
REMARK minimizedRMSD -1
REMARK  0 active torsions:
REMARK  status: ('A' for Active; 'I' for Inactive)
ROOT
ATOM      1  O1  BZF d   1      -1.980  -0.282  -0.494  0.00  0.00    -0.204 OA
ATOM      2  C2  BZF d   1      -1.905   1.035  -0.084  0.00  0.00     0.174 A 
ATOM      3  C3  BZF d   1      -0.655   1.340   0.320  0.00  0.00    -0.012 A 
ATOM      4  C3A BZF d   1       0.120   0.164   0.066  0.00  0.00    -0.107 A 
ATOM      5  C4  BZF d   1       1.438  -0.148   0.241  0.00  0.00     0.055 A 
ATOM      6  C5  BZF d   1       1.861  -1.408  -0.040  0.00  0.00    -0.016 A 
ATOM      7  C6  BZF d   1       0.994  -2.381  -0.493  0.00  0.00     0.022 A 
ATOM      8  C7  BZF d   1      -0.321  -2.118  -0.687  0.00  0.00     0.029 A 
ATOM      9  C7A BZF d   1      -0.745  -0.836  -0.435  0.00  0.00     0.058 A 
ENDROOT
TORSDOF 0
ENDMDL
