MODEL 1
REMARK minimizedAffinity -3.92780542
REMARK minimizedRMSD -1
REMARK  0 active torsions:
REMARK  status: ('A' for Active; 'I' for Inactive)
ROOT
ATOM      1  O1  BZF d   1      -0.255   1.103  -0.019  0.00  0.00    -0.204 OA
ATOM      2  C2  BZF d   1      -1.162   0.091  -0.267  0.00  0.00     0.174 A 
ATOM      3  C3  BZF d   1      -0.525  -1.067  -0.537  0.00  0.00    -0.012 A 
ATOM      4  C3A BZF d   1       0.866  -0.780  -0.363  0.00  0.00    -0.107 A 
ATOM      5  C4  BZF d   1       2.001  -1.532  -0.473  0.00  0.00     0.055 A 
ATOM      6  C5  BZF d   1       3.209  -0.932  -0.309  0.00  0.00    -0.016 A 
ATOM      7  C6  BZF d   1       3.320   0.416  -0.039  0.00  0.00     0.022 A 
ATOM      8  C7  BZF d   1       2.223   1.202   0.084  0.00  0.00     0.029 A 
ATOM      9  C7A BZF d   1       0.999   0.592  -0.048  0.00  0.00     0.058 A 
ENDROOT
TORSDOF 0
ENDMDL
