MODEL 1
REMARK minimizedAffinity -4.172925
REMARK minimizedRMSD -1
REMARK  0 active torsions:
REMARK  status: ('A' for Active; 'I' for Inactive)
ROOT
ATOM      1  O1  BZF d   1       1.928  -2.118  -0.487  0.00  0.00    -0.204 OA
ATOM      2  C2  BZF d   1       0.616  -2.283  -0.889  0.00  0.00     0.174 A 
ATOM      3  C3  BZF d   1      -0.030  -1.099  -0.909  0.00  0.00    -0.012 A 
ATOM      4  C3A BZF d   1       0.963  -0.123  -0.582  0.00  0.00    -0.107 A 
ATOM      5  C4  BZF d   1       0.938   1.237  -0.459  0.00  0.00     0.055 A 
ATOM      6  C5  BZF d   1       2.062   1.885  -0.056  0.00  0.00    -0.016 A 
ATOM      7  C6  BZF d   1       3.226   1.205   0.238  0.00  0.00     0.022 A 
ATOM      8  C7  BZF d   1       3.301  -0.144   0.126  0.00  0.00     0.029 A 
ATOM      9  C7A BZF d   1       2.176  -0.798  -0.314  0.00  0.00     0.058 A 
ENDROOT
TORSDOF 0
ENDMDL
