MODEL 1
REMARK minimizedAffinity -1.41254044
REMARK minimizedRMSD -1
REMARK  0 active torsions:
REMARK  status: ('A' for Active; 'I' for Inactive)
ROOT
ATOM      1  O1  BZF d   1       2.218   1.863   0.250  0.00  0.00    -0.204 OA
ATOM      2  C2  BZF d   1       3.566   1.851  -0.053  0.00  0.00     0.174 A 
ATOM      3  C3  BZF d   1       3.969   0.610  -0.393  0.00  0.00    -0.012 A 
ATOM      4  C3A BZF d   1       2.780  -0.187  -0.385  0.00  0.00    -0.107 A 
ATOM      5  C4  BZF d   1       2.530  -1.502  -0.655  0.00  0.00     0.055 A 
ATOM      6  C5  BZF d   1       1.271  -1.983  -0.483  0.00  0.00    -0.016 A 
ATOM      7  C6  BZF d   1       0.241  -1.180  -0.039  0.00  0.00     0.022 A 
ATOM      8  C7  BZF d   1       0.440   0.132   0.237  0.00  0.00     0.029 A 
ATOM      9  C7A BZF d   1       1.704   0.629   0.032  0.00  0.00     0.058 A 
ENDROOT
TORSDOF 0
ENDMDL
