MODEL 1
REMARK minimizedAffinity -2.80126405
REMARK minimizedRMSD -1
REMARK  0 active torsions:
REMARK  status: ('A' for Active; 'I' for Inactive)
ROOT
ATOM      1  O1  BZF d   1      -3.387  -0.950   1.241  0.00  0.00    -0.204 OA
ATOM      2  C2  BZF d   1      -4.065   0.252   1.308  0.00  0.00     0.174 A 
ATOM      3  C3  BZF d   1      -3.296   1.261   0.851  0.00  0.00    -0.012 A 
ATOM      4  C3A BZF d   1      -2.094   0.638   0.388  0.00  0.00    -0.107 A 
ATOM      5  C4  BZF d   1      -0.952   1.114  -0.190  0.00  0.00     0.055 A 
ATOM      6  C5  BZF d   1       0.064   0.251  -0.455  0.00  0.00    -0.016 A 
ATOM      7  C6  BZF d   1      -0.026  -1.092  -0.151  0.00  0.00     0.022 A 
ATOM      8  C7  BZF d   1      -1.141  -1.612   0.419  0.00  0.00     0.029 A 
ATOM      9  C7A BZF d   1      -2.182  -0.748   0.658  0.00  0.00     0.058 A 
ENDROOT
TORSDOF 0
ENDMDL
