MODEL 1
REMARK minimizedAffinity -2.18771815
REMARK minimizedRMSD -1
REMARK  0 active torsions:
REMARK  status: ('A' for Active; 'I' for Inactive)
ROOT
ATOM      1  O1  BZF d   1      -0.431   1.232  -0.491  0.00  0.00    -0.204 OA
ATOM      2  C2  BZF d   1      -1.781   1.015  -0.291  0.00  0.00     0.174 A 
ATOM      3  C3  BZF d   1      -2.029  -0.293  -0.078  0.00  0.00    -0.012 A 
ATOM      4  C3A BZF d   1      -0.743  -0.921  -0.059  0.00  0.00    -0.107 A 
ATOM      5  C4  BZF d   1      -0.331  -2.210   0.127  0.00  0.00     0.055 A 
ATOM      6  C5  BZF d   1       0.991  -2.503   0.013  0.00  0.00    -0.016 A 
ATOM      7  C6  BZF d   1       1.926  -1.535  -0.290  0.00  0.00     0.022 A 
ATOM      8  C7  BZF d   1       1.565  -0.242  -0.478  0.00  0.00     0.029 A 
ATOM      9  C7A BZF d   1       0.234   0.063  -0.331  0.00  0.00     0.058 A 
ENDROOT
TORSDOF 0
ENDMDL
