MODEL 1
REMARK minimizedAffinity -1.71298146
REMARK minimizedRMSD -1
REMARK  0 active torsions:
REMARK  status: ('A' for Active; 'I' for Inactive)
ROOT
ATOM      1  O1  BZF d   1       2.097   1.604  -0.128  0.00  0.00    -0.204 OA
ATOM      2  C2  BZF d   1       0.804   2.062  -0.286  0.00  0.00     0.174 A 
ATOM      3  C3  BZF d   1      -0.043   1.037  -0.512  0.00  0.00    -0.012 A 
ATOM      4  C3A BZF d   1       0.758  -0.144  -0.402  0.00  0.00    -0.107 A 
ATOM      5  C4  BZF d   1       0.484  -1.477  -0.509  0.00  0.00     0.055 A 
ATOM      6  C5  BZF d   1       1.504  -2.370  -0.421  0.00  0.00    -0.016 A 
ATOM      7  C6  BZF d   1       2.810  -1.965  -0.233  0.00  0.00     0.022 A 
ATOM      8  C7  BZF d   1       3.130  -0.653  -0.116  0.00  0.00     0.029 A 
ATOM      9  C7A BZF d   1       2.096   0.250  -0.171  0.00  0.00     0.058 A 
ENDROOT
TORSDOF 0
ENDMDL
