MODEL 1
REMARK minimizedAffinity -2.40934181
REMARK minimizedRMSD -1
REMARK  0 active torsions:
REMARK  status: ('A' for Active; 'I' for Inactive)
ROOT
ATOM      1  O1  BZF d   1       2.330   0.103  -0.149  0.00  0.00    -0.204 OA
ATOM      2  C2  BZF d   1       2.952  -1.119  -0.316  0.00  0.00     0.174 A 
ATOM      3  C3  BZF d   1       2.044  -2.091  -0.541  0.00  0.00    -0.012 A 
ATOM      4  C3A BZF d   1       0.782  -1.419  -0.604  0.00  0.00    -0.107 A 
ATOM      5  C4  BZF d   1      -0.498  -1.844  -0.819  0.00  0.00     0.055 A 
ATOM      6  C5  BZF d   1      -1.514  -0.945  -0.744  0.00  0.00    -0.016 A 
ATOM      7  C6  BZF d   1      -1.287   0.384  -0.453  0.00  0.00     0.022 A 
ATOM      8  C7  BZF d   1      -0.034   0.854  -0.237  0.00  0.00     0.029 A 
ATOM      9  C7A BZF d   1       0.998  -0.046  -0.344  0.00  0.00     0.058 A 
ENDROOT
TORSDOF 0
ENDMDL
