MODEL 1
REMARK minimizedAffinity -3.76020169
REMARK minimizedRMSD -1
REMARK  0 active torsions:
REMARK  status: ('A' for Active; 'I' for Inactive)
ROOT
ATOM      1  O1  BZF d   1       2.059   2.046   0.168  0.00  0.00    -0.204 OA
ATOM      2  C2  BZF d   1       3.421   1.845   0.056  0.00  0.00     0.174 A 
ATOM      3  C3  BZF d   1       3.701   0.533  -0.080  0.00  0.00    -0.012 A 
ATOM      4  C3A BZF d   1       2.429  -0.119  -0.144  0.00  0.00    -0.107 A 
ATOM      5  C4  BZF d   1       2.048  -1.422  -0.292  0.00  0.00     0.055 A 
ATOM      6  C5  BZF d   1       0.726  -1.734  -0.241  0.00  0.00    -0.016 A 
ATOM      7  C6  BZF d   1      -0.240  -0.770  -0.037  0.00  0.00     0.022 A 
ATOM      8  C7  BZF d   1       0.089   0.536   0.110  0.00  0.00     0.029 A 
ATOM      9  C7A BZF d   1       1.422   0.859   0.025  0.00  0.00     0.058 A 
ENDROOT
TORSDOF 0
ENDMDL
