MODEL 1
REMARK minimizedAffinity -2.9963913
REMARK minimizedRMSD -1
REMARK  0 active torsions:
REMARK  status: ('A' for Active; 'I' for Inactive)
ROOT
ATOM      1  O1  BZF d   1       2.620  -2.245  -0.487  0.00  0.00    -0.204 OA
ATOM      2  C2  BZF d   1       3.570  -1.339  -0.055  0.00  0.00     0.174 A 
ATOM      3  C3  BZF d   1       3.061  -0.091  -0.024  0.00  0.00    -0.012 A 
ATOM      4  C3A BZF d   1       1.682  -0.237  -0.377  0.00  0.00    -0.107 A 
ATOM      5  C4  BZF d   1       0.647   0.645  -0.504  0.00  0.00     0.055 A 
ATOM      6  C5  BZF d   1      -0.559   0.190  -0.935  0.00  0.00    -0.016 A 
ATOM      7  C6  BZF d   1      -0.763  -1.137  -1.252  0.00  0.00     0.022 A 
ATOM      8  C7  BZF d   1       0.232  -2.050  -1.137  0.00  0.00     0.029 A 
ATOM      9  C7A BZF d   1       1.443  -1.599  -0.670  0.00  0.00     0.058 A 
ENDROOT
TORSDOF 0
ENDMDL
