MODEL 1
REMARK minimizedAffinity 4.31565094
REMARK minimizedRMSD -1
REMARK  0 active torsions:
REMARK  status: ('A' for Active; 'I' for Inactive)
ROOT
ATOM      1  C   UNL d   1       0.095   1.367   1.327  0.00  0.00    -0.002 A 
ATOM      2  C1  UNL d   1      -0.194   0.013   1.244  0.00  0.00     0.010 A 
ATOM      3  C2  UNL d   1      -1.328  -0.511   1.867  0.00  0.00     0.041 A 
ATOM      4  C3  UNL d   1      -2.176   0.358   2.582  0.00  0.00    -0.075 A 
ATOM      5  S   UNL d   1      -3.621  -0.059   3.424  0.00  0.00     0.015 SA
ATOM      6  C4  UNL d   1      -3.889   1.551   3.914  0.00  0.00     0.022 A 
ATOM      7  C5  UNL d   1      -2.910   2.400   3.455  0.00  0.00     0.026 A 
ATOM      8  C6  UNL d   1      -1.907   1.726   2.679  0.00  0.00    -0.082 A 
ATOM      9  C7  UNL d   1      -0.749   2.226   2.036  0.00  0.00     0.045 A 
ENDROOT
TORSDOF 0
ENDMDL
