MODEL 1
REMARK minimizedAffinity 11.8842955
REMARK minimizedRMSD -1
REMARK  0 active torsions:
REMARK  status: ('A' for Active; 'I' for Inactive)
ROOT
ATOM      1  C   UNL d   1       0.001   1.576   0.118  0.00  0.00    -0.002 A 
ATOM      2  C1  UNL d   1       0.818   2.106   1.107  0.00  0.00     0.010 A 
ATOM      3  C2  UNL d   1       1.056   1.397   2.287  0.00  0.00     0.041 A 
ATOM      4  C3  UNL d   1       0.455   0.135   2.456  0.00  0.00    -0.075 A 
ATOM      5  S   UNL d   1       0.604  -0.913   3.817  0.00  0.00     0.015 SA
ATOM      6  C4  UNL d   1      -0.412  -2.089   3.117  0.00  0.00     0.022 A 
ATOM      7  C5  UNL d   1      -0.864  -1.708   1.876  0.00  0.00     0.026 A 
ATOM      8  C6  UNL d   1      -0.371  -0.420   1.474  0.00  0.00    -0.082 A 
ATOM      9  C7  UNL d   1      -0.593   0.323   0.290  0.00  0.00     0.045 A 
ENDROOT
TORSDOF 0
ENDMDL
