MODEL 1
REMARK minimizedAffinity 8.08342648
REMARK minimizedRMSD -1
REMARK  0 active torsions:
REMARK  status: ('A' for Active; 'I' for Inactive)
ROOT
ATOM      1  C   UNL d   1       1.724  -0.553   0.685  0.00  0.00    -0.002 A 
ATOM      2  C1  UNL d   1       1.950   0.602  -0.050  0.00  0.00     0.010 A 
ATOM      3  C2  UNL d   1       1.164   1.738   0.152  0.00  0.00     0.041 A 
ATOM      4  C3  UNL d   1       0.138   1.693   1.117  0.00  0.00    -0.075 A 
ATOM      5  S   UNL d   1      -0.950   2.963   1.536  0.00  0.00     0.015 SA
ATOM      6  C4  UNL d   1      -1.740   2.003   2.702  0.00  0.00     0.022 A 
ATOM      7  C5  UNL d   1      -1.200   0.741   2.782  0.00  0.00     0.026 A 
ATOM      8  C6  UNL d   1      -0.108   0.542   1.870  0.00  0.00    -0.082 A 
ATOM      9  C7  UNL d   1       0.706  -0.594   1.641  0.00  0.00     0.045 A 
ENDROOT
TORSDOF 0
ENDMDL
