MODEL 1
REMARK minimizedAffinity 3.95160556
REMARK minimizedRMSD -1
REMARK  0 active torsions:
REMARK  status: ('A' for Active; 'I' for Inactive)
ROOT
ATOM      1  C   UNL d   1       0.977  -0.543   0.930  0.00  0.00    -0.002 A 
ATOM      2  C1  UNL d   1       1.316   0.542   0.134  0.00  0.00     0.010 A 
ATOM      3  C2  UNL d   1       0.575   1.724   0.192  0.00  0.00     0.041 A 
ATOM      4  C3  UNL d   1      -0.521   1.799   1.075  0.00  0.00    -0.075 A 
ATOM      5  S   UNL d   1      -1.571   3.145   1.316  0.00  0.00     0.015 SA
ATOM      6  C4  UNL d   1      -2.493   2.311   2.483  0.00  0.00     0.022 A 
ATOM      7  C5  UNL d   1      -2.025   1.036   2.695  0.00  0.00     0.026 A 
ATOM      8  C6  UNL d   1      -0.880   0.720   1.887  0.00  0.00    -0.082 A 
ATOM      9  C7  UNL d   1      -0.110  -0.465   1.804  0.00  0.00     0.045 A 
ENDROOT
TORSDOF 0
ENDMDL
