MODEL 1
REMARK minimizedAffinity -2.40103245
REMARK minimizedRMSD -1
REMARK  0 active torsions:
REMARK  status: ('A' for Active; 'I' for Inactive)
ROOT
ATOM      1  C   UNL d   1       1.442   1.752   0.967  0.00  0.00    -0.002 A 
ATOM      2  C1  UNL d   1       1.491   0.365   0.955  0.00  0.00     0.010 A 
ATOM      3  C2  UNL d   1       0.439  -0.388   1.480  0.00  0.00     0.041 A 
ATOM      4  C3  UNL d   1      -0.676   0.283   2.020  0.00  0.00    -0.075 A 
ATOM      5  S   UNL d   1      -2.082  -0.432   2.717  0.00  0.00     0.015 SA
ATOM      6  C4  UNL d   1      -2.782   1.087   3.046  0.00  0.00     0.022 A 
ATOM      7  C5  UNL d   1      -1.976   2.125   2.641  0.00  0.00     0.026 A 
ATOM      8  C6  UNL d   1      -0.749   1.679   2.043  0.00  0.00    -0.082 A 
ATOM      9  C7  UNL d   1       0.334   2.414   1.504  0.00  0.00     0.045 A 
ENDROOT
TORSDOF 0
ENDMDL
