MODEL 1
REMARK minimizedAffinity -1.40824163
REMARK minimizedRMSD -1
REMARK  0 active torsions:
REMARK  status: ('A' for Active; 'I' for Inactive)
ROOT
ATOM      1  C   UNL d   1      -3.536   1.503   3.485  0.00  0.00    -0.002 A 
ATOM      2  C1  UNL d   1      -2.928   2.717   3.199  0.00  0.00     0.010 A 
ATOM      3  C2  UNL d   1      -1.785   2.767   2.399  0.00  0.00     0.041 A 
ATOM      4  C3  UNL d   1      -1.259   1.565   1.885  0.00  0.00    -0.075 A 
ATOM      5  S   UNL d   1       0.131   1.383   0.882  0.00  0.00     0.015 SA
ATOM      6  C4  UNL d   1      -0.050  -0.310   0.809  0.00  0.00     0.022 A 
ATOM      7  C5  UNL d   1      -1.140  -0.743   1.528  0.00  0.00     0.026 A 
ATOM      8  C6  UNL d   1      -1.855   0.331   2.159  0.00  0.00    -0.082 A 
ATOM      9  C7  UNL d   1      -3.012   0.313   2.974  0.00  0.00     0.045 A 
ENDROOT
TORSDOF 0
ENDMDL
