MODEL 1
REMARK minimizedAffinity 3.34153223
REMARK minimizedRMSD -1
REMARK  0 active torsions:
REMARK  status: ('A' for Active; 'I' for Inactive)
ROOT
ATOM      1  C   UNL d   1       0.600  -0.014   0.829  0.00  0.00    -0.002 A 
ATOM      2  C1  UNL d   1      -0.313  -0.969   1.255  0.00  0.00     0.010 A 
ATOM      3  C2  UNL d   1      -1.467  -0.591   1.943  0.00  0.00     0.041 A 
ATOM      4  C3  UNL d   1      -1.692   0.777   2.197  0.00  0.00    -0.075 A 
ATOM      5  S   UNL d   1      -3.036   1.474   3.022  0.00  0.00     0.015 SA
ATOM      6  C4  UNL d   1      -2.431   3.055   2.828  0.00  0.00     0.022 A 
ATOM      7  C5  UNL d   1      -1.233   3.069   2.153  0.00  0.00     0.026 A 
ATOM      8  C6  UNL d   1      -0.788   1.757   1.778  0.00  0.00    -0.082 A 
ATOM      9  C7  UNL d   1       0.374   1.341   1.083  0.00  0.00     0.045 A 
ENDROOT
TORSDOF 0
ENDMDL
