MODEL 1
REMARK minimizedAffinity 2.53629494
REMARK minimizedRMSD -1
REMARK  0 active torsions:
REMARK  status: ('A' for Active; 'I' for Inactive)
ROOT
ATOM      1  C   UNL d   1       0.546   0.312   1.082  0.00  0.00    -0.002 A 
ATOM      2  C1  UNL d   1      -0.140  -0.869   1.325  0.00  0.00     0.010 A 
ATOM      3  C2  UNL d   1      -1.359  -0.855   2.006  0.00  0.00     0.041 A 
ATOM      4  C3  UNL d   1      -1.883   0.379   2.441  0.00  0.00    -0.075 A 
ATOM      5  S   UNL d   1      -3.359   0.639   3.292  0.00  0.00     0.015 SA
ATOM      6  C4  UNL d   1      -3.114   2.325   3.352  0.00  0.00     0.022 A 
ATOM      7  C5  UNL d   1      -1.939   2.697   2.742  0.00  0.00     0.026 A 
ATOM      8  C6  UNL d   1      -1.210   1.581   2.206  0.00  0.00    -0.082 A 
ATOM      9  C7  UNL d   1       0.024   1.534   1.514  0.00  0.00     0.045 A 
ENDROOT
TORSDOF 0
ENDMDL
