MODEL 1
REMARK minimizedAffinity 1.78533661
REMARK minimizedRMSD -1
REMARK  0 active torsions:
REMARK  status: ('A' for Active; 'I' for Inactive)
ROOT
ATOM      1  C   UNL d   1       0.516   1.390   1.116  0.00  0.00    -0.002 A 
ATOM      2  C1  UNL d   1       0.288   0.022   1.143  0.00  0.00     0.010 A 
ATOM      3  C2  UNL d   1      -0.859  -0.495   1.751  0.00  0.00     0.041 A 
ATOM      4  C3  UNL d   1      -1.782   0.396   2.333  0.00  0.00    -0.075 A 
ATOM      5  S   UNL d   1      -3.255  -0.009   3.131  0.00  0.00     0.015 SA
ATOM      6  C4  UNL d   1      -3.617   1.625   3.453  0.00  0.00     0.022 A 
ATOM      7  C5  UNL d   1      -2.648   2.473   2.971  0.00  0.00     0.026 A 
ATOM      8  C6  UNL d   1      -1.574   1.778   2.317  0.00  0.00    -0.082 A 
ATOM      9  C7  UNL d   1      -0.402   2.271   1.695  0.00  0.00     0.045 A 
ENDROOT
TORSDOF 0
ENDMDL
