MODEL 1
REMARK minimizedAffinity 0.61304462
REMARK minimizedRMSD -1
REMARK  0 active torsions:
REMARK  status: ('A' for Active; 'I' for Inactive)
ROOT
ATOM      1  C   UNL d   1       0.139   1.480   1.022  0.00  0.00    -0.002 A 
ATOM      2  C1  UNL d   1      -0.136   0.123   1.111  0.00  0.00     0.010 A 
ATOM      3  C2  UNL d   1      -1.240  -0.333   1.834  0.00  0.00     0.041 A 
ATOM      4  C3  UNL d   1      -2.072   0.609   2.471  0.00  0.00    -0.075 A 
ATOM      5  S   UNL d   1      -3.481   0.283   3.411  0.00  0.00     0.015 SA
ATOM      6  C4  UNL d   1      -3.751   1.938   3.717  0.00  0.00     0.022 A 
ATOM      7  C5  UNL d   1      -2.799   2.733   3.124  0.00  0.00     0.026 A 
ATOM      8  C6  UNL d   1      -1.816   1.981   2.396  0.00  0.00    -0.082 A 
ATOM      9  C7  UNL d   1      -0.689   2.410   1.656  0.00  0.00     0.045 A 
ENDROOT
TORSDOF 0
ENDMDL
