MODEL 1
REMARK minimizedAffinity 12.5128679
REMARK minimizedRMSD -1
REMARK  1 active torsions:
REMARK  status: ('A' for Active; 'I' for Inactive)
REMARK    1  A    between atoms: N_2  and  C1_3 
ROOT
ATOM      1  C1  UNL d   1      -3.995   1.270   3.988  0.00  0.00     0.143 A 
ATOM      2  C2  UNL d   1      -4.338  -0.038   4.347  0.00  0.00    -0.057 A 
ATOM      3  C3  UNL d   1      -3.768  -1.141   3.700  0.00  0.00     0.033 A 
ATOM      4  C4  UNL d   1      -2.864  -0.954   2.659  0.00  0.00    -0.042 A 
ATOM      5  C5  UNL d   1      -2.528   0.337   2.269  0.00  0.00     0.033 A 
ATOM      6  C6  UNL d   1      -3.095   1.435   2.924  0.00  0.00    -0.057 A 
ENDROOT
BRANCH   1   7
ATOM      7  N   UNL d   1      -4.600   2.409   4.527  0.00  0.00    -0.732 N 
ATOM      8  C   UNL d   1      -5.812   2.945   3.944  0.00  0.00     0.284 C 
ATOM      9  H3  UNL d   1      -4.593   2.408   5.544  0.00  0.00     0.395 HD
ENDBRANCH   1   7
TORSDOF 1
ENDMDL
