MODEL 1
REMARK minimizedAffinity 18.7156429
REMARK minimizedRMSD -1
REMARK  1 active torsions:
REMARK  status: ('A' for Active; 'I' for Inactive)
REMARK    1  A    between atoms: N_2  and  C1_3 
ROOT
ATOM      1  C1  UNL d   1       2.359  -1.141  -0.541  0.00  0.00     0.143 A 
ATOM      2  C2  UNL d   1       3.066  -0.060  -0.004  0.00  0.00    -0.057 A 
ATOM      3  C3  UNL d   1       3.234   1.128  -0.726  0.00  0.00     0.033 A 
ATOM      4  C4  UNL d   1       2.720   1.246  -2.013  0.00  0.00    -0.042 A 
ATOM      5  C5  UNL d   1       2.034   0.176  -2.576  0.00  0.00     0.033 A 
ATOM      6  C6  UNL d   1       1.865  -1.006  -1.848  0.00  0.00    -0.057 A 
ENDROOT
BRANCH   1   7
ATOM      7  N   UNL d   1       2.243  -2.383   0.087  0.00  0.00    -0.732 N 
ATOM      8  C   UNL d   1       1.175  -3.293  -0.270  0.00  0.00     0.284 C 
ATOM      9  H3  UNL d   1       3.144  -2.835   0.225  0.00  0.00     0.395 HD
ENDBRANCH   1   7
TORSDOF 1
ENDMDL
