MODEL 1
REMARK minimizedAffinity 11.0008812
REMARK minimizedRMSD -1
REMARK  1 active torsions:
REMARK  status: ('A' for Active; 'I' for Inactive)
REMARK    1  A    between atoms: N_2  and  C1_3 
ROOT
ATOM      1  C1  UNL d   1      -4.157  -2.862   2.245  0.00  0.00     0.143 A 
ATOM      2  C2  UNL d   1      -3.335  -3.979   2.061  0.00  0.00    -0.057 A 
ATOM      3  C3  UNL d   1      -3.698  -5.011   1.187  0.00  0.00     0.033 A 
ATOM      4  C4  UNL d   1      -4.907  -4.958   0.502  0.00  0.00    -0.042 A 
ATOM      5  C5  UNL d   1      -5.751  -3.869   0.688  0.00  0.00     0.033 A 
ATOM      6  C6  UNL d   1      -5.380  -2.838   1.557  0.00  0.00    -0.057 A 
ENDROOT
BRANCH   1   7
ATOM      7  N   UNL d   1      -3.898  -1.850   3.173  0.00  0.00    -0.732 N 
ATOM      8  C   UNL d   1      -3.622  -0.499   2.734  0.00  0.00     0.284 C 
ATOM      9  H3  UNL d   1      -4.505  -1.907   3.988  0.00  0.00     0.395 HD
ENDBRANCH   1   7
TORSDOF 1
ENDMDL
