MODEL 1
REMARK minimizedAffinity 5.05435038
REMARK minimizedRMSD -1
REMARK  1 active torsions:
REMARK  status: ('A' for Active; 'I' for Inactive)
REMARK    1  A    between atoms: N_2  and  C1_3 
ROOT
ATOM      1  C1  UNL d   1      -2.822   3.847  -5.603  0.00  0.00     0.143 A 
ATOM      2  C2  UNL d   1      -1.496   4.058  -5.998  0.00  0.00    -0.057 A 
ATOM      3  C3  UNL d   1      -0.454   3.273  -5.489  0.00  0.00     0.033 A 
ATOM      4  C4  UNL d   1      -0.717   2.279  -4.552  0.00  0.00    -0.042 A 
ATOM      5  C5  UNL d   1      -2.024   2.069  -4.126  0.00  0.00     0.033 A 
ATOM      6  C6  UNL d   1      -3.061   2.852  -4.643  0.00  0.00    -0.057 A 
ENDROOT
BRANCH   1   7
ATOM      7  N   UNL d   1      -3.889   4.658  -5.997  0.00  0.00    -0.732 N 
ATOM      8  C   UNL d   1      -5.242   4.147  -5.999  0.00  0.00     0.284 C 
ATOM      9  H3  UNL d   1      -3.804   5.609  -5.646  0.00  0.00     0.395 HD
ENDBRANCH   1   7
TORSDOF 1
ENDMDL
