MODEL 1
REMARK minimizedAffinity 4.31019306
REMARK minimizedRMSD -1
REMARK  1 active torsions:
REMARK  status: ('A' for Active; 'I' for Inactive)
REMARK    1  A    between atoms: N_2  and  C1_3 
ROOT
ATOM      1  C1  UNL d   1      -2.898   2.989  -5.343  0.00  0.00     0.143 A 
ATOM      2  C2  UNL d   1      -2.496   1.821  -6.000  0.00  0.00    -0.057 A 
ATOM      3  C3  UNL d   1      -1.927   0.752  -5.298  0.00  0.00     0.033 A 
ATOM      4  C4  UNL d   1      -1.721   0.845  -3.925  0.00  0.00    -0.042 A 
ATOM      5  C5  UNL d   1      -2.090   2.006  -3.255  0.00  0.00     0.033 A 
ATOM      6  C6  UNL d   1      -2.664   3.067  -3.961  0.00  0.00    -0.057 A 
ENDROOT
BRANCH   1   7
ATOM      7  N   UNL d   1      -3.379   4.125  -6.000  0.00  0.00    -0.732 N 
ATOM      8  C   UNL d   1      -2.652   5.375  -5.939  0.00  0.00     0.284 C 
ATOM      9  H3  UNL d   1      -3.760   3.910  -6.918  0.00  0.00     0.395 HD
ENDBRANCH   1   7
TORSDOF 1
ENDMDL
