MODEL 1
REMARK minimizedAffinity 9.43793297
REMARK minimizedRMSD -1
REMARK  1 active torsions:
REMARK  status: ('A' for Active; 'I' for Inactive)
REMARK    1  A    between atoms: N_2  and  C1_3 
ROOT
ATOM      1  C1  UNL d   1      -3.878  -1.210   3.979  0.00  0.00     0.143 A 
ATOM      2  C2  UNL d   1      -4.695  -1.591   2.909  0.00  0.00    -0.057 A 
ATOM      3  C3  UNL d   1      -4.709  -0.865   1.712  0.00  0.00     0.033 A 
ATOM      4  C4  UNL d   1      -3.926   0.276   1.574  0.00  0.00    -0.042 A 
ATOM      5  C5  UNL d   1      -3.125   0.688   2.634  0.00  0.00     0.033 A 
ATOM      6  C6  UNL d   1      -3.110  -0.045   3.824  0.00  0.00    -0.057 A 
ENDROOT
BRANCH   1   7
ATOM      7  N   UNL d   1      -3.893  -1.833   5.229  0.00  0.00    -0.732 N 
ATOM      8  C   UNL d   1      -3.894  -3.277   5.333  0.00  0.00     0.284 C 
ATOM      9  H3  UNL d   1      -3.287  -1.369   5.902  0.00  0.00     0.395 HD
ENDBRANCH   1   7
TORSDOF 1
ENDMDL
