MODEL 1
REMARK minimizedAffinity 9.64969921
REMARK minimizedRMSD -1
REMARK  1 active torsions:
REMARK  status: ('A' for Active; 'I' for Inactive)
REMARK    1  A    between atoms: N_2  and  C1_3 
ROOT
ATOM      1  C1  UNL d   1       2.816  -1.552  -0.411  0.00  0.00     0.143 A 
ATOM      2  C2  UNL d   1       2.157  -0.645  -1.248  0.00  0.00    -0.057 A 
ATOM      3  C3  UNL d   1       2.711   0.607  -1.541  0.00  0.00     0.033 A 
ATOM      4  C4  UNL d   1       3.924   0.987  -0.976  0.00  0.00    -0.042 A 
ATOM      5  C5  UNL d   1       4.585   0.111  -0.122  0.00  0.00     0.033 A 
ATOM      6  C6  UNL d   1       4.030  -1.140   0.161  0.00  0.00    -0.057 A 
ENDROOT
BRANCH   1   7
ATOM      7  N   UNL d   1       2.271  -2.772  -0.003  0.00  0.00    -0.732 N 
ATOM      8  C   UNL d   1       3.101  -3.953   0.098  0.00  0.00     0.284 C 
ATOM      9  H3  UNL d   1       1.606  -2.665   0.759  0.00  0.00     0.395 HD
ENDBRANCH   1   7
TORSDOF 1
ENDMDL
