MODEL 1
REMARK minimizedAffinity 5.03666687
REMARK minimizedRMSD -1
REMARK  1 active torsions:
REMARK  status: ('A' for Active; 'I' for Inactive)
REMARK    1  A    between atoms: N_2  and  C1_3 
ROOT
ATOM      1  C1  UNL d   1      -3.253  -4.186  -5.995  0.00  0.00     0.143 A 
ATOM      2  C2  UNL d   1      -3.671  -5.522  -5.988  0.00  0.00    -0.057 A 
ATOM      3  C3  UNL d   1      -5.031  -5.857  -5.992  0.00  0.00     0.033 A 
ATOM      4  C4  UNL d   1      -5.999  -4.859  -5.974  0.00  0.00    -0.042 A 
ATOM      5  C5  UNL d   1      -5.607  -3.525  -5.955  0.00  0.00     0.033 A 
ATOM      6  C6  UNL d   1      -4.248  -3.197  -5.957  0.00  0.00    -0.057 A 
ENDROOT
BRANCH   1   7
ATOM      7  N   UNL d   1      -1.918  -3.789  -5.891  0.00  0.00    -0.732 N 
ATOM      8  C   UNL d   1      -1.356  -3.418  -4.610  0.00  0.00     0.284 C 
ATOM      9  H3  UNL d   1      -1.299  -4.353  -6.469  0.00  0.00     0.395 HD
ENDBRANCH   1   7
TORSDOF 1
ENDMDL
