MODEL 1
REMARK minimizedAffinity 2.65314198
REMARK minimizedRMSD -1
REMARK  1 active torsions:
REMARK  status: ('A' for Active; 'I' for Inactive)
REMARK    1  A    between atoms: N_2  and  C1_3 
ROOT
ATOM      1  C1  UNL d   1       2.964  -4.062  -1.864  0.00  0.00     0.143 A 
ATOM      2  C2  UNL d   1       3.999  -4.553  -2.667  0.00  0.00    -0.057 A 
ATOM      3  C3  UNL d   1       4.234  -4.034  -3.946  0.00  0.00     0.033 A 
ATOM      4  C4  UNL d   1       3.417  -3.032  -4.458  0.00  0.00    -0.042 A 
ATOM      5  C5  UNL d   1       2.366  -2.546  -3.687  0.00  0.00     0.033 A 
ATOM      6  C6  UNL d   1       2.141  -3.063  -2.408  0.00  0.00    -0.057 A 
ENDROOT
BRANCH   1   7
ATOM      7  N   UNL d   1       2.618  -4.603  -0.624  0.00  0.00    -0.732 N 
ATOM      8  C   UNL d   1       2.873  -5.997  -0.331  0.00  0.00     0.284 C 
ATOM      9  H3  UNL d   1       2.825  -3.972   0.147  0.00  0.00     0.395 HD
ENDBRANCH   1   7
TORSDOF 1
ENDMDL
