MODEL 1
REMARK minimizedAffinity 3.20818186
REMARK minimizedRMSD -1
REMARK  1 active torsions:
REMARK  status: ('A' for Active; 'I' for Inactive)
REMARK    1  A    between atoms: N_2  and  C1_3 
ROOT
ATOM      1  C1  UNL d   1       2.367  -1.142  -1.778  0.00  0.00     0.143 A 
ATOM      2  C2  UNL d   1       2.094  -1.911  -0.643  0.00  0.00    -0.057 A 
ATOM      3  C3  UNL d   1       1.829  -3.283  -0.741  0.00  0.00     0.033 A 
ATOM      4  C4  UNL d   1       1.804  -3.905  -1.985  0.00  0.00    -0.042 A 
ATOM      5  C5  UNL d   1       2.048  -3.154  -3.130  0.00  0.00     0.033 A 
ATOM      6  C6  UNL d   1       2.318  -1.786  -3.024  0.00  0.00    -0.057 A 
ENDROOT
BRANCH   1   7
ATOM      7  N   UNL d   1       2.541   0.244  -1.755  0.00  0.00    -0.732 N 
ATOM      8  C   UNL d   1       3.295   0.875  -0.694  0.00  0.00     0.284 C 
ATOM      9  H3  UNL d   1       2.723   0.628  -2.680  0.00  0.00     0.395 HD
ENDBRANCH   1   7
TORSDOF 1
ENDMDL
