MODEL 1
REMARK minimizedAffinity 3.23969674
REMARK minimizedRMSD -1
REMARK  1 active torsions:
REMARK  status: ('A' for Active; 'I' for Inactive)
REMARK    1  A    between atoms: N_2  and  C1_3 
ROOT
ATOM      1  C1  UNL d   1       1.213  -2.764  -2.076  0.00  0.00     0.143 A 
ATOM      2  C2  UNL d   1       1.830  -3.411  -1.000  0.00  0.00    -0.057 A 
ATOM      3  C3  UNL d   1       2.736  -2.737  -0.171  0.00  0.00     0.033 A 
ATOM      4  C4  UNL d   1       3.062  -1.409  -0.421  0.00  0.00    -0.042 A 
ATOM      5  C5  UNL d   1       2.479  -0.753  -1.500  0.00  0.00     0.033 A 
ATOM      6  C6  UNL d   1       1.571  -1.429  -2.320  0.00  0.00    -0.057 A 
ENDROOT
BRANCH   1   7
ATOM      7  N   UNL d   1       0.380  -3.406  -2.995  0.00  0.00    -0.732 N 
ATOM      8  C   UNL d   1      -0.902  -3.936  -2.583  0.00  0.00     0.284 C 
ATOM      9  H3  UNL d   1       0.365  -2.938  -3.899  0.00  0.00     0.395 HD
ENDBRANCH   1   7
TORSDOF 1
ENDMDL
