MODEL 1
REMARK minimizedAffinity 6.62859154
REMARK minimizedRMSD -1
REMARK  1 active torsions:
REMARK  status: ('A' for Active; 'I' for Inactive)
REMARK    1  A    between atoms: N_2  and  C1_3 
ROOT
ATOM      1  C1  UNL d   1       2.539  -2.857  -1.086  0.00  0.00     0.143 A 
ATOM      2  C2  UNL d   1       2.437  -1.466  -1.200  0.00  0.00    -0.057 A 
ATOM      3  C3  UNL d   1       1.802  -0.872  -2.298  0.00  0.00     0.033 A 
ATOM      4  C4  UNL d   1       1.283  -1.660  -3.319  0.00  0.00    -0.042 A 
ATOM      5  C5  UNL d   1       1.396  -3.044  -3.240  0.00  0.00     0.033 A 
ATOM      6  C6  UNL d   1       2.025  -3.631  -2.138  0.00  0.00    -0.057 A 
ENDROOT
BRANCH   1   7
ATOM      7  N   UNL d   1       3.244  -3.504  -0.069  0.00  0.00    -0.732 N 
ATOM      8  C   UNL d   1       4.691  -3.512  -0.064  0.00  0.00     0.284 C 
ATOM      9  H3  UNL d   1       2.826  -3.358   0.847  0.00  0.00     0.395 HD
ENDBRANCH   1   7
TORSDOF 1
ENDMDL
