MODEL 1
REMARK minimizedAffinity 7.18480062
REMARK minimizedRMSD -1
REMARK  1 active torsions:
REMARK  status: ('A' for Active; 'I' for Inactive)
REMARK    1  A    between atoms: N_2  and  C1_3 
ROOT
ATOM      1  C1  UNL d   1       3.098  -2.536  -0.999  0.00  0.00     0.143 A 
ATOM      2  C2  UNL d   1       2.694  -1.241  -0.656  0.00  0.00    -0.057 A 
ATOM      3  C3  UNL d   1       2.157  -0.371  -1.612  0.00  0.00     0.033 A 
ATOM      4  C4  UNL d   1       2.042  -0.771  -2.939  0.00  0.00    -0.042 A 
ATOM      5  C5  UNL d   1       2.461  -2.045  -3.308  0.00  0.00     0.033 A 
ATOM      6  C6  UNL d   1       2.990  -2.912  -2.347  0.00  0.00    -0.057 A 
ENDROOT
BRANCH   1   7
ATOM      7  N   UNL d   1       3.730  -3.414  -0.114  0.00  0.00    -0.732 N 
ATOM      8  C   UNL d   1       5.173  -3.459  -0.026  0.00  0.00     0.284 C 
ATOM      9  H3  UNL d   1       3.256  -3.466   0.785  0.00  0.00     0.395 HD
ENDBRANCH   1   7
TORSDOF 1
ENDMDL
