MODEL 1
REMARK minimizedAffinity 10.0141621
REMARK minimizedRMSD -1
REMARK  1 active torsions:
REMARK  status: ('A' for Active; 'I' for Inactive)
REMARK    1  A    between atoms: N_2  and  C1_3 
ROOT
ATOM      1  C1  UNL d   1       2.218  -2.358  -1.085  0.00  0.00     0.143 A 
ATOM      2  C2  UNL d   1       2.108  -0.969  -1.209  0.00  0.00    -0.057 A 
ATOM      3  C3  UNL d   1       1.754  -0.375  -2.427  0.00  0.00     0.033 A 
ATOM      4  C4  UNL d   1       1.532  -1.161  -3.552  0.00  0.00    -0.042 A 
ATOM      5  C5  UNL d   1       1.659  -2.542  -3.458  0.00  0.00     0.033 A 
ATOM      6  C6  UNL d   1       2.007  -3.130  -2.238  0.00  0.00    -0.057 A 
ENDROOT
BRANCH   1   7
ATOM      7  N   UNL d   1       2.662  -3.003   0.072  0.00  0.00    -0.732 N 
ATOM      8  C   UNL d   1       4.076  -3.201   0.309  0.00  0.00     0.284 C 
ATOM      9  H3  UNL d   1       2.138  -2.724   0.898  0.00  0.00     0.395 HD
ENDBRANCH   1   7
TORSDOF 1
ENDMDL
