MODEL 1
REMARK minimizedAffinity 12.9081144
REMARK minimizedRMSD -1
REMARK  1 active torsions:
REMARK  status: ('A' for Active; 'I' for Inactive)
REMARK    1  A    between atoms: C1_2  and  C2_3 
ROOT
ATOM      1  C2  UNL d   1      -3.127   3.148  -4.499  0.00  0.00    -0.081 A 
ATOM      2  C3  UNL d   1      -2.722   4.167  -5.370  0.00  0.00     0.006 A 
ATOM      3  C4  UNL d   1      -3.651   5.084  -5.868  0.00  0.00     0.002 A 
ATOM      4  C5  UNL d   1      -4.998   5.003  -5.497  0.00  0.00    -0.080 A 
ATOM      5  C6  UNL d   1      -5.999   5.999  -6.000  0.00  0.00     0.076 C 
ATOM      6  C7  UNL d   1      -5.406   3.974  -4.640  0.00  0.00     0.002 A 
ATOM      7  C8  UNL d   1      -4.477   3.057  -4.143  0.00  0.00     0.006 A 
ENDROOT
BRANCH   1   8
ATOM      8  C1  UNL d   1      -2.117   2.197  -3.910  0.00  0.00     0.054 C 
ATOM      9  C   UNL d   1      -1.164   2.916  -2.968  0.00  0.00     0.018 C 
ENDBRANCH   1   8
TORSDOF 1
ENDMDL
