MODEL 1
REMARK minimizedAffinity 15.691328
REMARK minimizedRMSD -1
REMARK  1 active torsions:
REMARK  status: ('A' for Active; 'I' for Inactive)
REMARK    1  A    between atoms: C1_2  and  C2_3 
ROOT
ATOM      1  C2  UNL d   1      -1.394  -2.448   1.375  0.00  0.00    -0.081 A 
ATOM      2  C3  UNL d   1      -2.308  -3.191   0.618  0.00  0.00     0.006 A 
ATOM      3  C4  UNL d   1      -2.061  -3.454  -0.732  0.00  0.00     0.002 A 
ATOM      4  C5  UNL d   1      -0.894  -2.986  -1.344  0.00  0.00    -0.080 A 
ATOM      5  C6  UNL d   1      -0.603  -3.287  -2.784  0.00  0.00     0.076 C 
ATOM      6  C7  UNL d   1       0.010  -2.228  -0.593  0.00  0.00     0.002 A 
ATOM      7  C8  UNL d   1      -0.236  -1.964   0.757  0.00  0.00     0.006 A 
ENDROOT
BRANCH   1   8
ATOM      8  C1  UNL d   1      -1.626  -2.218   2.846  0.00  0.00     0.054 C 
ATOM      9  C   UNL d   1      -2.073  -0.789   3.119  0.00  0.00     0.018 C 
ENDBRANCH   1   8
TORSDOF 1
ENDMDL
