MODEL 1
REMARK minimizedAffinity 8.47062111
REMARK minimizedRMSD -1
REMARK  1 active torsions:
REMARK  status: ('A' for Active; 'I' for Inactive)
REMARK    1  A    between atoms: C1_2  and  C2_3 
ROOT
ATOM      1  C2  UNL d   1       3.151   2.776   0.497  0.00  0.00    -0.081 A 
ATOM      2  C3  UNL d   1       1.905   2.785  -0.141  0.00  0.00     0.006 A 
ATOM      3  C4  UNL d   1       0.987   1.756   0.082  0.00  0.00     0.002 A 
ATOM      4  C5  UNL d   1       1.296   0.705   0.952  0.00  0.00    -0.080 A 
ATOM      5  C6  UNL d   1       0.308  -0.390   1.224  0.00  0.00     0.076 C 
ATOM      6  C7  UNL d   1       2.548   0.687   1.577  0.00  0.00     0.002 A 
ATOM      7  C8  UNL d   1       3.466   1.715   1.354  0.00  0.00     0.006 A 
ENDROOT
BRANCH   1   8
ATOM      8  C1  UNL d   1       4.117   3.917   0.309  0.00  0.00     0.054 C 
ATOM      9  C   UNL d   1       4.772   4.311   1.625  0.00  0.00     0.018 C 
ENDBRANCH   1   8
TORSDOF 1
ENDMDL
