MODEL 1
REMARK minimizedAffinity 11.591032
REMARK minimizedRMSD -1
REMARK  1 active torsions:
REMARK  status: ('A' for Active; 'I' for Inactive)
REMARK    1  A    between atoms: C1_2  and  C2_3 
ROOT
ATOM      1  C2  UNL d   1       0.444  -1.004   0.252  0.00  0.00    -0.081 A 
ATOM      2  C3  UNL d   1       0.404  -1.150  -1.140  0.00  0.00     0.006 A 
ATOM      3  C4  UNL d   1      -0.378  -2.149  -1.725  0.00  0.00     0.002 A 
ATOM      4  C5  UNL d   1      -1.140  -3.011  -0.929  0.00  0.00    -0.080 A 
ATOM      5  C6  UNL d   1      -2.008  -4.068  -1.545  0.00  0.00     0.076 C 
ATOM      6  C7  UNL d   1      -1.086  -2.876   0.463  0.00  0.00     0.002 A 
ATOM      7  C8  UNL d   1      -0.303  -1.879   1.048  0.00  0.00     0.006 A 
ENDROOT
BRANCH   1   8
ATOM      8  C1  UNL d   1       1.237   0.113   0.883  0.00  0.00     0.054 C 
ATOM      9  C   UNL d   1       1.275   1.340  -0.016  0.00  0.00     0.018 C 
ENDBRANCH   1   8
TORSDOF 1
ENDMDL
