MODEL 1
REMARK minimizedAffinity 15.8209572
REMARK minimizedRMSD -1
REMARK  1 active torsions:
REMARK  status: ('A' for Active; 'I' for Inactive)
REMARK    1  A    between atoms: C1_2  and  C2_3 
ROOT
ATOM      1  C2  UNL d   1      -0.403  -1.992   0.336  0.00  0.00    -0.081 A 
ATOM      2  C3  UNL d   1      -0.005  -2.249  -0.982  0.00  0.00     0.006 A 
ATOM      3  C4  UNL d   1      -0.724  -3.144  -1.777  0.00  0.00     0.002 A 
ATOM      4  C5  UNL d   1      -1.857  -3.790  -1.273  0.00  0.00    -0.080 A 
ATOM      5  C6  UNL d   1      -2.656  -4.730  -2.126  0.00  0.00     0.076 C 
ATOM      6  C7  UNL d   1      -2.246  -3.546   0.049  0.00  0.00     0.002 A 
ATOM      7  C8  UNL d   1      -1.527  -2.652   0.845  0.00  0.00     0.006 A 
ENDROOT
BRANCH   1   8
ATOM      8  C1  UNL d   1       0.332  -0.978   1.175  0.00  0.00     0.054 C 
ATOM      9  C   UNL d   1       1.727  -1.467   1.536  0.00  0.00     0.018 C 
ENDBRANCH   1   8
TORSDOF 1
ENDMDL
