MODEL 1
REMARK minimizedAffinity 10.8261127
REMARK minimizedRMSD -1
REMARK  1 active torsions:
REMARK  status: ('A' for Active; 'I' for Inactive)
REMARK    1  A    between atoms: C1_2  and  C2_3 
ROOT
ATOM      1  C2  UNL d   1      -0.610   0.949   1.687  0.00  0.00    -0.081 A 
ATOM      2  C3  UNL d   1      -1.495   0.794   2.761  0.00  0.00     0.006 A 
ATOM      3  C4  UNL d   1      -1.876  -0.481   3.187  0.00  0.00     0.002 A 
ATOM      4  C5  UNL d   1      -1.372  -1.621   2.553  0.00  0.00    -0.080 A 
ATOM      5  C6  UNL d   1      -1.749  -2.996   3.020  0.00  0.00     0.076 C 
ATOM      6  C7  UNL d   1      -0.501  -1.467   1.469  0.00  0.00     0.002 A 
ATOM      7  C8  UNL d   1      -0.120  -0.192   1.042  0.00  0.00     0.006 A 
ENDROOT
BRANCH   1   8
ATOM      8  C1  UNL d   1      -0.147   2.320   1.267  0.00  0.00     0.054 C 
ATOM      9  C   UNL d   1       1.156   2.248   0.484  0.00  0.00     0.018 C 
ENDBRANCH   1   8
TORSDOF 1
ENDMDL
