MODEL 1
REMARK minimizedAffinity 13.7477655
REMARK minimizedRMSD -1
REMARK  1 active torsions:
REMARK  status: ('A' for Active; 'I' for Inactive)
REMARK    1  A    between atoms: C1_2  and  C2_3 
ROOT
ATOM      1  C2  UNL d   1       1.658   3.116   0.781  0.00  0.00    -0.081 A 
ATOM      2  C3  UNL d   1       1.477   2.205  -0.267  0.00  0.00     0.006 A 
ATOM      3  C4  UNL d   1       1.286   0.847   0.001  0.00  0.00     0.002 A 
ATOM      4  C5  UNL d   1       1.265   0.380   1.320  0.00  0.00    -0.080 A 
ATOM      5  C6  UNL d   1       1.030  -1.070   1.622  0.00  0.00     0.076 C 
ATOM      6  C7  UNL d   1       1.463   1.288   2.365  0.00  0.00     0.002 A 
ATOM      7  C8  UNL d   1       1.655   2.645   2.098  0.00  0.00     0.006 A 
ENDROOT
BRANCH   1   8
ATOM      8  C1  UNL d   1       1.799   4.590   0.498  0.00  0.00     0.054 C 
ATOM      9  C   UNL d   1       0.554   5.146  -0.179  0.00  0.00     0.018 C 
ENDBRANCH   1   8
TORSDOF 1
ENDMDL
