MODEL 1
REMARK minimizedAffinity 13.6638222
REMARK minimizedRMSD -1
REMARK  1 active torsions:
REMARK  status: ('A' for Active; 'I' for Inactive)
REMARK    1  A    between atoms: C1_2  and  C2_3 
ROOT
ATOM      1  C2  UNL d   1       0.962  -4.998  -3.171  0.00  0.00    -0.081 A 
ATOM      2  C3  UNL d   1      -0.231  -5.623  -2.788  0.00  0.00     0.006 A 
ATOM      3  C4  UNL d   1      -1.102  -4.999  -1.892  0.00  0.00     0.002 A 
ATOM      4  C5  UNL d   1      -0.798  -3.738  -1.369  0.00  0.00    -0.080 A 
ATOM      5  C6  UNL d   1      -1.739  -3.044  -0.429  0.00  0.00     0.076 C 
ATOM      6  C7  UNL d   1       0.402  -3.120  -1.738  0.00  0.00     0.002 A 
ATOM      7  C8  UNL d   1       1.273  -3.744  -2.634  0.00  0.00     0.006 A 
ENDROOT
BRANCH   1   8
ATOM      8  C1  UNL d   1       1.872  -5.639  -4.187  0.00  0.00     0.054 C 
ATOM      9  C   UNL d   1       1.129  -5.944  -5.480  0.00  0.00     0.018 C 
ENDBRANCH   1   8
TORSDOF 1
ENDMDL
