MODEL 1
REMARK minimizedAffinity 9.54846668
REMARK minimizedRMSD -1
REMARK  1 active torsions:
REMARK  status: ('A' for Active; 'I' for Inactive)
REMARK    1  A    between atoms: C1_2  and  C2_3 
ROOT
ATOM      1  C2  UNL d   1       1.156   3.761   0.104  0.00  0.00    -0.081 A 
ATOM      2  C3  UNL d   1       0.912   3.364   1.424  0.00  0.00     0.006 A 
ATOM      3  C4  UNL d   1       1.398   2.143   1.899  0.00  0.00     0.002 A 
ATOM      4  C5  UNL d   1       2.142   1.303   1.063  0.00  0.00    -0.080 A 
ATOM      5  C6  UNL d   1       2.696   0.004   1.569  0.00  0.00     0.076 C 
ATOM      6  C7  UNL d   1       2.371   1.691  -0.261  0.00  0.00     0.002 A 
ATOM      7  C8  UNL d   1       1.885   2.911  -0.736  0.00  0.00     0.006 A 
ENDROOT
BRANCH   1   8
ATOM      8  C1  UNL d   1       0.689   5.106  -0.391  0.00  0.00     0.054 C 
ATOM      9  C   UNL d   1       1.865   6.000  -0.757  0.00  0.00     0.018 C 
ENDBRANCH   1   8
TORSDOF 1
ENDMDL
