MODEL 1
REMARK minimizedAffinity 10.6322155
REMARK minimizedRMSD -1
REMARK  1 active torsions:
REMARK  status: ('A' for Active; 'I' for Inactive)
REMARK    1  A    between atoms: C1_2  and  C2_3 
ROOT
ATOM      1  C2  UNL d   1       4.249   2.452   3.639  0.00  0.00    -0.081 A 
ATOM      2  C3  UNL d   1       4.867   3.582   3.089  0.00  0.00     0.006 A 
ATOM      3  C4  UNL d   1       4.628   3.943   1.761  0.00  0.00     0.002 A 
ATOM      4  C5  UNL d   1       3.762   3.187   0.964  0.00  0.00    -0.080 A 
ATOM      5  C6  UNL d   1       3.473   3.581  -0.454  0.00  0.00     0.076 C 
ATOM      6  C7  UNL d   1       3.158   2.048   1.508  0.00  0.00     0.002 A 
ATOM      7  C8  UNL d   1       3.397   1.686   2.836  0.00  0.00     0.006 A 
ENDROOT
BRANCH   1   8
ATOM      8  C1  UNL d   1       4.454   2.096   5.089  0.00  0.00     0.054 C 
ATOM      9  C   UNL d   1       5.872   1.605   5.343  0.00  0.00     0.018 C 
ENDBRANCH   1   8
TORSDOF 1
ENDMDL
