MODEL 1
REMARK minimizedAffinity 7.90326691
REMARK minimizedRMSD -1
REMARK  1 active torsions:
REMARK  status: ('A' for Active; 'I' for Inactive)
REMARK    1  A    between atoms: C1_2  and  C2_3 
ROOT
ATOM      1  C2  UNL d   1       5.257   1.684  -5.911  0.00  0.00    -0.081 A 
ATOM      2  C3  UNL d   1       6.000   2.862  -5.763  0.00  0.00     0.006 A 
ATOM      3  C4  UNL d   1       5.358   4.101  -5.696  0.00  0.00     0.002 A 
ATOM      4  C5  UNL d   1       3.963   4.182  -5.767  0.00  0.00    -0.080 A 
ATOM      5  C6  UNL d   1       3.260   5.503  -5.665  0.00  0.00     0.076 C 
ATOM      6  C7  UNL d   1       3.222   3.007  -5.931  0.00  0.00     0.002 A 
ATOM      7  C8  UNL d   1       3.863   1.769  -6.000  0.00  0.00     0.006 A 
ENDROOT
BRANCH   1   8
ATOM      8  C1  UNL d   1       5.942   0.342  -5.919  0.00  0.00     0.054 C 
ATOM      9  C   UNL d   1       5.726  -0.397  -4.606  0.00  0.00     0.018 C 
ENDBRANCH   1   8
TORSDOF 1
ENDMDL
