MODEL 1
REMARK minimizedAffinity -2.83089542
REMARK minimizedRMSD -1
REMARK  1 active torsions:
REMARK  status: ('A' for Active; 'I' for Inactive)
REMARK    1  A    between atoms: C1_2  and  C2_3 
ROOT
ATOM      1  C2  UNL d   1       0.679  -0.622  -0.886  0.00  0.00    -0.076 A 
ATOM      2  C3  UNL d   1       0.808   0.762  -1.095  0.00  0.00     0.004 A 
ATOM      3  C4  UNL d   1      -0.210   1.641  -0.727  0.00  0.00    -0.003 A 
ATOM      4  C5  UNL d   1      -1.373   1.150  -0.145  0.00  0.00     0.000 A 
ATOM      5  C6  UNL d   1      -1.511  -0.218   0.086  0.00  0.00     0.000 A 
ATOM      6  C7  UNL d   1      -0.487  -1.116  -0.263  0.00  0.00    -0.073 A 
ATOM      7  C8  UNL d   1      -0.692  -2.583   0.003  0.00  0.00     0.078 C 
ENDROOT
BRANCH   1   8
ATOM      8  C1  UNL d   1       1.804  -1.530  -1.329  0.00  0.00     0.053 C 
ATOM      9  C   UNL d   1       1.754  -1.836  -2.818  0.00  0.00     0.018 C 
ENDBRANCH   1   8
TORSDOF 1
ENDMDL
