MODEL 1
REMARK minimizedAffinity -0.422085196
REMARK minimizedRMSD -1
REMARK  1 active torsions:
REMARK  status: ('A' for Active; 'I' for Inactive)
REMARK    1  A    between atoms: C1_2  and  C2_3 
ROOT
ATOM      1  C2  UNL d   1      -1.156   0.819   1.918  0.00  0.00    -0.076 A 
ATOM      2  C3  UNL d   1      -0.587   2.094   2.076  0.00  0.00     0.004 A 
ATOM      3  C4  UNL d   1      -0.896   2.886   3.180  0.00  0.00    -0.003 A 
ATOM      4  C5  UNL d   1      -1.779   2.415   4.145  0.00  0.00     0.000 A 
ATOM      5  C6  UNL d   1      -2.340   1.145   4.014  0.00  0.00     0.000 A 
ATOM      6  C7  UNL d   1      -2.026   0.327   2.914  0.00  0.00    -0.073 A 
ATOM      7  C8  UNL d   1      -2.664  -1.031   2.820  0.00  0.00     0.078 C 
ENDROOT
BRANCH   1   8
ATOM      8  C1  UNL d   1      -0.804   0.016   0.685  0.00  0.00     0.053 C 
ATOM      9  C   UNL d   1      -0.498   0.897  -0.516  0.00  0.00     0.018 C 
ENDBRANCH   1   8
TORSDOF 1
ENDMDL
