MODEL 1
REMARK minimizedAffinity -6.23395395
REMARK minimizedRMSD -1
REMARK  1 active torsions:
REMARK  status: ('A' for Active; 'I' for Inactive)
REMARK    1  A    between atoms: C1_2  and  C2_3 
ROOT
ATOM      1  C2  UNL d   1       0.213   0.358  -0.700  0.00  0.00    -0.076 A 
ATOM      2  C3  UNL d   1       0.538   1.511  -1.435  0.00  0.00     0.004 A 
ATOM      3  C4  UNL d   1       1.736   1.598  -2.141  0.00  0.00    -0.003 A 
ATOM      4  C5  UNL d   1       2.629   0.532  -2.124  0.00  0.00     0.000 A 
ATOM      5  C6  UNL d   1       2.315  -0.627  -1.414  0.00  0.00     0.000 A 
ATOM      6  C7  UNL d   1       1.104  -0.736  -0.710  0.00  0.00    -0.073 A 
ATOM      7  C8  UNL d   1       0.819  -2.007   0.043  0.00  0.00     0.078 C 
ENDROOT
BRANCH   1   8
ATOM      8  C1  UNL d   1      -1.089   0.333   0.069  0.00  0.00     0.053 C 
ATOM      9  C   UNL d   1      -2.130   1.275  -0.516  0.00  0.00     0.018 C 
ENDBRANCH   1   8
TORSDOF 1
ENDMDL
