MODEL 1
REMARK minimizedAffinity -4.72820568
REMARK minimizedRMSD -1
REMARK  1 active torsions:
REMARK  status: ('A' for Active; 'I' for Inactive)
REMARK    1  A    between atoms: C1_2  and  C2_3 
ROOT
ATOM      1  C2  UNL d   1       1.313   0.410  -1.233  0.00  0.00    -0.076 A 
ATOM      2  C3  UNL d   1       0.757   1.627  -1.665  0.00  0.00     0.004 A 
ATOM      3  C4  UNL d   1       1.223   2.260  -2.815  0.00  0.00    -0.003 A 
ATOM      4  C5  UNL d   1       2.254   1.687  -3.553  0.00  0.00     0.000 A 
ATOM      5  C6  UNL d   1       2.805   0.472  -3.149  0.00  0.00     0.000 A 
ATOM      6  C7  UNL d   1       2.335  -0.188  -2.001  0.00  0.00    -0.073 A 
ATOM      7  C8  UNL d   1       2.970  -1.494  -1.608  0.00  0.00     0.078 C 
ENDROOT
BRANCH   1   8
ATOM      8  C1  UNL d   1       0.784  -0.218   0.037  0.00  0.00     0.053 C 
ATOM      9  C   UNL d   1      -0.646   0.199   0.341  0.00  0.00     0.018 C 
ENDBRANCH   1   8
TORSDOF 1
ENDMDL
