MODEL 1
REMARK minimizedAffinity -2.01758146
REMARK minimizedRMSD -1
REMARK  1 active torsions:
REMARK  status: ('A' for Active; 'I' for Inactive)
REMARK    1  A    between atoms: C1_2  and  C2_3 
ROOT
ATOM      1  C2  UNL d   1      -1.076   0.494   1.801  0.00  0.00    -0.076 A 
ATOM      2  C3  UNL d   1       0.070  -0.066   2.393  0.00  0.00     0.004 A 
ATOM      3  C4  UNL d   1       1.052  -0.678   1.615  0.00  0.00    -0.003 A 
ATOM      4  C5  UNL d   1       0.904  -0.740   0.234  0.00  0.00     0.000 A 
ATOM      5  C6  UNL d   1      -0.218  -0.174  -0.371  0.00  0.00     0.000 A 
ATOM      6  C7  UNL d   1      -1.209   0.461   0.397  0.00  0.00    -0.073 A 
ATOM      7  C8  UNL d   1      -2.401   1.049  -0.307  0.00  0.00     0.078 C 
ENDROOT
BRANCH   1   8
ATOM      8  C1  UNL d   1      -2.120   1.120   2.697  0.00  0.00     0.053 C 
ATOM      9  C   UNL d   1      -1.988   0.676   4.146  0.00  0.00     0.018 C 
ENDBRANCH   1   8
TORSDOF 1
ENDMDL
