MODEL 1
REMARK minimizedAffinity -5.49939966
REMARK minimizedRMSD -1
REMARK  1 active torsions:
REMARK  status: ('A' for Active; 'I' for Inactive)
REMARK    1  A    between atoms: C1_2  and  C2_3 
ROOT
ATOM      1  C2  UNL d   1       0.182   0.528  -0.746  0.00  0.00    -0.076 A 
ATOM      2  C3  UNL d   1       0.720   1.496  -1.611  0.00  0.00     0.004 A 
ATOM      3  C4  UNL d   1       2.041   1.412  -2.049  0.00  0.00    -0.003 A 
ATOM      4  C5  UNL d   1       2.844   0.358  -1.630  0.00  0.00     0.000 A 
ATOM      5  C6  UNL d   1       2.322  -0.621  -0.785  0.00  0.00     0.000 A 
ATOM      6  C7  UNL d   1       0.988  -0.560  -0.347  0.00  0.00    -0.073 A 
ATOM      7  C8  UNL d   1       0.478  -1.639   0.568  0.00  0.00     0.078 C 
ENDROOT
BRANCH   1   8
ATOM      8  C1  UNL d   1      -1.248   0.686  -0.282  0.00  0.00     0.053 C 
ATOM      9  C   UNL d   1      -1.347   1.047   1.192  0.00  0.00     0.018 C 
ENDBRANCH   1   8
TORSDOF 1
ENDMDL
