MODEL 1
REMARK minimizedAffinity -4.57862806
REMARK minimizedRMSD -1
REMARK  1 active torsions:
REMARK  status: ('A' for Active; 'I' for Inactive)
REMARK    1  A    between atoms: C1_2  and  C2_3 
ROOT
ATOM      1  C2  UNL d   1      -0.431   0.172  -0.571  0.00  0.00    -0.076 A 
ATOM      2  C3  UNL d   1       0.095   1.134  -1.450  0.00  0.00     0.004 A 
ATOM      3  C4  UNL d   1       1.265   0.888  -2.166  0.00  0.00    -0.003 A 
ATOM      4  C5  UNL d   1       1.928  -0.325  -2.016  0.00  0.00     0.000 A 
ATOM      5  C6  UNL d   1       1.410  -1.298  -1.162  0.00  0.00     0.000 A 
ATOM      6  C7  UNL d   1       0.223  -1.072  -0.445  0.00  0.00    -0.073 A 
ATOM      7  C8  UNL d   1      -0.286  -2.155   0.467  0.00  0.00     0.078 C 
ENDROOT
BRANCH   1   8
ATOM      8  C1  UNL d   1      -1.688   0.505   0.200  0.00  0.00     0.053 C 
ATOM      9  C   UNL d   1      -1.398   0.940   1.628  0.00  0.00     0.018 C 
ENDBRANCH   1   8
TORSDOF 1
ENDMDL
