MODEL 1
REMARK minimizedAffinity -4.75774384
REMARK minimizedRMSD -1
REMARK  1 active torsions:
REMARK  status: ('A' for Active; 'I' for Inactive)
REMARK    1  A    between atoms: C1_2  and  C2_3 
ROOT
ATOM      1  C2  UNL d   1       0.090   0.003  -0.500  0.00  0.00    -0.076 A 
ATOM      2  C3  UNL d   1       0.753   0.992  -1.249  0.00  0.00     0.004 A 
ATOM      3  C4  UNL d   1       1.966   0.722  -1.880  0.00  0.00    -0.003 A 
ATOM      4  C5  UNL d   1       2.536  -0.541  -1.773  0.00  0.00     0.000 A 
ATOM      5  C6  UNL d   1       1.885  -1.540  -1.050  0.00  0.00     0.000 A 
ATOM      6  C7  UNL d   1       0.653  -1.289  -0.421  0.00  0.00    -0.073 A 
ATOM      7  C8  UNL d   1      -0.003  -2.401   0.351  0.00  0.00     0.078 C 
ENDROOT
BRANCH   1   8
ATOM      8  C1  UNL d   1      -1.209   0.362   0.184  0.00  0.00     0.053 C 
ATOM      9  C   UNL d   1      -0.995   0.943   1.573  0.00  0.00     0.018 C 
ENDBRANCH   1   8
TORSDOF 1
ENDMDL
