MODEL 1
REMARK minimizedAffinity -3.69665122
REMARK minimizedRMSD -1
REMARK  1 active torsions:
REMARK  status: ('A' for Active; 'I' for Inactive)
REMARK    1  A    between atoms: C1_2  and  C2_3 
ROOT
ATOM      1  C2  UNL d   1      -1.807   0.304   1.189  0.00  0.00    -0.076 A 
ATOM      2  C3  UNL d   1      -1.261   1.599   1.161  0.00  0.00     0.004 A 
ATOM      3  C4  UNL d   1      -1.592   2.539   2.136  0.00  0.00    -0.003 A 
ATOM      4  C5  UNL d   1      -2.475   2.199   3.155  0.00  0.00     0.000 A 
ATOM      5  C6  UNL d   1      -3.012   0.913   3.208  0.00  0.00     0.000 A 
ATOM      6  C7  UNL d   1      -2.676  -0.051   2.242  0.00  0.00    -0.073 A 
ATOM      7  C8  UNL d   1      -3.290  -1.420   2.345  0.00  0.00     0.078 C 
ENDROOT
BRANCH   1   8
ATOM      8  C1  UNL d   1      -1.432  -0.664   0.089  0.00  0.00     0.053 C 
ATOM      9  C   UNL d   1       0.073  -0.830  -0.052  0.00  0.00     0.018 C 
ENDBRANCH   1   8
TORSDOF 1
ENDMDL
