MODEL 1
REMARK minimizedAffinity -0.513400018
REMARK minimizedRMSD -1
REMARK  1 active torsions:
REMARK  status: ('A' for Active; 'I' for Inactive)
REMARK    1  A    between atoms: C1_2  and  C2_3 
ROOT
ATOM      1  C2  UNL d   1       0.548   0.451  -1.111  0.00  0.00    -0.076 A 
ATOM      2  C3  UNL d   1      -0.456   1.092  -0.366  0.00  0.00     0.004 A 
ATOM      3  C4  UNL d   1      -1.078   0.449   0.703  0.00  0.00    -0.003 A 
ATOM      4  C5  UNL d   1      -0.705  -0.846   1.044  0.00  0.00     0.000 A 
ATOM      5  C6  UNL d   1       0.302  -1.491   0.327  0.00  0.00     0.000 A 
ATOM      6  C7  UNL d   1       0.950  -0.851  -0.743  0.00  0.00    -0.073 A 
ATOM      7  C8  UNL d   1       2.025  -1.596  -1.486  0.00  0.00     0.078 C 
ENDROOT
BRANCH   1   8
ATOM      8  C1  UNL d   1       1.168   1.188  -2.277  0.00  0.00     0.053 C 
ATOM      9  C   UNL d   1       0.690   2.628  -2.376  0.00  0.00     0.018 C 
ENDBRANCH   1   8
TORSDOF 1
ENDMDL
