MODEL 1
REMARK minimizedAffinity -4.0153327
REMARK minimizedRMSD -1
REMARK  1 active torsions:
REMARK  status: ('A' for Active; 'I' for Inactive)
REMARK    1  A    between atoms: C1_2  and  C2_3 
ROOT
ATOM      1  C2  UNL d   1       1.427   0.081  -1.083  0.00  0.00    -0.076 A 
ATOM      2  C3  UNL d   1       2.228  -1.054  -0.869  0.00  0.00     0.004 A 
ATOM      3  C4  UNL d   1       3.447  -1.206  -1.527  0.00  0.00    -0.003 A 
ATOM      4  C5  UNL d   1       3.886  -0.225  -2.409  0.00  0.00     0.000 A 
ATOM      5  C6  UNL d   1       3.113   0.916  -2.620  0.00  0.00     0.000 A 
ATOM      6  C7  UNL d   1       1.889   1.093  -1.952  0.00  0.00    -0.073 A 
ATOM      7  C8  UNL d   1       1.093   2.340  -2.222  0.00  0.00     0.078 C 
ENDROOT
BRANCH   1   8
ATOM      8  C1  UNL d   1       0.102   0.179  -0.362  0.00  0.00     0.053 C 
ATOM      9  C   UNL d   1      -0.417  -1.177   0.090  0.00  0.00     0.018 C 
ENDBRANCH   1   8
TORSDOF 1
ENDMDL
