MODEL 1
REMARK minimizedAffinity -5.36667299
REMARK minimizedRMSD -1
REMARK  1 active torsions:
REMARK  status: ('A' for Active; 'I' for Inactive)
REMARK    1  A    between atoms: C1_2  and  C2_3 
ROOT
ATOM      1  C2  UNL d   1       1.288   0.575  -0.858  0.00  0.00    -0.076 A 
ATOM      2  C3  UNL d   1       2.085  -0.519  -0.477  0.00  0.00     0.004 A 
ATOM      3  C4  UNL d   1       3.264  -0.818  -1.157  0.00  0.00    -0.003 A 
ATOM      4  C5  UNL d   1       3.666  -0.028  -2.229  0.00  0.00     0.000 A 
ATOM      5  C6  UNL d   1       2.897   1.071  -2.609  0.00  0.00     0.000 A 
ATOM      6  C7  UNL d   1       1.714   1.396  -1.923  0.00  0.00    -0.073 A 
ATOM      7  C8  UNL d   1       0.920   2.590  -2.380  0.00  0.00     0.078 C 
ENDROOT
BRANCH   1   8
ATOM      8  C1  UNL d   1       0.005   0.835  -0.100  0.00  0.00     0.053 C 
ATOM      9  C   UNL d   1      -0.680  -0.448   0.344  0.00  0.00     0.018 C 
ENDBRANCH   1   8
TORSDOF 1
ENDMDL
