MODEL 1
REMARK minimizedAffinity -6.44466686
REMARK minimizedRMSD -1
REMARK  1 active torsions:
REMARK  status: ('A' for Active; 'I' for Inactive)
REMARK    1  A    between atoms: C1_2  and  C2_3 
ROOT
ATOM      1  C2  UNL d   1       1.295  -0.388  -0.518  0.00  0.00    -0.076 A 
ATOM      2  C3  UNL d   1       2.631  -0.738  -0.777  0.00  0.00     0.004 A 
ATOM      3  C4  UNL d   1       3.374  -0.065  -1.746  0.00  0.00    -0.003 A 
ATOM      4  C5  UNL d   1       2.792   0.969  -2.471  0.00  0.00     0.000 A 
ATOM      5  C6  UNL d   1       1.473   1.341  -2.214  0.00  0.00     0.000 A 
ATOM      6  C7  UNL d   1       0.715   0.684  -1.230  0.00  0.00    -0.073 A 
ATOM      7  C8  UNL d   1      -0.705   1.122  -0.999  0.00  0.00     0.078 C 
ENDROOT
BRANCH   1   8
ATOM      8  C1  UNL d   1       0.531  -1.172   0.526  0.00  0.00     0.053 C 
ATOM      9  C   UNL d   1       0.367  -2.636   0.151  0.00  0.00     0.018 C 
ENDBRANCH   1   8
TORSDOF 1
ENDMDL
