MODEL 1
REMARK minimizedAffinity -1.05656242
REMARK minimizedRMSD -1
REMARK  0 active torsions:
REMARK  status: ('A' for Active; 'I' for Inactive)
ROOT
ATOM      1  C   UNL d   1       5.889   5.186  -5.990  0.00  0.00     0.077 C 
ATOM      2  C1  UNL d   1       5.919   3.927  -5.175  0.00  0.00    -0.074 A 
ATOM      3  C2  UNL d   1       5.957   3.976  -3.778  0.00  0.00    -0.005 A 
ATOM      4  C3  UNL d   1       5.974   2.796  -3.033  0.00  0.00     0.006 A 
ATOM      5  C4  UNL d   1       5.954   1.558  -3.677  0.00  0.00    -0.005 A 
ATOM      6  C5  UNL d   1       5.914   1.490  -5.074  0.00  0.00    -0.074 A 
ATOM      7  C6  UNL d   1       5.882   0.168  -5.781  0.00  0.00     0.077 C 
ATOM      8  C7  UNL d   1       5.890   2.680  -5.815  0.00  0.00    -0.001 A 
ENDROOT
TORSDOF 0
ENDMDL
