MODEL 1
REMARK minimizedAffinity 6.27497959
REMARK minimizedRMSD -1
REMARK  0 active torsions:
REMARK  status: ('A' for Active; 'I' for Inactive)
ROOT
ATOM      1  C   UNL d   1      -2.405  -2.903  -3.827  0.00  0.00     0.077 C 
ATOM      2  C1  UNL d   1      -1.807  -2.794  -2.456  0.00  0.00    -0.074 A 
ATOM      3  C2  UNL d   1      -2.073  -1.689  -1.641  0.00  0.00    -0.005 A 
ATOM      4  C3  UNL d   1      -1.517  -1.606  -0.365  0.00  0.00     0.006 A 
ATOM      5  C4  UNL d   1      -0.691  -2.626   0.110  0.00  0.00    -0.005 A 
ATOM      6  C5  UNL d   1      -0.414  -3.739  -0.690  0.00  0.00    -0.074 A 
ATOM      7  C6  UNL d   1       0.464  -4.849  -0.192  0.00  0.00     0.077 C 
ATOM      8  C7  UNL d   1      -0.982  -3.818  -1.969  0.00  0.00    -0.001 A 
ENDROOT
TORSDOF 0
ENDMDL
