MODEL 1
REMARK minimizedAffinity -1.6779784
REMARK minimizedRMSD -1
REMARK  0 active torsions:
REMARK  status: ('A' for Active; 'I' for Inactive)
ROOT
ATOM      1  C   UNL d   1      -5.152  -6.000  -2.187  0.00  0.00     0.077 C 
ATOM      2  C1  UNL d   1      -4.963  -4.680  -1.500  0.00  0.00    -0.074 A 
ATOM      3  C2  UNL d   1      -5.792  -4.295  -0.442  0.00  0.00    -0.005 A 
ATOM      4  C3  UNL d   1      -5.597  -3.068   0.194  0.00  0.00     0.006 A 
ATOM      5  C4  UNL d   1      -4.574  -2.216  -0.222  0.00  0.00    -0.005 A 
ATOM      6  C5  UNL d   1      -3.734  -2.585  -1.278  0.00  0.00    -0.074 A 
ATOM      7  C6  UNL d   1      -2.622  -1.685  -1.731  0.00  0.00     0.077 C 
ATOM      8  C7  UNL d   1      -3.931  -3.822  -1.907  0.00  0.00    -0.001 A 
ENDROOT
TORSDOF 0
ENDMDL
