MODEL 1
REMARK minimizedAffinity 6.8151145
REMARK minimizedRMSD -1
REMARK  0 active torsions:
REMARK  status: ('A' for Active; 'I' for Inactive)
ROOT
ATOM      1  C   UNL d   1       4.791   0.752  -1.736  0.00  0.00     0.077 C 
ATOM      2  C1  UNL d   1       4.840   0.950  -3.222  0.00  0.00    -0.074 A 
ATOM      3  C2  UNL d   1       5.972   0.585  -3.958  0.00  0.00    -0.005 A 
ATOM      4  C3  UNL d   1       5.999   0.766  -5.341  0.00  0.00     0.006 A 
ATOM      5  C4  UNL d   1       4.897   1.313  -6.000  0.00  0.00    -0.005 A 
ATOM      6  C5  UNL d   1       3.757   1.683  -5.280  0.00  0.00    -0.074 A 
ATOM      7  C6  UNL d   1       2.560   2.262  -5.974  0.00  0.00     0.077 C 
ATOM      8  C7  UNL d   1       3.734   1.491  -3.892  0.00  0.00    -0.001 A 
ENDROOT
TORSDOF 0
ENDMDL
