MODEL 1
REMARK minimizedAffinity 2.94281197
REMARK minimizedRMSD -1
REMARK  0 active torsions:
REMARK  status: ('A' for Active; 'I' for Inactive)
ROOT
ATOM      1  C   UNL d   1      -1.120  -2.110  -0.987  0.00  0.00     0.077 C 
ATOM      2  C1  UNL d   1      -1.571  -2.683  -2.298  0.00  0.00    -0.074 A 
ATOM      3  C2  UNL d   1      -2.550  -3.681  -2.348  0.00  0.00    -0.005 A 
ATOM      4  C3  UNL d   1      -2.966  -4.197  -3.575  0.00  0.00     0.006 A 
ATOM      5  C4  UNL d   1      -2.409  -3.720  -4.763  0.00  0.00    -0.005 A 
ATOM      6  C5  UNL d   1      -1.431  -2.722  -4.732  0.00  0.00    -0.074 A 
ATOM      7  C6  UNL d   1      -0.829  -2.192  -6.000  0.00  0.00     0.077 C 
ATOM      8  C7  UNL d   1      -1.023  -2.204  -3.496  0.00  0.00    -0.001 A 
ENDROOT
TORSDOF 0
ENDMDL
