MODEL 1
REMARK minimizedAffinity 4.23272514
REMARK minimizedRMSD -1
REMARK  0 active torsions:
REMARK  status: ('A' for Active; 'I' for Inactive)
ROOT
ATOM      1  C   UNL d   1       0.550  -4.457  -0.100  0.00  0.00     0.077 C 
ATOM      2  C1  UNL d   1      -0.400  -3.531  -0.800  0.00  0.00    -0.074 A 
ATOM      3  C2  UNL d   1      -0.861  -2.368  -0.175  0.00  0.00    -0.005 A 
ATOM      4  C3  UNL d   1      -1.737  -1.512  -0.842  0.00  0.00     0.006 A 
ATOM      5  C4  UNL d   1      -2.160  -1.809  -2.138  0.00  0.00    -0.005 A 
ATOM      6  C5  UNL d   1      -1.709  -2.967  -2.779  0.00  0.00    -0.074 A 
ATOM      7  C6  UNL d   1      -2.146  -3.296  -4.176  0.00  0.00     0.077 C 
ATOM      8  C7  UNL d   1      -0.823  -3.819  -2.105  0.00  0.00    -0.001 A 
ENDROOT
TORSDOF 0
ENDMDL
