MODEL 1
REMARK minimizedAffinity 6.79492569
REMARK minimizedRMSD -1
REMARK  0 active torsions:
REMARK  status: ('A' for Active; 'I' for Inactive)
ROOT
ATOM      1  C   UNL d   1       0.651  -2.890  -0.203  0.00  0.00     0.077 C 
ATOM      2  C1  UNL d   1      -0.008  -3.345   1.066  0.00  0.00    -0.074 A 
ATOM      3  C2  UNL d   1      -0.030  -4.698   1.419  0.00  0.00    -0.005 A 
ATOM      4  C3  UNL d   1      -0.638  -5.105   2.607  0.00  0.00     0.006 A 
ATOM      5  C4  UNL d   1      -1.228  -4.165   3.452  0.00  0.00    -0.005 A 
ATOM      6  C5  UNL d   1      -1.214  -2.807   3.116  0.00  0.00    -0.074 A 
ATOM      7  C6  UNL d   1      -1.836  -1.783   4.018  0.00  0.00     0.077 C 
ATOM      8  C7  UNL d   1      -0.596  -2.406   1.924  0.00  0.00    -0.001 A 
ENDROOT
TORSDOF 0
ENDMDL
