MODEL 1
REMARK minimizedAffinity 4.8025527
REMARK minimizedRMSD -1
REMARK  0 active torsions:
REMARK  status: ('A' for Active; 'I' for Inactive)
ROOT
ATOM      1  C   UNL d   1      -1.873  -2.908  -3.977  0.00  0.00     0.077 C 
ATOM      2  C1  UNL d   1      -1.487  -2.702  -2.542  0.00  0.00    -0.074 A 
ATOM      3  C2  UNL d   1      -2.170  -1.783  -1.739  0.00  0.00    -0.005 A 
ATOM      4  C3  UNL d   1      -1.806  -1.608  -0.404  0.00  0.00     0.006 A 
ATOM      5  C4  UNL d   1      -0.756  -2.349   0.140  0.00  0.00    -0.005 A 
ATOM      6  C5  UNL d   1      -0.062  -3.273  -0.647  0.00  0.00    -0.074 A 
ATOM      7  C6  UNL d   1       1.062  -4.085  -0.075  0.00  0.00     0.077 C 
ATOM      8  C7  UNL d   1      -0.439  -3.448  -1.986  0.00  0.00    -0.001 A 
ENDROOT
TORSDOF 0
ENDMDL
