MODEL 1
REMARK minimizedAffinity 2.85726619
REMARK minimizedRMSD -1
REMARK  0 active torsions:
REMARK  status: ('A' for Active; 'I' for Inactive)
ROOT
ATOM      1  C   UNL d   1       4.552   0.015   2.533  0.00  0.00     0.077 C 
ATOM      2  C1  UNL d   1       3.987   0.962   1.517  0.00  0.00    -0.074 A 
ATOM      3  C2  UNL d   1       2.825   1.693   1.784  0.00  0.00    -0.005 A 
ATOM      4  C3  UNL d   1       2.316   2.578   0.833  0.00  0.00     0.006 A 
ATOM      5  C4  UNL d   1       2.963   2.739  -0.393  0.00  0.00    -0.005 A 
ATOM      6  C5  UNL d   1       4.126   2.016  -0.678  0.00  0.00    -0.074 A 
ATOM      7  C6  UNL d   1       4.838   2.185  -1.987  0.00  0.00     0.077 C 
ATOM      8  C7  UNL d   1       4.635   1.135   0.286  0.00  0.00    -0.001 A 
ENDROOT
TORSDOF 0
ENDMDL
