MODEL 1
REMARK minimizedAffinity 11.5935087
REMARK minimizedRMSD -1
REMARK  0 active torsions:
REMARK  status: ('A' for Active; 'I' for Inactive)
ROOT
ATOM      1  C   UNL d   1      -0.655  -5.153  -6.000  0.00  0.00     0.077 C 
ATOM      2  C1  UNL d   1      -1.465  -4.072  -5.347  0.00  0.00    -0.074 A 
ATOM      3  C2  UNL d   1      -2.564  -3.505  -6.000  0.00  0.00    -0.005 A 
ATOM      4  C3  UNL d   1      -3.314  -2.508  -5.376  0.00  0.00     0.006 A 
ATOM      5  C4  UNL d   1      -2.972  -2.068  -4.097  0.00  0.00    -0.005 A 
ATOM      6  C5  UNL d   1      -1.877  -2.624  -3.429  0.00  0.00    -0.074 A 
ATOM      7  C6  UNL d   1      -1.502  -2.170  -2.049  0.00  0.00     0.077 C 
ATOM      8  C7  UNL d   1      -1.133  -3.631  -4.059  0.00  0.00    -0.001 A 
ENDROOT
TORSDOF 0
ENDMDL
