MODEL 1
REMARK minimizedAffinity 8.99815369
REMARK minimizedRMSD -1
REMARK  0 active torsions:
REMARK  status: ('A' for Active; 'I' for Inactive)
ROOT
ATOM      1  C   UNL d   1      -0.745  -4.796  -1.663  0.00  0.00     0.077 C 
ATOM      2  C1  UNL d   1      -1.255  -3.626  -2.451  0.00  0.00    -0.074 A 
ATOM      3  C2  UNL d   1      -1.370  -2.361  -1.866  0.00  0.00    -0.005 A 
ATOM      4  C3  UNL d   1      -1.837  -1.280  -2.614  0.00  0.00     0.006 A 
ATOM      5  C4  UNL d   1      -2.192  -1.453  -3.953  0.00  0.00    -0.005 A 
ATOM      6  C5  UNL d   1      -2.083  -2.711  -4.554  0.00  0.00    -0.074 A 
ATOM      7  C6  UNL d   1      -2.452  -2.912  -5.994  0.00  0.00     0.077 C 
ATOM      8  C7  UNL d   1      -1.607  -3.790  -3.798  0.00  0.00    -0.001 A 
ENDROOT
TORSDOF 0
ENDMDL
