MODEL 1
REMARK minimizedAffinity 9.56523705
REMARK minimizedRMSD -1
REMARK  0 active torsions:
REMARK  status: ('A' for Active; 'I' for Inactive)
ROOT
ATOM      1  C   UNL d   1      -2.016  -3.258  -3.541  0.00  0.00     0.077 C 
ATOM      2  C1  UNL d   1      -1.381  -3.244  -2.182  0.00  0.00    -0.074 A 
ATOM      3  C2  UNL d   1      -1.554  -2.158  -1.319  0.00  0.00    -0.005 A 
ATOM      4  C3  UNL d   1      -0.965  -2.164  -0.054  0.00  0.00     0.006 A 
ATOM      5  C4  UNL d   1      -0.198  -3.255   0.358  0.00  0.00    -0.005 A 
ATOM      6  C5  UNL d   1      -0.015  -4.350  -0.491  0.00  0.00    -0.074 A 
ATOM      7  C6  UNL d   1       0.798  -5.534  -0.059  0.00  0.00     0.077 C 
ATOM      8  C7  UNL d   1      -0.616  -4.340  -1.757  0.00  0.00    -0.001 A 
ENDROOT
TORSDOF 0
ENDMDL
