MODEL 1
REMARK minimizedAffinity 9.70540237
REMARK minimizedRMSD -1
REMARK  0 active torsions:
REMARK  status: ('A' for Active; 'I' for Inactive)
ROOT
ATOM      1  C   UNL d   1      -2.115  -1.743   2.778  0.00  0.00     0.077 C 
ATOM      2  C1  UNL d   1      -1.450  -2.210   1.518  0.00  0.00    -0.074 A 
ATOM      3  C2  UNL d   1      -0.321  -3.034   1.564  0.00  0.00    -0.005 A 
ATOM      4  C3  UNL d   1       0.282  -3.468   0.383  0.00  0.00     0.006 A 
ATOM      5  C4  UNL d   1      -0.238  -3.083  -0.853  0.00  0.00    -0.005 A 
ATOM      6  C5  UNL d   1      -1.367  -2.260  -0.919  0.00  0.00    -0.074 A 
ATOM      7  C6  UNL d   1      -1.943  -1.846  -2.240  0.00  0.00     0.077 C 
ATOM      8  C7  UNL d   1      -1.970  -1.834   0.271  0.00  0.00    -0.001 A 
ENDROOT
TORSDOF 0
ENDMDL
