MODEL 1
REMARK minimizedAffinity 10.4729748
REMARK minimizedRMSD -1
REMARK  0 active torsions:
REMARK  status: ('A' for Active; 'I' for Inactive)
ROOT
ATOM      1  C   UNL d   1       0.225  -3.036   0.174  0.00  0.00     0.077 C 
ATOM      2  C1  UNL d   1      -0.532  -2.792   1.446  0.00  0.00    -0.074 A 
ATOM      3  C2  UNL d   1      -0.838  -1.493   1.863  0.00  0.00    -0.005 A 
ATOM      4  C3  UNL d   1      -1.550  -1.282   3.043  0.00  0.00     0.006 A 
ATOM      5  C4  UNL d   1      -1.964  -2.367   3.817  0.00  0.00    -0.005 A 
ATOM      6  C5  UNL d   1      -1.668  -3.674   3.416  0.00  0.00    -0.074 A 
ATOM      7  C6  UNL d   1      -2.113  -4.851   4.231  0.00  0.00     0.077 C 
ATOM      8  C7  UNL d   1      -0.957  -3.877   2.225  0.00  0.00    -0.001 A 
ENDROOT
TORSDOF 0
ENDMDL
