MODEL 1
REMARK minimizedAffinity 10.585331
REMARK minimizedRMSD -1
REMARK  0 active torsions:
REMARK  status: ('A' for Active; 'I' for Inactive)
ROOT
ATOM      1  C   UNL d   1      -2.703  -2.735  -5.277  0.00  0.00     0.077 C 
ATOM      2  C1  UNL d   1      -2.391  -2.651  -3.812  0.00  0.00    -0.074 A 
ATOM      3  C2  UNL d   1      -2.849  -1.580  -3.039  0.00  0.00    -0.005 A 
ATOM      4  C3  UNL d   1      -2.558  -1.520  -1.676  0.00  0.00     0.006 A 
ATOM      5  C4  UNL d   1      -1.807  -2.530  -1.074  0.00  0.00    -0.005 A 
ATOM      6  C5  UNL d   1      -1.341  -3.610  -1.830  0.00  0.00    -0.074 A 
ATOM      7  C6  UNL d   1      -0.541  -4.708  -1.196  0.00  0.00     0.077 C 
ATOM      8  C7  UNL d   1      -1.643  -3.666  -3.198  0.00  0.00    -0.001 A 
ENDROOT
TORSDOF 0
ENDMDL
