MODEL 1
REMARK minimizedAffinity 5.53102303
REMARK minimizedRMSD -1
REMARK  0 active torsions:
REMARK  status: ('A' for Active; 'I' for Inactive)
ROOT
ATOM      1  C   UNL d   1       5.624   1.695  -2.310  0.00  0.00     0.077 C 
ATOM      2  C1  UNL d   1       5.625   0.744  -3.470  0.00  0.00    -0.074 A 
ATOM      3  C2  UNL d   1       5.994   1.171  -4.749  0.00  0.00    -0.005 A 
ATOM      4  C3  UNL d   1       6.000   0.273  -5.816  0.00  0.00     0.006 A 
ATOM      5  C4  UNL d   1       5.637  -1.059  -5.615  0.00  0.00    -0.005 A 
ATOM      6  C5  UNL d   1       5.265  -1.505  -4.343  0.00  0.00    -0.074 A 
ATOM      7  C6  UNL d   1       4.881  -2.936  -4.108  0.00  0.00     0.077 C 
ATOM      8  C7  UNL d   1       5.269  -0.598  -3.274  0.00  0.00    -0.001 A 
ENDROOT
TORSDOF 0
ENDMDL
