MODEL 1
REMARK minimizedAffinity 1.16522026
REMARK minimizedRMSD -1
REMARK  0 active torsions:
REMARK  status: ('A' for Active; 'I' for Inactive)
ROOT
ATOM      1  C   UNL d   1       5.999   0.781  -5.998  0.00  0.00     0.077 C 
ATOM      2  C1  UNL d   1       5.317  -0.488  -5.583  0.00  0.00    -0.074 A 
ATOM      3  C2  UNL d   1       5.983  -1.442  -4.806  0.00  0.00    -0.005 A 
ATOM      4  C3  UNL d   1       5.332  -2.614  -4.420  0.00  0.00     0.006 A 
ATOM      5  C4  UNL d   1       4.011  -2.843  -4.806  0.00  0.00    -0.005 A 
ATOM      6  C5  UNL d   1       3.328  -1.901  -5.582  0.00  0.00    -0.074 A 
ATOM      7  C6  UNL d   1       1.905  -2.128  -5.997  0.00  0.00     0.077 C 
ATOM      8  C7  UNL d   1       3.987  -0.723  -5.960  0.00  0.00    -0.001 A 
ENDROOT
TORSDOF 0
ENDMDL
