MODEL 1
REMARK minimizedAffinity 6.31208467
REMARK minimizedRMSD -1
REMARK  0 active torsions:
REMARK  status: ('A' for Active; 'I' for Inactive)
ROOT
ATOM      1  C   UNL d   1       0.530  -3.687  -0.199  0.00  0.00     0.077 C 
ATOM      2  C1  UNL d   1      -0.323  -2.966  -1.200  0.00  0.00    -0.074 A 
ATOM      3  C2  UNL d   1      -0.780  -1.668  -0.952  0.00  0.00    -0.005 A 
ATOM      4  C3  UNL d   1      -1.565  -1.007  -1.897  0.00  0.00     0.006 A 
ATOM      5  C4  UNL d   1      -1.899  -1.636  -3.097  0.00  0.00    -0.005 A 
ATOM      6  C5  UNL d   1      -1.450  -2.933  -3.362  0.00  0.00    -0.074 A 
ATOM      7  C6  UNL d   1      -1.792  -3.620  -4.651  0.00  0.00     0.077 C 
ATOM      8  C7  UNL d   1      -0.656  -3.589  -2.411  0.00  0.00    -0.001 A 
ENDROOT
TORSDOF 0
ENDMDL
