MODEL 1
REMARK minimizedAffinity 1.82514977
REMARK minimizedRMSD -1
REMARK  0 active torsions:
REMARK  status: ('A' for Active; 'I' for Inactive)
ROOT
ATOM      1  C   UNL d   1      -2.460  -0.152  -2.533  0.00  0.00     0.023 A 
ATOM      2  C1  UNL d   1      -3.295   0.906  -2.893  0.00  0.00     0.003 A 
ATOM      3  C2  UNL d   1      -3.719   1.821  -1.927  0.00  0.00     0.048 A 
ATOM      4  C3  UNL d   1      -3.304   1.673  -0.604  0.00  0.00     0.023 A 
ATOM      5  C4  UNL d   1      -2.468   0.617  -0.240  0.00  0.00     0.048 A 
ATOM      6  C5  UNL d   1      -2.047  -0.296  -1.209  0.00  0.00     0.003 A 
ATOM      7  I   UNL d   1      -3.934   3.035   0.834  0.00  0.00    -0.146 I 
ENDROOT
TORSDOF 0
ENDMDL
