MODEL 1
REMARK minimizedAffinity 1.10006404
REMARK minimizedRMSD -1
REMARK  0 active torsions:
REMARK  status: ('A' for Active; 'I' for Inactive)
ROOT
ATOM      1  C   UNL d   1       2.910  -5.886  -2.067  0.00  0.00     0.023 A 
ATOM      2  C1  UNL d   1       2.348  -5.967  -3.342  0.00  0.00     0.003 A 
ATOM      3  C2  UNL d   1       3.172  -5.999  -4.469  0.00  0.00     0.048 A 
ATOM      4  C3  UNL d   1       4.557  -5.951  -4.315  0.00  0.00     0.023 A 
ATOM      5  C4  UNL d   1       5.124  -5.871  -3.042  0.00  0.00     0.048 A 
ATOM      6  C5  UNL d   1       4.296  -5.838  -1.918  0.00  0.00     0.003 A 
ATOM      7  I   UNL d   1       5.785  -6.000  -5.991  0.00  0.00    -0.146 I 
ENDROOT
TORSDOF 0
ENDMDL
