MODEL 1
REMARK minimizedAffinity 5.84340143
REMARK minimizedRMSD -1
REMARK  0 active torsions:
REMARK  status: ('A' for Active; 'I' for Inactive)
ROOT
ATOM      1  C   UNL d   1       1.917  -2.000   3.195  0.00  0.00     0.023 A 
ATOM      2  C1  UNL d   1       2.852  -2.152   4.219  0.00  0.00     0.003 A 
ATOM      3  C2  UNL d   1       2.834  -3.296   5.019  0.00  0.00     0.048 A 
ATOM      4  C3  UNL d   1       1.878  -4.285   4.789  0.00  0.00     0.023 A 
ATOM      5  C4  UNL d   1       0.941  -4.138   3.765  0.00  0.00     0.048 A 
ATOM      6  C5  UNL d   1       0.963  -2.992   2.968  0.00  0.00     0.003 A 
ATOM      7  I   UNL d   1       1.849  -5.989   5.979  0.00  0.00    -0.146 I 
ENDROOT
TORSDOF 0
ENDMDL
