MODEL 1
REMARK minimizedAffinity 9.58649731
REMARK minimizedRMSD -1
REMARK  0 active torsions:
REMARK  status: ('A' for Active; 'I' for Inactive)
ROOT
ATOM      1  C   UNL d   1       1.390  -4.183   4.276  0.00  0.00     0.023 A 
ATOM      2  C1  UNL d   1       2.115  -4.194   3.085  0.00  0.00     0.003 A 
ATOM      3  C2  UNL d   1       2.189  -3.041   2.300  0.00  0.00     0.048 A 
ATOM      4  C3  UNL d   1       1.537  -1.880   2.714  0.00  0.00     0.023 A 
ATOM      5  C4  UNL d   1       0.810  -1.864   3.906  0.00  0.00     0.048 A 
ATOM      6  C5  UNL d   1       0.738  -3.020   4.686  0.00  0.00     0.003 A 
ATOM      7  I   UNL d   1       1.646  -0.163   1.548  0.00  0.00    -0.146 I 
ENDROOT
TORSDOF 0
ENDMDL
