MODEL 1
REMARK minimizedAffinity 5.22343874
REMARK minimizedRMSD -1
REMARK  0 active torsions:
REMARK  status: ('A' for Active; 'I' for Inactive)
ROOT
ATOM      1  C   UNL d   1       1.463  -3.501   3.391  0.00  0.00     0.023 A 
ATOM      2  C1  UNL d   1       2.224  -4.394   4.146  0.00  0.00     0.003 A 
ATOM      3  C2  UNL d   1       3.527  -4.059   4.522  0.00  0.00     0.048 A 
ATOM      4  C3  UNL d   1       4.062  -2.829   4.141  0.00  0.00     0.023 A 
ATOM      5  C4  UNL d   1       3.304  -1.932   3.386  0.00  0.00     0.048 A 
ATOM      6  C5  UNL d   1       2.002  -2.272   3.012  0.00  0.00     0.003 A 
ATOM      7  I   UNL d   1       6.000  -2.328   4.699  0.00  0.00    -0.146 I 
ENDROOT
TORSDOF 0
ENDMDL
