MODEL 1
REMARK minimizedAffinity -1.82974601
REMARK minimizedRMSD -1
REMARK  0 active torsions:
REMARK  status: ('A' for Active; 'I' for Inactive)
ROOT
ATOM      1  C   UNL d   1      -1.292  -1.115   1.848  0.00  0.00     0.020 A 
ATOM      2  C1  UNL d   1      -0.567  -0.517   2.879  0.00  0.00     0.020 A 
ATOM      3  C2  UNL d   1       0.386   0.461   2.586  0.00  0.00     0.034 A 
ATOM      4  C3  UNL d   1       0.617   0.843   1.259  0.00  0.00     0.017 A 
ATOM      5  C4  UNL d   1      -0.111   0.242   0.226  0.00  0.00     0.017 A 
ATOM      6  C5  UNL d   1      -1.064  -0.736   0.525  0.00  0.00     0.034 A 
ATOM      7 Cl   UNL d   1       0.119   0.662  -1.435  0.00  0.00    -0.070 Cl
ATOM      8 Cl1  UNL d   1       1.810   2.059   0.970  0.00  0.00    -0.070 Cl
ENDROOT
TORSDOF 0
ENDMDL
