MODEL 1
REMARK minimizedAffinity -4.00578785
REMARK minimizedRMSD -1
REMARK  0 active torsions:
REMARK  status: ('A' for Active; 'I' for Inactive)
ROOT
ATOM      1  C   UNL d   1      -0.802  -0.837   3.148  0.00  0.00     0.020 A 
ATOM      2  C1  UNL d   1      -2.178  -0.719   2.957  0.00  0.00     0.020 A 
ATOM      3  C2  UNL d   1      -2.673  -0.075   1.821  0.00  0.00     0.034 A 
ATOM      4  C3  UNL d   1      -1.790   0.455   0.872  0.00  0.00     0.017 A 
ATOM      5  C4  UNL d   1      -0.409   0.336   1.064  0.00  0.00     0.017 A 
ATOM      6  C5  UNL d   1       0.080  -0.311   2.203  0.00  0.00     0.034 A 
ATOM      7 Cl   UNL d   1       0.741   0.963  -0.063  0.00  0.00    -0.070 Cl
ATOM      8 Cl1  UNL d   1      -2.472   1.239  -0.509  0.00  0.00    -0.070 Cl
ENDROOT
TORSDOF 0
ENDMDL
