MODEL 1
REMARK minimizedAffinity -2.2641685
REMARK minimizedRMSD -1
REMARK  0 active torsions:
REMARK  status: ('A' for Active; 'I' for Inactive)
ROOT
ATOM      1  C   UNL d   1       0.723   0.406   2.340  0.00  0.00     0.020 A 
ATOM      2  C1  UNL d   1       1.025   0.330   0.981  0.00  0.00     0.020 A 
ATOM      3  C2  UNL d   1       0.022   0.537   0.031  0.00  0.00     0.034 A 
ATOM      4  C3  UNL d   1      -1.286   0.820   0.439  0.00  0.00     0.017 A 
ATOM      5  C4  UNL d   1      -1.588   0.897   1.803  0.00  0.00     0.017 A 
ATOM      6  C5  UNL d   1      -0.580   0.689   2.750  0.00  0.00     0.034 A 
ATOM      7 Cl   UNL d   1      -3.179   1.242   2.383  0.00  0.00    -0.070 Cl
ATOM      8 Cl1  UNL d   1      -2.476   1.065  -0.791  0.00  0.00    -0.070 Cl
ENDROOT
TORSDOF 0
ENDMDL
