MODEL 1
REMARK minimizedAffinity -2.86683655
REMARK minimizedRMSD -1
REMARK  0 active torsions:
REMARK  status: ('A' for Active; 'I' for Inactive)
ROOT
ATOM      1  C   UNL d   1      -0.223   0.422   3.247  0.00  0.00     0.020 A 
ATOM      2  C1  UNL d   1      -1.603   0.574   3.381  0.00  0.00     0.020 A 
ATOM      3  C2  UNL d   1      -2.410   0.655   2.244  0.00  0.00     0.034 A 
ATOM      4  C3  UNL d   1      -1.838   0.583   0.968  0.00  0.00     0.017 A 
ATOM      5  C4  UNL d   1      -0.454   0.431   0.835  0.00  0.00     0.017 A 
ATOM      6  C5  UNL d   1       0.350   0.351   1.976  0.00  0.00     0.034 A 
ATOM      7 Cl   UNL d   1       0.324   0.335  -0.706  0.00  0.00    -0.070 Cl
ATOM      8 Cl1  UNL d   1      -2.897   0.689  -0.393  0.00  0.00    -0.070 Cl
ENDROOT
TORSDOF 0
ENDMDL
