MODEL 1
REMARK minimizedAffinity -2.27567029
REMARK minimizedRMSD -1
REMARK  0 active torsions:
REMARK  status: ('A' for Active; 'I' for Inactive)
ROOT
ATOM      1  C   UNL d   1       1.043   1.179  -0.136  0.00  0.00     0.020 A 
ATOM      2  C1  UNL d   1       0.080   1.235  -1.143  0.00  0.00     0.020 A 
ATOM      3  C2  UNL d   1      -1.240   0.872  -0.868  0.00  0.00     0.034 A 
ATOM      4  C3  UNL d   1      -1.601   0.451   0.417  0.00  0.00     0.017 A 
ATOM      5  C4  UNL d   1      -0.634   0.395   1.427  0.00  0.00     0.017 A 
ATOM      6  C5  UNL d   1       0.687   0.760   1.146  0.00  0.00     0.034 A 
ATOM      7 Cl   UNL d   1      -1.003  -0.114   3.037  0.00  0.00    -0.070 Cl
ATOM      8 Cl1  UNL d   1      -3.251   0.017   0.686  0.00  0.00    -0.070 Cl
ENDROOT
TORSDOF 0
ENDMDL
