MODEL 1
REMARK minimizedAffinity -5.04049015
REMARK minimizedRMSD -1
REMARK  0 active torsions:
REMARK  status: ('A' for Active; 'I' for Inactive)
ROOT
ATOM      1  C   UNL d   1      -2.131  -0.018   2.907  0.00  0.00     0.020 A 
ATOM      2  C1  UNL d   1      -0.790  -0.387   2.820  0.00  0.00     0.020 A 
ATOM      3  C2  UNL d   1      -0.128  -0.330   1.592  0.00  0.00     0.034 A 
ATOM      4  C3  UNL d   1      -0.808   0.098   0.445  0.00  0.00     0.017 A 
ATOM      5  C4  UNL d   1      -2.154   0.468   0.534  0.00  0.00     0.017 A 
ATOM      6  C5  UNL d   1      -2.812   0.409   1.766  0.00  0.00     0.034 A 
ATOM      7 Cl   UNL d   1      -3.060   1.006  -0.837  0.00  0.00    -0.070 Cl
ATOM      8 Cl1  UNL d   1       0.073   0.145  -1.041  0.00  0.00    -0.070 Cl
ENDROOT
TORSDOF 0
ENDMDL
