MODEL 1
REMARK minimizedAffinity -4.5548048
REMARK minimizedRMSD -1
REMARK  0 active torsions:
REMARK  status: ('A' for Active; 'I' for Inactive)
ROOT
ATOM      1  C   UNL d   1       0.673   0.370   0.542  0.00  0.00     0.020 A 
ATOM      2  C1  UNL d   1       1.164   0.210   1.837  0.00  0.00     0.020 A 
ATOM      3  C2  UNL d   1       0.292  -0.105   2.881  0.00  0.00     0.034 A 
ATOM      4  C3  UNL d   1      -1.077  -0.261   2.631  0.00  0.00     0.017 A 
ATOM      5  C4  UNL d   1      -1.569  -0.100   1.331  0.00  0.00     0.017 A 
ATOM      6  C5  UNL d   1      -0.691   0.215   0.290  0.00  0.00     0.034 A 
ATOM      7 Cl   UNL d   1      -3.245  -0.276   0.946  0.00  0.00    -0.070 Cl
ATOM      8 Cl1  UNL d   1      -2.098  -0.651   3.970  0.00  0.00    -0.070 Cl
ENDROOT
TORSDOF 0
ENDMDL
