MODEL 1
REMARK minimizedAffinity -3.7990756
REMARK minimizedRMSD -1
REMARK  0 active torsions:
REMARK  status: ('A' for Active; 'I' for Inactive)
ROOT
ATOM      1  C   UNL d   1       0.030   0.889  -0.426  0.00  0.00     0.020 A 
ATOM      2  C1  UNL d   1       0.824   0.737   0.710  0.00  0.00     0.020 A 
ATOM      3  C2  UNL d   1       0.252   0.305   1.909  0.00  0.00     0.034 A 
ATOM      4  C3  UNL d   1      -1.117   0.024   1.974  0.00  0.00     0.017 A 
ATOM      5  C4  UNL d   1      -1.913   0.176   0.833  0.00  0.00     0.017 A 
ATOM      6  C5  UNL d   1      -1.335   0.609  -0.365  0.00  0.00     0.034 A 
ATOM      7 Cl   UNL d   1      -3.610  -0.151   0.836  0.00  0.00    -0.070 Cl
ATOM      8 Cl1  UNL d   1      -1.757  -0.506   3.489  0.00  0.00    -0.070 Cl
ENDROOT
TORSDOF 0
ENDMDL
