MODEL 1
REMARK minimizedAffinity -1.70896304
REMARK minimizedRMSD -1
REMARK  0 active torsions:
REMARK  status: ('A' for Active; 'I' for Inactive)
ROOT
ATOM      1  C   UNL d   1      -0.133  -0.407   2.966  0.00  0.00     0.020 A 
ATOM      2  C1  UNL d   1       1.012  -0.082   2.239  0.00  0.00     0.020 A 
ATOM      3  C2  UNL d   1       0.913   0.220   0.880  0.00  0.00     0.034 A 
ATOM      4  C3  UNL d   1      -0.333   0.198   0.242  0.00  0.00     0.017 A 
ATOM      5  C4  UNL d   1      -1.482  -0.128   0.973  0.00  0.00     0.017 A 
ATOM      6  C5  UNL d   1      -1.377  -0.430   2.334  0.00  0.00     0.034 A 
ATOM      7 Cl   UNL d   1      -3.053  -0.176   0.256  0.00  0.00    -0.070 Cl
ATOM      8 Cl1  UNL d   1      -0.381   0.583  -1.442  0.00  0.00    -0.070 Cl
ENDROOT
TORSDOF 0
ENDMDL
