MODEL 1
REMARK minimizedAffinity -3.91900492
REMARK minimizedRMSD -1
REMARK  0 active torsions:
REMARK  status: ('A' for Active; 'I' for Inactive)
ROOT
ATOM      1  C   UNL d   1      -1.807  -1.125   2.438  0.00  0.00     0.020 A 
ATOM      2  C1  UNL d   1      -2.151  -1.074   1.088  0.00  0.00     0.020 A 
ATOM      3  C2  UNL d   1      -1.339  -0.383   0.186  0.00  0.00     0.034 A 
ATOM      4  C3  UNL d   1      -0.179   0.260   0.634  0.00  0.00     0.017 A 
ATOM      5  C4  UNL d   1       0.166   0.208   1.989  0.00  0.00     0.017 A 
ATOM      6  C5  UNL d   1      -0.651  -0.486   2.888  0.00  0.00     0.034 A 
ATOM      7 Cl   UNL d   1       1.581   0.976   2.616  0.00  0.00    -0.070 Cl
ATOM      8 Cl1  UNL d   1       0.778   1.096  -0.537  0.00  0.00    -0.070 Cl
ENDROOT
TORSDOF 0
ENDMDL
