MODEL 1
REMARK minimizedAffinity -1.47779644
REMARK minimizedRMSD -1
REMARK  0 active torsions:
REMARK  status: ('A' for Active; 'I' for Inactive)
ROOT
ATOM      1  C   UNL d   1       1.537   0.498  -0.002  0.00  0.00     0.020 A 
ATOM      2  C1  UNL d   1       0.620   0.344  -1.042  0.00  0.00     0.020 A 
ATOM      3  C2  UNL d   1      -0.718   0.065  -0.757  0.00  0.00     0.034 A 
ATOM      4  C3  UNL d   1      -1.144  -0.060   0.571  0.00  0.00     0.017 A 
ATOM      5  C4  UNL d   1      -0.223   0.095   1.613  0.00  0.00     0.017 A 
ATOM      6  C5  UNL d   1       1.116   0.374   1.322  0.00  0.00     0.034 A 
ATOM      7 Cl   UNL d   1      -0.674  -0.045   3.276  0.00  0.00    -0.070 Cl
ATOM      8 Cl1  UNL d   1      -2.814  -0.405   0.850  0.00  0.00    -0.070 Cl
ENDROOT
TORSDOF 0
ENDMDL
