MODEL 1
REMARK minimizedAffinity -2.44498467
REMARK minimizedRMSD -1
REMARK  0 active torsions:
REMARK  status: ('A' for Active; 'I' for Inactive)
ROOT
ATOM      1  C   UNL d   1       4.010   0.402  -3.110  0.00  0.00     0.020 A 
ATOM      2  C1  UNL d   1       4.049  -0.650  -4.024  0.00  0.00     0.020 A 
ATOM      3  C2  UNL d   1       2.934  -1.474  -4.188  0.00  0.00     0.034 A 
ATOM      4  C3  UNL d   1       1.775  -1.248  -3.437  0.00  0.00     0.017 A 
ATOM      5  C4  UNL d   1       1.737  -0.191  -2.520  0.00  0.00     0.017 A 
ATOM      6  C5  UNL d   1       2.857   0.631  -2.360  0.00  0.00     0.034 A 
ATOM      7 Cl   UNL d   1       0.343   0.151  -1.557  0.00  0.00    -0.070 Cl
ATOM      8 Cl1  UNL d   1       0.433  -2.306  -3.691  0.00  0.00    -0.070 Cl
ENDROOT
TORSDOF 0
ENDMDL
