MODEL 1
REMARK minimizedAffinity -3.87990737
REMARK minimizedRMSD -1
REMARK  0 active torsions:
REMARK  status: ('A' for Active; 'I' for Inactive)
ROOT
ATOM      1  C   UNL d   1      -1.325  -0.365   2.714  0.00  0.00     0.020 A 
ATOM      2  C1  UNL d   1      -0.014  -0.777   2.474  0.00  0.00     0.020 A 
ATOM      3  C2  UNL d   1       0.514  -0.705   1.184  0.00  0.00     0.034 A 
ATOM      4  C3  UNL d   1      -0.268  -0.222   0.128  0.00  0.00     0.017 A 
ATOM      5  C4  UNL d   1      -1.583   0.190   0.370  0.00  0.00     0.017 A 
ATOM      6  C5  UNL d   1      -2.108   0.117   1.665  0.00  0.00     0.034 A 
ATOM      7 Cl   UNL d   1      -2.610   0.797  -0.881  0.00  0.00    -0.070 Cl
ATOM      8 Cl1  UNL d   1       0.450  -0.162  -1.442  0.00  0.00    -0.070 Cl
ENDROOT
TORSDOF 0
ENDMDL
