MODEL 1
REMARK minimizedAffinity -2.29583097
REMARK minimizedRMSD -1
REMARK  0 active torsions:
REMARK  status: ('A' for Active; 'I' for Inactive)
ROOT
ATOM      1  C   UNL d   1      -0.516  -0.154   2.993  0.00  0.00     0.020 A 
ATOM      2  C1  UNL d   1       0.796  -0.109   2.524  0.00  0.00     0.020 A 
ATOM      3  C2  UNL d   1       1.045   0.079   1.163  0.00  0.00     0.034 A 
ATOM      4  C3  UNL d   1      -0.020   0.222   0.266  0.00  0.00     0.017 A 
ATOM      5  C4  UNL d   1      -1.337   0.177   0.737  0.00  0.00     0.017 A 
ATOM      6  C5  UNL d   1      -1.580  -0.012   2.101  0.00  0.00     0.034 A 
ATOM      7 Cl   UNL d   1      -2.702   0.346  -0.308  0.00  0.00    -0.070 Cl
ATOM      8 Cl1  UNL d   1       0.361   0.452  -1.404  0.00  0.00    -0.070 Cl
ENDROOT
TORSDOF 0
ENDMDL
