MODEL 1
REMARK minimizedAffinity -2.66512108
REMARK minimizedRMSD -1
REMARK  0 active torsions:
REMARK  status: ('A' for Active; 'I' for Inactive)
ROOT
ATOM      1  C   UNL d   1      -1.985   0.453  -0.382  0.00  0.00     0.020 A 
ATOM      2  C1  UNL d   1      -0.827   0.570  -1.149  0.00  0.00     0.020 A 
ATOM      3  C2  UNL d   1       0.424   0.384  -0.558  0.00  0.00     0.034 A 
ATOM      4  C3  UNL d   1       0.521   0.081   0.805  0.00  0.00     0.017 A 
ATOM      5  C4  UNL d   1      -0.642  -0.036   1.575  0.00  0.00     0.017 A 
ATOM      6  C5  UNL d   1      -1.893   0.151   0.978  0.00  0.00     0.034 A 
ATOM      7 Cl   UNL d   1      -0.603  -0.407   3.262  0.00  0.00    -0.070 Cl
ATOM      8 Cl1  UNL d   1       2.101  -0.137   1.470  0.00  0.00    -0.070 Cl
ENDROOT
TORSDOF 0
ENDMDL
