MODEL 1
REMARK minimizedAffinity 4.57247448
REMARK minimizedRMSD -1
REMARK  0 active torsions:
REMARK  status: ('A' for Active; 'I' for Inactive)
ROOT
ATOM      1  C   UNL d   1       4.865  -2.286  -0.077  0.00  0.00     0.172 C 
ATOM      2  N   UNL d   1       3.499  -2.699   0.143  0.00  0.00    -0.070 N 
ATOM      3  C1  UNL d   1       2.884  -3.771  -0.447  0.00  0.00    -0.004 A 
ATOM      4  C2  UNL d   1       1.590  -3.827   0.023  0.00  0.00    -0.047 A 
ATOM      5  C3  UNL d   1       1.420  -2.751   0.926  0.00  0.00    -0.047 A 
ATOM      6  C4  UNL d   1       2.618  -2.069   0.981  0.00  0.00    -0.004 A 
ENDROOT
TORSDOF 0
ENDMDL
