MODEL 1
REMARK minimizedAffinity 0.318160444
REMARK minimizedRMSD -1
REMARK  0 active torsions:
REMARK  status: ('A' for Active; 'I' for Inactive)
ROOT
ATOM      1  C   UNL d   1       5.996   2.136   2.314  0.00  0.00     0.172 C 
ATOM      2  N   UNL d   1       5.997   0.981   1.448  0.00  0.00    -0.070 N 
ATOM      3  C1  UNL d   1       5.999   1.010   0.079  0.00  0.00    -0.004 A 
ATOM      4  C2  UNL d   1       6.000  -0.293  -0.371  0.00  0.00    -0.047 A 
ATOM      5  C3  UNL d   1       5.998  -1.134   0.768  0.00  0.00    -0.047 A 
ATOM      6  C4  UNL d   1       5.996  -0.319   1.880  0.00  0.00    -0.004 A 
ENDROOT
TORSDOF 0
ENDMDL
