MODEL 1
REMARK minimizedAffinity 4.05297852
REMARK minimizedRMSD -1
REMARK  0 active torsions:
REMARK  status: ('A' for Active; 'I' for Inactive)
ROOT
ATOM      1  C   UNL d   1       2.003  -5.016   0.709  0.00  0.00     0.172 C 
ATOM      2  N   UNL d   1       1.986  -3.615   1.058  0.00  0.00    -0.070 N 
ATOM      3  C1  UNL d   1       1.903  -2.573   0.174  0.00  0.00    -0.004 A 
ATOM      4  C2  UNL d   1       1.915  -1.401   0.900  0.00  0.00    -0.047 A 
ATOM      5  C3  UNL d   1       2.011  -1.752   2.268  0.00  0.00    -0.047 A 
ATOM      6  C4  UNL d   1       2.053  -3.128   2.337  0.00  0.00    -0.004 A 
ENDROOT
TORSDOF 0
ENDMDL
