MODEL 1
REMARK minimizedAffinity 3.19330096
REMARK minimizedRMSD -1
REMARK  0 active torsions:
REMARK  status: ('A' for Active; 'I' for Inactive)
ROOT
ATOM      1  C   UNL d   1      -0.388  -1.487   3.023  0.00  0.00     0.172 C 
ATOM      2  N   UNL d   1       0.563  -2.029   2.081  0.00  0.00    -0.070 N 
ATOM      3  C1  UNL d   1       0.908  -1.465   0.882  0.00  0.00    -0.004 A 
ATOM      4  C2  UNL d   1       1.842  -2.284   0.284  0.00  0.00    -0.047 A 
ATOM      5  C3  UNL d   1       2.065  -3.378   1.154  0.00  0.00    -0.047 A 
ATOM      6  C4  UNL d   1       1.261  -3.194   2.259  0.00  0.00    -0.004 A 
ENDROOT
TORSDOF 0
ENDMDL
