MODEL 1
REMARK minimizedAffinity 1.63733268
REMARK minimizedRMSD -1
REMARK  0 active torsions:
REMARK  status: ('A' for Active; 'I' for Inactive)
ROOT
ATOM      1  C   UNL d   1       0.418  -1.864   2.445  0.00  0.00     0.172 C 
ATOM      2  N   UNL d   1       1.459  -2.315   1.552  0.00  0.00    -0.070 N 
ATOM      3  C1  UNL d   1       2.320  -1.507   0.857  0.00  0.00    -0.004 A 
ATOM      4  C2  UNL d   1       3.159  -2.317   0.123  0.00  0.00    -0.047 A 
ATOM      5  C3  UNL d   1       2.789  -3.658   0.384  0.00  0.00    -0.047 A 
ATOM      6  C4  UNL d   1       1.734  -3.627   1.272  0.00  0.00    -0.004 A 
ENDROOT
TORSDOF 0
ENDMDL
