MODEL 1
REMARK minimizedAffinity 0.72495997
REMARK minimizedRMSD -1
REMARK  0 active torsions:
REMARK  status: ('A' for Active; 'I' for Inactive)
ROOT
ATOM      1  C   UNL d   1      -3.473   0.826   3.331  0.00  0.00     0.172 C 
ATOM      2  N   UNL d   1      -2.373  -0.083   3.110  0.00  0.00    -0.070 N 
ATOM      3  C1  UNL d   1      -2.333  -1.072   2.163  0.00  0.00    -0.004 A 
ATOM      4  C2  UNL d   1      -1.118  -1.713   2.275  0.00  0.00    -0.047 A 
ATOM      5  C3  UNL d   1      -0.404  -1.089   3.326  0.00  0.00    -0.047 A 
ATOM      6  C4  UNL d   1      -1.205  -0.083   3.825  0.00  0.00    -0.004 A 
ENDROOT
TORSDOF 0
ENDMDL
