MODEL 1
REMARK minimizedAffinity 2.94955635
REMARK minimizedRMSD -1
REMARK  0 active torsions:
REMARK  status: ('A' for Active; 'I' for Inactive)
ROOT
ATOM      1  C   UNL d   1      -2.800  -0.477  -0.700  0.00  0.00     0.172 C 
ATOM      2  N   UNL d   1      -2.825  -0.182   0.714  0.00  0.00    -0.070 N 
ATOM      3  C1  UNL d   1      -3.638   0.736   1.323  0.00  0.00    -0.004 A 
ATOM      4  C2  UNL d   1      -3.358   0.718   2.673  0.00  0.00    -0.047 A 
ATOM      5  C3  UNL d   1      -2.341  -0.244   2.881  0.00  0.00    -0.047 A 
ATOM      6  C4  UNL d   1      -2.030  -0.785   1.652  0.00  0.00    -0.004 A 
ENDROOT
TORSDOF 0
ENDMDL
