MODEL 1
REMARK minimizedAffinity 2.37193465
REMARK minimizedRMSD -1
REMARK  0 active torsions:
REMARK  status: ('A' for Active; 'I' for Inactive)
ROOT
ATOM      1  C   UNL d   1      -3.091   4.143  -4.048  0.00  0.00     0.172 C 
ATOM      2  N   UNL d   1      -1.942   3.420  -3.555  0.00  0.00    -0.070 N 
ATOM      3  C1  UNL d   1      -0.635   3.693  -3.861  0.00  0.00    -0.004 A 
ATOM      4  C2  UNL d   1       0.154   2.782  -3.193  0.00  0.00    -0.047 A 
ATOM      5  C3  UNL d   1      -0.709   1.931  -2.461  0.00  0.00    -0.047 A 
ATOM      6  C4  UNL d   1      -2.000   2.349  -2.703  0.00  0.00    -0.004 A 
ENDROOT
TORSDOF 0
ENDMDL
