MODEL 1
REMARK minimizedAffinity 2.15011668
REMARK minimizedRMSD -1
REMARK  0 active torsions:
REMARK  status: ('A' for Active; 'I' for Inactive)
ROOT
ATOM      1  C   UNL d   1      -3.237   1.434   3.719  0.00  0.00     0.172 C 
ATOM      2  N   UNL d   1      -2.260   0.409   3.435  0.00  0.00    -0.070 N 
ATOM      3  C1  UNL d   1      -2.286  -0.445   2.365  0.00  0.00    -0.004 A 
ATOM      4  C2  UNL d   1      -1.183  -1.266   2.454  0.00  0.00    -0.047 A 
ATOM      5  C3  UNL d   1      -0.470  -0.894   3.618  0.00  0.00    -0.047 A 
ATOM      6  C4  UNL d   1      -1.159   0.145   4.207  0.00  0.00    -0.004 A 
ENDROOT
TORSDOF 0
ENDMDL
