MODEL 1
REMARK minimizedAffinity 2.99240184
REMARK minimizedRMSD -1
REMARK  0 active torsions:
REMARK  status: ('A' for Active; 'I' for Inactive)
ROOT
ATOM      1  C   UNL d   1      -0.772  -0.641  -1.145  0.00  0.00     0.172 C 
ATOM      2  N   UNL d   1      -0.824   0.589  -1.899  0.00  0.00    -0.070 N 
ATOM      3  C1  UNL d   1      -0.475   1.828  -1.431  0.00  0.00    -0.004 A 
ATOM      4  C2  UNL d   1      -0.664   2.734  -2.452  0.00  0.00    -0.047 A 
ATOM      5  C3  UNL d   1      -1.145   2.015  -3.572  0.00  0.00    -0.047 A 
ATOM      6  C4  UNL d   1      -1.234   0.689  -3.202  0.00  0.00    -0.004 A 
ENDROOT
TORSDOF 0
ENDMDL
