MODEL 1
REMARK minimizedAffinity 6.72746325
REMARK minimizedRMSD -1
REMARK  0 active torsions:
REMARK  status: ('A' for Active; 'I' for Inactive)
ROOT
ATOM      1  C   UNL d   1       2.286  -5.111   1.192  0.00  0.00     0.172 C 
ATOM      2  N   UNL d   1       1.845  -3.744   1.341  0.00  0.00    -0.070 N 
ATOM      3  C1  UNL d   1       2.341  -2.667   0.657  0.00  0.00    -0.004 A 
ATOM      4  C2  UNL d   1       1.659  -1.547   1.083  0.00  0.00    -0.047 A 
ATOM      5  C3  UNL d   1       0.723  -1.966   2.058  0.00  0.00    -0.047 A 
ATOM      6  C4  UNL d   1       0.859  -3.331   2.198  0.00  0.00    -0.004 A 
ENDROOT
TORSDOF 0
ENDMDL
