MODEL 1
REMARK minimizedAffinity -2.28358722
REMARK minimizedRMSD -1
REMARK  0 active torsions:
REMARK  status: ('A' for Active; 'I' for Inactive)
ROOT
ATOM      1  C   UNL d   1       2.170  -1.969   0.071  0.00  0.00     0.172 C 
ATOM      2  N   UNL d   1       3.014  -2.962   0.693  0.00  0.00    -0.070 N 
ATOM      3  C1  UNL d   1       4.368  -2.862   0.870  0.00  0.00    -0.004 A 
ATOM      4  C2  UNL d   1       4.797  -4.011   1.499  0.00  0.00    -0.047 A 
ATOM      5  C3  UNL d   1       3.662  -4.830   1.706  0.00  0.00    -0.047 A 
ATOM      6  C4  UNL d   1       2.571  -4.157   1.197  0.00  0.00    -0.004 A 
ENDROOT
TORSDOF 0
ENDMDL
