MODEL 1
REMARK minimizedAffinity -0.904333353
REMARK minimizedRMSD -1
REMARK  0 active torsions:
REMARK  status: ('A' for Active; 'I' for Inactive)
ROOT
ATOM      1  C   UNL d   1      -2.350   0.272   3.040  0.00  0.00     0.172 C 
ATOM      2  N   UNL d   1      -1.190  -0.585   3.107  0.00  0.00    -0.070 N 
ATOM      3  C1  UNL d   1      -1.078  -1.825   2.537  0.00  0.00    -0.004 A 
ATOM      4  C2  UNL d   1       0.178  -2.312   2.828  0.00  0.00    -0.047 A 
ATOM      5  C3  UNL d   1       0.844  -1.331   3.601  0.00  0.00    -0.047 A 
ATOM      6  C4  UNL d   1      -0.026  -0.272   3.758  0.00  0.00    -0.004 A 
ENDROOT
TORSDOF 0
ENDMDL
