MODEL 1
REMARK minimizedAffinity 4.07528448
REMARK minimizedRMSD -1
REMARK  0 active torsions:
REMARK  status: ('A' for Active; 'I' for Inactive)
ROOT
ATOM      1  C   UNL d   1      -0.348  -0.554  -0.543  0.00  0.00     0.172 C 
ATOM      2  N   UNL d   1       0.301  -1.366   0.460  0.00  0.00    -0.070 N 
ATOM      3  C1  UNL d   1       1.452  -2.087   0.281  0.00  0.00    -0.004 A 
ATOM      4  C2  UNL d   1       1.742  -2.721   1.470  0.00  0.00    -0.047 A 
ATOM      5  C3  UNL d   1       0.730  -2.370   2.395  0.00  0.00    -0.047 A 
ATOM      6  C4  UNL d   1      -0.149  -1.530   1.743  0.00  0.00    -0.004 A 
ENDROOT
TORSDOF 0
ENDMDL
