MODEL 1
REMARK minimizedAffinity 1.02883697
REMARK minimizedRMSD -1
REMARK  1 active torsions:
REMARK  status: ('A' for Active; 'I' for Inactive)
REMARK    1  A    between atoms: C1_2  and  C2_3 
ROOT
ATOM      1  C2  UNL d   1      -0.212  -0.402  -0.301  0.00  0.00    -0.076 A 
ATOM      2  C3  UNL d   1      -0.530   0.555  -1.280  0.00  0.00     0.004 A 
ATOM      3  C4  UNL d   1      -1.692   0.444  -2.041  0.00  0.00    -0.003 A 
ATOM      4  C5  UNL d   1      -2.555  -0.626  -1.836  0.00  0.00     0.000 A 
ATOM      5  C6  UNL d   1      -2.264  -1.576  -0.857  0.00  0.00     0.000 A 
ATOM      6  C7  UNL d   1      -1.105  -1.469  -0.069  0.00  0.00    -0.073 A 
ATOM      7  C8  UNL d   1      -0.838  -2.525   0.968  0.00  0.00     0.078 C 
ENDROOT
BRANCH   1   8
ATOM      8  C1  UNL d   1       1.076  -0.244   0.475  0.00  0.00     0.053 C 
ATOM      9  C   UNL d   1       1.696   1.134   0.301  0.00  0.00     0.018 C 
ENDBRANCH   1   8
TORSDOF 1
ENDMDL
