MODEL 1
REMARK minimizedAffinity -3.24017358
REMARK minimizedRMSD -1
REMARK  1 active torsions:
REMARK  status: ('A' for Active; 'I' for Inactive)
REMARK    1  A    between atoms: C1_2  and  C2_3 
ROOT
ATOM      1  C2  UNL d   1      -0.980  -0.705   0.396  0.00  0.00    -0.076 A 
ATOM      2  C3  UNL d   1      -2.030  -0.583  -0.531  0.00  0.00     0.004 A 
ATOM      3  C4  UNL d   1      -2.955  -1.610  -0.706  0.00  0.00    -0.003 A 
ATOM      4  C5  UNL d   1      -2.845  -2.777   0.043  0.00  0.00     0.000 A 
ATOM      5  C6  UNL d   1      -1.820  -2.908   0.979  0.00  0.00     0.000 A 
ATOM      6  C7  UNL d   1      -0.889  -1.874   1.180  0.00  0.00    -0.073 A 
ATOM      7  C8  UNL d   1       0.200  -2.072   2.198  0.00  0.00     0.078 C 
ENDROOT
BRANCH   1   8
ATOM      8  C1  UNL d   1       0.009   0.432   0.523  0.00  0.00     0.053 C 
ATOM      9  C   UNL d   1       1.385   0.071  -0.018  0.00  0.00     0.018 C 
ENDBRANCH   1   8
TORSDOF 1
ENDMDL
