MODEL 1
REMARK minimizedAffinity -2.76006436
REMARK minimizedRMSD -1
REMARK  1 active torsions:
REMARK  status: ('A' for Active; 'I' for Inactive)
REMARK    1  A    between atoms: C1_2  and  C2_3 
ROOT
ATOM      1  C2  UNL d   1      -0.440  -0.421  -0.268  0.00  0.00    -0.076 A 
ATOM      2  C3  UNL d   1       0.393   0.550  -0.851  0.00  0.00     0.004 A 
ATOM      3  C4  UNL d   1       1.635   0.855  -0.298  0.00  0.00    -0.003 A 
ATOM      4  C5  UNL d   1       2.066   0.194   0.847  0.00  0.00     0.000 A 
ATOM      5  C6  UNL d   1       1.260  -0.785   1.428  0.00  0.00     0.000 A 
ATOM      6  C7  UNL d   1       0.012  -1.116   0.874  0.00  0.00    -0.073 A 
ATOM      7  C8  UNL d   1      -0.818  -2.175   1.546  0.00  0.00     0.078 C 
ENDROOT
BRANCH   1   8
ATOM      8  C1  UNL d   1      -1.788  -0.691  -0.897  0.00  0.00     0.053 C 
ATOM      9  C   UNL d   1      -1.684  -1.040  -2.373  0.00  0.00     0.018 C 
ENDBRANCH   1   8
TORSDOF 1
ENDMDL
