MODEL 1
REMARK minimizedAffinity -2.5516448
REMARK minimizedRMSD -1
REMARK  1 active torsions:
REMARK  status: ('A' for Active; 'I' for Inactive)
REMARK    1  A    between atoms: C1_2  and  C2_3 
ROOT
ATOM      1  C2  UNL d   1      -1.320  -0.772  -0.895  0.00  0.00    -0.076 A 
ATOM      2  C3  UNL d   1      -0.296  -0.601  -1.842  0.00  0.00     0.004 A 
ATOM      3  C4  UNL d   1       0.987  -0.222  -1.451  0.00  0.00    -0.003 A 
ATOM      4  C5  UNL d   1       1.266  -0.008  -0.105  0.00  0.00     0.000 A 
ATOM      5  C6  UNL d   1       0.266  -0.190   0.849  0.00  0.00     0.000 A 
ATOM      6  C7  UNL d   1      -1.028  -0.588   0.473  0.00  0.00    -0.073 A 
ATOM      7  C8  UNL d   1      -2.069  -0.764   1.544  0.00  0.00     0.078 C 
ENDROOT
BRANCH   1   8
ATOM      8  C1  UNL d   1      -2.699  -1.158  -1.382  0.00  0.00     0.053 C 
ATOM      9  C   UNL d   1      -2.661  -1.920  -2.697  0.00  0.00     0.018 C 
ENDBRANCH   1   8
TORSDOF 1
ENDMDL
