MODEL 1
REMARK minimizedAffinity -2.04676986
REMARK minimizedRMSD -1
REMARK  1 active torsions:
REMARK  status: ('A' for Active; 'I' for Inactive)
REMARK    1  A    between atoms: C1_2  and  C2_3 
ROOT
ATOM      1  C2  UNL d   1      -0.391   0.178  -0.308  0.00  0.00    -0.076 A 
ATOM      2  C3  UNL d   1      -0.890   0.951  -1.371  0.00  0.00     0.004 A 
ATOM      3  C4  UNL d   1      -2.048   0.576  -2.049  0.00  0.00    -0.003 A 
ATOM      4  C5  UNL d   1      -2.727  -0.579  -1.674  0.00  0.00     0.000 A 
ATOM      5  C6  UNL d   1      -2.256  -1.348  -0.611  0.00  0.00     0.000 A 
ATOM      6  C7  UNL d   1      -1.099  -0.974   0.094  0.00  0.00    -0.073 A 
ATOM      7  C8  UNL d   1      -0.632  -1.844   1.229  0.00  0.00     0.078 C 
ENDROOT
BRANCH   1   8
ATOM      8  C1  UNL d   1       0.885   0.621   0.372  0.00  0.00     0.053 C 
ATOM      9  C   UNL d   1       1.963  -0.452   0.344  0.00  0.00     0.018 C 
ENDBRANCH   1   8
TORSDOF 1
ENDMDL
