MODEL 1
REMARK minimizedAffinity -1.19420993
REMARK minimizedRMSD -1
REMARK  1 active torsions:
REMARK  status: ('A' for Active; 'I' for Inactive)
REMARK    1  A    between atoms: C1_2  and  C2_3 
ROOT
ATOM      1  C2  UNL d   1      -0.261  -0.335  -0.086  0.00  0.00    -0.076 A 
ATOM      2  C3  UNL d   1      -0.562   0.491  -1.182  0.00  0.00     0.004 A 
ATOM      3  C4  UNL d   1      -1.669   0.236  -1.990  0.00  0.00    -0.003 A 
ATOM      4  C5  UNL d   1      -2.493  -0.849  -1.714  0.00  0.00     0.000 A 
ATOM      5  C6  UNL d   1      -2.219  -1.669  -0.620  0.00  0.00     0.000 A 
ATOM      6  C7  UNL d   1      -1.117  -1.417   0.214  0.00  0.00    -0.073 A 
ATOM      7  C8  UNL d   1      -0.865  -2.338   1.377  0.00  0.00     0.078 C 
ENDROOT
BRANCH   1   8
ATOM      8  C1  UNL d   1       0.968  -0.026   0.738  0.00  0.00     0.053 C 
ATOM      9  C   UNL d   1       1.656   1.258   0.299  0.00  0.00     0.018 C 
ENDBRANCH   1   8
TORSDOF 1
ENDMDL
