MODEL 1
REMARK minimizedAffinity -3.21667361
REMARK minimizedRMSD -1
REMARK  1 active torsions:
REMARK  status: ('A' for Active; 'I' for Inactive)
REMARK    1  A    between atoms: C1_2  and  C2_3 
ROOT
ATOM      1  C2  UNL d   1       1.063   0.883  -0.180  0.00  0.00    -0.076 A 
ATOM      2  C3  UNL d   1       1.230   2.251  -0.459  0.00  0.00     0.004 A 
ATOM      3  C4  UNL d   1       1.777   3.114   0.489  0.00  0.00    -0.003 A 
ATOM      4  C5  UNL d   1       2.166   2.624   1.731  0.00  0.00     0.000 A 
ATOM      5  C6  UNL d   1       2.025   1.267   2.017  0.00  0.00     0.000 A 
ATOM      6  C7  UNL d   1       1.490   0.379   1.067  0.00  0.00    -0.073 A 
ATOM      7  C8  UNL d   1       1.355  -1.073   1.432  0.00  0.00     0.078 C 
ENDROOT
BRANCH   1   8
ATOM      8  C1  UNL d   1       0.439  -0.000  -1.237  0.00  0.00     0.053 C 
ATOM      9  C   UNL d   1      -1.048   0.263  -1.412  0.00  0.00     0.018 C 
ENDBRANCH   1   8
TORSDOF 1
ENDMDL
