MODEL 1
REMARK minimizedAffinity -4.85482407
REMARK minimizedRMSD -1
REMARK  1 active torsions:
REMARK  status: ('A' for Active; 'I' for Inactive)
REMARK    1  A    between atoms: C1_2  and  C2_3 
ROOT
ATOM      1  C2  UNL d   1      -0.238  -0.904   0.047  0.00  0.00    -0.076 A 
ATOM      2  C3  UNL d   1      -0.422  -1.913   1.009  0.00  0.00     0.004 A 
ATOM      3  C4  UNL d   1      -1.548  -2.734   0.980  0.00  0.00    -0.003 A 
ATOM      4  C5  UNL d   1      -2.507  -2.561  -0.012  0.00  0.00     0.000 A 
ATOM      5  C6  UNL d   1      -2.331  -1.578  -0.984  0.00  0.00     0.000 A 
ATOM      6  C7  UNL d   1      -1.194  -0.751  -0.979  0.00  0.00    -0.073 A 
ATOM      7  C8  UNL d   1      -1.059   0.298  -2.049  0.00  0.00     0.078 C 
ENDROOT
BRANCH   1   8
ATOM      8  C1  UNL d   1       0.989  -0.026   0.145  0.00  0.00     0.053 C 
ATOM      9  C   UNL d   1       0.720   1.269   0.897  0.00  0.00     0.018 C 
ENDBRANCH   1   8
TORSDOF 1
ENDMDL
