MODEL 1
REMARK minimizedAffinity -4.45465279
REMARK minimizedRMSD -1
REMARK  1 active torsions:
REMARK  status: ('A' for Active; 'I' for Inactive)
REMARK    1  A    between atoms: C1_2  and  C2_3 
ROOT
ATOM      1  C2  UNL d   1       1.211   0.713   0.277  0.00  0.00    -0.076 A 
ATOM      2  C3  UNL d   1       1.831   1.974   0.310  0.00  0.00     0.004 A 
ATOM      3  C4  UNL d   1       2.012   2.653   1.514  0.00  0.00    -0.003 A 
ATOM      4  C5  UNL d   1       1.578   2.080   2.705  0.00  0.00     0.000 A 
ATOM      5  C6  UNL d   1       0.977   0.822   2.692  0.00  0.00     0.000 A 
ATOM      6  C7  UNL d   1       0.801   0.117   1.489  0.00  0.00    -0.073 A 
ATOM      7  C8  UNL d   1       0.142  -1.234   1.533  0.00  0.00     0.078 C 
ENDROOT
BRANCH   1   8
ATOM      8  C1  UNL d   1       1.017   0.037  -1.061  0.00  0.00     0.053 C 
ATOM      9  C   UNL d   1      -0.285   0.441  -1.735  0.00  0.00     0.018 C 
ENDBRANCH   1   8
TORSDOF 1
ENDMDL
