MODEL 1
REMARK minimizedAffinity -1.08407128
REMARK minimizedRMSD -1
REMARK  0 active torsions:
REMARK  status: ('A' for Active; 'I' for Inactive)
ROOT
ATOM      1  C   UNL d   1       0.598   1.431  -0.583  0.00  0.00     0.023 A 
ATOM      2  C1  UNL d   1      -0.763   1.366  -0.284  0.00  0.00     0.003 A 
ATOM      3  C2  UNL d   1      -1.299   0.210   0.286  0.00  0.00     0.048 A 
ATOM      4  C3  UNL d   1      -0.469  -0.878   0.555  0.00  0.00     0.023 A 
ATOM      5  C4  UNL d   1       0.894  -0.817   0.258  0.00  0.00     0.048 A 
ATOM      6  C5  UNL d   1       1.425   0.341  -0.313  0.00  0.00     0.003 A 
ATOM      7  I   UNL d   1      -1.264  -2.600   1.403  0.00  0.00    -0.146 I 
ENDROOT
TORSDOF 0
ENDMDL
