MODEL 1
REMARK minimizedAffinity -3.82439137
REMARK minimizedRMSD -1
REMARK  0 active torsions:
REMARK  status: ('A' for Active; 'I' for Inactive)
ROOT
ATOM      1  C   UNL d   1      -0.439  -2.368   1.084  0.00  0.00     0.023 A 
ATOM      2  C1  UNL d   1       0.903  -2.018   0.934  0.00  0.00     0.003 A 
ATOM      3  C2  UNL d   1       1.247  -0.799   0.346  0.00  0.00     0.048 A 
ATOM      4  C3  UNL d   1       0.243   0.067  -0.088  0.00  0.00     0.023 A 
ATOM      5  C4  UNL d   1      -1.101  -0.279   0.061  0.00  0.00     0.048 A 
ATOM      6  C5  UNL d   1      -1.440  -1.500   0.648  0.00  0.00     0.003 A 
ATOM      7  I   UNL d   1       0.751   1.882  -0.962  0.00  0.00    -0.146 I 
ENDROOT
TORSDOF 0
ENDMDL
