MODEL 1
REMARK minimizedAffinity -3.84141326
REMARK minimizedRMSD -1
REMARK  0 active torsions:
REMARK  status: ('A' for Active; 'I' for Inactive)
ROOT
ATOM      1  C   UNL d   1      -1.333  -2.815   1.082  0.00  0.00     0.023 A 
ATOM      2  C1  UNL d   1      -2.113  -1.736   0.665  0.00  0.00     0.003 A 
ATOM      3  C2  UNL d   1      -1.504  -0.583   0.166  0.00  0.00     0.048 A 
ATOM      4  C3  UNL d   1      -0.113  -0.516   0.086  0.00  0.00     0.023 A 
ATOM      5  C4  UNL d   1       0.672  -1.593   0.500  0.00  0.00     0.048 A 
ATOM      6  C5  UNL d   1       0.057  -2.744   0.999  0.00  0.00     0.003 A 
ATOM      7  I   UNL d   1       0.797   1.199  -0.657  0.00  0.00    -0.146 I 
ENDROOT
TORSDOF 0
ENDMDL
