MODEL 1
REMARK minimizedAffinity -2.99114728
REMARK minimizedRMSD -1
REMARK  0 active torsions:
REMARK  status: ('A' for Active; 'I' for Inactive)
ROOT
ATOM      1  C   UNL d   1      -0.614  -2.474   1.185  0.00  0.00     0.023 A 
ATOM      2  C1  UNL d   1      -1.593  -1.571   0.773  0.00  0.00     0.003 A 
ATOM      3  C2  UNL d   1      -1.224  -0.363   0.177  0.00  0.00     0.048 A 
ATOM      4  C3  UNL d   1       0.126  -0.066  -0.004  0.00  0.00     0.023 A 
ATOM      5  C4  UNL d   1       1.110  -0.967   0.406  0.00  0.00     0.048 A 
ATOM      6  C5  UNL d   1       0.736  -2.173   1.002  0.00  0.00     0.003 A 
ATOM      7  I   UNL d   1       0.678   1.731  -0.891  0.00  0.00    -0.146 I 
ENDROOT
TORSDOF 0
ENDMDL
