MODEL 1
REMARK minimizedAffinity -2.11208558
REMARK minimizedRMSD -1
REMARK  0 active torsions:
REMARK  status: ('A' for Active; 'I' for Inactive)
ROOT
ATOM      1  C   UNL d   1      -0.199  -2.488   1.977  0.00  0.00     0.023 A 
ATOM      2  C1  UNL d   1      -1.300  -1.954   1.307  0.00  0.00     0.003 A 
ATOM      3  C2  UNL d   1      -1.142  -0.840   0.479  0.00  0.00     0.048 A 
ATOM      4  C3  UNL d   1       0.120  -0.266   0.326  0.00  0.00     0.023 A 
ATOM      5  C4  UNL d   1       1.224  -0.798   0.994  0.00  0.00     0.048 A 
ATOM      6  C5  UNL d   1       1.061  -1.911   1.821  0.00  0.00     0.003 A 
ATOM      7  I   UNL d   1       0.358   1.391  -0.906  0.00  0.00    -0.146 I 
ENDROOT
TORSDOF 0
ENDMDL
