MODEL 1
REMARK minimizedAffinity -5.04358864
REMARK minimizedRMSD -1
REMARK  0 active torsions:
REMARK  status: ('A' for Active; 'I' for Inactive)
ROOT
ATOM      1  C   UNL d   1      -1.357  -2.418   1.149  0.00  0.00     0.023 A 
ATOM      2  C1  UNL d   1      -0.011  -2.465   0.787  0.00  0.00     0.003 A 
ATOM      3  C2  UNL d   1       0.573  -1.383   0.125  0.00  0.00     0.048 A 
ATOM      4  C3  UNL d   1      -0.194  -0.257  -0.171  0.00  0.00     0.023 A 
ATOM      5  C4  UNL d   1      -1.541  -0.205   0.191  0.00  0.00     0.048 A 
ATOM      6  C5  UNL d   1      -2.121  -1.289   0.851  0.00  0.00     0.003 A 
ATOM      7  I   UNL d   1       0.674   1.354  -1.156  0.00  0.00    -0.146 I 
ENDROOT
TORSDOF 0
ENDMDL
