MODEL 1
REMARK minimizedAffinity -2.42376876
REMARK minimizedRMSD -1
REMARK  0 active torsions:
REMARK  status: ('A' for Active; 'I' for Inactive)
ROOT
ATOM      1  C   UNL d   1      -1.162  -1.399   0.882  0.00  0.00     0.023 A 
ATOM      2  C1  UNL d   1      -1.758  -0.172   0.589  0.00  0.00     0.003 A 
ATOM      3  C2  UNL d   1      -1.084   0.761  -0.202  0.00  0.00     0.048 A 
ATOM      4  C3  UNL d   1       0.184   0.461  -0.697  0.00  0.00     0.023 A 
ATOM      5  C4  UNL d   1       0.784  -0.766  -0.406  0.00  0.00     0.048 A 
ATOM      6  C5  UNL d   1       0.107  -1.695   0.385  0.00  0.00     0.003 A 
ATOM      7  I   UNL d   1       1.189   1.848  -1.874  0.00  0.00    -0.146 I 
ENDROOT
TORSDOF 0
ENDMDL
