MODEL 1
REMARK minimizedAffinity -1.080338
REMARK minimizedRMSD -1
REMARK  0 active torsions:
REMARK  status: ('A' for Active; 'I' for Inactive)
ROOT
ATOM      1  C   UNL d   1      -1.312  -2.471   1.128  0.00  0.00     0.023 A 
ATOM      2  C1  UNL d   1      -1.965  -1.468   0.411  0.00  0.00     0.003 A 
ATOM      3  C2  UNL d   1      -1.225  -0.471  -0.230  0.00  0.00     0.048 A 
ATOM      4  C3  UNL d   1       0.167  -0.485  -0.151  0.00  0.00     0.023 A 
ATOM      5  C4  UNL d   1       0.824  -1.487   0.565  0.00  0.00     0.048 A 
ATOM      6  C5  UNL d   1       0.081  -2.480   1.205  0.00  0.00     0.003 A 
ATOM      7  I   UNL d   1       1.269   0.997  -1.104  0.00  0.00    -0.146 I 
ENDROOT
TORSDOF 0
ENDMDL
