MODEL 1
REMARK minimizedAffinity -2.20972919
REMARK minimizedRMSD -1
REMARK  0 active torsions:
REMARK  status: ('A' for Active; 'I' for Inactive)
ROOT
ATOM      1  C   UNL d   1      -0.452  -0.943   0.884  0.00  0.00     0.023 A 
ATOM      2  C1  UNL d   1       0.207  -1.491  -0.216  0.00  0.00     0.003 A 
ATOM      3  C2  UNL d   1       0.510  -0.692  -1.321  0.00  0.00     0.048 A 
ATOM      4  C3  UNL d   1       0.152   0.655  -1.318  0.00  0.00     0.023 A 
ATOM      5  C4  UNL d   1      -0.507   1.209  -0.219  0.00  0.00     0.048 A 
ATOM      6  C5  UNL d   1      -0.808   0.406   0.883  0.00  0.00     0.003 A 
ATOM      7  I   UNL d   1       0.602   1.847  -2.960  0.00  0.00    -0.146 I 
ENDROOT
TORSDOF 0
ENDMDL
