MODEL 1
REMARK minimizedAffinity -4.17895794
REMARK minimizedRMSD -1
REMARK  0 active torsions:
REMARK  status: ('A' for Active; 'I' for Inactive)
ROOT
ATOM      1  C   UNL d   1      -0.408  -1.857   1.015  0.00  0.00     0.023 A 
ATOM      2  C1  UNL d   1       0.920  -1.917   0.592  0.00  0.00     0.003 A 
ATOM      3  C2  UNL d   1       1.471  -0.861  -0.136  0.00  0.00     0.048 A 
ATOM      4  C3  UNL d   1       0.688   0.253  -0.437  0.00  0.00     0.023 A 
ATOM      5  C4  UNL d   1      -0.641   0.318  -0.015  0.00  0.00     0.048 A 
ATOM      6  C5  UNL d   1      -1.187  -0.741   0.712  0.00  0.00     0.003 A 
ATOM      7  I   UNL d   1       1.506   1.827  -1.520  0.00  0.00    -0.146 I 
ENDROOT
TORSDOF 0
ENDMDL
