MODEL 1
REMARK minimizedAffinity -1.95448375
REMARK minimizedRMSD -1
REMARK  0 active torsions:
REMARK  status: ('A' for Active; 'I' for Inactive)
ROOT
ATOM      1  C   UNL d   1      -0.468  -2.355   1.217  0.00  0.00     0.023 A 
ATOM      2  C1  UNL d   1      -1.283  -1.225   1.277  0.00  0.00     0.003 A 
ATOM      3  C2  UNL d   1      -0.942  -0.078   0.557  0.00  0.00     0.048 A 
ATOM      4  C3  UNL d   1       0.214  -0.068  -0.222  0.00  0.00     0.023 A 
ATOM      5  C4  UNL d   1       1.032  -1.198  -0.286  0.00  0.00     0.048 A 
ATOM      6  C5  UNL d   1       0.688  -2.342   0.436  0.00  0.00     0.003 A 
ATOM      7  I   UNL d   1       0.723   1.637  -1.295  0.00  0.00    -0.146 I 
ENDROOT
TORSDOF 0
ENDMDL
