MODEL 1
REMARK minimizedAffinity -3.33512521
REMARK minimizedRMSD -1
REMARK  0 active torsions:
REMARK  status: ('A' for Active; 'I' for Inactive)
ROOT
ATOM      1  C   UNL d   1      -1.721  -3.028   1.444  0.00  0.00     0.023 A 
ATOM      2  C1  UNL d   1      -2.321  -2.222   0.476  0.00  0.00     0.003 A 
ATOM      3  C2  UNL d   1      -1.624  -1.138  -0.061  0.00  0.00     0.048 A 
ATOM      4  C3  UNL d   1      -0.328  -0.865   0.373  0.00  0.00     0.023 A 
ATOM      5  C4  UNL d   1       0.277  -1.669   1.341  0.00  0.00     0.048 A 
ATOM      6  C5  UNL d   1      -0.424  -2.752   1.876  0.00  0.00     0.003 A 
ATOM      7  I   UNL d   1       0.712   0.748  -0.425  0.00  0.00    -0.146 I 
ENDROOT
TORSDOF 0
ENDMDL
