MODEL 1
REMARK minimizedAffinity -4.38287354
REMARK minimizedRMSD -1
REMARK  0 active torsions:
REMARK  status: ('A' for Active; 'I' for Inactive)
ROOT
ATOM      1  C   UNL d   1      -2.026  -1.577   1.895  0.00  0.00     0.023 A 
ATOM      2  C1  UNL d   1      -2.347  -0.232   1.713  0.00  0.00     0.003 A 
ATOM      3  C2  UNL d   1      -1.602   0.551   0.828  0.00  0.00     0.048 A 
ATOM      4  C3  UNL d   1      -0.539  -0.019   0.128  0.00  0.00     0.023 A 
ATOM      5  C4  UNL d   1      -0.215  -1.364   0.307  0.00  0.00     0.048 A 
ATOM      6  C5  UNL d   1      -0.961  -2.143   1.194  0.00  0.00     0.003 A 
ATOM      7  I   UNL d   1       0.571   1.144  -1.190  0.00  0.00    -0.146 I 
ENDROOT
TORSDOF 0
ENDMDL
