MODEL 1
REMARK minimizedAffinity -3.35654044
REMARK minimizedRMSD -1
REMARK  0 active torsions:
REMARK  status: ('A' for Active; 'I' for Inactive)
ROOT
ATOM      1  C   UNL d   1      -1.147  -1.826   1.248  0.00  0.00     0.023 A 
ATOM      2  C1  UNL d   1      -1.750  -0.656   0.785  0.00  0.00     0.003 A 
ATOM      3  C2  UNL d   1      -1.014   0.256   0.026  0.00  0.00     0.048 A 
ATOM      4  C3  UNL d   1       0.324  -0.008  -0.267  0.00  0.00     0.023 A 
ATOM      5  C4  UNL d   1       0.930  -1.178   0.193  0.00  0.00     0.048 A 
ATOM      6  C5  UNL d   1       0.191  -2.087   0.953  0.00  0.00     0.003 A 
ATOM      7  I   UNL d   1       1.421   1.348  -1.397  0.00  0.00    -0.146 I 
ENDROOT
TORSDOF 0
ENDMDL
