MODEL 1
REMARK minimizedAffinity -2.02865386
REMARK minimizedRMSD -1
REMARK  0 active torsions:
REMARK  status: ('A' for Active; 'I' for Inactive)
ROOT
ATOM      1  C   UNL d   1      -2.077  -2.523   1.029  0.00  0.00     0.023 A 
ATOM      2  C1  UNL d   1      -0.836  -2.379   1.650  0.00  0.00     0.003 A 
ATOM      3  C2  UNL d   1       0.082  -1.443   1.170  0.00  0.00     0.048 A 
ATOM      4  C3  UNL d   1      -0.247  -0.654   0.068  0.00  0.00     0.023 A 
ATOM      5  C4  UNL d   1      -1.487  -0.794  -0.556  0.00  0.00     0.048 A 
ATOM      6  C5  UNL d   1      -2.402  -1.732  -0.072  0.00  0.00     0.003 A 
ATOM      7  I   UNL d   1       1.118   0.739  -0.649  0.00  0.00    -0.146 I 
ENDROOT
TORSDOF 0
ENDMDL
