MODEL 1
REMARK minimizedAffinity -4.21306515
REMARK minimizedRMSD -1
REMARK  0 active torsions:
REMARK  status: ('A' for Active; 'I' for Inactive)
ROOT
ATOM      1  C   UNL d   1      -1.173  -2.324   1.090  0.00  0.00     0.023 A 
ATOM      2  C1  UNL d   1       0.191  -2.311   0.795  0.00  0.00     0.003 A 
ATOM      3  C2  UNL d   1       0.741  -1.246   0.079  0.00  0.00     0.048 A 
ATOM      4  C3  UNL d   1      -0.077  -0.196  -0.338  0.00  0.00     0.023 A 
ATOM      5  C4  UNL d   1      -1.442  -0.205  -0.044  0.00  0.00     0.048 A 
ATOM      6  C5  UNL d   1      -1.988  -1.272   0.671  0.00  0.00     0.003 A 
ATOM      7  I   UNL d   1       0.740   1.390  -1.403  0.00  0.00    -0.146 I 
ENDROOT
TORSDOF 0
ENDMDL
