MODEL 1
REMARK minimizedAffinity 11.1847944
REMARK minimizedRMSD -1
REMARK  1 active torsions:
REMARK  status: ('A' for Active; 'I' for Inactive)
REMARK    1  A    between atoms: C1_2  and  C2_3 
ROOT
ATOM      1  C2  UNL d   1       4.827  -2.253   3.883  0.00  0.00    -0.081 A 
ATOM      2  C3  UNL d   1       4.444  -2.846   5.092  0.00  0.00     0.006 A 
ATOM      3  C4  UNL d   1       3.323  -2.384   5.784  0.00  0.00     0.002 A 
ATOM      4  C5  UNL d   1       2.562  -1.325   5.276  0.00  0.00    -0.080 A 
ATOM      5  C6  UNL d   1       1.338  -0.839   5.994  0.00  0.00     0.076 C 
ATOM      6  C7  UNL d   1       2.954  -0.721   4.077  0.00  0.00     0.002 A 
ATOM      7  C8  UNL d   1       4.076  -1.183   3.385  0.00  0.00     0.006 A 
ENDROOT
BRANCH   1   8
ATOM      8  C1  UNL d   1       5.998  -2.792   3.102  0.00  0.00     0.054 C 
ATOM      9  C   UNL d   1       5.919  -2.388   1.636  0.00  0.00     0.018 C 
ENDBRANCH   1   8
TORSDOF 1
ENDMDL
