MODEL 1
REMARK minimizedAffinity 12.6911459
REMARK minimizedRMSD -1
REMARK  1 active torsions:
REMARK  status: ('A' for Active; 'I' for Inactive)
REMARK    1  A    between atoms: C1_2  and  C2_3 
ROOT
ATOM      1  C2  UNL d   1       1.283   5.054  -0.872  0.00  0.00    -0.081 A 
ATOM      2  C3  UNL d   1       1.682   3.958  -0.097  0.00  0.00     0.006 A 
ATOM      3  C4  UNL d   1       0.735   3.057   0.395  0.00  0.00     0.002 A 
ATOM      4  C5  UNL d   1      -0.624   3.232   0.115  0.00  0.00    -0.080 A 
ATOM      5  C6  UNL d   1      -1.648   2.255   0.612  0.00  0.00     0.076 C 
ATOM      6  C7  UNL d   1      -1.024   4.337  -0.645  0.00  0.00     0.002 A 
ATOM      7  C8  UNL d   1      -0.078   5.238  -1.137  0.00  0.00     0.006 A 
ENDROOT
BRANCH   1   8
ATOM      8  C1  UNL d   1       2.308   5.991  -1.459  0.00  0.00     0.054 C 
ATOM      9  C   UNL d   1       2.249   5.994  -2.979  0.00  0.00     0.018 C 
ENDBRANCH   1   8
TORSDOF 1
ENDMDL
