MODEL 1
REMARK minimizedAffinity 4.46668673
REMARK minimizedRMSD -1
REMARK  1 active torsions:
REMARK  status: ('A' for Active; 'I' for Inactive)
REMARK    1  A    between atoms: C1_2  and  C2_3 
ROOT
ATOM      1  C2  UNL d   1       3.428  -1.479   1.623  0.00  0.00    -0.081 A 
ATOM      2  C3  UNL d   1       3.258  -1.264   2.996  0.00  0.00     0.006 A 
ATOM      3  C4  UNL d   1       4.080  -1.911   3.922  0.00  0.00     0.002 A 
ATOM      4  C5  UNL d   1       5.090  -2.777   3.490  0.00  0.00    -0.080 A 
ATOM      5  C6  UNL d   1       6.000  -3.454   4.472  0.00  0.00     0.076 C 
ATOM      6  C7  UNL d   1       5.250  -3.005   2.119  0.00  0.00     0.002 A 
ATOM      7  C8  UNL d   1       4.427  -2.359   1.193  0.00  0.00     0.006 A 
ENDROOT
BRANCH   1   8
ATOM      8  C1  UNL d   1       2.585  -0.734   0.620  0.00  0.00     0.054 C 
ATOM      9  C   UNL d   1       1.115  -1.107   0.746  0.00  0.00     0.018 C 
ENDBRANCH   1   8
TORSDOF 1
ENDMDL
