MODEL 1
REMARK minimizedAffinity -2.95928383
REMARK minimizedRMSD -1
REMARK  0 active torsions:
REMARK  status: ('A' for Active; 'I' for Inactive)
ROOT
ATOM      1  N1  IND d   1      -0.860  -2.493  -2.718  0.00  0.00    -0.196 N 
ATOM      2  C2  IND d   1       0.126  -3.301  -3.214  0.00  0.00     0.054 A 
ATOM      3  C3  IND d   1       1.251  -3.178  -2.475  0.00  0.00    -0.031 A 
ATOM      4  C4  IND d   1       1.668  -1.788  -0.349  0.00  0.00     0.051 A 
ATOM      5  C5  IND d   1       1.079  -0.862   0.465  0.00  0.00    -0.031 A 
ATOM      6  C6  IND d   1      -0.213  -0.425   0.257  0.00  0.00     0.015 A 
ATOM      7  C7  IND d   1      -0.972  -0.909  -0.770  0.00  0.00    -0.016 A 
ATOM      8  C8  IND d   1      -0.375  -1.845  -1.603  0.00  0.00    -0.047 A 
ATOM      9  C9  IND d   1       0.951  -2.260  -1.422  0.00  0.00    -0.096 A 
ATOM     10  HN1 IND d   1      -1.649  -2.405  -3.046  0.00  0.00     0.298 HD
ENDROOT
TORSDOF 0
ENDMDL
