MODEL 1
REMARK minimizedAffinity -1.3103528
REMARK minimizedRMSD -1
REMARK  0 active torsions:
REMARK  status: ('A' for Active; 'I' for Inactive)
ROOT
ATOM      1  N1  IND d   1       1.029   1.398  -1.490  0.00  0.00    -0.196 N 
ATOM      2  C2  IND d   1       1.206   0.048  -1.371  0.00  0.00     0.054 A 
ATOM      3  C3  IND d   1       0.613  -0.407  -0.244  0.00  0.00    -0.031 A 
ATOM      4  C4  IND d   1      -0.788   0.871   1.497  0.00  0.00     0.051 A 
ATOM      5  C5  IND d   1      -1.197   2.130   1.836  0.00  0.00    -0.031 A 
ATOM      6  C6  IND d   1      -0.881   3.232   1.067  0.00  0.00     0.015 A 
ATOM      7  C7  IND d   1      -0.151   3.113  -0.081  0.00  0.00    -0.016 A 
ATOM      8  C8  IND d   1       0.273   1.837  -0.425  0.00  0.00    -0.047 A 
ATOM      9  C9  IND d   1      -0.009   0.721   0.374  0.00  0.00    -0.096 A 
ATOM     10  HN1 IND d   1       1.338   1.891  -2.123  0.00  0.00     0.298 HD
ENDROOT
TORSDOF 0
ENDMDL
