MODEL 1
REMARK minimizedAffinity -3.76571298
REMARK minimizedRMSD -1
REMARK  0 active torsions:
REMARK  status: ('A' for Active; 'I' for Inactive)
ROOT
ATOM      1  N1  IND d   1       0.640   0.116  -0.713  0.00  0.00    -0.196 N 
ATOM      2  C2  IND d   1       0.501  -1.010   0.049  0.00  0.00     0.054 A 
ATOM      3  C3  IND d   1      -0.181  -0.731   1.183  0.00  0.00    -0.031 A 
ATOM      4  C4  IND d   1      -1.250   1.484   1.944  0.00  0.00     0.051 A 
ATOM      5  C5  IND d   1      -1.359   2.802   1.599  0.00  0.00    -0.031 A 
ATOM      6  C6  IND d   1      -0.797   3.302   0.442  0.00  0.00     0.015 A 
ATOM      7  C7  IND d   1      -0.113   2.496  -0.424  0.00  0.00    -0.016 A 
ATOM      8  C8  IND d   1       0.005   1.158  -0.074  0.00  0.00    -0.047 A 
ATOM      9  C9  IND d   1      -0.526   0.654   1.120  0.00  0.00    -0.096 A 
ATOM     10  HN1 IND d   1       1.055   0.166  -1.464  0.00  0.00     0.298 HD
ENDROOT
TORSDOF 0
ENDMDL
