MODEL 1
REMARK minimizedAffinity -4.36678791
REMARK minimizedRMSD -1
REMARK  0 active torsions:
REMARK  status: ('A' for Active; 'I' for Inactive)
ROOT
ATOM      1  N1  IND d   1       0.577   0.072  -0.667  0.00  0.00    -0.196 N 
ATOM      2  C2  IND d   1       0.655  -1.005   0.171  0.00  0.00     0.054 A 
ATOM      3  C3  IND d   1       0.005  -0.748   1.328  0.00  0.00    -0.031 A 
ATOM      4  C4  IND d   1      -1.342   1.334   2.020  0.00  0.00     0.051 A 
ATOM      5  C5  IND d   1      -1.669   2.593   1.602  0.00  0.00    -0.031 A 
ATOM      6  C6  IND d   1      -1.257   3.086   0.381  0.00  0.00     0.015 A 
ATOM      7  C7  IND d   1      -0.510   2.330  -0.477  0.00  0.00    -0.016 A 
ATOM      8  C8  IND d   1      -0.171   1.053  -0.053  0.00  0.00    -0.047 A 
ATOM      9  C9  IND d   1      -0.549   0.563   1.203  0.00  0.00    -0.096 A 
ATOM     10  HN1 IND d   1       0.936   0.128  -1.447  0.00  0.00     0.298 HD
ENDROOT
TORSDOF 0
ENDMDL
