MODEL 1
REMARK minimizedAffinity -1.38881767
REMARK minimizedRMSD -1
REMARK  0 active torsions:
REMARK  status: ('A' for Active; 'I' for Inactive)
ROOT
ATOM      1  N1  IND d   1       0.725   0.077  -0.814  0.00  0.00    -0.196 N 
ATOM      2  C2  IND d   1       0.788  -1.284  -0.927  0.00  0.00     0.054 A 
ATOM      3  C3  IND d   1       0.109  -1.871   0.084  0.00  0.00    -0.031 A 
ATOM      4  C4  IND d   1      -1.265  -0.792   1.975  0.00  0.00     0.051 A 
ATOM      5  C5  IND d   1      -1.588   0.421   2.515  0.00  0.00    -0.031 A 
ATOM      6  C6  IND d   1      -1.149   1.606   1.960  0.00  0.00     0.015 A 
ATOM      7  C7  IND d   1      -0.378   1.622   0.832  0.00  0.00    -0.016 A 
ATOM      8  C8  IND d   1      -0.042   0.392   0.286  0.00  0.00    -0.047 A 
ATOM      9  C9  IND d   1      -0.449  -0.815   0.869  0.00  0.00    -0.096 A 
ATOM     10  HN1 IND d   1       1.102   0.642  -1.342  0.00  0.00     0.298 HD
ENDROOT
TORSDOF 0
ENDMDL
