MODEL 1
REMARK minimizedAffinity -2.78926516
REMARK minimizedRMSD -1
REMARK  0 active torsions:
REMARK  status: ('A' for Active; 'I' for Inactive)
ROOT
ATOM      1  N1  IND d   1       0.708   0.600  -0.803  0.00  0.00    -0.196 N 
ATOM      2  C2  IND d   1       0.385  -0.612  -0.260  0.00  0.00     0.054 A 
ATOM      3  C3  IND d   1      -0.312  -0.444   0.886  0.00  0.00    -0.031 A 
ATOM      4  C4  IND d   1      -1.121   1.729   2.004  0.00  0.00     0.051 A 
ATOM      5  C5  IND d   1      -1.039   3.089   1.901  0.00  0.00    -0.031 A 
ATOM      6  C6  IND d   1      -0.359   3.702   0.868  0.00  0.00     0.015 A 
ATOM      7  C7  IND d   1       0.258   2.974  -0.110  0.00  0.00    -0.016 A 
ATOM      8  C8  IND d   1       0.182   1.592  -0.004  0.00  0.00    -0.047 A 
ATOM      9  C9  IND d   1      -0.470   0.964   1.065  0.00  0.00    -0.096 A 
ATOM     10  HN1 IND d   1       1.164   0.723  -1.522  0.00  0.00     0.298 HD
ENDROOT
TORSDOF 0
ENDMDL
