MODEL 1
REMARK minimizedAffinity -3.63732004
REMARK minimizedRMSD -1
REMARK  0 active torsions:
REMARK  status: ('A' for Active; 'I' for Inactive)
ROOT
ATOM      1  N1  IND d   1       0.902   0.068  -0.718  0.00  0.00    -0.196 N 
ATOM      2  C2  IND d   1       0.464  -0.788   0.254  0.00  0.00     0.054 A 
ATOM      3  C3  IND d   1      -0.072  -0.095   1.284  0.00  0.00    -0.031 A 
ATOM      4  C4  IND d   1      -0.427   2.442   1.540  0.00  0.00     0.051 A 
ATOM      5  C5  IND d   1      -0.157   3.634   0.930  0.00  0.00    -0.031 A 
ATOM      6  C6  IND d   1       0.490   3.700  -0.287  0.00  0.00     0.015 A 
ATOM      7  C7  IND d   1       0.884   2.571  -0.947  0.00  0.00    -0.016 A 
ATOM      8  C8  IND d   1       0.617   1.358  -0.327  0.00  0.00    -0.047 A 
ATOM      9  C9  IND d   1      -0.001   1.287   0.928  0.00  0.00    -0.096 A 
ATOM     10  HN1 IND d   1       1.290  -0.160  -1.450  0.00  0.00     0.298 HD
ENDROOT
TORSDOF 0
ENDMDL
