MODEL 1
REMARK minimizedAffinity -1.14010561
REMARK minimizedRMSD -1
REMARK  0 active torsions:
REMARK  status: ('A' for Active; 'I' for Inactive)
ROOT
ATOM      1  N1  IND d   1       0.126   0.427  -1.254  0.00  0.00    -0.196 N 
ATOM      2  C2  IND d   1       0.186   0.519   0.109  0.00  0.00     0.054 A 
ATOM      3  C3  IND d   1       0.366  -0.705   0.655  0.00  0.00    -0.031 A 
ATOM      4  C4  IND d   1       0.689  -2.981  -0.503  0.00  0.00     0.051 A 
ATOM      5  C5  IND d   1       0.676  -3.575  -1.734  0.00  0.00    -0.031 A 
ATOM      6  C6  IND d   1       0.476  -2.851  -2.891  0.00  0.00     0.015 A 
ATOM      7  C7  IND d   1       0.294  -1.497  -2.861  0.00  0.00    -0.016 A 
ATOM      8  C8  IND d   1       0.301  -0.891  -1.613  0.00  0.00    -0.047 A 
ATOM      9  C9  IND d   1       0.460  -1.627  -0.432  0.00  0.00    -0.096 A 
ATOM     10  HN1 IND d   1      -0.000   1.083  -1.796  0.00  0.00     0.298 HD
ENDROOT
TORSDOF 0
ENDMDL
