MODEL 1
REMARK minimizedAffinity -0.401125908
REMARK minimizedRMSD -1
REMARK  0 active torsions:
REMARK  status: ('A' for Active; 'I' for Inactive)
ROOT
ATOM      1  N1  IND d   1       0.605  -0.231  -1.068  0.00  0.00    -0.196 N 
ATOM      2  C2  IND d   1       0.961  -1.550  -1.069  0.00  0.00     0.054 A 
ATOM      3  C3  IND d   1       0.650  -2.123   0.115  0.00  0.00    -0.031 A 
ATOM      4  C4  IND d   1      -0.540  -1.108   2.160  0.00  0.00     0.051 A 
ATOM      5  C5  IND d   1      -1.025   0.073   2.647  0.00  0.00    -0.031 A 
ATOM      6  C6  IND d   1      -0.994   1.236   1.905  0.00  0.00     0.015 A 
ATOM      7  C7  IND d   1      -0.484   1.259   0.638  0.00  0.00    -0.016 A 
ATOM      8  C8  IND d   1       0.016   0.063   0.142  0.00  0.00    -0.047 A 
ATOM      9  C9  IND d   1       0.026  -1.111   0.907  0.00  0.00    -0.096 A 
ATOM     10  HN1 IND d   1       0.728   0.323  -1.714  0.00  0.00     0.298 HD
ENDROOT
TORSDOF 0
ENDMDL
