MODEL 1
REMARK minimizedAffinity -2.66588545
REMARK minimizedRMSD -1
REMARK  0 active torsions:
REMARK  status: ('A' for Active; 'I' for Inactive)
ROOT
ATOM      1  N1  IND d   1       0.514   2.466  -0.946  0.00  0.00    -0.196 N 
ATOM      2  C2  IND d   1       0.272   3.721  -0.462  0.00  0.00     0.054 A 
ATOM      3  C3  IND d   1      -0.364   3.652   0.729  0.00  0.00    -0.031 A 
ATOM      4  C4  IND d   1      -1.013   1.584   2.118  0.00  0.00     0.051 A 
ATOM      5  C5  IND d   1      -1.031   0.219   2.073  0.00  0.00    -0.031 A 
ATOM      6  C6  IND d   1      -0.523  -0.482   0.999  0.00  0.00     0.015 A 
ATOM      7  C7  IND d   1       0.036   0.160  -0.070  0.00  0.00    -0.016 A 
ATOM      8  C8  IND d   1       0.050   1.547  -0.031  0.00  0.00    -0.047 A 
ATOM      9  C9  IND d   1      -0.504   2.264   1.037  0.00  0.00    -0.096 A 
ATOM     10  HN1 IND d   1       0.892   2.282  -1.696  0.00  0.00     0.298 HD
ENDROOT
TORSDOF 0
ENDMDL
