MODEL 1
REMARK minimizedAffinity -4.81342888
REMARK minimizedRMSD -1
REMARK  0 active torsions:
REMARK  status: ('A' for Active; 'I' for Inactive)
ROOT
ATOM      1  N1  IND d   1       0.551  -0.273  -0.612  0.00  0.00    -0.196 N 
ATOM      2  C2  IND d   1       0.201  -1.155   0.372  0.00  0.00     0.054 A 
ATOM      3  C3  IND d   1      -0.320  -0.496   1.431  0.00  0.00    -0.031 A 
ATOM      4  C4  IND d   1      -0.785   2.019   1.724  0.00  0.00     0.051 A 
ATOM      5  C5  IND d   1      -0.602   3.227   1.112  0.00  0.00    -0.031 A 
ATOM      6  C6  IND d   1      -0.016   3.332  -0.133  0.00  0.00     0.015 A 
ATOM      7  C7  IND d   1       0.400   2.227  -0.820  0.00  0.00    -0.016 A 
ATOM      8  C8  IND d   1       0.222   0.999  -0.198  0.00  0.00    -0.047 A 
ATOM      9  C9  IND d   1      -0.333   0.890   1.084  0.00  0.00    -0.096 A 
ATOM     10  HN1 IND d   1       0.914  -0.478  -1.364  0.00  0.00     0.298 HD
ENDROOT
TORSDOF 0
ENDMDL
