MODEL 1
REMARK minimizedAffinity -1.38959575
REMARK minimizedRMSD -1
REMARK  0 active torsions:
REMARK  status: ('A' for Active; 'I' for Inactive)
ROOT
ATOM      1  N1  IND d   1       0.807   0.462  -0.956  0.00  0.00    -0.196 N 
ATOM      2  C2  IND d   1       0.884  -0.902  -0.986  0.00  0.00     0.054 A 
ATOM      3  C3  IND d   1       0.179  -1.435   0.038  0.00  0.00    -0.031 A 
ATOM      4  C4  IND d   1      -1.259  -0.260   1.820  0.00  0.00     0.051 A 
ATOM      5  C5  IND d   1      -1.607   0.980   2.277  0.00  0.00    -0.031 A 
ATOM      6  C6  IND d   1      -1.161   2.134   1.666  0.00  0.00     0.015 A 
ATOM      7  C7  IND d   1      -0.357   2.091   0.563  0.00  0.00    -0.016 A 
ATOM      8  C8  IND d   1       0.005   0.834   0.100  0.00  0.00    -0.047 A 
ATOM      9  C9  IND d   1      -0.410  -0.341   0.742  0.00  0.00    -0.096 A 
ATOM     10  HN1 IND d   1       1.195   0.999  -1.505  0.00  0.00     0.298 HD
ENDROOT
TORSDOF 0
ENDMDL
