MODEL 1
REMARK minimizedAffinity -3.39045048
REMARK minimizedRMSD -1
REMARK  0 active torsions:
REMARK  status: ('A' for Active; 'I' for Inactive)
ROOT
ATOM      1  N1  IND d   1       0.777   2.474  -0.861  0.00  0.00    -0.196 N 
ATOM      2  C2  IND d   1       0.209   3.568  -0.270  0.00  0.00     0.054 A 
ATOM      3  C3  IND d   1      -0.582   3.189   0.760  0.00  0.00    -0.031 A 
ATOM      4  C4  IND d   1      -1.007   0.836   1.714  0.00  0.00     0.051 A 
ATOM      5  C5  IND d   1      -0.737  -0.484   1.485  0.00  0.00    -0.031 A 
ATOM      6  C6  IND d   1       0.070  -0.894   0.444  0.00  0.00     0.015 A 
ATOM      7  C7  IND d   1       0.649   0.006  -0.405  0.00  0.00    -0.016 A 
ATOM      8  C8  IND d   1       0.371   1.347  -0.180  0.00  0.00    -0.047 A 
ATOM      9  C9  IND d   1      -0.481   1.766   0.849  0.00  0.00    -0.096 A 
ATOM     10  HN1 IND d   1       1.301   2.488  -1.543  0.00  0.00     0.298 HD
ENDROOT
TORSDOF 0
ENDMDL
