MODEL 1
REMARK minimizedAffinity -2.99618506
REMARK minimizedRMSD -1
REMARK  0 active torsions:
REMARK  status: ('A' for Active; 'I' for Inactive)
ROOT
ATOM      1  N1  IND d   1       0.652   2.638  -0.595  0.00  0.00    -0.196 N 
ATOM      2  C2  IND d   1       0.170   3.703   0.114  0.00  0.00     0.054 A 
ATOM      3  C3  IND d   1      -0.483   3.276   1.218  0.00  0.00    -0.031 A 
ATOM      4  C4  IND d   1      -0.795   0.881   2.110  0.00  0.00     0.051 A 
ATOM      5  C5  IND d   1      -0.564  -0.427   1.788  0.00  0.00    -0.031 A 
ATOM      6  C6  IND d   1       0.100  -0.787   0.633  0.00  0.00     0.015 A 
ATOM      7  C7  IND d   1       0.570   0.152  -0.241  0.00  0.00    -0.016 A 
ATOM      8  C8  IND d   1       0.331   1.481   0.079  0.00  0.00    -0.047 A 
ATOM      9  C9  IND d   1      -0.380   1.851   1.228  0.00  0.00    -0.096 A 
ATOM     10  HN1 IND d   1       1.083   2.684  -1.338  0.00  0.00     0.298 HD
ENDROOT
TORSDOF 0
ENDMDL
