MODEL 1
REMARK minimizedAffinity -2.7035768
REMARK minimizedRMSD -1
REMARK  0 active torsions:
REMARK  status: ('A' for Active; 'I' for Inactive)
ROOT
ATOM      1  N1  IND d   1       1.274  -0.017  -1.012  0.00  0.00    -0.196 N 
ATOM      2  C2  IND d   1       1.302  -1.355  -1.289  0.00  0.00     0.054 A 
ATOM      3  C3  IND d   1       0.629  -2.046  -0.343  0.00  0.00    -0.031 A 
ATOM      4  C4  IND d   1      -0.684  -1.176   1.694  0.00  0.00     0.051 A 
ATOM      5  C5  IND d   1      -0.967  -0.030   2.384  0.00  0.00    -0.031 A 
ATOM      6  C6  IND d   1      -0.511   1.203   1.966  0.00  0.00     0.015 A 
ATOM      7  C7  IND d   1       0.239   1.340   0.833  0.00  0.00    -0.016 A 
ATOM      8  C8  IND d   1       0.535   0.178   0.134  0.00  0.00    -0.047 A 
ATOM      9  C9  IND d   1       0.111  -1.082   0.576  0.00  0.00    -0.096 A 
ATOM     10  HN1 IND d   1       1.654   0.600  -1.475  0.00  0.00     0.298 HD
ENDROOT
TORSDOF 0
ENDMDL
