MODEL 1
REMARK minimizedAffinity -2.011724
REMARK minimizedRMSD -1
REMARK  0 active torsions:
REMARK  status: ('A' for Active; 'I' for Inactive)
ROOT
ATOM      1  N1  IND d   1       1.661  -0.158  -0.630  0.00  0.00    -0.196 N 
ATOM      2  C2  IND d   1       0.786   0.224   0.349  0.00  0.00     0.054 A 
ATOM      3  C3  IND d   1      -0.264  -0.625   0.399  0.00  0.00    -0.031 A 
ATOM      4  C4  IND d   1      -0.702  -2.767  -0.961  0.00  0.00     0.051 A 
ATOM      5  C5  IND d   1      -0.205  -3.505  -1.998  0.00  0.00    -0.031 A 
ATOM      6  C6  IND d   1       0.965  -3.160  -2.644  0.00  0.00     0.015 A 
ATOM      7  C7  IND d   1       1.690  -2.065  -2.267  0.00  0.00    -0.016 A 
ATOM      8  C8  IND d   1       1.184  -1.309  -1.218  0.00  0.00    -0.047 A 
ATOM      9  C9  IND d   1      -0.025  -1.631  -0.587  0.00  0.00    -0.096 A 
ATOM     10  HN1 IND d   1       2.386   0.251  -0.842  0.00  0.00     0.298 HD
ENDROOT
TORSDOF 0
ENDMDL
