MODEL 1
REMARK minimizedAffinity -2.1552906
REMARK minimizedRMSD -1
REMARK  0 active torsions:
REMARK  status: ('A' for Active; 'I' for Inactive)
ROOT
ATOM      1  N1  IND d   1       0.739   0.497  -0.791  0.00  0.00    -0.196 N 
ATOM      2  C2  IND d   1       0.428  -0.574  -0.001  0.00  0.00     0.054 A 
ATOM      3  C3  IND d   1      -0.251  -0.169   1.096  0.00  0.00    -0.031 A 
ATOM      4  C4  IND d   1      -1.048   2.191   1.746  0.00  0.00     0.051 A 
ATOM      5  C5  IND d   1      -0.971   3.499   1.358  0.00  0.00    -0.031 A 
ATOM      6  C6  IND d   1      -0.309   3.881   0.208  0.00  0.00     0.015 A 
ATOM      7  C7  IND d   1       0.293   2.963  -0.605  0.00  0.00    -0.016 A 
ATOM      8  C8  IND d   1       0.224   1.635  -0.210  0.00  0.00    -0.047 A 
ATOM      9  C9  IND d   1      -0.410   1.246   0.978  0.00  0.00    -0.096 A 
ATOM     10  HN1 IND d   1       1.182   0.466  -1.527  0.00  0.00     0.298 HD
ENDROOT
TORSDOF 0
ENDMDL
