MODEL 1
REMARK minimizedAffinity -0.815207362
REMARK minimizedRMSD -1
REMARK  0 active torsions:
REMARK  status: ('A' for Active; 'I' for Inactive)
ROOT
ATOM      1  O1  BZF d   1       0.477  -0.907   0.509  0.00  0.00    -0.204 OA
ATOM      2  C2  BZF d   1      -0.517  -0.012   0.852  0.00  0.00     0.174 A 
ATOM      3  C3  BZF d   1      -1.294  -0.513   1.834  0.00  0.00    -0.012 A 
ATOM      4  C3A BZF d   1      -0.696  -1.764   2.186  0.00  0.00    -0.107 A 
ATOM      5  C4  BZF d   1      -1.000  -2.724   3.109  0.00  0.00     0.055 A 
ATOM      6  C5  BZF d   1      -0.257  -3.861   3.148  0.00  0.00    -0.016 A 
ATOM      7  C6  BZF d   1       0.792  -4.074   2.277  0.00  0.00     0.022 A 
ATOM      8  C7  BZF d   1       1.134  -3.149   1.348  0.00  0.00     0.029 A 
ATOM      9  C7A BZF d   1       0.406  -1.984   1.328  0.00  0.00     0.058 A 
ENDROOT
TORSDOF 0
ENDMDL
