MODEL 1
REMARK minimizedAffinity 3.10555959
REMARK minimizedRMSD -1
REMARK  0 active torsions:
REMARK  status: ('A' for Active; 'I' for Inactive)
ROOT
ATOM      1  O1  BZF d   1       1.531  -3.785   1.156  0.00  0.00    -0.204 OA
ATOM      2  C2  BZF d   1       0.757  -4.126   2.249  0.00  0.00     0.174 A 
ATOM      3  C3  BZF d   1       1.383  -5.045   3.011  0.00  0.00    -0.012 A 
ATOM      4  C3A BZF d   1       2.666  -5.226   2.404  0.00  0.00    -0.107 A 
ATOM      5  C4  BZF d   1       3.749  -6.000   2.710  0.00  0.00     0.055 A 
ATOM      6  C5  BZF d   1       4.819  -6.000   1.873  0.00  0.00    -0.016 A 
ATOM      7  C6  BZF d   1       4.838  -5.243   0.719  0.00  0.00     0.022 A 
ATOM      8  C7  BZF d   1       3.790  -4.455   0.376  0.00  0.00     0.029 A 
ATOM      9  C7A BZF d   1       2.720  -4.428   1.238  0.00  0.00     0.058 A 
ENDROOT
TORSDOF 0
ENDMDL
