MODEL 1
REMARK minimizedAffinity 3.16169262
REMARK minimizedRMSD -1
REMARK  0 active torsions:
REMARK  status: ('A' for Active; 'I' for Inactive)
ROOT
ATOM      1  O1  BZF d   1       0.006  -3.205   3.089  0.00  0.00    -0.204 OA
ATOM      2  C2  BZF d   1       1.244  -3.673   2.693  0.00  0.00     0.174 A 
ATOM      3  C3  BZF d   1       1.692  -2.992   1.619  0.00  0.00    -0.012 A 
ATOM      4  C3A BZF d   1       0.712  -1.977   1.381  0.00  0.00    -0.107 A 
ATOM      5  C4  BZF d   1       0.603  -0.975   0.459  0.00  0.00     0.055 A 
ATOM      6  C5  BZF d   1      -0.515  -0.203   0.454  0.00  0.00    -0.016 A 
ATOM      7  C6  BZF d   1      -1.544  -0.407   1.349  0.00  0.00     0.022 A 
ATOM      8  C7  BZF d   1      -1.479  -1.386   2.285  0.00  0.00     0.029 A 
ATOM      9  C7A BZF d   1      -0.336  -2.147   2.315  0.00  0.00     0.058 A 
ENDROOT
TORSDOF 0
ENDMDL
