MODEL 1
REMARK minimizedAffinity -2.78168368
REMARK minimizedRMSD -1
REMARK  0 active torsions:
REMARK  status: ('A' for Active; 'I' for Inactive)
ROOT
ATOM      1  O1  BZF d   1       1.087  -5.044   2.165  0.00  0.00    -0.204 OA
ATOM      2  C2  BZF d   1       2.111  -4.399   1.500  0.00  0.00     0.174 A 
ATOM      3  C3  BZF d   1       1.901  -3.067   1.475  0.00  0.00    -0.012 A 
ATOM      4  C3A BZF d   1       0.715  -2.859   2.248  0.00  0.00    -0.107 A 
ATOM      5  C4  BZF d   1       0.009  -1.745   2.603  0.00  0.00     0.055 A 
ATOM      6  C5  BZF d   1      -1.147  -1.891   3.303  0.00  0.00    -0.016 A 
ATOM      7  C6  BZF d   1      -1.627  -3.134   3.661  0.00  0.00     0.022 A 
ATOM      8  C7  BZF d   1      -0.959  -4.267   3.336  0.00  0.00     0.029 A 
ATOM      9  C7A BZF d   1       0.226  -4.121   2.657  0.00  0.00     0.058 A 
ENDROOT
TORSDOF 0
ENDMDL
