MODEL 1
REMARK minimizedAffinity 5.3659482
REMARK minimizedRMSD -1
REMARK  0 active torsions:
REMARK  status: ('A' for Active; 'I' for Inactive)
ROOT
ATOM      1  O1  BZF d   1       1.785  -2.881   0.340  0.00  0.00    -0.204 OA
ATOM      2  C2  BZF d   1       2.032  -3.903   1.237  0.00  0.00     0.174 A 
ATOM      3  C3  BZF d   1       1.313  -3.734   2.365  0.00  0.00    -0.012 A 
ATOM      4  C3A BZF d   1       0.501  -2.581   2.124  0.00  0.00    -0.107 A 
ATOM      5  C4  BZF d   1      -0.438  -1.922   2.866  0.00  0.00     0.055 A 
ATOM      6  C5  BZF d   1      -0.994  -0.786   2.369  0.00  0.00    -0.016 A 
ATOM      7  C6  BZF d   1      -0.632  -0.278   1.138  0.00  0.00     0.022 A 
ATOM      8  C7  BZF d   1       0.291  -0.900   0.364  0.00  0.00     0.029 A 
ATOM      9  C7A BZF d   1       0.830  -2.066   0.849  0.00  0.00     0.058 A 
ENDROOT
TORSDOF 0
ENDMDL
