MODEL 1
REMARK minimizedAffinity -0.834129572
REMARK minimizedRMSD -1
REMARK  0 active torsions:
REMARK  status: ('A' for Active; 'I' for Inactive)
ROOT
ATOM      1  O1  BZF d   1       1.498  -2.877   0.400  0.00  0.00    -0.204 OA
ATOM      2  C2  BZF d   1       1.688  -3.710   1.486  0.00  0.00     0.174 A 
ATOM      3  C3  BZF d   1       0.954  -3.297   2.539  0.00  0.00    -0.012 A 
ATOM      4  C3A BZF d   1       0.192  -2.186   2.055  0.00  0.00    -0.107 A 
ATOM      5  C4  BZF d   1      -0.733  -1.362   2.628  0.00  0.00     0.055 A 
ATOM      6  C5  BZF d   1      -1.235  -0.328   1.903  0.00  0.00    -0.016 A 
ATOM      7  C6  BZF d   1      -0.830  -0.086   0.607  0.00  0.00     0.022 A 
ATOM      8  C7  BZF d   1       0.082  -0.880  -0.006  0.00  0.00     0.029 A 
ATOM      9  C7A BZF d   1       0.566  -1.945   0.713  0.00  0.00     0.058 A 
ENDROOT
TORSDOF 0
ENDMDL
