MODEL 1
REMARK minimizedAffinity -1.61715841
REMARK minimizedRMSD -1
REMARK  0 active torsions:
REMARK  status: ('A' for Active; 'I' for Inactive)
ROOT
ATOM      1  O1  BZF d   1       1.380  -2.863   3.166  0.00  0.00    -0.204 OA
ATOM      2  C2  BZF d   1       2.333  -3.566   2.454  0.00  0.00     0.174 A 
ATOM      3  C3  BZF d   1       2.288  -3.242   1.146  0.00  0.00    -0.012 A 
ATOM      4  C3A BZF d   1       1.305  -2.208   1.047  0.00  0.00    -0.107 A 
ATOM      5  C4  BZF d   1       0.822  -1.468   0.006  0.00  0.00     0.055 A 
ATOM      6  C5  BZF d   1      -0.190  -0.590   0.233  0.00  0.00    -0.016 A 
ATOM      7  C6  BZF d   1      -0.745  -0.430   1.486  0.00  0.00     0.022 A 
ATOM      8  C7  BZF d   1      -0.296  -1.138   2.551  0.00  0.00     0.029 A 
ATOM      9  C7A BZF d   1       0.748  -2.003   2.331  0.00  0.00     0.058 A 
ENDROOT
TORSDOF 0
ENDMDL
