MODEL 1
REMARK minimizedAffinity -0.6278584
REMARK minimizedRMSD -1
REMARK  0 active torsions:
REMARK  status: ('A' for Active; 'I' for Inactive)
ROOT
ATOM      1  O1  BZF d   1      -1.934   1.440  -2.560  0.00  0.00    -0.204 OA
ATOM      2  C2  BZF d   1      -1.030   2.475  -2.701  0.00  0.00     0.174 A 
ATOM      3  C3  BZF d   1      -0.093   2.427  -1.732  0.00  0.00    -0.012 A 
ATOM      4  C3A BZF d   1      -0.379   1.238  -0.991  0.00  0.00    -0.107 A 
ATOM      5  C4  BZF d   1       0.210   0.637   0.085  0.00  0.00     0.055 A 
ATOM      6  C5  BZF d   1      -0.360  -0.478   0.614  0.00  0.00    -0.016 A 
ATOM      7  C6  BZF d   1      -1.520  -1.015   0.095  0.00  0.00     0.022 A 
ATOM      8  C7  BZF d   1      -2.138  -0.458  -0.975  0.00  0.00     0.029 A 
ATOM      9  C7A BZF d   1      -1.546   0.650  -1.531  0.00  0.00     0.058 A 
ENDROOT
TORSDOF 0
ENDMDL
