MODEL 1
REMARK minimizedAffinity 3.24862647
REMARK minimizedRMSD -1
REMARK  0 active torsions:
REMARK  status: ('A' for Active; 'I' for Inactive)
ROOT
ATOM      1  O1  BZF d   1      -2.210  -2.165   2.629  0.00  0.00    -0.204 OA
ATOM      2  C2  BZF d   1      -1.096  -2.657   3.281  0.00  0.00     0.174 A 
ATOM      3  C3  BZF d   1       0.017  -2.008   2.883  0.00  0.00    -0.012 A 
ATOM      4  C3A BZF d   1      -0.441  -0.988   1.991  0.00  0.00    -0.107 A 
ATOM      5  C4  BZF d   1       0.192  -0.007   1.282  0.00  0.00     0.055 A 
ATOM      6  C5  BZF d   1      -0.536   0.779   0.446  0.00  0.00    -0.016 A 
ATOM      7  C6  BZF d   1      -1.896   0.608   0.291  0.00  0.00     0.022 A 
ATOM      8  C7  BZF d   1      -2.569  -0.349   0.976  0.00  0.00     0.029 A 
ATOM      9  C7A BZF d   1      -1.841  -1.122   1.847  0.00  0.00     0.058 A 
ENDROOT
TORSDOF 0
ENDMDL
