MODEL 1
REMARK minimizedAffinity 2.47618437
REMARK minimizedRMSD -1
REMARK  0 active torsions:
REMARK  status: ('A' for Active; 'I' for Inactive)
ROOT
ATOM      1  O1  BZF d   1       0.598  -0.750  -0.724  0.00  0.00    -0.204 OA
ATOM      2  C2  BZF d   1      -0.428   0.096  -0.348  0.00  0.00     0.174 A 
ATOM      3  C3  BZF d   1      -0.874  -0.212   0.886  0.00  0.00    -0.012 A 
ATOM      4  C3A BZF d   1      -0.015  -1.260   1.346  0.00  0.00    -0.107 A 
ATOM      5  C4  BZF d   1       0.055  -1.974   2.508  0.00  0.00     0.055 A 
ATOM      6  C5  BZF d   1       0.964  -2.979   2.611  0.00  0.00    -0.016 A 
ATOM      7  C6  BZF d   1       1.814  -3.300   1.572  0.00  0.00     0.022 A 
ATOM      8  C7  BZF d   1       1.784  -2.616   0.403  0.00  0.00     0.029 A 
ATOM      9  C7A BZF d   1       0.889  -1.579   0.307  0.00  0.00     0.058 A 
ENDROOT
TORSDOF 0
ENDMDL
