MODEL 1
REMARK minimizedAffinity -0.059395656
REMARK minimizedRMSD -1
REMARK  0 active torsions:
REMARK  status: ('A' for Active; 'I' for Inactive)
ROOT
ATOM      1  O1  BZF d   1       1.006  -0.328  -0.907  0.00  0.00    -0.204 OA
ATOM      2  C2  BZF d   1      -0.243  -0.551  -0.362  0.00  0.00     0.174 A 
ATOM      3  C3  BZF d   1      -1.074   0.477  -0.632  0.00  0.00    -0.012 A 
ATOM      4  C3A BZF d   1      -0.321   1.358  -1.472  0.00  0.00    -0.107 A 
ATOM      5  C4  BZF d   1      -0.607   2.546  -2.082  0.00  0.00     0.055 A 
ATOM      6  C5  BZF d   1       0.372   3.185  -2.774  0.00  0.00    -0.016 A 
ATOM      7  C6  BZF d   1       1.648   2.670  -2.871  0.00  0.00     0.022 A 
ATOM      8  C7  BZF d   1       1.978   1.492  -2.287  0.00  0.00     0.029 A 
ATOM      9  C7A BZF d   1       0.981   0.827  -1.615  0.00  0.00     0.058 A 
ENDROOT
TORSDOF 0
ENDMDL
