MODEL 1
REMARK minimizedAffinity 10.8050718
REMARK minimizedRMSD -1
REMARK  1 active torsions:
REMARK  status: ('A' for Active; 'I' for Inactive)
REMARK    1  A    between atoms: C3_4  and  O_7 
ROOT
ATOM      1  C   UNL d   1       4.851   5.068   4.109  0.00  0.00    -0.033 A 
ATOM      2  C1  UNL d   1       4.477   5.996   3.136  0.00  0.00     0.039 A 
ATOM      3  C2  UNL d   1       4.096   5.562   1.865  0.00  0.00    -0.080 A 
ATOM      4  C3  UNL d   1       4.093   4.199   1.581  0.00  0.00     0.150 A 
ATOM      5  C4  UNL d   1       4.462   3.269   2.547  0.00  0.00    -0.007 A 
ATOM      6  C5  UNL d   1       4.842   3.704   3.815  0.00  0.00     0.039 A 
ENDROOT
BRANCH   4   7
ATOM      7  O   UNL d   1       3.734   3.727   0.353  0.00  0.00    -0.526 OA
ATOM      8  H5  UNL d   1       3.533   4.485  -0.221  0.00  0.00     0.418 HD
ENDBRANCH   4   7
TORSDOF 1
ENDMDL
