MODEL 1
REMARK minimizedAffinity 12.6029062
REMARK minimizedRMSD -1
REMARK  1 active torsions:
REMARK  status: ('A' for Active; 'I' for Inactive)
REMARK    1  A    between atoms: C3_4  and  O_7 
ROOT
ATOM      1  C   UNL d   1       1.915  -0.562   3.064  0.00  0.00    -0.033 A 
ATOM      2  C1  UNL d   1       1.017  -1.044   4.019  0.00  0.00     0.039 A 
ATOM      3  C2  UNL d   1      -0.358  -0.923   3.811  0.00  0.00    -0.080 A 
ATOM      4  C3  UNL d   1      -0.822  -0.320   2.645  0.00  0.00     0.150 A 
ATOM      5  C4  UNL d   1       0.066   0.158   1.688  0.00  0.00    -0.007 A 
ATOM      6  C5  UNL d   1       1.439   0.037   1.898  0.00  0.00     0.039 A 
ENDROOT
BRANCH   4   7
ATOM      7  O   UNL d   1      -2.156  -0.175   2.400  0.00  0.00    -0.526 OA
ATOM      8  H5  UNL d   1      -2.648  -0.526   3.161  0.00  0.00     0.418 HD
ENDBRANCH   4   7
TORSDOF 1
ENDMDL
