MODEL 1
REMARK minimizedAffinity 11.4061012
REMARK minimizedRMSD -1
REMARK  1 active torsions:
REMARK  status: ('A' for Active; 'I' for Inactive)
REMARK    1  A    between atoms: C3_4  and  O_7 
ROOT
ATOM      1  C   UNL d   1       0.005  -0.002   2.201  0.00  0.00    -0.033 A 
ATOM      2  C1  UNL d   1       1.052  -0.485   2.987  0.00  0.00     0.039 A 
ATOM      3  C2  UNL d   1       1.257   0.026   4.270  0.00  0.00    -0.080 A 
ATOM      4  C3  UNL d   1       0.408   1.016   4.755  0.00  0.00     0.150 A 
ATOM      5  C4  UNL d   1      -0.641   1.499   3.979  0.00  0.00    -0.007 A 
ATOM      6  C5  UNL d   1      -0.843   0.989   2.697  0.00  0.00     0.039 A 
ENDROOT
BRANCH   4   7
ATOM      7  O   UNL d   1       0.571   1.548   6.000  0.00  0.00    -0.526 OA
ATOM      8  H5  UNL d   1       1.351   1.139   6.410  0.00  0.00     0.418 HD
ENDBRANCH   4   7
TORSDOF 1
ENDMDL
