MODEL 1
REMARK minimizedAffinity 3.91393614
REMARK minimizedRMSD -1
REMARK  1 active torsions:
REMARK  status: ('A' for Active; 'I' for Inactive)
REMARK    1  A    between atoms: C3_4  and  O_7 
ROOT
ATOM      1  C   UNL d   1       4.628   5.991   1.405  0.00  0.00    -0.033 A 
ATOM      2  C1  UNL d   1       5.681   5.994   2.322  0.00  0.00     0.039 A 
ATOM      3  C2  UNL d   1       5.998   4.832   3.028  0.00  0.00    -0.080 A 
ATOM      4  C3  UNL d   1       5.255   3.675   2.808  0.00  0.00     0.150 A 
ATOM      5  C4  UNL d   1       4.208   3.664   1.893  0.00  0.00    -0.007 A 
ATOM      6  C5  UNL d   1       3.893   4.826   1.189  0.00  0.00     0.039 A 
ENDROOT
BRANCH   4   7
ATOM      7  O   UNL d   1       5.524   2.518   3.477  0.00  0.00    -0.526 OA
ATOM      8  H5  UNL d   1       6.254   2.683   4.096  0.00  0.00     0.418 HD
ENDBRANCH   4   7
TORSDOF 1
ENDMDL
