MODEL 1
REMARK minimizedAffinity 9.58316231
REMARK minimizedRMSD -1
REMARK  1 active torsions:
REMARK  status: ('A' for Active; 'I' for Inactive)
REMARK    1  A    between atoms: C3_4  and  O_7 
ROOT
ATOM      1  C   UNL d   1      -1.697  -3.797  -5.993  0.00  0.00    -0.033 A 
ATOM      2  C1  UNL d   1      -0.638  -2.887  -5.993  0.00  0.00     0.039 A 
ATOM      3  C2  UNL d   1       0.680  -3.347  -5.993  0.00  0.00    -0.080 A 
ATOM      4  C3  UNL d   1       0.926  -4.717  -5.994  0.00  0.00     0.150 A 
ATOM      5  C4  UNL d   1      -0.123  -5.629  -5.998  0.00  0.00    -0.007 A 
ATOM      6  C5  UNL d   1      -1.439  -5.169  -5.997  0.00  0.00     0.039 A 
ENDROOT
BRANCH   4   7
ATOM      7  O   UNL d   1       2.196  -5.213  -5.989  0.00  0.00    -0.526 OA
ATOM      8  H5  UNL d   1       2.818  -4.467  -5.958  0.00  0.00     0.418 HD
ENDBRANCH   4   7
TORSDOF 1
ENDMDL
