MODEL 1
REMARK minimizedAffinity 14.4241219
REMARK minimizedRMSD -1
REMARK  1 active torsions:
REMARK  status: ('A' for Active; 'I' for Inactive)
REMARK    1  A    between atoms: C3_4  and  O_7 
ROOT
ATOM      1  C   UNL d   1       0.590  -3.952  -5.602  0.00  0.00    -0.033 A 
ATOM      2  C1  UNL d   1      -0.601  -3.223  -5.594  0.00  0.00     0.039 A 
ATOM      3  C2  UNL d   1      -1.825  -3.882  -5.723  0.00  0.00    -0.080 A 
ATOM      4  C3  UNL d   1      -1.844  -5.268  -5.859  0.00  0.00     0.150 A 
ATOM      5  C4  UNL d   1      -0.662  -6.000  -5.865  0.00  0.00    -0.007 A 
ATOM      6  C5  UNL d   1       0.560  -5.340  -5.736  0.00  0.00     0.039 A 
ENDROOT
BRANCH   4   7
ATOM      7  O   UNL d   1      -3.014  -5.954  -5.993  0.00  0.00    -0.526 OA
ATOM      8  H5  UNL d   1      -3.747  -5.316  -6.001  0.00  0.00     0.418 HD
ENDBRANCH   4   7
TORSDOF 1
ENDMDL
