MODEL 1
REMARK minimizedAffinity 7.35573006
REMARK minimizedRMSD -1
REMARK  1 active torsions:
REMARK  status: ('A' for Active; 'I' for Inactive)
REMARK    1  A    between atoms: C3_4  and  O_7 
ROOT
ATOM      1  C   UNL d   1       1.605  -1.324   3.048  0.00  0.00    -0.033 A 
ATOM      2  C1  UNL d   1       0.291  -1.307   2.577  0.00  0.00     0.039 A 
ATOM      3  C2  UNL d   1      -0.466  -0.136   2.657  0.00  0.00    -0.080 A 
ATOM      4  C3  UNL d   1       0.102   1.009   3.208  0.00  0.00     0.150 A 
ATOM      5  C4  UNL d   1       1.412   1.000   3.676  0.00  0.00    -0.007 A 
ATOM      6  C5  UNL d   1       2.167  -0.170   3.596  0.00  0.00     0.039 A 
ENDROOT
BRANCH   4   7
ATOM      7  O   UNL d   1      -0.599   2.173   3.312  0.00  0.00    -0.526 OA
ATOM      8  H5  UNL d   1      -1.498   2.022   2.976  0.00  0.00     0.418 HD
ENDBRANCH   4   7
TORSDOF 1
ENDMDL
