MODEL 1
REMARK minimizedAffinity -4.59852266
REMARK minimizedRMSD -1
REMARK  2 active torsions:
REMARK  status: ('A' for Active; 'I' for Inactive)
REMARK    1  A    between atoms: C2'_3  and  C1'_4 
REMARK    2  A    between atoms: C1'_4  and  C1_5 
ROOT
ATOM      1  C1  I4B d   1       0.219  -0.336  -0.215  0.00  0.00    -0.075 A 
ATOM      2  C2  I4B d   1      -0.934  -0.660   0.456  0.00  0.00     0.003 A 
ATOM      3  C3  I4B d   1      -1.140  -1.982   0.921  0.00  0.00     0.002 A 
ATOM      4  C4  I4B d   1      -0.197  -2.952   0.651  0.00  0.00    -0.004 A 
ATOM      5  C5  I4B d   1       0.981  -2.616  -0.009  0.00  0.00     0.002 A 
ATOM      6  C6  I4B d   1       1.196  -1.297  -0.435  0.00  0.00     0.003 A 
ENDROOT
BRANCH   1   7
ATOM      7  C1' I4B d   1       0.389   1.061  -0.721  0.00  0.00     0.060 C 
BRANCH   7   8
ATOM      8  C2' I4B d   1       0.736   1.946   0.459  0.00  0.00    -0.013 C 
ATOM      9  C4' I4B d   1       2.197   2.314   0.453  0.00  0.00     0.013 C 
ATOM     10  C3' I4B d   1      -0.130   3.168   0.393  0.00  0.00     0.013 C 
ENDBRANCH   7   8
ENDBRANCH   1   7
TORSDOF 2
ENDMDL
