MODEL 1
REMARK minimizedAffinity -3.15431333
REMARK minimizedRMSD -1
REMARK  2 active torsions:
REMARK  status: ('A' for Active; 'I' for Inactive)
REMARK    1  A    between atoms: C2'_3  and  C1'_4 
REMARK    2  A    between atoms: C1'_4  and  C1_5 
ROOT
ATOM      1  C1  I4B d   1      -0.211   0.461  -0.013  0.00  0.00    -0.075 A 
ATOM      2  C2  I4B d   1       0.413  -0.682  -0.447  0.00  0.00     0.003 A 
ATOM      3  C3  I4B d   1       0.025  -1.944   0.065  0.00  0.00     0.002 A 
ATOM      4  C4  I4B d   1      -0.951  -2.012   1.038  0.00  0.00    -0.004 A 
ATOM      5  C5  I4B d   1      -1.599  -0.854   1.460  0.00  0.00     0.002 A 
ATOM      6  C6  I4B d   1      -1.236   0.389   0.922  0.00  0.00     0.003 A 
ENDROOT
BRANCH   1   7
ATOM      7  C1' I4B d   1       0.246   1.780  -0.550  0.00  0.00     0.060 C 
BRANCH   7   8
ATOM      8  C2' I4B d   1       0.787   2.593   0.608  0.00  0.00    -0.013 C 
ATOM      9  C4' I4B d   1       2.291   2.673   0.563  0.00  0.00     0.013 C 
ATOM     10  C3' I4B d   1       0.170   3.958   0.544  0.00  0.00     0.013 C 
ENDBRANCH   7   8
ENDBRANCH   1   7
TORSDOF 2
ENDMDL
