MODEL 1
REMARK minimizedAffinity -3.41779447
REMARK minimizedRMSD -1
REMARK  2 active torsions:
REMARK  status: ('A' for Active; 'I' for Inactive)
REMARK    1  A    between atoms: C2'_3  and  C1'_4 
REMARK    2  A    between atoms: C1'_4  and  C1_5 
ROOT
ATOM      1  C1  I4B d   1      -0.735  -0.026   0.296  0.00  0.00    -0.075 A 
ATOM      2  C2  I4B d   1      -0.772   0.590  -0.930  0.00  0.00     0.003 A 
ATOM      3  C3  I4B d   1      -0.411  -0.124  -2.098  0.00  0.00     0.002 A 
ATOM      4  C4  I4B d   1       0.026  -1.428  -1.989  0.00  0.00    -0.004 A 
ATOM      5  C5  I4B d   1       0.041  -2.059  -0.748  0.00  0.00     0.002 A 
ATOM      6  C6  I4B d   1      -0.354  -1.357   0.400  0.00  0.00     0.003 A 
ENDROOT
BRANCH   1   7
ATOM      7  C1' I4B d   1      -1.091   0.768   1.513  0.00  0.00     0.060 C 
BRANCH   7   8
ATOM      8  C2' I4B d   1      -2.274   0.095   2.179  0.00  0.00    -0.013 C 
ATOM      9  C4' I4B d   1      -1.869  -0.569   3.468  0.00  0.00     0.013 C 
ATOM     10  C3' I4B d   1      -3.327   1.137   2.414  0.00  0.00     0.013 C 
ENDBRANCH   7   8
ENDBRANCH   1   7
TORSDOF 2
ENDMDL
