MODEL 1
REMARK minimizedAffinity -4.71910429
REMARK minimizedRMSD -1
REMARK  2 active torsions:
REMARK  status: ('A' for Active; 'I' for Inactive)
REMARK    1  A    between atoms: C2'_3  and  C1'_4 
REMARK    2  A    between atoms: C1'_4  and  C1_5 
ROOT
ATOM      1  C1  I4B d   1       0.065  -0.010  -0.546  0.00  0.00    -0.075 A 
ATOM      2  C2  I4B d   1      -0.155  -0.439  -1.832  0.00  0.00     0.003 A 
ATOM      3  C3  I4B d   1       0.047  -1.798  -2.174  0.00  0.00     0.002 A 
ATOM      4  C4  I4B d   1       0.515  -2.677  -1.219  0.00  0.00    -0.004 A 
ATOM      5  C5  I4B d   1       0.715  -2.246   0.089  0.00  0.00     0.002 A 
ATOM      6  C6  I4B d   1       0.477  -0.907   0.431  0.00  0.00     0.003 A 
ENDROOT
BRANCH   1   7
ATOM      7  C1' I4B d   1      -0.127   1.438  -0.227  0.00  0.00     0.060 C 
BRANCH   7   8
ATOM      8  C2' I4B d   1       1.151   1.950   0.405  0.00  0.00    -0.013 C 
ATOM      9  C4' I4B d   1       2.300   1.896  -0.567  0.00  0.00     0.013 C 
ATOM     10  C3' I4B d   1       0.905   3.353   0.875  0.00  0.00     0.013 C 
ENDBRANCH   7   8
ENDBRANCH   1   7
TORSDOF 2
ENDMDL
