MODEL 1
REMARK minimizedAffinity -4.93135977
REMARK minimizedRMSD -1
REMARK  2 active torsions:
REMARK  status: ('A' for Active; 'I' for Inactive)
REMARK    1  A    between atoms: C2'_3  and  C1'_4 
REMARK    2  A    between atoms: C1'_4  and  C1_5 
ROOT
ATOM      1  C1  I4B d   1       0.063   0.097  -0.165  0.00  0.00    -0.075 A 
ATOM      2  C2  I4B d   1       0.807  -0.861  -0.808  0.00  0.00     0.003 A 
ATOM      3  C3  I4B d   1       0.667  -2.226  -0.457  0.00  0.00     0.002 A 
ATOM      4  C4  I4B d   1      -0.186  -2.580   0.568  0.00  0.00    -0.004 A 
ATOM      5  C5  I4B d   1      -0.956  -1.610   1.203  0.00  0.00     0.002 A 
ATOM      6  C6  I4B d   1      -0.841  -0.264   0.826  0.00  0.00     0.003 A 
ENDROOT
BRANCH   1   7
ATOM      7  C1' I4B d   1       0.260   1.533  -0.538  0.00  0.00     0.060 C 
BRANCH   7   8
ATOM      8  C2' I4B d   1       1.190   2.156   0.483  0.00  0.00    -0.013 C 
ATOM      9  C4' I4B d   1       2.592   2.270  -0.055  0.00  0.00     0.013 C 
ATOM     10  C3' I4B d   1       0.640   3.502   0.850  0.00  0.00     0.013 C 
ENDBRANCH   7   8
ENDBRANCH   1   7
TORSDOF 2
ENDMDL
