MODEL 1
REMARK minimizedAffinity -3.96538687
REMARK minimizedRMSD -1
REMARK  2 active torsions:
REMARK  status: ('A' for Active; 'I' for Inactive)
REMARK    1  A    between atoms: C2'_3  and  C1'_4 
REMARK    2  A    between atoms: C1'_4  and  C1_5 
ROOT
ATOM      1  C1  I4B d   1       0.054   1.062  -0.032  0.00  0.00    -0.075 A 
ATOM      2  C2  I4B d   1       0.549   0.236  -1.010  0.00  0.00     0.003 A 
ATOM      3  C3  I4B d   1       0.329  -1.161  -0.943  0.00  0.00     0.002 A 
ATOM      4  C4  I4B d   1      -0.343  -1.692   0.140  0.00  0.00    -0.004 A 
ATOM      5  C5  I4B d   1      -0.864  -0.851   1.119  0.00  0.00     0.002 A 
ATOM      6  C6  I4B d   1      -0.675   0.536   1.026  0.00  0.00     0.003 A 
ENDROOT
BRANCH   1   7
ATOM      7  C1' I4B d   1       0.334   2.529  -0.118  0.00  0.00     0.060 C 
BRANCH   7   8
ATOM      8  C2' I4B d   1       1.658   2.793   0.569  0.00  0.00    -0.013 C 
ATOM      9  C4' I4B d   1       2.628   3.475  -0.360  0.00  0.00     0.013 C 
ATOM     10  C3' I4B d   1       1.391   3.631   1.784  0.00  0.00     0.013 C 
ENDBRANCH   7   8
ENDBRANCH   1   7
TORSDOF 2
ENDMDL
