MODEL 1
REMARK minimizedAffinity -3.894696
REMARK minimizedRMSD -1
REMARK  2 active torsions:
REMARK  status: ('A' for Active; 'I' for Inactive)
REMARK    1  A    between atoms: C2'_3  and  C1'_4 
REMARK    2  A    between atoms: C1'_4  and  C1_5 
ROOT
ATOM      1  C1  I4B d   1       0.038   1.230  -0.088  0.00  0.00    -0.075 A 
ATOM      2  C2  I4B d   1       0.232   0.560  -1.271  0.00  0.00     0.003 A 
ATOM      3  C3  I4B d   1      -0.059  -0.822  -1.363  0.00  0.00     0.002 A 
ATOM      4  C4  I4B d   1      -0.491  -1.502  -0.243  0.00  0.00    -0.004 A 
ATOM      5  C5  I4B d   1      -0.709  -0.817   0.949  0.00  0.00     0.002 A 
ATOM      6  C6  I4B d   1      -0.454   0.560   1.024  0.00  0.00     0.003 A 
ENDROOT
BRANCH   1   7
ATOM      7  C1' I4B d   1       0.387   2.683  -0.017  0.00  0.00     0.060 C 
BRANCH   7   8
ATOM      8  C2' I4B d   1       1.664   2.817   0.788  0.00  0.00    -0.013 C 
ATOM      9  C4' I4B d   1       2.793   3.334  -0.064  0.00  0.00     0.013 C 
ATOM     10  C3' I4B d   1       1.391   3.737   1.940  0.00  0.00     0.013 C 
ENDBRANCH   7   8
ENDBRANCH   1   7
TORSDOF 2
ENDMDL
