MODEL 1
REMARK minimizedAffinity -3.98497176
REMARK minimizedRMSD -1
REMARK  2 active torsions:
REMARK  status: ('A' for Active; 'I' for Inactive)
REMARK    1  A    between atoms: C2'_3  and  C1'_4 
REMARK    2  A    between atoms: C1'_4  and  C1_5 
ROOT
ATOM      1  C1  I4B d   1      -0.154  -0.054   0.049  0.00  0.00    -0.075 A 
ATOM      2  C2  I4B d   1      -1.138  -0.455   0.917  0.00  0.00     0.003 A 
ATOM      3  C3  I4B d   1      -1.265  -1.821   1.269  0.00  0.00     0.002 A 
ATOM      4  C4  I4B d   1      -0.423  -2.752   0.695  0.00  0.00    -0.004 A 
ATOM      5  C5  I4B d   1       0.589  -2.340  -0.168  0.00  0.00     0.002 A 
ATOM      6  C6  I4B d   1       0.733  -0.981  -0.483  0.00  0.00     0.003 A 
ENDROOT
BRANCH   1   7
ATOM      7  C1' I4B d   1      -0.069   1.392  -0.327  0.00  0.00     0.060 C 
BRANCH   7   8
ATOM      8  C2' I4B d   1       1.028   2.027   0.503  0.00  0.00    -0.013 C 
ATOM      9  C4' I4B d   1       2.312   2.127  -0.277  0.00  0.00     0.013 C 
ATOM     10  C3' I4B d   1       0.552   3.380   0.941  0.00  0.00     0.013 C 
ENDBRANCH   7   8
ENDBRANCH   1   7
TORSDOF 2
ENDMDL
