MODEL 1
REMARK minimizedAffinity -3.01256394
REMARK minimizedRMSD -1
REMARK  2 active torsions:
REMARK  status: ('A' for Active; 'I' for Inactive)
REMARK    1  A    between atoms: C2'_3  and  C1'_4 
REMARK    2  A    between atoms: C1'_4  and  C1_5 
ROOT
ATOM      1  C1  I4B d   1      -0.533  -0.434  -0.050  0.00  0.00    -0.075 A 
ATOM      2  C2  I4B d   1      -0.649  -1.372   0.945  0.00  0.00     0.003 A 
ATOM      3  C3  I4B d   1      -0.546  -2.751   0.640  0.00  0.00     0.002 A 
ATOM      4  C4  I4B d   1      -0.378  -3.146  -0.671  0.00  0.00    -0.004 A 
ATOM      5  C5  I4B d   1      -0.238  -2.193  -1.676  0.00  0.00     0.002 A 
ATOM      6  C6  I4B d   1      -0.304  -0.828  -1.362  0.00  0.00     0.003 A 
ENDROOT
BRANCH   1   7
ATOM      7  C1' I4B d   1      -0.680   1.012   0.302  0.00  0.00     0.060 C 
BRANCH   7   8
ATOM      8  C2' I4B d   1       0.070   1.824  -0.735  0.00  0.00    -0.013 C 
ATOM      9  C4' I4B d   1      -0.715   1.931  -2.015  0.00  0.00     0.013 C 
ATOM     10  C3' I4B d   1       0.344   3.178  -0.153  0.00  0.00     0.013 C 
ENDBRANCH   7   8
ENDBRANCH   1   7
TORSDOF 2
ENDMDL
