MODEL 1
REMARK minimizedAffinity 3.30723882
REMARK minimizedRMSD -1
REMARK  1 active torsions:
REMARK  status: ('A' for Active; 'I' for Inactive)
REMARK    1  A    between atoms: C1_2  and  C2_3 
ROOT
ATOM      1  C2  UNL d   1       4.910  -5.186   0.383  0.00  0.00    -0.081 A 
ATOM      2  C3  UNL d   1       3.594  -5.662   0.415  0.00  0.00     0.006 A 
ATOM      3  C4  UNL d   1       2.575  -4.890   0.978  0.00  0.00     0.002 A 
ATOM      4  C5  UNL d   1       2.854  -3.626   1.511  0.00  0.00    -0.080 A 
ATOM      5  C6  UNL d   1       1.765  -2.774   2.091  0.00  0.00     0.076 C 
ATOM      6  C7  UNL d   1       4.172  -3.158   1.494  0.00  0.00     0.002 A 
ATOM      7  C8  UNL d   1       5.191  -3.930   0.932  0.00  0.00     0.006 A 
ENDROOT
BRANCH   1   8
ATOM      8  C1  UNL d   1       6.000  -5.989  -0.282  0.00  0.00     0.054 C 
ATOM      9  C   UNL d   1       5.834  -6.000  -1.795  0.00  0.00     0.018 C 
ENDBRANCH   1   8
TORSDOF 1
ENDMDL
