MODEL 1
REMARK minimizedAffinity 6.87076426
REMARK minimizedRMSD -1
REMARK  1 active torsions:
REMARK  status: ('A' for Active; 'I' for Inactive)
REMARK    1  A    between atoms: C1_2  and  C2_3 
ROOT
ATOM      1  C2  UNL d   1       1.602  -2.274   2.558  0.00  0.00    -0.081 A 
ATOM      2  C3  UNL d   1       1.530  -1.346   3.604  0.00  0.00     0.006 A 
ATOM      3  C4  UNL d   1       0.325  -0.705   3.901  0.00  0.00     0.002 A 
ATOM      4  C5  UNL d   1      -0.830  -0.988   3.163  0.00  0.00    -0.080 A 
ATOM      5  C6  UNL d   1      -2.137  -0.329   3.492  0.00  0.00     0.076 C 
ATOM      6  C7  UNL d   1      -0.755  -1.902   2.107  0.00  0.00     0.002 A 
ATOM      7  C8  UNL d   1       0.450  -2.542   1.809  0.00  0.00     0.006 A 
ENDROOT
BRANCH   1   8
ATOM      8  C1  UNL d   1       2.884  -3.015   2.276  0.00  0.00     0.054 C 
ATOM      9  C   UNL d   1       2.615  -4.346   1.589  0.00  0.00     0.018 C 
ENDBRANCH   1   8
TORSDOF 1
ENDMDL
