MODEL 1
REMARK minimizedAffinity 9.39487076
REMARK minimizedRMSD -1
REMARK  1 active torsions:
REMARK  status: ('A' for Active; 'I' for Inactive)
REMARK    1  A    between atoms: C1_2  and  C2_3 
ROOT
ATOM      1  C2  UNL d   1      -1.691  -0.382   3.342  0.00  0.00    -0.081 A 
ATOM      2  C3  UNL d   1      -0.357   0.037   3.411  0.00  0.00     0.006 A 
ATOM      3  C4  UNL d   1       0.663  -0.756   2.879  0.00  0.00     0.002 A 
ATOM      4  C5  UNL d   1       0.365  -1.976   2.263  0.00  0.00    -0.080 A 
ATOM      5  C6  UNL d   1       1.447  -2.822   1.661  0.00  0.00     0.076 C 
ATOM      6  C7  UNL d   1      -0.966  -2.403   2.210  0.00  0.00     0.002 A 
ATOM      7  C8  UNL d   1      -1.986  -1.611   2.742  0.00  0.00     0.006 A 
ENDROOT
BRANCH   1   8
ATOM      8  C1  UNL d   1      -2.799   0.501   3.857  0.00  0.00     0.054 C 
ATOM      9  C   UNL d   1      -3.914   0.644   2.831  0.00  0.00     0.018 C 
ENDBRANCH   1   8
TORSDOF 1
ENDMDL
