MODEL 1
REMARK minimizedAffinity 10.7467756
REMARK minimizedRMSD -1
REMARK  1 active torsions:
REMARK  status: ('A' for Active; 'I' for Inactive)
REMARK    1  A    between atoms: C1_2  and  C2_3 
ROOT
ATOM      1  C2  UNL d   1       1.344  -1.449   1.182  0.00  0.00    -0.081 A 
ATOM      2  C3  UNL d   1       0.390  -1.616   0.170  0.00  0.00     0.006 A 
ATOM      3  C4  UNL d   1       0.185  -0.614  -0.782  0.00  0.00     0.002 A 
ATOM      4  C5  UNL d   1       0.934   0.567  -0.742  0.00  0.00    -0.080 A 
ATOM      5  C6  UNL d   1       0.745   1.637  -1.776  0.00  0.00     0.076 C 
ATOM      6  C7  UNL d   1       1.875   0.741   0.279  0.00  0.00     0.002 A 
ATOM      7  C8  UNL d   1       2.080  -0.260   1.231  0.00  0.00     0.006 A 
ENDROOT
BRANCH   1   8
ATOM      8  C1  UNL d   1       1.613  -2.554   2.171  0.00  0.00     0.054 C 
ATOM      9  C   UNL d   1       1.932  -3.864   1.464  0.00  0.00     0.018 C 
ENDBRANCH   1   8
TORSDOF 1
ENDMDL
