MODEL 1
REMARK minimizedAffinity 14.7421093
REMARK minimizedRMSD -1
REMARK  1 active torsions:
REMARK  status: ('A' for Active; 'I' for Inactive)
REMARK    1  A    between atoms: C1_2  and  C2_3 
ROOT
ATOM      1  C2  UNL d   1      -2.594  -1.078  -1.470  0.00  0.00    -0.081 A 
ATOM      2  C3  UNL d   1      -2.763  -1.956  -2.548  0.00  0.00     0.006 A 
ATOM      3  C4  UNL d   1      -3.862  -1.827  -3.401  0.00  0.00     0.002 A 
ATOM      4  C5  UNL d   1      -4.805  -0.813  -3.195  0.00  0.00    -0.080 A 
ATOM      5  C6  UNL d   1      -5.973  -0.645  -4.121  0.00  0.00     0.076 C 
ATOM      6  C7  UNL d   1      -4.645   0.053  -2.109  0.00  0.00     0.002 A 
ATOM      7  C8  UNL d   1      -3.547  -0.076  -1.255  0.00  0.00     0.006 A 
ENDROOT
BRANCH   1   8
ATOM      8  C1  UNL d   1      -1.376  -1.174  -0.587  0.00  0.00     0.054 C 
ATOM      9  C   UNL d   1      -0.110  -0.809  -1.349  0.00  0.00     0.018 C 
ENDBRANCH   1   8
TORSDOF 1
ENDMDL
