MODEL 1
REMARK minimizedAffinity 7.12241983
REMARK minimizedRMSD -1
REMARK  1 active torsions:
REMARK  status: ('A' for Active; 'I' for Inactive)
REMARK    1  A    between atoms: C3_4  and  O_7 
ROOT
ATOM      1  C   UNL d   1      -3.176  -1.852   5.489  0.00  0.00    -0.033 A 
ATOM      2  C1  UNL d   1      -3.377  -1.561   4.139  0.00  0.00     0.039 A 
ATOM      3  C2  UNL d   1      -3.952  -2.513   3.295  0.00  0.00    -0.080 A 
ATOM      4  C3  UNL d   1      -4.323  -3.750   3.814  0.00  0.00     0.150 A 
ATOM      5  C4  UNL d   1      -4.130  -4.046   5.159  0.00  0.00    -0.007 A 
ATOM      6  C5  UNL d   1      -3.554  -3.094   6.000  0.00  0.00     0.039 A 
ENDROOT
BRANCH   4   7
ATOM      7  O   UNL d   1      -4.884  -4.713   3.028  0.00  0.00    -0.526 OA
ATOM      8  H5  UNL d   1      -4.930  -4.379   2.117  0.00  0.00     0.418 HD
ENDBRANCH   4   7
TORSDOF 1
ENDMDL
