MODEL 1
REMARK minimizedAffinity 2.4934907
REMARK minimizedRMSD -1
REMARK  1 active torsions:
REMARK  status: ('A' for Active; 'I' for Inactive)
REMARK    1  A    between atoms: C3_4  and  O_7 
ROOT
ATOM      1  C   UNL d   1       4.624   1.036   1.137  0.00  0.00    -0.033 A 
ATOM      2  C1  UNL d   1       5.119   0.031   1.971  0.00  0.00     0.039 A 
ATOM      3  C2  UNL d   1       4.237  -0.782   2.686  0.00  0.00    -0.080 A 
ATOM      4  C3  UNL d   1       2.866  -0.581   2.558  0.00  0.00     0.150 A 
ATOM      5  C4  UNL d   1       2.366   0.416   1.726  0.00  0.00    -0.007 A 
ATOM      6  C5  UNL d   1       3.248   1.228   1.014  0.00  0.00     0.039 A 
ENDROOT
BRANCH   4   7
ATOM      7  O   UNL d   1       1.967  -1.346   3.239  0.00  0.00    -0.526 OA
ATOM      8  H5  UNL d   1       2.457  -1.974   3.796  0.00  0.00     0.418 HD
ENDBRANCH   4   7
TORSDOF 1
ENDMDL
