MODEL 1
REMARK minimizedAffinity -1.11746049
REMARK minimizedRMSD -1
REMARK  1 active torsions:
REMARK  status: ('A' for Active; 'I' for Inactive)
REMARK    1  A    between atoms: C3_4  and  O_7 
ROOT
ATOM      1  C   UNL d   1       2.327  -0.244   0.935  0.00  0.00    -0.033 A 
ATOM      2  C1  UNL d   1       3.306   0.662   0.525  0.00  0.00     0.039 A 
ATOM      3  C2  UNL d   1       4.526   0.728   1.200  0.00  0.00    -0.080 A 
ATOM      4  C3  UNL d   1       4.754  -0.118   2.283  0.00  0.00     0.150 A 
ATOM      5  C4  UNL d   1       3.784  -1.025   2.695  0.00  0.00    -0.007 A 
ATOM      6  C5  UNL d   1       2.566  -1.088   2.019  0.00  0.00     0.039 A 
ENDROOT
BRANCH   4   7
ATOM      7  O   UNL d   1       5.927  -0.087   2.976  0.00  0.00    -0.526 OA
ATOM      8  H5  UNL d   1       6.491   0.608   2.597  0.00  0.00     0.418 HD
ENDBRANCH   4   7
TORSDOF 1
ENDMDL
