MODEL 1
REMARK minimizedAffinity 10.3139505
REMARK minimizedRMSD -1
REMARK  1 active torsions:
REMARK  status: ('A' for Active; 'I' for Inactive)
REMARK    1  A    between atoms: C3_4  and  O_7 
ROOT
ATOM      1  C   UNL d   1      -5.236   2.915   2.054  0.00  0.00    -0.033 A 
ATOM      2  C1  UNL d   1      -4.472   2.172   1.152  0.00  0.00     0.039 A 
ATOM      3  C2  UNL d   1      -4.467   0.777   1.223  0.00  0.00    -0.080 A 
ATOM      4  C3  UNL d   1      -5.229   0.140   2.198  0.00  0.00     0.150 A 
ATOM      5  C4  UNL d   1      -5.995   0.874   3.097  0.00  0.00    -0.007 A 
ATOM      6  C5  UNL d   1      -5.999   2.266   3.025  0.00  0.00     0.039 A 
ENDROOT
BRANCH   4   7
ATOM      7  O   UNL d   1      -5.252  -1.219   2.309  0.00  0.00    -0.526 OA
ATOM      8  H5  UNL d   1      -4.653  -1.592   1.641  0.00  0.00     0.418 HD
ENDBRANCH   4   7
TORSDOF 1
ENDMDL
