MODEL 1
REMARK minimizedAffinity 1.17665899
REMARK minimizedRMSD -1
REMARK  1 active torsions:
REMARK  status: ('A' for Active; 'I' for Inactive)
REMARK    1  A    between atoms: C3_4  and  O_7 
ROOT
ATOM      1  C   UNL d   1       1.408   0.298   0.672  0.00  0.00    -0.033 A 
ATOM      2  C1  UNL d   1       2.615   0.965   0.452  0.00  0.00     0.039 A 
ATOM      3  C2  UNL d   1       3.713   0.717   1.279  0.00  0.00    -0.080 A 
ATOM      4  C3  UNL d   1       3.591  -0.198   2.320  0.00  0.00     0.150 A 
ATOM      5  C4  UNL d   1       2.393  -0.869   2.543  0.00  0.00    -0.007 A 
ATOM      6  C5  UNL d   1       1.298  -0.620   1.717  0.00  0.00     0.039 A 
ENDROOT
BRANCH   4   7
ATOM      7  O   UNL d   1       4.633  -0.469   3.156  0.00  0.00    -0.526 OA
ATOM      8  H5  UNL d   1       5.386   0.089   2.900  0.00  0.00     0.418 HD
ENDBRANCH   4   7
TORSDOF 1
ENDMDL
