MODEL 1
REMARK minimizedAffinity 2.93829131
REMARK minimizedRMSD -1
REMARK  1 active torsions:
REMARK  status: ('A' for Active; 'I' for Inactive)
REMARK    1  A    between atoms: C3_4  and  O_7 
ROOT
ATOM      1  C   UNL d   1       1.945   0.377   1.368  0.00  0.00    -0.033 A 
ATOM      2  C1  UNL d   1       2.224  -0.417   2.482  0.00  0.00     0.039 A 
ATOM      3  C2  UNL d   1       3.547  -0.639   2.870  0.00  0.00    -0.080 A 
ATOM      4  C3  UNL d   1       4.580  -0.062   2.137  0.00  0.00     0.150 A 
ATOM      5  C4  UNL d   1       4.309   0.734   1.028  0.00  0.00    -0.007 A 
ATOM      6  C5  UNL d   1       2.988   0.954   0.642  0.00  0.00     0.039 A 
ENDROOT
BRANCH   4   7
ATOM      7  O   UNL d   1       5.887  -0.254   2.474  0.00  0.00    -0.526 OA
ATOM      8  H5  UNL d   1       5.922  -0.848   3.242  0.00  0.00     0.418 HD
ENDBRANCH   4   7
TORSDOF 1
ENDMDL
