MODEL 1
REMARK minimizedAffinity 0.604059994
REMARK minimizedRMSD -1
REMARK  1 active torsions:
REMARK  status: ('A' for Active; 'I' for Inactive)
REMARK    1  A    between atoms: C3_4  and  O_7 
ROOT
ATOM      1  C   UNL d   1      -5.797   2.215   3.897  0.00  0.00    -0.033 A 
ATOM      2  C1  UNL d   1      -5.809   2.207   5.293  0.00  0.00     0.039 A 
ATOM      3  C2  UNL d   1      -5.877   3.410   5.999  0.00  0.00    -0.080 A 
ATOM      4  C3  UNL d   1      -5.934   4.611   5.298  0.00  0.00     0.150 A 
ATOM      5  C4  UNL d   1      -5.927   4.626   3.907  0.00  0.00    -0.007 A 
ATOM      6  C5  UNL d   1      -5.857   3.425   3.204  0.00  0.00     0.039 A 
ENDROOT
BRANCH   4   7
ATOM      7  O   UNL d   1      -5.998   5.811   5.944  0.00  0.00    -0.526 OA
ATOM      8  H5  UNL d   1      -5.966   5.647   6.901  0.00  0.00     0.418 HD
ENDBRANCH   4   7
TORSDOF 1
ENDMDL
