MODEL 1
REMARK minimizedAffinity -3.15722585
REMARK minimizedRMSD -1
REMARK  1 active torsions:
REMARK  status: ('A' for Active; 'I' for Inactive)
REMARK    1  A    between atoms: C3_4  and  O_7 
ROOT
ATOM      1  C   UNL d   1       3.334   0.717   0.773  0.00  0.00    -0.033 A 
ATOM      2  C1  UNL d   1       2.095   0.137   0.494  0.00  0.00     0.039 A 
ATOM      3  C2  UNL d   1       1.616  -0.907   1.288  0.00  0.00    -0.080 A 
ATOM      4  C3  UNL d   1       2.385  -1.361   2.357  0.00  0.00     0.150 A 
ATOM      5  C4  UNL d   1       3.618  -0.785   2.643  0.00  0.00    -0.007 A 
ATOM      6  C5  UNL d   1       4.095   0.256   1.848  0.00  0.00     0.039 A 
ENDROOT
BRANCH   4   7
ATOM      7  O   UNL d   1       1.961  -2.381   3.156  0.00  0.00    -0.526 OA
ATOM      8  H5  UNL d   1       1.106  -2.699   2.822  0.00  0.00     0.418 HD
ENDBRANCH   4   7
TORSDOF 1
ENDMDL
