MODEL 1
REMARK minimizedAffinity 0.884336054
REMARK minimizedRMSD -1
REMARK  1 active torsions:
REMARK  status: ('A' for Active; 'I' for Inactive)
REMARK    1  A    between atoms: C3_4  and  O_7 
ROOT
ATOM      1  C   UNL d   1       2.250   0.282   1.330  0.00  0.00    -0.033 A 
ATOM      2  C1  UNL d   1       3.371   0.874   0.745  0.00  0.00     0.039 A 
ATOM      3  C2  UNL d   1       4.643   0.637   1.270  0.00  0.00    -0.080 A 
ATOM      4  C3  UNL d   1       4.780  -0.193   2.379  0.00  0.00     0.150 A 
ATOM      5  C4  UNL d   1       3.668  -0.789   2.965  0.00  0.00    -0.007 A 
ATOM      6  C5  UNL d   1       2.399  -0.550   2.439  0.00  0.00     0.039 A 
ENDROOT
BRANCH   4   7
ATOM      7  O   UNL d   1       6.000  -0.450   2.931  0.00  0.00    -0.526 OA
ATOM      8  H5  UNL d   1       6.671   0.051   2.440  0.00  0.00     0.418 HD
ENDBRANCH   4   7
TORSDOF 1
ENDMDL
