MODEL 1
REMARK minimizedAffinity 7.75853443
REMARK minimizedRMSD -1
REMARK  1 active torsions:
REMARK  status: ('A' for Active; 'I' for Inactive)
REMARK    1  A    between atoms: C3_4  and  O_7 
ROOT
ATOM      1  C   UNL d   1      -5.611   2.397   3.886  0.00  0.00    -0.033 A 
ATOM      2  C1  UNL d   1      -5.761   2.357   5.273  0.00  0.00     0.039 A 
ATOM      3  C2  UNL d   1      -5.874   3.544   6.000  0.00  0.00    -0.080 A 
ATOM      4  C3  UNL d   1      -5.836   4.762   5.328  0.00  0.00     0.150 A 
ATOM      5  C4  UNL d   1      -5.690   4.809   3.945  0.00  0.00    -0.007 A 
ATOM      6  C5  UNL d   1      -5.577   3.623   3.222  0.00  0.00     0.039 A 
ENDROOT
BRANCH   4   7
ATOM      7  O   UNL d   1      -5.937   5.947   5.994  0.00  0.00    -0.526 OA
ATOM      8  H5  UNL d   1      -6.004   5.760   6.946  0.00  0.00     0.418 HD
ENDBRANCH   4   7
TORSDOF 1
ENDMDL
