MODEL 1
REMARK minimizedAffinity 6.45760727
REMARK minimizedRMSD -1
REMARK  1 active torsions:
REMARK  status: ('A' for Active; 'I' for Inactive)
REMARK    1  A    between atoms: C3_4  and  O_7 
ROOT
ATOM      1  C   UNL d   1       1.867   0.783  -0.025  0.00  0.00    -0.033 A 
ATOM      2  C1  UNL d   1       1.561  -0.373   0.697  0.00  0.00     0.039 A 
ATOM      3  C2  UNL d   1       2.355  -0.752   1.781  0.00  0.00    -0.080 A 
ATOM      4  C3  UNL d   1       3.450   0.032   2.133  0.00  0.00     0.150 A 
ATOM      5  C4  UNL d   1       3.759   1.187   1.421  0.00  0.00    -0.007 A 
ATOM      6  C5  UNL d   1       2.965   1.563   0.338  0.00  0.00     0.039 A 
ENDROOT
BRANCH   4   7
ATOM      7  O   UNL d   1       4.257  -0.300   3.180  0.00  0.00    -0.526 OA
ATOM      8  H5  UNL d   1       3.939  -1.136   3.560  0.00  0.00     0.418 HD
ENDBRANCH   4   7
TORSDOF 1
ENDMDL
