MODEL 1
REMARK minimizedAffinity 0.577059269
REMARK minimizedRMSD -1
REMARK  1 active torsions:
REMARK  status: ('A' for Active; 'I' for Inactive)
REMARK    1  A    between atoms: C3_4  and  O_7 
ROOT
ATOM      1  C   UNL d   1       1.696   0.677   0.663  0.00  0.00    -0.033 A 
ATOM      2  C1  UNL d   1       2.968   1.171   0.366  0.00  0.00     0.039 A 
ATOM      3  C2  UNL d   1       4.051   0.851   1.186  0.00  0.00    -0.080 A 
ATOM      4  C3  UNL d   1       3.850   0.037   2.298  0.00  0.00     0.150 A 
ATOM      5  C4  UNL d   1       2.586  -0.461   2.597  0.00  0.00    -0.007 A 
ATOM      6  C5  UNL d   1       1.505  -0.140   1.778  0.00  0.00     0.039 A 
ENDROOT
BRANCH   4   7
ATOM      7  O   UNL d   1       4.876  -0.298   3.131  0.00  0.00    -0.526 OA
ATOM      8  H5  UNL d   1       5.684   0.141   2.816  0.00  0.00     0.418 HD
ENDBRANCH   4   7
TORSDOF 1
ENDMDL
