MODEL 1
REMARK minimizedAffinity 1.05106735
REMARK minimizedRMSD -1
REMARK  1 active torsions:
REMARK  status: ('A' for Active; 'I' for Inactive)
REMARK    1  A    between atoms: C3_4  and  O_7 
ROOT
ATOM      1  C   UNL d   1      -3.371  -1.224   4.947  0.00  0.00    -0.033 A 
ATOM      2  C1  UNL d   1      -3.543  -2.127   5.998  0.00  0.00     0.039 A 
ATOM      3  C2  UNL d   1      -4.110  -3.380   5.758  0.00  0.00    -0.080 A 
ATOM      4  C3  UNL d   1      -4.498  -3.718   4.465  0.00  0.00     0.150 A 
ATOM      5  C4  UNL d   1      -4.326  -2.824   3.413  0.00  0.00    -0.007 A 
ATOM      6  C5  UNL d   1      -3.761  -1.573   3.654  0.00  0.00     0.039 A 
ENDROOT
BRANCH   4   7
ATOM      7  O   UNL d   1      -5.061  -4.927   4.183  0.00  0.00    -0.526 OA
ATOM      8  H5  UNL d   1      -5.144  -5.429   5.011  0.00  0.00     0.418 HD
ENDBRANCH   4   7
TORSDOF 1
ENDMDL
