MODEL 1
REMARK minimizedAffinity 0.991659701
REMARK minimizedRMSD -1
REMARK  1 active torsions:
REMARK  status: ('A' for Active; 'I' for Inactive)
REMARK    1  A    between atoms: C3_4  and  O_7 
ROOT
ATOM      1  C   UNL d   1      -5.000   3.378   4.983  0.00  0.00    -0.033 A 
ATOM      2  C1  UNL d   1      -5.429   3.651   3.683  0.00  0.00     0.039 A 
ATOM      3  C2  UNL d   1      -5.771   2.604   2.825  0.00  0.00    -0.080 A 
ATOM      4  C3  UNL d   1      -5.680   1.291   3.279  0.00  0.00     0.150 A 
ATOM      5  C4  UNL d   1      -5.257   1.012   4.575  0.00  0.00    -0.007 A 
ATOM      6  C5  UNL d   1      -4.916   2.059   5.430  0.00  0.00     0.039 A 
ENDROOT
BRANCH   4   7
ATOM      7  O   UNL d   1      -5.998   0.236   2.476  0.00  0.00    -0.526 OA
ATOM      8  H5  UNL d   1      -6.246   0.578   1.602  0.00  0.00     0.418 HD
ENDBRANCH   4   7
TORSDOF 1
ENDMDL
