MODEL 1
REMARK minimizedAffinity 17.8419056
REMARK minimizedRMSD -1
REMARK  0 active torsions:
REMARK  status: ('A' for Active; 'I' for Inactive)
ROOT
ATOM      1  C   UNL d   1       5.933   2.143   0.263  0.00  0.00    -0.002 A 
ATOM      2  C1  UNL d   1       5.999   2.266  -1.118  0.00  0.00     0.010 A 
ATOM      3  C2  UNL d   1       5.222   1.448  -1.941  0.00  0.00     0.041 A 
ATOM      4  C3  UNL d   1       4.369   0.497  -1.348  0.00  0.00    -0.075 A 
ATOM      5  S   UNL d   1       3.325  -0.611  -2.158  0.00  0.00     0.015 SA
ATOM      6  C4  UNL d   1       2.767  -1.273  -0.690  0.00  0.00     0.022 A 
ATOM      7  C5  UNL d   1       3.352  -0.675   0.401  0.00  0.00     0.026 A 
ATOM      8  C6  UNL d   1       4.285   0.355   0.040  0.00  0.00    -0.082 A 
ATOM      9  C7  UNL d   1       5.085   1.198   0.847  0.00  0.00     0.045 A 
ENDROOT
TORSDOF 0
ENDMDL
