MODEL 1
REMARK minimizedAffinity 20.2636738
REMARK minimizedRMSD -1
REMARK  0 active torsions:
REMARK  status: ('A' for Active; 'I' for Inactive)
ROOT
ATOM      1  C   UNL d   1      -1.402  -5.120  -1.118  0.00  0.00    -0.002 A 
ATOM      2  C1  UNL d   1      -1.510  -4.368  -2.279  0.00  0.00     0.010 A 
ATOM      3  C2  UNL d   1      -0.476  -3.515  -2.672  0.00  0.00     0.041 A 
ATOM      4  C3  UNL d   1       0.680  -3.432  -1.871  0.00  0.00    -0.075 A 
ATOM      5  S   UNL d   1       2.073  -2.457  -2.155  0.00  0.00     0.015 SA
ATOM      6  C4  UNL d   1       2.844  -3.016  -0.742  0.00  0.00     0.022 A 
ATOM      7  C5  UNL d   1       2.072  -3.925  -0.058  0.00  0.00     0.026 A 
ATOM      8  C6  UNL d   1       0.812  -4.180  -0.698  0.00  0.00    -0.082 A 
ATOM      9  C7  UNL d   1      -0.254  -5.035  -0.326  0.00  0.00     0.045 A 
ENDROOT
TORSDOF 0
ENDMDL
