MODEL 1
REMARK minimizedAffinity 9.50769234
REMARK minimizedRMSD -1
REMARK  0 active torsions:
REMARK  status: ('A' for Active; 'I' for Inactive)
ROOT
ATOM      1  C   UNL d   1      -0.515  -4.355  -0.989  0.00  0.00    -0.002 A 
ATOM      2  C1  UNL d   1      -0.526  -3.489  -2.073  0.00  0.00     0.010 A 
ATOM      3  C2  UNL d   1       0.444  -2.491  -2.195  0.00  0.00     0.041 A 
ATOM      4  C3  UNL d   1       1.435  -2.380  -1.200  0.00  0.00    -0.075 A 
ATOM      5  S   UNL d   1       2.724  -1.236  -1.140  0.00  0.00     0.015 SA
ATOM      6  C4  UNL d   1       3.319  -1.871   0.325  0.00  0.00     0.022 A 
ATOM      7  C5  UNL d   1       2.565  -2.930   0.772  0.00  0.00     0.026 A 
ATOM      8  C6  UNL d   1       1.467  -3.241  -0.100  0.00  0.00    -0.082 A 
ATOM      9  C7  UNL d   1       0.470  -4.241  -0.005  0.00  0.00     0.045 A 
ENDROOT
TORSDOF 0
ENDMDL
