MODEL 1
REMARK minimizedAffinity 6.25131655
REMARK minimizedRMSD -1
REMARK  0 active torsions:
REMARK  status: ('A' for Active; 'I' for Inactive)
ROOT
ATOM      1  C   UNL d   1       3.782   1.258  -0.351  0.00  0.00    -0.002 A 
ATOM      2  C1  UNL d   1       4.536   0.772  -1.409  0.00  0.00     0.010 A 
ATOM      3  C2  UNL d   1       4.261  -0.481  -1.960  0.00  0.00     0.041 A 
ATOM      4  C3  UNL d   1       3.203  -1.243  -1.426  0.00  0.00    -0.075 A 
ATOM      5  S   UNL d   1       2.683  -2.804  -1.942  0.00  0.00     0.015 SA
ATOM      6  C4  UNL d   1       1.447  -2.862  -0.770  0.00  0.00     0.022 A 
ATOM      7  C5  UNL d   1       1.417  -1.726   0.005  0.00  0.00     0.026 A 
ATOM      8  C6  UNL d   1       2.429  -0.774  -0.361  0.00  0.00    -0.082 A 
ATOM      9  C7  UNL d   1       2.734   0.499   0.177  0.00  0.00     0.045 A 
ENDROOT
TORSDOF 0
ENDMDL
