MODEL 1
REMARK minimizedAffinity 11.6916218
REMARK minimizedRMSD -1
REMARK  0 active torsions:
REMARK  status: ('A' for Active; 'I' for Inactive)
ROOT
ATOM      1  C   UNL d   1       2.013   5.239   3.421  0.00  0.00    -0.002 A 
ATOM      2  C1  UNL d   1       2.832   4.120   3.460  0.00  0.00     0.010 A 
ATOM      3  C2  UNL d   1       2.428   2.923   2.864  0.00  0.00     0.041 A 
ATOM      4  C3  UNL d   1       1.175   2.871   2.221  0.00  0.00    -0.075 A 
ATOM      5  S   UNL d   1       0.473   1.514   1.422  0.00  0.00     0.015 SA
ATOM      6  C4  UNL d   1      -0.931   2.389   1.010  0.00  0.00     0.022 A 
ATOM      7  C5  UNL d   1      -0.882   3.686   1.463  0.00  0.00     0.026 A 
ATOM      8  C6  UNL d   1       0.333   3.985   2.168  0.00  0.00    -0.082 A 
ATOM      9  C7  UNL d   1       0.771   5.184   2.782  0.00  0.00     0.045 A 
ENDROOT
TORSDOF 0
ENDMDL
