MODEL 1
REMARK minimizedAffinity -6.7362771
REMARK minimizedRMSD -1
REMARK  0 active torsions:
REMARK  status: ('A' for Active; 'I' for Inactive)
ROOT
ATOM      1  C1  DEN d   1      -0.127  -1.191  -0.647  0.00  0.00     0.130 A 
ATOM      2  C2  DEN d   1      -0.987  -0.010  -0.636  0.00  0.00    -0.031 A 
ATOM      3  C3  DEN d   1      -0.222   1.106  -0.045  0.00  0.00     0.027 A 
ATOM      4  C4  DEN d   1       2.199   1.123   0.844  0.00  0.00     0.027 A 
ATOM      5  C5  DEN d   1       3.322   0.354   1.056  0.00  0.00    -0.003 A 
ATOM      6  C6  DEN d   1       3.363  -0.980   0.750  0.00  0.00     0.001 A 
ATOM      7  C7  DEN d   1       2.274  -1.577   0.172  0.00  0.00     0.017 A 
ATOM      8  C8  DEN d   1       1.135  -0.810  -0.039  0.00  0.00    -0.094 A 
ATOM      9  C9  DEN d   1       1.118   0.540   0.267  0.00  0.00    -0.072 A 
ENDROOT
TORSDOF 0
ENDMDL
