MODEL 1
REMARK minimizedAffinity -4.6093812
REMARK minimizedRMSD -1
REMARK  0 active torsions:
REMARK  status: ('A' for Active; 'I' for Inactive)
ROOT
ATOM      1  C1  DEN d   1      -0.521   1.075  -1.004  0.00  0.00     0.130 A 
ATOM      2  C2  DEN d   1      -1.703   1.133  -0.148  0.00  0.00    -0.031 A 
ATOM      3  C3  DEN d   1      -1.437   0.318   1.054  0.00  0.00     0.027 A 
ATOM      4  C4  DEN d   1       0.681  -1.019   1.672  0.00  0.00     0.027 A 
ATOM      5  C5  DEN d   1       1.943  -1.379   1.253  0.00  0.00    -0.003 A 
ATOM      6  C6  DEN d   1       2.454  -0.978   0.048  0.00  0.00     0.001 A 
ATOM      7  C7  DEN d   1       1.718  -0.155  -0.762  0.00  0.00     0.017 A 
ATOM      8  C8  DEN d   1       0.442   0.207  -0.350  0.00  0.00    -0.094 A 
ATOM      9  C9  DEN d   1      -0.053  -0.199   0.878  0.00  0.00    -0.072 A 
ENDROOT
TORSDOF 0
ENDMDL
