MODEL 1
REMARK minimizedAffinity -4.18538094
REMARK minimizedRMSD -1
REMARK  0 active torsions:
REMARK  status: ('A' for Active; 'I' for Inactive)
ROOT
ATOM      1  C1  DEN d   1       1.918   0.279   1.232  0.00  0.00     0.130 A 
ATOM      2  C2  DEN d   1       2.739  -0.766   0.628  0.00  0.00    -0.031 A 
ATOM      3  C3  DEN d   1       1.924  -1.453  -0.394  0.00  0.00     0.027 A 
ATOM      4  C4  DEN d   1      -0.515  -0.999  -1.099  0.00  0.00     0.027 A 
ATOM      5  C5  DEN d   1      -1.625  -0.219  -0.862  0.00  0.00    -0.003 A 
ATOM      6  C6  DEN d   1      -1.643   0.751   0.105  0.00  0.00     0.001 A 
ATOM      7  C7  DEN d   1      -0.514   0.997   0.841  0.00  0.00     0.017 A 
ATOM      8  C8  DEN d   1       0.607   0.209   0.613  0.00  0.00    -0.094 A 
ATOM      9  C9  DEN d   1       0.609  -0.758  -0.378  0.00  0.00    -0.072 A 
ENDROOT
TORSDOF 0
ENDMDL
