MODEL 1
REMARK minimizedAffinity -2.97106743
REMARK minimizedRMSD -1
REMARK  0 active torsions:
REMARK  status: ('A' for Active; 'I' for Inactive)
ROOT
ATOM      1  C1  DEN d   1       2.162   2.264  -0.241  0.00  0.00     0.130 A 
ATOM      2  C2  DEN d   1       3.555   1.826  -0.251  0.00  0.00    -0.031 A 
ATOM      3  C3  DEN d   1       3.571   0.359  -0.423  0.00  0.00     0.027 A 
ATOM      4  C4  DEN d   1       1.585  -1.266  -0.680  0.00  0.00     0.027 A 
ATOM      5  C5  DEN d   1       0.211  -1.363  -0.722  0.00  0.00    -0.003 A 
ATOM      6  C6  DEN d   1      -0.602  -0.271  -0.574  0.00  0.00     0.001 A 
ATOM      7  C7  DEN d   1      -0.048   0.973  -0.421  0.00  0.00     0.017 A 
ATOM      8  C8  DEN d   1       1.336   1.077  -0.371  0.00  0.00    -0.094 A 
ATOM      9  C9  DEN d   1       2.141  -0.037  -0.535  0.00  0.00    -0.072 A 
ENDROOT
TORSDOF 0
ENDMDL
