MODEL 1
REMARK minimizedAffinity -3.69645762
REMARK minimizedRMSD -1
REMARK  0 active torsions:
REMARK  status: ('A' for Active; 'I' for Inactive)
ROOT
ATOM      1  C1  DEN d   1      -0.372  -1.144   0.891  0.00  0.00     0.130 A 
ATOM      2  C2  DEN d   1       0.477  -0.579  -0.154  0.00  0.00    -0.031 A 
ATOM      3  C3  DEN d   1      -0.271   0.513  -0.808  0.00  0.00     0.027 A 
ATOM      4  C4  DEN d   1      -2.646   1.382  -0.304  0.00  0.00     0.027 A 
ATOM      5  C5  DEN d   1      -3.761   1.210   0.487  0.00  0.00    -0.003 A 
ATOM      6  C6  DEN d   1      -3.836   0.226   1.437  0.00  0.00     0.001 A 
ATOM      7  C7  DEN d   1      -2.760  -0.594   1.652  0.00  0.00     0.017 A 
ATOM      8  C8  DEN d   1      -1.636  -0.431   0.853  0.00  0.00    -0.094 A 
ATOM      9  C9  DEN d   1      -1.574   0.577  -0.094  0.00  0.00    -0.072 A 
ENDROOT
TORSDOF 0
ENDMDL
