MODEL 1
REMARK minimizedAffinity -6.48756456
REMARK minimizedRMSD -1
REMARK  0 active torsions:
REMARK  status: ('A' for Active; 'I' for Inactive)
ROOT
ATOM      1  C1  DEN d   1       0.020   0.908  -0.116  0.00  0.00     0.130 A 
ATOM      2  C2  DEN d   1      -0.863  -0.151  -0.597  0.00  0.00    -0.031 A 
ATOM      3  C3  DEN d   1      -0.133  -1.432  -0.504  0.00  0.00     0.027 A 
ATOM      4  C4  DEN d   1       2.264  -1.876   0.338  0.00  0.00     0.027 A 
ATOM      5  C5  DEN d   1       3.405  -1.288   0.838  0.00  0.00    -0.003 A 
ATOM      6  C6  DEN d   1       3.510   0.065   1.021  0.00  0.00     0.001 A 
ATOM      7  C7  DEN d   1       2.437   0.872   0.744  0.00  0.00     0.017 A 
ATOM      8  C8  DEN d   1       1.286   0.288   0.233  0.00  0.00    -0.094 A 
ATOM      9  C9  DEN d   1       1.196  -1.084   0.067  0.00  0.00    -0.072 A 
ENDROOT
TORSDOF 0
ENDMDL
