MODEL 1
REMARK minimizedAffinity -5.02425766
REMARK minimizedRMSD -1
REMARK  1 active torsions:
REMARK  status: ('A' for Active; 'I' for Inactive)
REMARK    1  A    between atoms: C1_2  and  C2_3 
ROOT
ATOM      1  C2  UNL d   1      -1.476  -0.125   1.054  0.00  0.00    -0.073 A 
ATOM      2  C3  UNL d   1      -1.036  -0.261  -0.267  0.00  0.00    -0.002 A 
ATOM      3  C4  UNL d   1       0.257  -0.711  -0.536  0.00  0.00     0.004 A 
ATOM      4  C5  UNL d   1       1.120  -1.036   0.511  0.00  0.00    -0.004 A 
ATOM      5  C6  UNL d   1       0.694  -0.918   1.838  0.00  0.00    -0.075 A 
ATOM      6  C7  UNL d   1       1.610  -1.261   2.975  0.00  0.00     0.076 C 
ATOM      7  C8  UNL d   1      -0.605  -0.462   2.100  0.00  0.00     0.001 A 
ENDROOT
BRANCH   1   8
ATOM      8  C1  UNL d   1      -2.874   0.355   1.349  0.00  0.00     0.053 C 
ATOM      9  C   UNL d   1      -3.927  -0.508   0.674  0.00  0.00     0.018 C 
ENDBRANCH   1   8
TORSDOF 1
ENDMDL
