MODEL 1
REMARK minimizedAffinity -4.37852859
REMARK minimizedRMSD -1
REMARK  1 active torsions:
REMARK  status: ('A' for Active; 'I' for Inactive)
REMARK    1  A    between atoms: C1_2  and  C2_3 
ROOT
ATOM      1  C2  UNL d   1       0.057   0.158  -0.457  0.00  0.00    -0.073 A 
ATOM      2  C3  UNL d   1       0.991  -0.594  -1.179  0.00  0.00    -0.002 A 
ATOM      3  C4  UNL d   1       1.960  -1.343  -0.512  0.00  0.00     0.004 A 
ATOM      4  C5  UNL d   1       2.002  -1.355   0.882  0.00  0.00    -0.004 A 
ATOM      5  C6  UNL d   1       1.070  -0.620   1.622  0.00  0.00    -0.075 A 
ATOM      6  C7  UNL d   1       1.103  -0.620   3.122  0.00  0.00     0.076 C 
ATOM      7  C8  UNL d   1       0.102   0.133   0.944  0.00  0.00     0.001 A 
ENDROOT
BRANCH   1   8
ATOM      8  C1  UNL d   1      -0.995   0.964  -1.173  0.00  0.00     0.053 C 
ATOM      9  C   UNL d   1      -0.415   2.212  -1.821  0.00  0.00     0.018 C 
ENDBRANCH   1   8
TORSDOF 1
ENDMDL
