MODEL 1
REMARK minimizedAffinity -4.90777206
REMARK minimizedRMSD -1
REMARK  1 active torsions:
REMARK  status: ('A' for Active; 'I' for Inactive)
REMARK    1  A    between atoms: C1_2  and  C2_3 
ROOT
ATOM      1  C2  UNL d   1      -0.448   1.224  -0.981  0.00  0.00    -0.073 A 
ATOM      2  C3  UNL d   1      -1.706   0.725  -0.622  0.00  0.00    -0.002 A 
ATOM      3  C4  UNL d   1      -1.846  -0.093   0.500  0.00  0.00     0.004 A 
ATOM      4  C5  UNL d   1      -0.734  -0.414   1.278  0.00  0.00    -0.004 A 
ATOM      5  C6  UNL d   1       0.529   0.085   0.943  0.00  0.00    -0.075 A 
ATOM      6  C7  UNL d   1       1.736  -0.253   1.768  0.00  0.00     0.076 C 
ATOM      7  C8  UNL d   1       0.663   0.903  -0.187  0.00  0.00     0.001 A 
ENDROOT
BRANCH   1   8
ATOM      8  C1  UNL d   1      -0.293   2.112  -2.188  0.00  0.00     0.053 C 
ATOM      9  C   UNL d   1      -1.277   3.271  -2.173  0.00  0.00     0.018 C 
ENDBRANCH   1   8
TORSDOF 1
ENDMDL
