MODEL 1
REMARK minimizedAffinity 0.205595732
REMARK minimizedRMSD -1
REMARK  1 active torsions:
REMARK  status: ('A' for Active; 'I' for Inactive)
REMARK    1  A    between atoms: C1_2  and  C2_3 
ROOT
ATOM      1  C2  UNL d   1      -0.242  -0.745   1.652  0.00  0.00    -0.073 A 
ATOM      2  C3  UNL d   1       0.092  -0.551   2.997  0.00  0.00    -0.002 A 
ATOM      3  C4  UNL d   1       1.430  -0.512   3.393  0.00  0.00     0.004 A 
ATOM      4  C5  UNL d   1       2.446  -0.659   2.448  0.00  0.00    -0.004 A 
ATOM      5  C6  UNL d   1       2.132  -0.841   1.097  0.00  0.00    -0.075 A 
ATOM      6  C7  UNL d   1       3.212  -1.003   0.069  0.00  0.00     0.076 C 
ATOM      7  C8  UNL d   1       0.786  -0.883   0.709  0.00  0.00     0.001 A 
ENDROOT
BRANCH   1   8
ATOM      8  C1  UNL d   1      -1.685  -0.782   1.220  0.00  0.00     0.053 C 
ATOM      9  C   UNL d   1      -2.472   0.402   1.760  0.00  0.00     0.018 C 
ENDBRANCH   1   8
TORSDOF 1
ENDMDL
