MODEL 1
REMARK minimizedAffinity 3.11359549
REMARK minimizedRMSD -1
REMARK  1 active torsions:
REMARK  status: ('A' for Active; 'I' for Inactive)
REMARK    1  A    between atoms: C1_2  and  C2_3 
ROOT
ATOM      1  C2  UNL d   1      -0.588  -0.741   2.492  0.00  0.00    -0.073 A 
ATOM      2  C3  UNL d   1      -1.377   0.055   3.329  0.00  0.00    -0.002 A 
ATOM      3  C4  UNL d   1      -2.519   0.685   2.832  0.00  0.00     0.004 A 
ATOM      4  C5  UNL d   1      -2.887   0.519   1.497  0.00  0.00    -0.004 A 
ATOM      5  C6  UNL d   1      -2.118  -0.283   0.648  0.00  0.00    -0.075 A 
ATOM      6  C7  UNL d   1      -2.499  -0.470  -0.791  0.00  0.00     0.076 C 
ATOM      7  C8  UNL d   1      -0.971  -0.909   1.154  0.00  0.00     0.001 A 
ENDROOT
BRANCH   1   8
ATOM      8  C1  UNL d   1       0.643  -1.428   3.026  0.00  0.00     0.053 C 
ATOM      9  C   UNL d   1       1.877  -0.546   2.924  0.00  0.00     0.018 C 
ENDBRANCH   1   8
TORSDOF 1
ENDMDL
