MODEL 1
REMARK minimizedAffinity 5.00846624
REMARK minimizedRMSD -1
REMARK  0 active torsions:
REMARK  status: ('A' for Active; 'I' for Inactive)
ROOT
ATOM      1  C   UNL d   1      -1.587  -0.789   0.741  0.00  0.00     0.077 C 
ATOM      2  C1  UNL d   1      -0.911  -1.786  -0.152  0.00  0.00    -0.074 A 
ATOM      3  C2  UNL d   1      -1.392  -3.095  -0.263  0.00  0.00    -0.005 A 
ATOM      4  C3  UNL d   1      -0.758  -4.009  -1.104  0.00  0.00     0.006 A 
ATOM      5  C4  UNL d   1       0.362  -3.624  -1.843  0.00  0.00    -0.005 A 
ATOM      6  C5  UNL d   1       0.857  -2.320  -1.746  0.00  0.00    -0.074 A 
ATOM      7  C6  UNL d   1       2.054  -1.888  -2.540  0.00  0.00     0.077 C 
ATOM      8  C7  UNL d   1       0.210  -1.406  -0.903  0.00  0.00    -0.001 A 
ENDROOT
TORSDOF 0
ENDMDL
