MODEL 1
REMARK minimizedAffinity 7.16850996
REMARK minimizedRMSD -1
REMARK  0 active torsions:
REMARK  status: ('A' for Active; 'I' for Inactive)
ROOT
ATOM      1  C   UNL d   1      -4.030  -1.555  -5.125  0.00  0.00     0.077 C 
ATOM      2  C1  UNL d   1      -4.586  -2.945  -5.042  0.00  0.00    -0.074 A 
ATOM      3  C2  UNL d   1      -5.497  -3.413  -5.994  0.00  0.00    -0.005 A 
ATOM      4  C3  UNL d   1      -5.999  -4.712  -5.909  0.00  0.00     0.006 A 
ATOM      5  C4  UNL d   1      -5.596  -5.554  -4.872  0.00  0.00    -0.005 A 
ATOM      6  C5  UNL d   1      -4.685  -5.104  -3.911  0.00  0.00    -0.074 A 
ATOM      7  C6  UNL d   1      -4.234  -5.999  -2.796  0.00  0.00     0.077 C 
ATOM      8  C7  UNL d   1      -4.180  -3.800  -4.008  0.00  0.00    -0.001 A 
ENDROOT
TORSDOF 0
ENDMDL
