MODEL 1
REMARK minimizedAffinity 2.81537533
REMARK minimizedRMSD -1
REMARK  0 active torsions:
REMARK  status: ('A' for Active; 'I' for Inactive)
ROOT
ATOM      1  C   UNL d   1      -3.144   2.324  -1.780  0.00  0.00     0.077 C 
ATOM      2  C1  UNL d   1      -3.688   2.079  -3.156  0.00  0.00    -0.074 A 
ATOM      3  C2  UNL d   1      -4.242   3.121  -3.906  0.00  0.00    -0.005 A 
ATOM      4  C3  UNL d   1      -4.734   2.880  -5.189  0.00  0.00     0.006 A 
ATOM      5  C4  UNL d   1      -4.678   1.596  -5.733  0.00  0.00    -0.005 A 
ATOM      6  C5  UNL d   1      -4.126   0.542  -4.998  0.00  0.00    -0.074 A 
ATOM      7  C6  UNL d   1      -4.048  -0.841  -5.573  0.00  0.00     0.077 C 
ATOM      8  C7  UNL d   1      -3.627   0.794  -3.713  0.00  0.00    -0.001 A 
ENDROOT
TORSDOF 0
ENDMDL
