MODEL 1
REMARK minimizedAffinity 15.0294724
REMARK minimizedRMSD -1
REMARK  0 active torsions:
REMARK  status: ('A' for Active; 'I' for Inactive)
ROOT
ATOM      1  C   UNL d   1       1.489  -2.291   4.912  0.00  0.00     0.077 C 
ATOM      2  C1  UNL d   1       1.446  -1.747   3.515  0.00  0.00    -0.074 A 
ATOM      3  C2  UNL d   1       0.996  -2.536   2.451  0.00  0.00    -0.005 A 
ATOM      4  C3  UNL d   1       0.953  -2.013   1.158  0.00  0.00     0.006 A 
ATOM      5  C4  UNL d   1       1.357  -0.700   0.917  0.00  0.00    -0.005 A 
ATOM      6  C5  UNL d   1       1.809   0.104   1.969  0.00  0.00    -0.074 A 
ATOM      7  C6  UNL d   1       2.238   1.521   1.729  0.00  0.00     0.077 C 
ATOM      8  C7  UNL d   1       1.843  -0.426   3.266  0.00  0.00    -0.001 A 
ENDROOT
TORSDOF 0
ENDMDL
