MODEL 1
REMARK minimizedAffinity 8.48959541
REMARK minimizedRMSD -1
REMARK  0 active torsions:
REMARK  status: ('A' for Active; 'I' for Inactive)
ROOT
ATOM      1  C   UNL d   1       2.764  -2.568   3.505  0.00  0.00     0.077 C 
ATOM      2  C1  UNL d   1       2.007  -1.639   2.602  0.00  0.00    -0.074 A 
ATOM      3  C2  UNL d   1       0.773  -2.012   2.059  0.00  0.00    -0.005 A 
ATOM      4  C3  UNL d   1       0.077  -1.134   1.228  0.00  0.00     0.006 A 
ATOM      5  C4  UNL d   1       0.607   0.123   0.933  0.00  0.00    -0.005 A 
ATOM      6  C5  UNL d   1       1.839   0.513   1.467  0.00  0.00    -0.074 A 
ATOM      7  C6  UNL d   1       2.418   1.864   1.167  0.00  0.00     0.077 C 
ATOM      8  C7  UNL d   1       2.529  -0.372   2.306  0.00  0.00    -0.001 A 
ENDROOT
TORSDOF 0
ENDMDL
