MODEL 1
REMARK minimizedAffinity 9.04260635
REMARK minimizedRMSD -1
REMARK  0 active torsions:
REMARK  status: ('A' for Active; 'I' for Inactive)
ROOT
ATOM      1  C   UNL d   1       0.774  -1.929   3.785  0.00  0.00     0.077 C 
ATOM      2  C1  UNL d   1       1.934  -2.877   3.712  0.00  0.00    -0.074 A 
ATOM      3  C2  UNL d   1       1.805  -4.124   3.092  0.00  0.00    -0.005 A 
ATOM      4  C3  UNL d   1       2.895  -4.991   3.023  0.00  0.00     0.006 A 
ATOM      5  C4  UNL d   1       4.123  -4.621   3.573  0.00  0.00    -0.005 A 
ATOM      6  C5  UNL d   1       4.271  -3.378   4.196  0.00  0.00    -0.074 A 
ATOM      7  C6  UNL d   1       5.586  -2.961   4.784  0.00  0.00     0.077 C 
ATOM      8  C7  UNL d   1       3.173  -2.509   4.255  0.00  0.00    -0.001 A 
ENDROOT
TORSDOF 0
ENDMDL
