MODEL 1
REMARK minimizedAffinity 1.60216427
REMARK minimizedRMSD -1
REMARK  0 active torsions:
REMARK  status: ('A' for Active; 'I' for Inactive)
ROOT
ATOM      1  C   UNL d   1       1.370  -1.108   1.828  0.00  0.00     0.077 C 
ATOM      2  C1  UNL d   1       2.105  -1.922   2.852  0.00  0.00    -0.074 A 
ATOM      3  C2  UNL d   1       1.441  -2.445   3.966  0.00  0.00    -0.005 A 
ATOM      4  C3  UNL d   1       2.135  -3.208   4.905  0.00  0.00     0.006 A 
ATOM      5  C4  UNL d   1       3.498  -3.455   4.739  0.00  0.00    -0.005 A 
ATOM      6  C5  UNL d   1       4.179  -2.941   3.631  0.00  0.00    -0.074 A 
ATOM      7  C6  UNL d   1       5.642  -3.206   3.432  0.00  0.00     0.077 C 
ATOM      8  C7  UNL d   1       3.473  -2.181   2.688  0.00  0.00    -0.001 A 
ENDROOT
TORSDOF 0
ENDMDL
