MODEL 1
REMARK minimizedAffinity 4.94508982
REMARK minimizedRMSD -1
REMARK  0 active torsions:
REMARK  status: ('A' for Active; 'I' for Inactive)
ROOT
ATOM      1  C   UNL d   1      -5.973   4.016  -0.726  0.00  0.00     0.077 C 
ATOM      2  C1  UNL d   1      -5.124   3.133  -1.592  0.00  0.00    -0.074 A 
ATOM      3  C2  UNL d   1      -4.062   2.401  -1.050  0.00  0.00    -0.005 A 
ATOM      4  C3  UNL d   1      -3.287   1.577  -1.866  0.00  0.00     0.006 A 
ATOM      5  C4  UNL d   1      -3.565   1.478  -3.230  0.00  0.00    -0.005 A 
ATOM      6  C5  UNL d   1      -4.623   2.201  -3.790  0.00  0.00    -0.074 A 
ATOM      7  C6  UNL d   1      -4.941   2.098  -5.252  0.00  0.00     0.077 C 
ATOM      8  C7  UNL d   1      -5.401   3.022  -2.962  0.00  0.00    -0.001 A 
ENDROOT
TORSDOF 0
ENDMDL
