MODEL 1
REMARK minimizedAffinity -2.7931304
REMARK minimizedRMSD -1
REMARK  0 active torsions:
REMARK  status: ('A' for Active; 'I' for Inactive)
ROOT
ATOM      1  N1  IND d   1       5.152  -0.957  -3.817  0.00  0.00    -0.196 N 
ATOM      2  C2  IND d   1       5.630   0.321  -3.746  0.00  0.00     0.054 A 
ATOM      3  C3  IND d   1       4.610   1.197  -3.603  0.00  0.00    -0.031 A 
ATOM      4  C4  IND d   1       2.088   0.745  -3.358  0.00  0.00     0.051 A 
ATOM      5  C5  IND d   1       1.165  -0.263  -3.398  0.00  0.00    -0.031 A 
ATOM      6  C6  IND d   1       1.532  -1.580  -3.580  0.00  0.00     0.015 A 
ATOM      7  C7  IND d   1       2.842  -1.942  -3.719  0.00  0.00    -0.016 A 
ATOM      8  C8  IND d   1       3.781  -0.921  -3.686  0.00  0.00    -0.047 A 
ATOM      9  C9  IND d   1       3.411   0.423  -3.544  0.00  0.00    -0.096 A 
ATOM     10  HN1 IND d   1       5.627  -1.666  -3.926  0.00  0.00     0.298 HD
ENDROOT
TORSDOF 0
ENDMDL
