MODEL 1
REMARK minimizedAffinity -4.97528839
REMARK minimizedRMSD -1
REMARK  0 active torsions:
REMARK  status: ('A' for Active; 'I' for Inactive)
ROOT
ATOM      1  N1  IND d   1      -0.006  -0.656   2.370  0.00  0.00    -0.196 N 
ATOM      2  C2  IND d   1      -1.280  -1.136   2.244  0.00  0.00     0.054 A 
ATOM      3  C3  IND d   1      -2.163  -0.280   2.805  0.00  0.00    -0.031 A 
ATOM      4  C4  IND d   1      -1.749   2.015   3.896  0.00  0.00     0.051 A 
ATOM      5  C5  IND d   1      -0.745   2.861   4.277  0.00  0.00    -0.031 A 
ATOM      6  C6  IND d   1       0.582   2.574   4.034  0.00  0.00     0.015 A 
ATOM      7  C7  IND d   1       0.957   1.430   3.388  0.00  0.00    -0.016 A 
ATOM      8  C8  IND d   1      -0.059   0.564   3.006  0.00  0.00    -0.047 A 
ATOM      9  C9  IND d   1      -1.405   0.830   3.288  0.00  0.00    -0.096 A 
ATOM     10  HN1 IND d   1       0.708  -1.050   2.097  0.00  0.00     0.298 HD
ENDROOT
TORSDOF 0
ENDMDL
