MODEL 1
REMARK minimizedAffinity -6.07873964
REMARK minimizedRMSD -1
REMARK  0 active torsions:
REMARK  status: ('A' for Active; 'I' for Inactive)
ROOT
ATOM      1  N1  IND d   1      -1.150   0.197  -1.048  0.00  0.00    -0.196 N 
ATOM      2  C2  IND d   1       0.208   0.063  -1.119  0.00  0.00     0.054 A 
ATOM      3  C3  IND d   1       0.730  -0.112   0.116  0.00  0.00    -0.031 A 
ATOM      4  C4  IND d   1      -0.471  -0.311   2.384  0.00  0.00     0.051 A 
ATOM      5  C5  IND d   1      -1.706  -0.217   2.962  0.00  0.00    -0.031 A 
ATOM      6  C6  IND d   1      -2.842   0.023   2.216  0.00  0.00     0.015 A 
ATOM      7  C7  IND d   1      -2.787   0.166   0.859  0.00  0.00    -0.016 A 
ATOM      8  C8  IND d   1      -1.533   0.077   0.270  0.00  0.00    -0.047 A 
ATOM      9  C9  IND d   1      -0.371  -0.123   1.026  0.00  0.00    -0.096 A 
ATOM     10  HN1 IND d   1      -1.677   0.333  -1.713  0.00  0.00     0.298 HD
ENDROOT
TORSDOF 0
ENDMDL
