MODEL 1
REMARK minimizedAffinity -4.36284161
REMARK minimizedRMSD -1
REMARK  0 active torsions:
REMARK  status: ('A' for Active; 'I' for Inactive)
ROOT
ATOM      1  N1  IND d   1       1.424   0.667   1.004  0.00  0.00    -0.196 N 
ATOM      2  C2  IND d   1       1.478   0.330   2.327  0.00  0.00     0.054 A 
ATOM      3  C3  IND d   1       0.293  -0.180   2.731  0.00  0.00    -0.031 A 
ATOM      4  C4  IND d   1      -1.839  -0.646   1.365  0.00  0.00     0.051 A 
ATOM      5  C5  IND d   1      -2.381  -0.472   0.123  0.00  0.00    -0.031 A 
ATOM      6  C6  IND d   1      -1.668   0.100  -0.911  0.00  0.00     0.015 A 
ATOM      7  C7  IND d   1      -0.376   0.510  -0.743  0.00  0.00    -0.016 A 
ATOM      8  C8  IND d   1       0.176   0.341   0.519  0.00  0.00    -0.047 A 
ATOM      9  C9  IND d   1      -0.557  -0.199   1.583  0.00  0.00    -0.096 A 
ATOM     10  HN1 IND d   1       2.062   1.023   0.550  0.00  0.00     0.298 HD
ENDROOT
TORSDOF 0
ENDMDL
