MODEL 1
REMARK minimizedAffinity -5.07062864
REMARK minimizedRMSD -1
REMARK  0 active torsions:
REMARK  status: ('A' for Active; 'I' for Inactive)
ROOT
ATOM      1  N1  IND d   1      -1.683   0.488  -0.680  0.00  0.00    -0.196 N 
ATOM      2  C2  IND d   1      -0.619   0.895  -1.437  0.00  0.00     0.054 A 
ATOM      3  C3  IND d   1       0.527   0.794  -0.728  0.00  0.00    -0.031 A 
ATOM      4  C4  IND d   1       0.905  -0.109   1.653  0.00  0.00     0.051 A 
ATOM      5  C5  IND d   1       0.232  -0.563   2.752  0.00  0.00    -0.031 A 
ATOM      6  C6  IND d   1      -1.142  -0.695   2.763  0.00  0.00     0.015 A 
ATOM      7  C7  IND d   1      -1.895  -0.388   1.665  0.00  0.00    -0.016 A 
ATOM      8  C8  IND d   1      -1.216   0.080   0.550  0.00  0.00    -0.047 A 
ATOM      9  C9  IND d   1       0.174   0.257   0.547  0.00  0.00    -0.096 A 
ATOM     10  HN1 IND d   1      -2.505   0.486  -0.931  0.00  0.00     0.298 HD
ENDROOT
TORSDOF 0
ENDMDL
