MODEL 1
REMARK minimizedAffinity 5.80621672
REMARK minimizedRMSD -1
REMARK  0 active torsions:
REMARK  status: ('A' for Active; 'I' for Inactive)
ROOT
ATOM      1  N1  IND d   1       1.670   2.241   1.411  0.00  0.00    -0.196 N 
ATOM      2  C2  IND d   1       1.593   2.757   0.147  0.00  0.00     0.054 A 
ATOM      3  C3  IND d   1       0.670   2.088  -0.579  0.00  0.00    -0.031 A 
ATOM      4  C4  IND d   1      -0.903   0.179   0.136  0.00  0.00     0.051 A 
ATOM      5  C5  IND d   1      -1.178  -0.655   1.182  0.00  0.00    -0.031 A 
ATOM      6  C6  IND d   1      -0.506  -0.563   2.384  0.00  0.00     0.015 A 
ATOM      7  C7  IND d   1       0.463   0.378   2.588  0.00  0.00    -0.016 A 
ATOM      8  C8  IND d   1       0.750   1.223   1.525  0.00  0.00    -0.047 A 
ATOM      9  C9  IND d   1       0.101   1.106   0.289  0.00  0.00    -0.096 A 
ATOM     10  HN1 IND d   1       2.204   2.508   2.030  0.00  0.00     0.298 HD
ENDROOT
TORSDOF 0
ENDMDL
