MODEL 1
REMARK minimizedAffinity 6.65171099
REMARK minimizedRMSD -1
REMARK  0 active torsions:
REMARK  status: ('A' for Active; 'I' for Inactive)
ROOT
ATOM      1  N1  IND d   1      -0.004   1.334  -0.971  0.00  0.00    -0.196 N 
ATOM      2  C2  IND d   1       1.239   1.902  -0.991  0.00  0.00     0.054 A 
ATOM      3  C3  IND d   1       1.873   1.689   0.184  0.00  0.00    -0.031 A 
ATOM      4  C4  IND d   1       1.098   0.349   2.241  0.00  0.00     0.051 A 
ATOM      5  C5  IND d   1       0.020  -0.323   2.744  0.00  0.00    -0.031 A 
ATOM      6  C6  IND d   1      -1.144  -0.483   2.020  0.00  0.00     0.015 A 
ATOM      7  C7  IND d   1      -1.269   0.016   0.754  0.00  0.00    -0.016 A 
ATOM      8  C8  IND d   1      -0.179   0.705   0.242  0.00  0.00    -0.047 A 
ATOM      9  C9  IND d   1       0.989   0.907   0.989  0.00  0.00    -0.096 A 
ATOM     10  HN1 IND d   1      -0.580   1.365  -1.609  0.00  0.00     0.298 HD
ENDROOT
TORSDOF 0
ENDMDL
