MODEL 1
REMARK minimizedAffinity -5.39237261
REMARK minimizedRMSD -1
REMARK  0 active torsions:
REMARK  status: ('A' for Active; 'I' for Inactive)
ROOT
ATOM      1  N1  IND d   1      -1.377   0.501  -0.414  0.00  0.00    -0.196 N 
ATOM      2  C2  IND d   1      -0.030   0.480  -0.645  0.00  0.00     0.054 A 
ATOM      3  C3  IND d   1       0.636   0.143   0.482  0.00  0.00    -0.031 A 
ATOM      4  C4  IND d   1      -0.289  -0.516   2.793  0.00  0.00     0.051 A 
ATOM      5  C5  IND d   1      -1.455  -0.608   3.500  0.00  0.00    -0.031 A 
ATOM      6  C6  IND d   1      -2.679  -0.333   2.926  0.00  0.00     0.015 A 
ATOM      7  C7  IND d   1      -2.785   0.036   1.615  0.00  0.00    -0.016 A 
ATOM      8  C8  IND d   1      -1.602   0.138   0.896  0.00  0.00    -0.047 A 
ATOM      9  C9  IND d   1      -0.353  -0.099   1.484  0.00  0.00    -0.096 A 
ATOM     10  HN1 IND d   1      -1.981   0.706  -0.990  0.00  0.00     0.298 HD
ENDROOT
TORSDOF 0
ENDMDL
