MODEL 1
REMARK minimizedAffinity -5.57385445
REMARK minimizedRMSD -1
REMARK  0 active torsions:
REMARK  status: ('A' for Active; 'I' for Inactive)
ROOT
ATOM      1  N1  IND d   1       4.357  -1.145  -4.225  0.00  0.00    -0.196 N 
ATOM      2  C2  IND d   1       4.842   0.112  -3.992  0.00  0.00     0.054 A 
ATOM      3  C3  IND d   1       3.851   0.927  -3.568  0.00  0.00    -0.031 A 
ATOM      4  C4  IND d   1       1.381   0.386  -3.087  0.00  0.00     0.051 A 
ATOM      5  C5  IND d   1       0.459  -0.619  -3.185  0.00  0.00    -0.031 A 
ATOM      6  C6  IND d   1       0.798  -1.877  -3.641  0.00  0.00     0.015 A 
ATOM      7  C7  IND d   1       2.078  -2.181  -4.008  0.00  0.00    -0.016 A 
ATOM      8  C8  IND d   1       3.015  -1.161  -3.916  0.00  0.00    -0.047 A 
ATOM      9  C9  IND d   1       2.668   0.129  -3.494  0.00  0.00    -0.096 A 
ATOM     10  HN1 IND d   1       4.814  -1.813  -4.516  0.00  0.00     0.298 HD
ENDROOT
TORSDOF 0
ENDMDL
