MODEL 1
REMARK minimizedAffinity 1.30844271
REMARK minimizedRMSD -1
REMARK  0 active torsions:
REMARK  status: ('A' for Active; 'I' for Inactive)
ROOT
ATOM      1  N1  IND d   1      -1.507   0.376  -0.391  0.00  0.00    -0.196 N 
ATOM      2  C2  IND d   1      -1.115  -0.440  -1.415  0.00  0.00     0.054 A 
ATOM      3  C3  IND d   1       0.058  -1.041  -1.115  0.00  0.00    -0.031 A 
ATOM      4  C4  IND d   1       1.458  -0.911   1.041  0.00  0.00     0.051 A 
ATOM      5  C5  IND d   1       1.525  -0.267   2.245  0.00  0.00    -0.031 A 
ATOM      6  C6  IND d   1       0.564   0.640   2.641  0.00  0.00     0.015 A 
ATOM      7  C7  IND d   1      -0.511   0.930   1.849  0.00  0.00    -0.016 A 
ATOM      8  C8  IND d   1      -0.578   0.284   0.623  0.00  0.00    -0.047 A 
ATOM      9  C9  IND d   1       0.417  -0.606   0.198  0.00  0.00    -0.096 A 
ATOM     10  HN1 IND d   1      -2.214   0.865  -0.381  0.00  0.00     0.298 HD
ENDROOT
TORSDOF 0
ENDMDL
