MODEL 1
REMARK minimizedAffinity 2.54200983
REMARK minimizedRMSD -1
REMARK  0 active torsions:
REMARK  status: ('A' for Active; 'I' for Inactive)
ROOT
ATOM      1  N1  IND d   1       0.835  -1.150   3.137  0.00  0.00    -0.196 N 
ATOM      2  C2  IND d   1      -0.373  -0.536   2.956  0.00  0.00     0.054 A 
ATOM      3  C3  IND d   1      -0.241   0.531   2.138  0.00  0.00    -0.031 A 
ATOM      4  C4  IND d   1       1.844   1.395   0.900  0.00  0.00     0.051 A 
ATOM      5  C5  IND d   1       3.189   1.185   0.779  0.00  0.00    -0.031 A 
ATOM      6  C6  IND d   1       3.831   0.163   1.449  0.00  0.00     0.015 A 
ATOM      7  C7  IND d   1       3.146  -0.697   2.260  0.00  0.00    -0.016 A 
ATOM      8  C8  IND d   1       1.781  -0.482   2.391  0.00  0.00    -0.047 A 
ATOM      9  C9  IND d   1       1.132   0.579   1.746  0.00  0.00    -0.096 A 
ATOM     10  HN1 IND d   1       0.979  -1.837   3.633  0.00  0.00     0.298 HD
ENDROOT
TORSDOF 0
ENDMDL
