MODEL 1
REMARK minimizedAffinity 2.41858172
REMARK minimizedRMSD -1
REMARK  0 active torsions:
REMARK  status: ('A' for Active; 'I' for Inactive)
ROOT
ATOM      1  N1  IND d   1      -3.458   0.081   1.085  0.00  0.00    -0.196 N 
ATOM      2  C2  IND d   1      -3.825   1.149   1.855  0.00  0.00     0.054 A 
ATOM      3  C3  IND d   1      -2.807   1.517   2.665  0.00  0.00    -0.031 A 
ATOM      4  C4  IND d   1      -0.417   0.573   2.818  0.00  0.00     0.051 A 
ATOM      5  C5  IND d   1       0.378  -0.431   2.339  0.00  0.00    -0.031 A 
ATOM      6  C6  IND d   1      -0.074  -1.331   1.396  0.00  0.00     0.015 A 
ATOM      7  C7  IND d   1      -1.339  -1.254   0.887  0.00  0.00    -0.016 A 
ATOM      8  C8  IND d   1      -2.151  -0.241   1.376  0.00  0.00    -0.047 A 
ATOM      9  C9  IND d   1      -1.712   0.649   2.364  0.00  0.00    -0.096 A 
ATOM     10  HN1 IND d   1      -3.960  -0.321   0.514  0.00  0.00     0.298 HD
ENDROOT
TORSDOF 0
ENDMDL
