MODEL 1
REMARK minimizedAffinity 4.91465139
REMARK minimizedRMSD -1
REMARK  0 active torsions:
REMARK  status: ('A' for Active; 'I' for Inactive)
ROOT
ATOM      1  N1  IND d   1      -2.984   0.797   0.637  0.00  0.00    -0.196 N 
ATOM      2  C2  IND d   1      -3.825   0.982   1.699  0.00  0.00     0.054 A 
ATOM      3  C3  IND d   1      -3.180   0.728   2.860  0.00  0.00    -0.031 A 
ATOM      4  C4  IND d   1      -0.717   0.093   3.257  0.00  0.00     0.051 A 
ATOM      5  C5  IND d   1       0.434  -0.228   2.592  0.00  0.00    -0.031 A 
ATOM      6  C6  IND d   1       0.506  -0.220   1.214  0.00  0.00     0.015 A 
ATOM      7  C7  IND d   1      -0.572   0.120   0.446  0.00  0.00    -0.016 A 
ATOM      8  C8  IND d   1      -1.743   0.440   1.118  0.00  0.00    -0.047 A 
ATOM      9  C9  IND d   1      -1.834   0.393   2.515  0.00  0.00    -0.096 A 
ATOM     10  HN1 IND d   1      -3.195   0.889  -0.191  0.00  0.00     0.298 HD
ENDROOT
TORSDOF 0
ENDMDL
