MODEL 1
REMARK minimizedAffinity 1.51467311
REMARK minimizedRMSD -1
REMARK  0 active torsions:
REMARK  status: ('A' for Active; 'I' for Inactive)
ROOT
ATOM      1  N1  IND d   1       1.928   2.318   2.016  0.00  0.00    -0.196 N 
ATOM      2  C2  IND d   1       1.927   2.435   3.378  0.00  0.00     0.054 A 
ATOM      3  C3  IND d   1       0.948   1.672   3.915  0.00  0.00    -0.031 A 
ATOM      4  C4  IND d   1      -0.702   0.074   2.754  0.00  0.00     0.051 A 
ATOM      5  C5  IND d   1      -1.110  -0.342   1.517  0.00  0.00    -0.031 A 
ATOM      6  C6  IND d   1      -0.512   0.115   0.360  0.00  0.00     0.015 A 
ATOM      7  C7  IND d   1       0.528   1.000   0.398  0.00  0.00    -0.016 A 
ATOM      8  C8  IND d   1       0.940   1.429   1.652  0.00  0.00    -0.047 A 
ATOM      9  C9  IND d   1       0.309   1.002   2.827  0.00  0.00    -0.096 A 
ATOM     10  HN1 IND d   1       2.457   2.730   1.478  0.00  0.00     0.298 HD
ENDROOT
TORSDOF 0
ENDMDL
