MODEL 1
REMARK minimizedAffinity 5.73863602
REMARK minimizedRMSD -1
REMARK  0 active torsions:
REMARK  status: ('A' for Active; 'I' for Inactive)
ROOT
ATOM      1  N1  IND d   1      -0.841  -1.616  -2.216  0.00  0.00    -0.196 N 
ATOM      2  C2  IND d   1      -0.154  -0.935  -3.182  0.00  0.00     0.054 A 
ATOM      3  C3  IND d   1       0.389   0.191  -2.668  0.00  0.00    -0.031 A 
ATOM      4  C4  IND d   1       0.364   1.061  -0.245  0.00  0.00     0.051 A 
ATOM      5  C5  IND d   1      -0.167   0.801   0.987  0.00  0.00    -0.031 A 
ATOM      6  C6  IND d   1      -0.963  -0.301   1.220  0.00  0.00     0.015 A 
ATOM      7  C7  IND d   1      -1.250  -1.195   0.228  0.00  0.00    -0.016 A 
ATOM      8  C8  IND d   1      -0.719  -0.931  -1.027  0.00  0.00    -0.047 A 
ATOM      9  C9  IND d   1       0.055   0.209  -1.279  0.00  0.00    -0.096 A 
ATOM     10  HN1 IND d   1      -1.276  -2.349  -2.331  0.00  0.00     0.298 HD
ENDROOT
TORSDOF 0
ENDMDL
