MODEL 1
REMARK minimizedAffinity -1.63625312
REMARK minimizedRMSD -1
REMARK  1 active torsions:
REMARK  status: ('A' for Active; 'I' for Inactive)
REMARK    1  A    between atoms: C1_2  and  C2_3 
ROOT
ATOM      1  C2  UNL d   1      -1.038  -0.502   2.409  0.00  0.00    -0.081 A 
ATOM      2  C3  UNL d   1      -1.098  -0.948   3.735  0.00  0.00     0.006 A 
ATOM      3  C4  UNL d   1       0.056  -1.390   4.387  0.00  0.00     0.002 A 
ATOM      4  C5  UNL d   1       1.290  -1.384   3.727  0.00  0.00    -0.080 A 
ATOM      5  C6  UNL d   1       2.541  -1.827   4.425  0.00  0.00     0.076 C 
ATOM      6  C7  UNL d   1       1.347  -0.955   2.397  0.00  0.00     0.002 A 
ATOM      7  C8  UNL d   1       0.194  -0.515   1.744  0.00  0.00     0.006 A 
ENDROOT
BRANCH   1   8
ATOM      8  C1  UNL d   1      -2.268   0.035   1.724  0.00  0.00     0.054 C 
ATOM      9  C   UNL d   1      -2.189  -0.154   0.216  0.00  0.00     0.018 C 
ENDBRANCH   1   8
TORSDOF 1
ENDMDL
