MODEL 1
REMARK minimizedAffinity -2.44799137
REMARK minimizedRMSD -1
REMARK  1 active torsions:
REMARK  status: ('A' for Active; 'I' for Inactive)
REMARK    1  A    between atoms: C1_2  and  C2_3 
ROOT
ATOM      1  C2  UNL d   1       0.562  -0.524   2.328  0.00  0.00    -0.081 A 
ATOM      2  C3  UNL d   1       0.856  -0.578   0.960  0.00  0.00     0.006 A 
ATOM      3  C4  UNL d   1      -0.093  -0.181   0.015  0.00  0.00     0.002 A 
ATOM      4  C5  UNL d   1      -1.348   0.284   0.422  0.00  0.00    -0.080 A 
ATOM      5  C6  UNL d   1      -2.365   0.742  -0.580  0.00  0.00     0.076 C 
ATOM      6  C7  UNL d   1      -1.648   0.321   1.788  0.00  0.00     0.002 A 
ATOM      7  C8  UNL d   1      -0.700  -0.077   2.733  0.00  0.00     0.006 A 
ENDROOT
BRANCH   1   8
ATOM      8  C1  UNL d   1       1.607  -0.891   3.351  0.00  0.00     0.054 C 
ATOM      9  C   UNL d   1       0.969  -1.434   4.622  0.00  0.00     0.018 C 
ENDBRANCH   1   8
TORSDOF 1
ENDMDL
