MODEL 1
REMARK minimizedAffinity -0.630702674
REMARK minimizedRMSD -1
REMARK  1 active torsions:
REMARK  status: ('A' for Active; 'I' for Inactive)
REMARK    1  A    between atoms: C1_2  and  C2_3 
ROOT
ATOM      1  C2  UNL d   1      -0.261  -0.829   3.314  0.00  0.00    -0.081 A 
ATOM      2  C3  UNL d   1      -1.638  -0.599   3.426  0.00  0.00     0.006 A 
ATOM      3  C4  UNL d   1      -2.390  -0.243   2.304  0.00  0.00     0.002 A 
ATOM      4  C5  UNL d   1      -1.781  -0.119   1.051  0.00  0.00    -0.080 A 
ATOM      5  C6  UNL d   1      -2.583   0.233  -0.167  0.00  0.00     0.076 C 
ATOM      6  C7  UNL d   1      -0.403  -0.332   0.942  0.00  0.00     0.002 A 
ATOM      7  C8  UNL d   1       0.350  -0.688   2.063  0.00  0.00     0.006 A 
ENDROOT
BRANCH   1   8
ATOM      8  C1  UNL d   1       0.542  -1.277   4.509  0.00  0.00     0.054 C 
ATOM      9  C   UNL d   1       2.022  -1.382   4.173  0.00  0.00     0.018 C 
ENDBRANCH   1   8
TORSDOF 1
ENDMDL
