MODEL 1
REMARK minimizedAffinity 7.39830875
REMARK minimizedRMSD -1
REMARK  1 active torsions:
REMARK  status: ('A' for Active; 'I' for Inactive)
REMARK    1  A    between atoms: C1_2  and  C2_3 
ROOT
ATOM      1  C2  UNL d   1      -0.582  -0.550   2.514  0.00  0.00    -0.081 A 
ATOM      2  C3  UNL d   1      -0.639  -1.117   3.792  0.00  0.00     0.006 A 
ATOM      3  C4  UNL d   1       0.532  -1.510   4.445  0.00  0.00     0.002 A 
ATOM      4  C5  UNL d   1       1.779  -1.334   3.835  0.00  0.00    -0.080 A 
ATOM      5  C6  UNL d   1       3.045  -1.723   4.537  0.00  0.00     0.076 C 
ATOM      6  C7  UNL d   1       1.834  -0.783   2.550  0.00  0.00     0.002 A 
ATOM      7  C8  UNL d   1       0.664  -0.391   1.896  0.00  0.00     0.006 A 
ENDROOT
BRANCH   1   8
ATOM      8  C1  UNL d   1      -1.837  -0.066   1.833  0.00  0.00     0.054 C 
ATOM      9  C   UNL d   1      -3.078  -0.696   2.449  0.00  0.00     0.018 C 
ENDBRANCH   1   8
TORSDOF 1
ENDMDL
