MODEL 1
REMARK minimizedAffinity -0.976217747
REMARK minimizedRMSD -1
REMARK  1 active torsions:
REMARK  status: ('A' for Active; 'I' for Inactive)
REMARK    1  A    between atoms: C1_2  and  C2_3 
ROOT
ATOM      1  C2  UNL d   1       0.010  -0.441   0.508  0.00  0.00    -0.081 A 
ATOM      2  C3  UNL d   1      -1.099   0.096   1.173  0.00  0.00     0.006 A 
ATOM      3  C4  UNL d   1      -2.375   0.003   0.611  0.00  0.00     0.002 A 
ATOM      4  C5  UNL d   1      -2.564  -0.635  -0.619  0.00  0.00    -0.080 A 
ATOM      5  C6  UNL d   1      -3.932  -0.768  -1.219  0.00  0.00     0.076 C 
ATOM      6  C7  UNL d   1      -1.453  -1.156  -1.292  0.00  0.00     0.002 A 
ATOM      7  C8  UNL d   1      -0.178  -1.063  -0.731  0.00  0.00     0.006 A 
ENDROOT
BRANCH   1   8
ATOM      8  C1  UNL d   1       1.377  -0.399   1.142  0.00  0.00     0.054 C 
ATOM      9  C   UNL d   1       2.432   0.072   0.151  0.00  0.00     0.018 C 
ENDBRANCH   1   8
TORSDOF 1
ENDMDL
