MODEL 1
REMARK minimizedAffinity -4.52174044
REMARK minimizedRMSD -1
REMARK  0 active torsions:
REMARK  status: ('A' for Active; 'I' for Inactive)
ROOT
ATOM      1  C4' PXY d   1      -0.786   1.548  -2.291  0.00  0.00     0.077 C 
ATOM      2  C1' PXY d   1       0.826  -1.533   2.327  0.00  0.00     0.077 C 
ATOM      3  C1  PXY d   1       0.415  -0.727   1.111  0.00  0.00    -0.082 A 
ATOM      4  C2  PXY d   1      -0.525   0.196   1.225  0.00  0.00     0.003 A 
ATOM      5  C3  PXY d   1      -0.932   0.912   0.128  0.00  0.00     0.003 A 
ATOM      6  C4  PXY d   1      -0.332   0.717  -1.087  0.00  0.00    -0.082 A 
ATOM      7  C5  PXY d   1       0.635  -0.217  -1.210  0.00  0.00     0.003 A 
ATOM      8  C6  PXY d   1       1.005  -0.961  -0.093  0.00  0.00     0.003 A 
ENDROOT
TORSDOF 0
ENDMDL
