MODEL 1
REMARK minimizedAffinity -0.322369635
REMARK minimizedRMSD -1
REMARK  0 active torsions:
REMARK  status: ('A' for Active; 'I' for Inactive)
ROOT
ATOM      1  C4' PXY d   1      -0.564   2.039  -2.356  0.00  0.00     0.077 C 
ATOM      2  C1' PXY d   1      -0.388  -1.233   2.406  0.00  0.00     0.077 C 
ATOM      3  C1  PXY d   1      -0.430  -0.385   1.150  0.00  0.00    -0.082 A 
ATOM      4  C2  PXY d   1      -0.367   0.933   1.248  0.00  0.00     0.003 A 
ATOM      5  C3  PXY d   1      -0.435   1.716   0.125  0.00  0.00     0.003 A 
ATOM      6  C4  PXY d   1      -0.515   1.143  -1.116  0.00  0.00    -0.082 A 
ATOM      7  C5  PXY d   1      -0.569  -0.201  -1.225  0.00  0.00     0.003 A 
ATOM      8  C6  PXY d   1      -0.540  -0.977  -0.070  0.00  0.00     0.003 A 
ENDROOT
TORSDOF 0
ENDMDL
