MODEL 1
REMARK minimizedAffinity -4.49297047
REMARK minimizedRMSD -1
REMARK  0 active torsions:
REMARK  status: ('A' for Active; 'I' for Inactive)
ROOT
ATOM      1  C4' PXY d   1      -1.130   1.366  -2.333  0.00  0.00     0.077 C 
ATOM      2  C1' PXY d   1       0.893  -1.138   2.468  0.00  0.00     0.077 C 
ATOM      3  C1  PXY d   1       0.374  -0.480   1.205  0.00  0.00    -0.082 A 
ATOM      4  C2  PXY d   1      -0.829   0.070   1.200  0.00  0.00     0.003 A 
ATOM      5  C3  PXY d   1      -1.326   0.642   0.057  0.00  0.00     0.003 A 
ATOM      6  C4  PXY d   1      -0.562   0.698  -1.078  0.00  0.00    -0.082 A 
ATOM      7  C5  PXY d   1       0.671   0.148  -1.078  0.00  0.00     0.003 A 
ATOM      8  C6  PXY d   1       1.141  -0.463   0.081  0.00  0.00     0.003 A 
ENDROOT
TORSDOF 0
ENDMDL
