MODEL 1
REMARK minimizedAffinity -3.61832905
REMARK minimizedRMSD -1
REMARK  0 active torsions:
REMARK  status: ('A' for Active; 'I' for Inactive)
ROOT
ATOM      1  C4' PXY d   1      -1.426   1.659  -2.199  0.00  0.00     0.077 C 
ATOM      2  C1' PXY d   1       2.354  -1.225   1.089  0.00  0.00     0.077 C 
ATOM      3  C1  PXY d   1       1.370  -0.472   0.216  0.00  0.00    -0.082 A 
ATOM      4  C2  PXY d   1       0.642   0.501   0.740  0.00  0.00     0.003 A 
ATOM      5  C3  PXY d   1      -0.276   1.171  -0.027  0.00  0.00     0.003 A 
ATOM      6  C4  PXY d   1      -0.412   0.878  -1.357  0.00  0.00    -0.082 A 
ATOM      7  C5  PXY d   1       0.334  -0.106  -1.902  0.00  0.00     0.003 A 
ATOM      8  C6  PXY d   1       1.231  -0.802  -1.097  0.00  0.00     0.003 A 
ENDROOT
TORSDOF 0
ENDMDL
