MODEL 1
REMARK minimizedAffinity -2.42996001
REMARK minimizedRMSD -1
REMARK  0 active torsions:
REMARK  status: ('A' for Active; 'I' for Inactive)
ROOT
ATOM      1  C4' PXY d   1       0.449  -1.484   2.527  0.00  0.00     0.077 C 
ATOM      2  C1' PXY d   1      -0.825   1.639  -2.168  0.00  0.00     0.077 C 
ATOM      3  C1  PXY d   1      -0.481   0.814  -0.943  0.00  0.00    -0.082 A 
ATOM      4  C2  PXY d   1      -1.401   0.607  -0.015  0.00  0.00     0.003 A 
ATOM      5  C3  PXY d   1      -1.098  -0.110   1.114  0.00  0.00     0.003 A 
ATOM      6  C4  PXY d   1       0.144  -0.665   1.270  0.00  0.00    -0.082 A 
ATOM      7  C5  PXY d   1       1.084  -0.467   0.322  0.00  0.00     0.003 A 
ATOM      8  C6  PXY d   1       0.769   0.298  -0.797  0.00  0.00     0.003 A 
ENDROOT
TORSDOF 0
ENDMDL
