MODEL 1
REMARK minimizedAffinity -4.11458445
REMARK minimizedRMSD -1
REMARK  0 active torsions:
REMARK  status: ('A' for Active; 'I' for Inactive)
ROOT
ATOM      1  C4' PXY d   1       0.897  -1.121   1.111  0.00  0.00     0.077 C 
ATOM      2  C1' PXY d   1      -0.835   3.284  -2.207  0.00  0.00     0.077 C 
ATOM      3  C1  PXY d   1      -0.393   2.125  -1.335  0.00  0.00    -0.082 A 
ATOM      4  C2  PXY d   1       0.795   2.160  -0.753  0.00  0.00     0.003 A 
ATOM      5  C3  PXY d   1       1.223   1.107   0.013  0.00  0.00     0.003 A 
ATOM      6  C4  PXY d   1       0.406   0.030   0.230  0.00  0.00    -0.082 A 
ATOM      7  C5  PXY d   1      -0.812  -0.009  -0.352  0.00  0.00     0.003 A 
ATOM      8  C6  PXY d   1      -1.211   1.052  -1.160  0.00  0.00     0.003 A 
ENDROOT
TORSDOF 0
ENDMDL
