MODEL 1
REMARK minimizedAffinity -4.33123922
REMARK minimizedRMSD -1
REMARK  0 active torsions:
REMARK  status: ('A' for Active; 'I' for Inactive)
ROOT
ATOM      1  C4' PXY d   1      -0.863   0.430  -1.342  0.00  0.00     0.077 C 
ATOM      2  C1' PXY d   1       2.229  -1.942   2.927  0.00  0.00     0.077 C 
ATOM      3  C1  PXY d   1       1.407  -1.324   1.814  0.00  0.00    -0.082 A 
ATOM      4  C2  PXY d   1       1.943  -1.169   0.614  0.00  0.00     0.003 A 
ATOM      5  C3  PXY d   1       1.224  -0.582  -0.396  0.00  0.00     0.003 A 
ATOM      6  C4  PXY d   1      -0.074  -0.198  -0.190  0.00  0.00    -0.082 A 
ATOM      7  C5  PXY d   1      -0.631  -0.363   1.028  0.00  0.00     0.003 A 
ATOM      8  C6  PXY d   1       0.129  -0.923   2.051  0.00  0.00     0.003 A 
ENDROOT
TORSDOF 0
ENDMDL
