MODEL 1
REMARK minimizedAffinity -0.902659655
REMARK minimizedRMSD -1
REMARK  0 active torsions:
REMARK  status: ('A' for Active; 'I' for Inactive)
ROOT
ATOM      1  C4' PXY d   1       0.343  -1.552   2.379  0.00  0.00     0.077 C 
ATOM      2  C1' PXY d   1      -1.206   1.626  -2.194  0.00  0.00     0.077 C 
ATOM      3  C1  PXY d   1      -0.789   0.788  -1.001  0.00  0.00    -0.082 A 
ATOM      4  C2  PXY d   1      -1.697   0.418  -0.112  0.00  0.00     0.003 A 
ATOM      5  C3  PXY d   1      -1.332  -0.312   0.989  0.00  0.00     0.003 A 
ATOM      6  C4  PXY d   1      -0.033  -0.714   1.154  0.00  0.00    -0.082 A 
ATOM      7  C5  PXY d   1       0.897  -0.350   0.246  0.00  0.00     0.003 A 
ATOM      8  C6  PXY d   1       0.513   0.427  -0.843  0.00  0.00     0.003 A 
ENDROOT
TORSDOF 0
ENDMDL
