MODEL 1
REMARK minimizedAffinity -1.62873685
REMARK minimizedRMSD -1
REMARK  0 active torsions:
REMARK  status: ('A' for Active; 'I' for Inactive)
ROOT
ATOM      1  C   UNL d   1      -0.207   0.489  -1.559  0.00  0.00     0.172 C 
ATOM      2  N   UNL d   1       0.056   0.397  -0.142  0.00  0.00    -0.070 N 
ATOM      3  C1  UNL d   1       1.236   0.720   0.473  0.00  0.00    -0.004 A 
ATOM      4  C2  UNL d   1       1.083   0.495   1.824  0.00  0.00    -0.047 A 
ATOM      5  C3  UNL d   1      -0.234   0.020   2.028  0.00  0.00    -0.047 A 
ATOM      6  C4  UNL d   1      -0.847  -0.031   0.794  0.00  0.00    -0.004 A 
ENDROOT
TORSDOF 0
ENDMDL
