MODEL 1
REMARK minimizedAffinity -0.658301532
REMARK minimizedRMSD -1
REMARK  0 active torsions:
REMARK  status: ('A' for Active; 'I' for Inactive)
ROOT
ATOM      1  C   UNL d   1      -2.618  -0.038   1.023  0.00  0.00     0.172 C 
ATOM      2  N   UNL d   1      -1.327   0.080   0.387  0.00  0.00    -0.070 N 
ATOM      3  C1  UNL d   1      -1.106   0.152  -0.963  0.00  0.00    -0.004 A 
ATOM      4  C2  UNL d   1       0.253   0.257  -1.163  0.00  0.00    -0.047 A 
ATOM      5  C3  UNL d   1       0.871   0.248   0.111  0.00  0.00    -0.047 A 
ATOM      6  C4  UNL d   1      -0.131   0.137   1.052  0.00  0.00    -0.004 A 
ENDROOT
TORSDOF 0
ENDMDL
