MODEL 1
REMARK minimizedAffinity -3.87125921
REMARK minimizedRMSD -1
REMARK  0 active torsions:
REMARK  status: ('A' for Active; 'I' for Inactive)
ROOT
ATOM      1  C   UNL d   1      -0.242   0.491  -1.074  0.00  0.00     0.172 C 
ATOM      2  N   UNL d   1      -0.324   0.162   0.330  0.00  0.00    -0.070 N 
ATOM      3  C1  UNL d   1      -1.439  -0.300   0.977  0.00  0.00    -0.004 A 
ATOM      4  C2  UNL d   1      -1.109  -0.493   2.301  0.00  0.00    -0.047 A 
ATOM      5  C3  UNL d   1       0.251  -0.134   2.455  0.00  0.00    -0.047 A 
ATOM      6  C4  UNL d   1       0.712   0.268   1.219  0.00  0.00    -0.004 A 
ENDROOT
TORSDOF 0
ENDMDL
