MODEL 1
REMARK minimizedAffinity -2.9980917
REMARK minimizedRMSD -1
REMARK  0 active torsions:
REMARK  status: ('A' for Active; 'I' for Inactive)
ROOT
ATOM      1  C   UNL d   1       0.312   0.181  -1.576  0.00  0.00     0.172 C 
ATOM      2  N   UNL d   1       0.275   0.252  -0.134  0.00  0.00    -0.070 N 
ATOM      3  C1  UNL d   1      -0.753  -0.178   0.661  0.00  0.00    -0.004 A 
ATOM      4  C2  UNL d   1      -0.403   0.065   1.972  0.00  0.00    -0.047 A 
ATOM      5  C3  UNL d   1       0.879   0.663   1.964  0.00  0.00    -0.047 A 
ATOM      6  C4  UNL d   1       1.276   0.767   0.648  0.00  0.00    -0.004 A 
ENDROOT
TORSDOF 0
ENDMDL
