MODEL 1
REMARK minimizedAffinity -2.17505264
REMARK minimizedRMSD -1
REMARK  0 active torsions:
REMARK  status: ('A' for Active; 'I' for Inactive)
ROOT
ATOM      1  C   UNL d   1       0.193   0.132   3.002  0.00  0.00     0.172 C 
ATOM      2  N   UNL d   1       0.075   0.150   1.563  0.00  0.00    -0.070 N 
ATOM      3  C1  UNL d   1       1.091   0.411   0.682  0.00  0.00    -0.004 A 
ATOM      4  C2  UNL d   1       0.575   0.332  -0.593  0.00  0.00    -0.047 A 
ATOM      5  C3  UNL d   1      -0.799   0.014  -0.475  0.00  0.00    -0.047 A 
ATOM      6  C4  UNL d   1      -1.081  -0.093   0.870  0.00  0.00    -0.004 A 
ENDROOT
TORSDOF 0
ENDMDL
