MODEL 1
REMARK minimizedAffinity -1.99788857
REMARK minimizedRMSD -1
REMARK  0 active torsions:
REMARK  status: ('A' for Active; 'I' for Inactive)
ROOT
ATOM      1  C   UNL d   1       0.844   0.933  -0.347  0.00  0.00     0.172 C 
ATOM      2  N   UNL d   1       0.808   0.270  -1.630  0.00  0.00    -0.070 N 
ATOM      3  C1  UNL d   1       1.831   0.234  -2.539  0.00  0.00    -0.004 A 
ATOM      4  C2  UNL d   1       1.403  -0.493  -3.629  0.00  0.00    -0.047 A 
ATOM      5  C3  UNL d   1       0.076  -0.908  -3.365  0.00  0.00    -0.047 A 
ATOM      6  C4  UNL d   1      -0.268  -0.421  -2.122  0.00  0.00    -0.004 A 
ENDROOT
TORSDOF 0
ENDMDL
