MODEL 1
REMARK minimizedAffinity -2.67375422
REMARK minimizedRMSD -1
REMARK  0 active torsions:
REMARK  status: ('A' for Active; 'I' for Inactive)
ROOT
ATOM      1  C   UNL d   1      -0.373   0.231  -0.683  0.00  0.00     0.172 C 
ATOM      2  N   UNL d   1       0.194  -0.378  -1.863  0.00  0.00    -0.070 N 
ATOM      3  C1  UNL d   1       1.432  -0.109  -2.383  0.00  0.00    -0.004 A 
ATOM      4  C2  UNL d   1       1.597  -0.891  -3.505  0.00  0.00    -0.047 A 
ATOM      5  C3  UNL d   1       0.418  -1.656  -3.666  0.00  0.00    -0.047 A 
ATOM      6  C4  UNL d   1      -0.434  -1.319  -2.635  0.00  0.00    -0.004 A 
ENDROOT
TORSDOF 0
ENDMDL
