MODEL 1
REMARK minimizedAffinity -1.93806696
REMARK minimizedRMSD -1
REMARK  0 active torsions:
REMARK  status: ('A' for Active; 'I' for Inactive)
ROOT
ATOM      1  C   UNL d   1       0.633   0.441   0.117  0.00  0.00     0.172 C 
ATOM      2  N   UNL d   1       0.614  -0.064  -1.235  0.00  0.00    -0.070 N 
ATOM      3  C1  UNL d   1       1.533   0.225  -2.209  0.00  0.00    -0.004 A 
ATOM      4  C2  UNL d   1       1.163  -0.451  -3.352  0.00  0.00    -0.047 A 
ATOM      5  C3  UNL d   1      -0.019  -1.170  -3.055  0.00  0.00    -0.047 A 
ATOM      6  C4  UNL d   1      -0.337  -0.912  -1.738  0.00  0.00    -0.004 A 
ENDROOT
TORSDOF 0
ENDMDL
