MODEL 1
REMARK minimizedAffinity -3.02454114
REMARK minimizedRMSD -1
REMARK  0 active torsions:
REMARK  status: ('A' for Active; 'I' for Inactive)
ROOT
ATOM      1  C   UNL d   1       0.082   0.484  -1.357  0.00  0.00     0.172 C 
ATOM      2  N   UNL d   1       0.244   0.193   0.048  0.00  0.00    -0.070 N 
ATOM      3  C1  UNL d   1       1.408   0.309   0.759  0.00  0.00    -0.004 A 
ATOM      4  C2  UNL d   1       1.147  -0.061   2.061  0.00  0.00    -0.047 A 
ATOM      5  C3  UNL d   1      -0.222  -0.413   2.135  0.00  0.00    -0.047 A 
ATOM      6  C4  UNL d   1      -0.757  -0.247   0.875  0.00  0.00    -0.004 A 
ENDROOT
TORSDOF 0
ENDMDL
