MODEL 1
REMARK minimizedAffinity -3.09719896
REMARK minimizedRMSD -1
REMARK  0 active torsions:
REMARK  status: ('A' for Active; 'I' for Inactive)
ROOT
ATOM      1  C   UNL d   1      -2.566   0.927  -0.047  0.00  0.00     0.172 C 
ATOM      2  N   UNL d   1      -1.238   0.865   0.518  0.00  0.00    -0.070 N 
ATOM      3  C1  UNL d   1      -0.942   0.684   1.843  0.00  0.00    -0.004 A 
ATOM      4  C2  UNL d   1       0.430   0.683   1.972  0.00  0.00    -0.047 A 
ATOM      5  C3  UNL d   1       0.977   0.871   0.681  0.00  0.00    -0.047 A 
ATOM      6  C4  UNL d   1      -0.078   0.980  -0.200  0.00  0.00    -0.004 A 
ENDROOT
TORSDOF 0
ENDMDL
