MODEL 1
REMARK minimizedAffinity -1.57220626
REMARK minimizedRMSD -1
REMARK  0 active torsions:
REMARK  status: ('A' for Active; 'I' for Inactive)
ROOT
ATOM      1  C   UNL d   1      -2.876   0.533   2.717  0.00  0.00     0.172 C 
ATOM      2  N   UNL d   1      -2.197   1.716   3.190  0.00  0.00    -0.070 N 
ATOM      3  C1  UNL d   1      -2.796   2.906   3.509  0.00  0.00    -0.004 A 
ATOM      4  C2  UNL d   1      -1.810   3.778   3.918  0.00  0.00    -0.047 A 
ATOM      5  C3  UNL d   1      -0.576   3.089   3.841  0.00  0.00    -0.047 A 
ATOM      6  C4  UNL d   1      -0.845   1.815   3.388  0.00  0.00    -0.004 A 
ENDROOT
TORSDOF 0
ENDMDL
