MODEL 1
REMARK minimizedAffinity -1.27164054
REMARK minimizedRMSD -1
REMARK  0 active torsions:
REMARK  status: ('A' for Active; 'I' for Inactive)
ROOT
ATOM      1  C   UNL d   1      -0.271   0.312  -0.924  0.00  0.00     0.172 C 
ATOM      2  N   UNL d   1       0.409  -0.294  -2.044  0.00  0.00    -0.070 N 
ATOM      3  C1  UNL d   1      -0.101  -1.274  -2.853  0.00  0.00    -0.004 A 
ATOM      4  C2  UNL d   1       0.853  -1.580  -3.799  0.00  0.00    -0.047 A 
ATOM      5  C3  UNL d   1       1.977  -0.756  -3.549  0.00  0.00    -0.047 A 
ATOM      6  C4  UNL d   1       1.675   0.030  -2.457  0.00  0.00    -0.004 A 
ENDROOT
TORSDOF 0
ENDMDL
