MODEL 1
REMARK minimizedAffinity -2.77993798
REMARK minimizedRMSD -1
REMARK  0 active torsions:
REMARK  status: ('A' for Active; 'I' for Inactive)
ROOT
ATOM      1  C   UNL d   1      -0.002  -0.002  -0.927  0.00  0.00     0.172 C 
ATOM      2  N   UNL d   1      -0.117   0.040   0.512  0.00  0.00    -0.070 N 
ATOM      3  C1  UNL d   1      -1.245   0.376   1.213  0.00  0.00    -0.004 A 
ATOM      4  C2  UNL d   1      -0.946   0.296   2.556  0.00  0.00    -0.047 A 
ATOM      5  C3  UNL d   1       0.408  -0.101   2.666  0.00  0.00    -0.047 A 
ATOM      6  C4  UNL d   1       0.897  -0.252   1.385  0.00  0.00    -0.004 A 
ENDROOT
TORSDOF 0
ENDMDL
