MODEL 1
REMARK minimizedAffinity 4.90365028
REMARK minimizedRMSD -1
REMARK  0 active torsions:
REMARK  status: ('A' for Active; 'I' for Inactive)
ROOT
ATOM      1  O1  BZF d   1       4.491  -3.212  -5.966  0.00  0.00    -0.204 OA
ATOM      2  C2  BZF d   1       3.118  -3.367  -5.945  0.00  0.00     0.174 A 
ATOM      3  C3  BZF d   1       2.502  -2.169  -5.884  0.00  0.00    -0.012 A 
ATOM      4  C3A BZF d   1       3.554  -1.201  -5.959  0.00  0.00    -0.107 A 
ATOM      5  C4  BZF d   1       3.575   0.164  -5.963  0.00  0.00     0.055 A 
ATOM      6  C5  BZF d   1       4.772   0.807  -5.973  0.00  0.00    -0.016 A 
ATOM      7  C6  BZF d   1       5.966   0.116  -5.975  0.00  0.00     0.022 A 
ATOM      8  C7  BZF d   1       5.996  -1.239  -5.977  0.00  0.00     0.029 A 
ATOM      9  C7A BZF d   1       4.788  -1.891  -6.000  0.00  0.00     0.058 A 
ENDROOT
TORSDOF 0
ENDMDL
