MODEL 1
REMARK minimizedAffinity -0.977229655
REMARK minimizedRMSD -1
REMARK  0 active torsions:
REMARK  status: ('A' for Active; 'I' for Inactive)
ROOT
ATOM      1  O1  BZF d   1       2.669   0.840  -2.823  0.00  0.00    -0.204 OA
ATOM      2  C2  BZF d   1       1.576   1.661  -3.022  0.00  0.00     0.174 A 
ATOM      3  C3  BZF d   1       1.900   2.951  -2.797  0.00  0.00    -0.012 A 
ATOM      4  C3A BZF d   1       3.305   2.944  -2.526  0.00  0.00    -0.107 A 
ATOM      5  C4  BZF d   1       4.211   3.926  -2.242  0.00  0.00     0.055 A 
ATOM      6  C5  BZF d   1       5.493   3.579  -1.955  0.00  0.00    -0.016 A 
ATOM      7  C6  BZF d   1       5.902   2.261  -1.938  0.00  0.00     0.022 A 
ATOM      8  C7  BZF d   1       5.040   1.253  -2.218  0.00  0.00     0.029 A 
ATOM      9  C7A BZF d   1       3.752   1.603  -2.540  0.00  0.00     0.058 A 
ENDROOT
TORSDOF 0
ENDMDL
