MODEL 1
REMARK minimizedAffinity 7.14322519
REMARK minimizedRMSD -1
REMARK  0 active torsions:
REMARK  status: ('A' for Active; 'I' for Inactive)
ROOT
ATOM      1  O1  BZF d   1       1.924   1.047   0.310  0.00  0.00    -0.204 OA
ATOM      2  C2  BZF d   1       1.614   2.178  -0.420  0.00  0.00     0.174 A 
ATOM      3  C3  BZF d   1       0.518   1.973  -1.178  0.00  0.00    -0.012 A 
ATOM      4  C3A BZF d   1       0.064   0.660  -0.836  0.00  0.00    -0.107 A 
ATOM      5  C4  BZF d   1      -0.992  -0.105  -1.243  0.00  0.00     0.055 A 
ATOM      6  C5  BZF d   1      -1.111  -1.373  -0.770  0.00  0.00    -0.016 A 
ATOM      7  C6  BZF d   1      -0.191  -1.910   0.107  0.00  0.00     0.022 A 
ATOM      8  C7  BZF d   1       0.870  -1.188   0.544  0.00  0.00     0.029 A 
ATOM      9  C7A BZF d   1       0.975   0.105   0.093  0.00  0.00     0.058 A 
ENDROOT
TORSDOF 0
ENDMDL
