MODEL 1
REMARK minimizedAffinity 12.9044762
REMARK minimizedRMSD -1
REMARK  0 active torsions:
REMARK  status: ('A' for Active; 'I' for Inactive)
ROOT
ATOM      1  O1  BZF d   1       2.470  -3.417   1.389  0.00  0.00    -0.204 OA
ATOM      2  C2  BZF d   1       2.306  -2.129   0.919  0.00  0.00     0.174 A 
ATOM      3  C3  BZF d   1       1.030  -1.919   0.534  0.00  0.00    -0.012 A 
ATOM      4  C3A BZF d   1       0.334  -3.125   0.865  0.00  0.00    -0.107 A 
ATOM      5  C4  BZF d   1      -0.966  -3.523   0.739  0.00  0.00     0.055 A 
ATOM      6  C5  BZF d   1      -1.305  -4.791   1.091  0.00  0.00    -0.016 A 
ATOM      7  C6  BZF d   1      -0.371  -5.687   1.566  0.00  0.00     0.022 A 
ATOM      8  C7  BZF d   1       0.930  -5.337   1.713  0.00  0.00     0.029 A 
ATOM      9  C7A BZF d   1       1.270  -4.046   1.390  0.00  0.00     0.058 A 
ENDROOT
TORSDOF 0
ENDMDL
