MODEL 1
REMARK minimizedAffinity 11.0029249
REMARK minimizedRMSD -1
REMARK  0 active torsions:
REMARK  status: ('A' for Active; 'I' for Inactive)
ROOT
ATOM      1  O1  BZF d   1       4.109   3.147  -4.090  0.00  0.00    -0.204 OA
ATOM      2  C2  BZF d   1       3.323   3.703  -5.080  0.00  0.00     0.174 A 
ATOM      3  C3  BZF d   1       2.067   3.911  -4.634  0.00  0.00    -0.012 A 
ATOM      4  C3A BZF d   1       2.093   3.541  -3.252  0.00  0.00    -0.107 A 
ATOM      5  C4  BZF d   1       1.152   3.540  -2.263  0.00  0.00     0.055 A 
ATOM      6  C5  BZF d   1       1.481   3.049  -1.039  0.00  0.00    -0.016 A 
ATOM      7  C6  BZF d   1       2.737   2.546  -0.772  0.00  0.00     0.022 A 
ATOM      8  C7  BZF d   1       3.706   2.531  -1.720  0.00  0.00     0.029 A 
ATOM      9  C7A BZF d   1       3.387   3.057  -2.948  0.00  0.00     0.058 A 
ENDROOT
TORSDOF 0
ENDMDL
