MODEL 1
REMARK minimizedAffinity -0.705547512
REMARK minimizedRMSD -1
REMARK  0 active torsions:
REMARK  status: ('A' for Active; 'I' for Inactive)
ROOT
ATOM      1  O1  BZF d   1       5.969  -0.101  -1.991  0.00  0.00    -0.204 OA
ATOM      2  C2  BZF d   1       5.924   1.275  -1.877  0.00  0.00     0.174 A 
ATOM      3  C3  BZF d   1       5.933   1.856  -3.094  0.00  0.00    -0.012 A 
ATOM      4  C3A BZF d   1       5.894   0.773  -4.028  0.00  0.00    -0.107 A 
ATOM      5  C4  BZF d   1       5.867   0.711  -5.392  0.00  0.00     0.055 A 
ATOM      6  C5  BZF d   1       5.906  -0.505  -5.998  0.00  0.00    -0.016 A 
ATOM      7  C6  BZF d   1       5.977  -1.676  -5.273  0.00  0.00     0.022 A 
ATOM      8  C7  BZF d   1       6.000  -1.665  -3.918  0.00  0.00     0.029 A 
ATOM      9  C7A BZF d   1       5.927  -0.439  -3.302  0.00  0.00     0.058 A 
ENDROOT
TORSDOF 0
ENDMDL
