MODEL 1
REMARK minimizedAffinity 2.04919767
REMARK minimizedRMSD -1
REMARK  0 active torsions:
REMARK  status: ('A' for Active; 'I' for Inactive)
ROOT
ATOM      1  O1  BZF d   1       1.336  -1.830  -1.332  0.00  0.00    -0.204 OA
ATOM      2  C2  BZF d   1       1.294  -2.148  -2.676  0.00  0.00     0.174 A 
ATOM      3  C3  BZF d   1       1.082  -1.045  -3.423  0.00  0.00    -0.012 A 
ATOM      4  C3A BZF d   1       1.077   0.043  -2.493  0.00  0.00    -0.107 A 
ATOM      5  C4  BZF d   1       0.927   1.394  -2.630  0.00  0.00     0.055 A 
ATOM      6  C5  BZF d   1       0.898   2.171  -1.516  0.00  0.00    -0.016 A 
ATOM      7  C6  BZF d   1       1.010   1.631  -0.251  0.00  0.00     0.022 A 
ATOM      8  C7  BZF d   1       1.165   0.298  -0.065  0.00  0.00     0.029 A 
ATOM      9  C7A BZF d   1       1.228  -0.487  -1.191  0.00  0.00     0.058 A 
ENDROOT
TORSDOF 0
ENDMDL
