MODEL 1
REMARK minimizedAffinity 2.1572299
REMARK minimizedRMSD -1
REMARK  0 active torsions:
REMARK  status: ('A' for Active; 'I' for Inactive)
ROOT
ATOM      1  O1  BZF d   1       1.488  -1.760  -3.409  0.00  0.00    -0.204 OA
ATOM      2  C2  BZF d   1       1.736  -0.785  -4.356  0.00  0.00     0.174 A 
ATOM      3  C3  BZF d   1       1.586   0.446  -3.827  0.00  0.00    -0.012 A 
ATOM      4  C3A BZF d   1       1.312   0.229  -2.440  0.00  0.00    -0.107 A 
ATOM      5  C4  BZF d   1       1.084   1.066  -1.385  0.00  0.00     0.055 A 
ATOM      6  C5  BZF d   1       0.775   0.533  -0.174  0.00  0.00    -0.016 A 
ATOM      7  C6  BZF d   1       0.680  -0.830   0.017  0.00  0.00     0.022 A 
ATOM      8  C7  BZF d   1       0.903  -1.700  -0.997  0.00  0.00     0.029 A 
ATOM      9  C7A BZF d   1       1.248  -1.166  -2.215  0.00  0.00     0.058 A 
ENDROOT
TORSDOF 0
ENDMDL
