MODEL 1
REMARK minimizedAffinity 3.24240136
REMARK minimizedRMSD -1
REMARK  0 active torsions:
REMARK  status: ('A' for Active; 'I' for Inactive)
ROOT
ATOM      1  O1  BZF d   1       0.742   1.671  -2.618  0.00  0.00    -0.204 OA
ATOM      2  C2  BZF d   1       0.552   1.944  -1.277  0.00  0.00     0.174 A 
ATOM      3  C3  BZF d   1       0.634   0.815  -0.543  0.00  0.00    -0.012 A 
ATOM      4  C3A BZF d   1       0.983  -0.214  -1.474  0.00  0.00    -0.107 A 
ATOM      5  C4  BZF d   1       1.222  -1.553  -1.347  0.00  0.00     0.055 A 
ATOM      6  C5  BZF d   1       1.466  -2.289  -2.463  0.00  0.00    -0.016 A 
ATOM      7  C6  BZF d   1       1.474  -1.721  -3.720  0.00  0.00     0.022 A 
ATOM      8  C7  BZF d   1       1.246  -0.396  -3.896  0.00  0.00     0.029 A 
ATOM      9  C7A BZF d   1       1.032   0.356  -2.767  0.00  0.00     0.058 A 
ENDROOT
TORSDOF 0
ENDMDL
