MODEL 1
REMARK minimizedAffinity 9.77962399
REMARK minimizedRMSD -1
REMARK  0 active torsions:
REMARK  status: ('A' for Active; 'I' for Inactive)
ROOT
ATOM      1  O1  BZF d   1      -2.817  -1.050   5.637  0.00  0.00    -0.204 OA
ATOM      2  C2  BZF d   1      -3.012   0.317   5.684  0.00  0.00     0.174 A 
ATOM      3  C3  BZF d   1      -4.095   0.671   4.964  0.00  0.00    -0.012 A 
ATOM      4  C3A BZF d   1      -4.664  -0.561   4.509  0.00  0.00    -0.107 A 
ATOM      5  C4  BZF d   1      -5.763  -0.867   3.759  0.00  0.00     0.055 A 
ATOM      6  C5  BZF d   1      -5.999  -2.164   3.431  0.00  0.00    -0.016 A 
ATOM      7  C6  BZF d   1      -5.154  -3.179   3.831  0.00  0.00     0.022 A 
ATOM      8  C7  BZF d   1      -4.054  -2.925   4.581  0.00  0.00     0.029 A 
ATOM      9  C7A BZF d   1      -3.831  -1.619   4.941  0.00  0.00     0.058 A 
ENDROOT
TORSDOF 0
ENDMDL
