MODEL 1
REMARK minimizedAffinity 4.06597185
REMARK minimizedRMSD -1
REMARK  0 active torsions:
REMARK  status: ('A' for Active; 'I' for Inactive)
ROOT
ATOM      1  O1  BZF d   1       1.409  -1.788  -1.633  0.00  0.00    -0.204 OA
ATOM      2  C2  BZF d   1       1.027  -1.767  -0.306  0.00  0.00     0.174 A 
ATOM      3  C3  BZF d   1       0.540  -0.556   0.033  0.00  0.00    -0.012 A 
ATOM      4  C3A BZF d   1       0.537   0.201  -1.181  0.00  0.00    -0.107 A 
ATOM      5  C4  BZF d   1       0.151   1.474  -1.493  0.00  0.00     0.055 A 
ATOM      6  C5  BZF d   1       0.346   1.932  -2.757  0.00  0.00    -0.016 A 
ATOM      7  C6  BZF d   1       0.930   1.149  -3.731  0.00  0.00     0.022 A 
ATOM      8  C7  BZF d   1       1.324  -0.122  -3.471  0.00  0.00     0.029 A 
ATOM      9  C7A BZF d   1       1.097  -0.599  -2.203  0.00  0.00     0.058 A 
ENDROOT
TORSDOF 0
ENDMDL
