MODEL 1
REMARK minimizedAffinity 2.38473392
REMARK minimizedRMSD -1
REMARK  0 active torsions:
REMARK  status: ('A' for Active; 'I' for Inactive)
ROOT
ATOM      1  O1  BZF d   1       1.006  -2.250  -2.007  0.00  0.00    -0.204 OA
ATOM      2  C2  BZF d   1       1.206  -2.460  -3.358  0.00  0.00     0.174 A 
ATOM      3  C3  BZF d   1       1.235  -1.288  -4.025  0.00  0.00    -0.012 A 
ATOM      4  C3A BZF d   1       1.133  -0.278  -3.016  0.00  0.00    -0.107 A 
ATOM      5  C4  BZF d   1       1.122   1.087  -3.051  0.00  0.00     0.055 A 
ATOM      6  C5  BZF d   1       0.936   1.776  -1.895  0.00  0.00    -0.016 A 
ATOM      7  C6  BZF d   1       0.752   1.133  -0.689  0.00  0.00     0.022 A 
ATOM      8  C7  BZF d   1       0.760  -0.219  -0.603  0.00  0.00     0.029 A 
ATOM      9  C7A BZF d   1       0.981  -0.918  -1.764  0.00  0.00     0.058 A 
ENDROOT
TORSDOF 0
ENDMDL
