MODEL 1
REMARK minimizedAffinity 8.08195877
REMARK minimizedRMSD -1
REMARK  0 active torsions:
REMARK  status: ('A' for Active; 'I' for Inactive)
ROOT
ATOM      1  O1  BZF d   1       5.758   2.439  -6.000  0.00  0.00    -0.204 OA
ATOM      2  C2  BZF d   1       6.000   1.147  -5.575  0.00  0.00     0.174 A 
ATOM      3  C3  BZF d   1       4.895   0.611  -5.018  0.00  0.00    -0.012 A 
ATOM      4  C3A BZF d   1       3.873   1.599  -5.183  0.00  0.00    -0.107 A 
ATOM      5  C4  BZF d   1       2.550   1.647  -4.849  0.00  0.00     0.055 A 
ATOM      6  C5  BZF d   1       1.850   2.788  -5.085  0.00  0.00    -0.016 A 
ATOM      7  C6  BZF d   1       2.442   3.900  -5.647  0.00  0.00     0.022 A 
ATOM      8  C7  BZF d   1       3.750   3.898  -6.000  0.00  0.00     0.029 A 
ATOM      9  C7A BZF d   1       4.452   2.736  -5.793  0.00  0.00     0.058 A 
ENDROOT
TORSDOF 0
ENDMDL
