MODEL 1
REMARK minimizedAffinity -2.79315329
REMARK minimizedRMSD -1
REMARK  0 active torsions:
REMARK  status: ('A' for Active; 'I' for Inactive)
ROOT
ATOM      1  O1  BZF d   1       1.392  -1.871  -1.343  0.00  0.00    -0.204 OA
ATOM      2  C2  BZF d   1       1.443  -2.347  -2.638  0.00  0.00     0.174 A 
ATOM      3  C3  BZF d   1       1.270  -1.345  -3.524  0.00  0.00    -0.012 A 
ATOM      4  C3A BZF d   1       1.192  -0.154  -2.734  0.00  0.00    -0.107 A 
ATOM      5  C4  BZF d   1       1.038   1.168  -3.041  0.00  0.00     0.055 A 
ATOM      6  C5  BZF d   1       0.927   2.071  -2.033  0.00  0.00    -0.016 A 
ATOM      7  C6  BZF d   1       0.960   1.688  -0.708  0.00  0.00     0.022 A 
ATOM      8  C7  BZF d   1       1.116   0.389  -0.354  0.00  0.00     0.029 A 
ATOM      9  C7A BZF d   1       1.262  -0.522  -1.371  0.00  0.00     0.058 A 
ENDROOT
TORSDOF 0
ENDMDL
