MODEL 1
REMARK minimizedAffinity -2.60862112
REMARK minimizedRMSD -1
REMARK  0 active torsions:
REMARK  status: ('A' for Active; 'I' for Inactive)
ROOT
ATOM      1  O1  BZF d   1       0.859   1.651  -3.278  0.00  0.00    -0.204 OA
ATOM      2  C2  BZF d   1       0.771   1.809  -1.909  0.00  0.00     0.174 A 
ATOM      3  C3  BZF d   1       0.893   0.622  -1.281  0.00  0.00    -0.012 A 
ATOM      4  C3A BZF d   1       1.160  -0.327  -2.318  0.00  0.00    -0.107 A 
ATOM      5  C4  BZF d   1       1.392  -1.672  -2.322  0.00  0.00     0.055 A 
ATOM      6  C5  BZF d   1       1.546  -2.312  -3.511  0.00  0.00    -0.016 A 
ATOM      7  C6  BZF d   1       1.468  -1.640  -4.713  0.00  0.00     0.022 A 
ATOM      8  C7  BZF d   1       1.245  -0.304  -4.759  0.00  0.00     0.029 A 
ATOM      9  C7A BZF d   1       1.122   0.351  -3.558  0.00  0.00     0.058 A 
ENDROOT
TORSDOF 0
ENDMDL
