MODEL 1
REMARK minimizedAffinity -0.951357603
REMARK minimizedRMSD -1
REMARK  0 active torsions:
REMARK  status: ('A' for Active; 'I' for Inactive)
ROOT
ATOM      1  C   UNL d   1      -0.830   0.674   1.502  0.00  0.00     0.020 A 
ATOM      2  C1  UNL d   1      -1.504  -0.543   1.409  0.00  0.00     0.020 A 
ATOM      3  C2  UNL d   1      -1.027  -1.542   0.558  0.00  0.00     0.034 A 
ATOM      4  C3  UNL d   1       0.127  -1.327  -0.203  0.00  0.00     0.017 A 
ATOM      5  C4  UNL d   1       0.804  -0.105  -0.109  0.00  0.00     0.017 A 
ATOM      6  C5  UNL d   1       0.322   0.892   0.745  0.00  0.00     0.034 A 
ATOM      7 Cl   UNL d   1       2.235   0.234  -1.016  0.00  0.00    -0.070 Cl
ATOM      8 Cl1  UNL d   1       0.661  -2.607  -1.234  0.00  0.00    -0.070 Cl
ENDROOT
TORSDOF 0
ENDMDL
