MODEL 1
REMARK minimizedAffinity -3.3718729
REMARK minimizedRMSD -1
REMARK  0 active torsions:
REMARK  status: ('A' for Active; 'I' for Inactive)
ROOT
ATOM      1  C   UNL d   1      -0.902  -0.295   1.500  0.00  0.00     0.020 A 
ATOM      2  C1  UNL d   1      -1.486  -1.458   0.999  0.00  0.00     0.020 A 
ATOM      3  C2  UNL d   1      -1.042  -1.997  -0.210  0.00  0.00     0.034 A 
ATOM      4  C3  UNL d   1      -0.011  -1.374  -0.922  0.00  0.00     0.017 A 
ATOM      5  C4  UNL d   1       0.575  -0.207  -0.419  0.00  0.00     0.017 A 
ATOM      6  C5  UNL d   1       0.126   0.329   0.792  0.00  0.00     0.034 A 
ATOM      7 Cl   UNL d   1       1.851   0.618  -1.241  0.00  0.00    -0.070 Cl
ATOM      8 Cl1  UNL d   1       0.488  -2.097  -2.410  0.00  0.00    -0.070 Cl
ENDROOT
TORSDOF 0
ENDMDL
