MODEL 1
REMARK minimizedAffinity -0.111311466
REMARK minimizedRMSD -1
REMARK  0 active torsions:
REMARK  status: ('A' for Active; 'I' for Inactive)
ROOT
ATOM      1  C   UNL d   1      -0.654  -0.649   0.237  0.00  0.00     0.020 A 
ATOM      2  C1  UNL d   1       0.125  -1.129   1.289  0.00  0.00     0.020 A 
ATOM      3  C2  UNL d   1       0.350  -0.331   2.412  0.00  0.00     0.034 A 
ATOM      4  C3  UNL d   1      -0.204   0.952   2.486  0.00  0.00     0.017 A 
ATOM      5  C4  UNL d   1      -0.985   1.434   1.430  0.00  0.00     0.017 A 
ATOM      6  C5  UNL d   1      -1.208   0.630   0.307  0.00  0.00     0.034 A 
ATOM      7 Cl   UNL d   1      -1.702   3.007   1.449  0.00  0.00    -0.070 Cl
ATOM      8 Cl1  UNL d   1       0.116   1.885   3.905  0.00  0.00    -0.070 Cl
ENDROOT
TORSDOF 0
ENDMDL
