MODEL 1
REMARK minimizedAffinity -2.03976727
REMARK minimizedRMSD -1
REMARK  0 active torsions:
REMARK  status: ('A' for Active; 'I' for Inactive)
ROOT
ATOM      1  C   UNL d   1      -0.763  -0.501   1.470  0.00  0.00     0.020 A 
ATOM      2  C1  UNL d   1      -1.363  -1.712   1.126  0.00  0.00     0.020 A 
ATOM      3  C2  UNL d   1      -0.894  -2.436   0.028  0.00  0.00     0.034 A 
ATOM      4  C3  UNL d   1       0.177  -1.951  -0.730  0.00  0.00     0.017 A 
ATOM      5  C4  UNL d   1       0.779  -0.735  -0.385  0.00  0.00     0.017 A 
ATOM      6  C5  UNL d   1       0.306  -0.014   0.716  0.00  0.00     0.034 A 
ATOM      7 Cl   UNL d   1       2.106  -0.072  -1.272  0.00  0.00    -0.070 Cl
ATOM      8 Cl1  UNL d   1       0.705  -2.899  -2.075  0.00  0.00    -0.070 Cl
ENDROOT
TORSDOF 0
ENDMDL
