MODEL 1
REMARK minimizedAffinity -5.34441137
REMARK minimizedRMSD -1
REMARK  0 active torsions:
REMARK  status: ('A' for Active; 'I' for Inactive)
ROOT
ATOM      1  C   UNL d   1      -2.000   1.889   1.311  0.00  0.00     0.020 A 
ATOM      2  C1  UNL d   1      -1.661   0.613   1.760  0.00  0.00     0.020 A 
ATOM      3  C2  UNL d   1      -0.553  -0.045   1.222  0.00  0.00     0.034 A 
ATOM      4  C3  UNL d   1       0.220   0.572   0.231  0.00  0.00     0.017 A 
ATOM      5  C4  UNL d   1      -0.122   1.852  -0.219  0.00  0.00     0.017 A 
ATOM      6  C5  UNL d   1      -1.232   2.507   0.323  0.00  0.00     0.034 A 
ATOM      7 Cl   UNL d   1       0.784   2.677  -1.439  0.00  0.00    -0.070 Cl
ATOM      8 Cl1  UNL d   1       1.576  -0.301  -0.390  0.00  0.00    -0.070 Cl
ENDROOT
TORSDOF 0
ENDMDL
