MODEL 1
REMARK minimizedAffinity -0.565105915
REMARK minimizedRMSD -1
REMARK  0 active torsions:
REMARK  status: ('A' for Active; 'I' for Inactive)
ROOT
ATOM      1  C   UNL d   1      -1.988   0.386   1.736  0.00  0.00     0.020 A 
ATOM      2  C1  UNL d   1      -2.142  -0.012   0.408  0.00  0.00     0.020 A 
ATOM      3  C2  UNL d   1      -1.046  -0.498  -0.307  0.00  0.00     0.034 A 
ATOM      4  C3  UNL d   1       0.210  -0.588   0.304  0.00  0.00     0.017 A 
ATOM      5  C4  UNL d   1       0.364  -0.189   1.637  0.00  0.00     0.017 A 
ATOM      6  C5  UNL d   1      -0.737   0.297   2.349  0.00  0.00     0.034 A 
ATOM      7 Cl   UNL d   1       1.882  -0.270   2.459  0.00  0.00    -0.070 Cl
ATOM      8 Cl1  UNL d   1       1.521  -1.199  -0.640  0.00  0.00    -0.070 Cl
ENDROOT
TORSDOF 0
ENDMDL
