MODEL 1
REMARK minimizedAffinity -1.92531657
REMARK minimizedRMSD -1
REMARK  0 active torsions:
REMARK  status: ('A' for Active; 'I' for Inactive)
ROOT
ATOM      1  C   UNL d   1      -1.804   0.214   2.167  0.00  0.00     0.020 A 
ATOM      2  C1  UNL d   1      -1.351  -1.028   1.723  0.00  0.00     0.020 A 
ATOM      3  C2  UNL d   1      -0.449  -1.102   0.659  0.00  0.00     0.034 A 
ATOM      4  C3  UNL d   1       0.003   0.067   0.036  0.00  0.00     0.017 A 
ATOM      5  C4  UNL d   1      -0.453   1.313   0.482  0.00  0.00     0.017 A 
ATOM      6  C5  UNL d   1      -1.356   1.381   1.547  0.00  0.00     0.034 A 
ATOM      7 Cl   UNL d   1       0.059   2.799  -0.237  0.00  0.00    -0.070 Cl
ATOM      8 Cl1  UNL d   1       1.118  -0.100  -1.273  0.00  0.00    -0.070 Cl
ENDROOT
TORSDOF 0
ENDMDL
