MODEL 1
REMARK minimizedAffinity -3.1584425
REMARK minimizedRMSD -1
REMARK  0 active torsions:
REMARK  status: ('A' for Active; 'I' for Inactive)
ROOT
ATOM      1  C   UNL d   1      -0.662  -0.094   1.477  0.00  0.00     0.020 A 
ATOM      2  C1  UNL d   1      -1.365  -1.219   1.048  0.00  0.00     0.020 A 
ATOM      3  C2  UNL d   1      -0.958  -1.900  -0.102  0.00  0.00     0.034 A 
ATOM      4  C3  UNL d   1       0.154  -1.457  -0.826  0.00  0.00     0.017 A 
ATOM      5  C4  UNL d   1       0.859  -0.327  -0.394  0.00  0.00     0.017 A 
ATOM      6  C5  UNL d   1       0.448   0.351   0.757  0.00  0.00     0.034 A 
ATOM      7 Cl   UNL d   1       2.242   0.280  -1.235  0.00  0.00    -0.070 Cl
ATOM      8 Cl1  UNL d   1       0.602  -2.348  -2.237  0.00  0.00    -0.070 Cl
ENDROOT
TORSDOF 0
ENDMDL
