MODEL 1
REMARK minimizedAffinity -3.35132885
REMARK minimizedRMSD -1
REMARK  0 active torsions:
REMARK  status: ('A' for Active; 'I' for Inactive)
ROOT
ATOM      1  C   UNL d   1      -0.915   2.607   1.052  0.00  0.00     0.020 A 
ATOM      2  C1  UNL d   1      -0.504   2.645  -0.279  0.00  0.00     0.020 A 
ATOM      3  C2  UNL d   1       0.029   1.502  -0.879  0.00  0.00     0.034 A 
ATOM      4  C3  UNL d   1       0.154   0.316  -0.146  0.00  0.00     0.017 A 
ATOM      5  C4  UNL d   1      -0.259   0.278   1.191  0.00  0.00     0.017 A 
ATOM      6  C5  UNL d   1      -0.792   1.426   1.786  0.00  0.00     0.034 A 
ATOM      7 Cl   UNL d   1      -0.137  -1.148   2.159  0.00  0.00    -0.070 Cl
ATOM      8 Cl1  UNL d   1       0.822  -1.059  -0.951  0.00  0.00    -0.070 Cl
ENDROOT
TORSDOF 0
ENDMDL
