MODEL 1
REMARK minimizedAffinity -2.66611791
REMARK minimizedRMSD -1
REMARK  0 active torsions:
REMARK  status: ('A' for Active; 'I' for Inactive)
ROOT
ATOM      1  C   UNL d   1      -0.553  -1.586   1.917  0.00  0.00     0.020 A 
ATOM      2  C1  UNL d   1      -1.302  -0.537   2.449  0.00  0.00     0.020 A 
ATOM      3  C2  UNL d   1      -1.217   0.737   1.884  0.00  0.00     0.034 A 
ATOM      4  C3  UNL d   1      -0.383   0.966   0.784  0.00  0.00     0.017 A 
ATOM      5  C4  UNL d   1       0.368  -0.088   0.250  0.00  0.00     0.017 A 
ATOM      6  C5  UNL d   1       0.279  -1.362   0.820  0.00  0.00     0.034 A 
ATOM      7 Cl   UNL d   1       1.419   0.116  -1.106  0.00  0.00    -0.070 Cl
ATOM      8 Cl1  UNL d   1      -0.328   2.566   0.135  0.00  0.00    -0.070 Cl
ENDROOT
TORSDOF 0
ENDMDL
