MODEL 1
REMARK minimizedAffinity -1.09469151
REMARK minimizedRMSD -1
REMARK  0 active torsions:
REMARK  status: ('A' for Active; 'I' for Inactive)
ROOT
ATOM      1  C   UNL d   1      -0.727   0.134   1.949  0.00  0.00     0.020 A 
ATOM      2  C1  UNL d   1       0.108  -0.766   1.288  0.00  0.00     0.020 A 
ATOM      3  C2  UNL d   1       0.879  -0.336   0.206  0.00  0.00     0.034 A 
ATOM      4  C3  UNL d   1       0.817   0.996  -0.218  0.00  0.00     0.017 A 
ATOM      5  C4  UNL d   1      -0.022   1.898   0.446  0.00  0.00     0.017 A 
ATOM      6  C5  UNL d   1      -0.792   1.463   1.529  0.00  0.00     0.034 A 
ATOM      7 Cl   UNL d   1      -0.153   3.557  -0.020  0.00  0.00    -0.070 Cl
ATOM      8 Cl1  UNL d   1       1.798   1.458  -1.563  0.00  0.00    -0.070 Cl
ENDROOT
TORSDOF 0
ENDMDL
