MODEL 1
REMARK minimizedAffinity -0.450431615
REMARK minimizedRMSD -1
REMARK  0 active torsions:
REMARK  status: ('A' for Active; 'I' for Inactive)
ROOT
ATOM      1  C   UNL d   1      -1.810   1.380   1.698  0.00  0.00     0.020 A 
ATOM      2  C1  UNL d   1      -1.387   0.060   1.547  0.00  0.00     0.020 A 
ATOM      3  C2  UNL d   1      -0.373  -0.249   0.638  0.00  0.00     0.034 A 
ATOM      4  C3  UNL d   1       0.222   0.764  -0.124  0.00  0.00     0.017 A 
ATOM      5  C4  UNL d   1      -0.204   2.088   0.028  0.00  0.00     0.017 A 
ATOM      6  C5  UNL d   1      -1.220   2.392   0.940  0.00  0.00     0.034 A 
ATOM      7 Cl   UNL d   1       0.482   3.392  -0.876  0.00  0.00    -0.070 Cl
ATOM      8 Cl1  UNL d   1       1.470   0.310  -1.229  0.00  0.00    -0.070 Cl
ENDROOT
TORSDOF 0
ENDMDL
