MODEL 1
REMARK minimizedAffinity -3.38703752
REMARK minimizedRMSD -1
REMARK  0 active torsions:
REMARK  status: ('A' for Active; 'I' for Inactive)
ROOT
ATOM      1  C   UNL d   1      -1.395   1.514   2.056  0.00  0.00     0.020 A 
ATOM      2  C1  UNL d   1      -0.982   0.186   2.155  0.00  0.00     0.020 A 
ATOM      3  C2  UNL d   1      -0.041  -0.321   1.256  0.00  0.00     0.034 A 
ATOM      4  C3  UNL d   1       0.491   0.501   0.256  0.00  0.00     0.017 A 
ATOM      5  C4  UNL d   1       0.076   1.834   0.157  0.00  0.00     0.017 A 
ATOM      6  C5  UNL d   1      -0.867   2.336   1.059  0.00  0.00     0.034 A 
ATOM      7 Cl   UNL d   1       0.686   2.908  -1.051  0.00  0.00    -0.070 Cl
ATOM      8 Cl1  UNL d   1       1.651  -0.192  -0.821  0.00  0.00    -0.070 Cl
ENDROOT
TORSDOF 0
ENDMDL
