MODEL 1
REMARK minimizedAffinity -1.40401351
REMARK minimizedRMSD -1
REMARK  0 active torsions:
REMARK  status: ('A' for Active; 'I' for Inactive)
ROOT
ATOM      1  C   UNL d   1      -0.610   0.034   1.643  0.00  0.00     0.020 A 
ATOM      2  C1  UNL d   1      -1.637  -0.743   1.108  0.00  0.00     0.020 A 
ATOM      3  C2  UNL d   1      -1.458  -1.389  -0.117  0.00  0.00     0.034 A 
ATOM      4  C3  UNL d   1      -0.249  -1.259  -0.811  0.00  0.00     0.017 A 
ATOM      5  C4  UNL d   1       0.781  -0.479  -0.273  0.00  0.00     0.017 A 
ATOM      6  C5  UNL d   1       0.596   0.165   0.955  0.00  0.00     0.034 A 
ATOM      7 Cl   UNL d   1       2.300  -0.272  -1.070  0.00  0.00    -0.070 Cl
ATOM      8 Cl1  UNL d   1      -0.096  -2.086  -2.320  0.00  0.00    -0.070 Cl
ENDROOT
TORSDOF 0
ENDMDL
