MODEL 1
REMARK minimizedAffinity -3.98044562
REMARK minimizedRMSD -1
REMARK  0 active torsions:
REMARK  status: ('A' for Active; 'I' for Inactive)
ROOT
ATOM      1  C   UNL d   1      -0.462  -0.715   1.060  0.00  0.00     0.020 A 
ATOM      2  C1  UNL d   1      -0.788  -2.037   0.757  0.00  0.00     0.020 A 
ATOM      3  C2  UNL d   1      -0.329  -2.614  -0.429  0.00  0.00     0.034 A 
ATOM      4  C3  UNL d   1       0.458  -1.871  -1.316  0.00  0.00     0.017 A 
ATOM      5  C4  UNL d   1       0.784  -0.544  -1.011  0.00  0.00     0.017 A 
ATOM      6  C5  UNL d   1       0.322   0.029   0.178  0.00  0.00     0.034 A 
ATOM      7 Cl   UNL d   1       1.751   0.436  -2.055  0.00  0.00    -0.070 Cl
ATOM      8 Cl1  UNL d   1       0.991  -2.649  -2.763  0.00  0.00    -0.070 Cl
ENDROOT
TORSDOF 0
ENDMDL
