MODEL 1
REMARK minimizedAffinity -4.51687527
REMARK minimizedRMSD -1
REMARK  0 active torsions:
REMARK  status: ('A' for Active; 'I' for Inactive)
ROOT
ATOM      1  C   UNL d   1      -0.831   2.662   1.176  0.00  0.00     0.020 A 
ATOM      2  C1  UNL d   1      -0.182   2.711  -0.057  0.00  0.00     0.020 A 
ATOM      3  C2  UNL d   1       0.429   1.565  -0.570  0.00  0.00     0.034 A 
ATOM      4  C3  UNL d   1       0.393   0.365   0.150  0.00  0.00     0.017 A 
ATOM      5  C4  UNL d   1      -0.259   0.317   1.387  0.00  0.00     0.017 A 
ATOM      6  C5  UNL d   1      -0.870   1.467   1.897  0.00  0.00     0.034 A 
ATOM      7 Cl   UNL d   1      -0.346  -1.127   2.333  0.00  0.00    -0.070 Cl
ATOM      8 Cl1  UNL d   1       1.170  -1.013  -0.546  0.00  0.00    -0.070 Cl
ENDROOT
TORSDOF 0
ENDMDL
