MODEL 1
REMARK minimizedAffinity -2.64264274
REMARK minimizedRMSD -1
REMARK  0 active torsions:
REMARK  status: ('A' for Active; 'I' for Inactive)
ROOT
ATOM      1  C   UNL d   1      -0.106   4.277   1.457  0.00  0.00     0.020 A 
ATOM      2  C1  UNL d   1      -0.782   3.310   2.200  0.00  0.00     0.020 A 
ATOM      3  C2  UNL d   1      -0.825   1.989   1.751  0.00  0.00     0.034 A 
ATOM      4  C3  UNL d   1      -0.190   1.630   0.556  0.00  0.00     0.017 A 
ATOM      5  C4  UNL d   1       0.488   2.602  -0.189  0.00  0.00     0.017 A 
ATOM      6  C5  UNL d   1       0.528   3.924   0.266  0.00  0.00     0.034 A 
ATOM      7 Cl   UNL d   1       1.295   2.236  -1.673  0.00  0.00    -0.070 Cl
ATOM      8 Cl1  UNL d   1      -0.284  -0.022   0.061  0.00  0.00    -0.070 Cl
ENDROOT
TORSDOF 0
ENDMDL
