MODEL 1
REMARK minimizedAffinity -4.77146912
REMARK minimizedRMSD -1
REMARK  0 active torsions:
REMARK  status: ('A' for Active; 'I' for Inactive)
ROOT
ATOM      1  C   UNL d   1      -1.549   2.861   1.112  0.00  0.00     0.020 A 
ATOM      2  C1  UNL d   1      -0.859   3.289  -0.021  0.00  0.00     0.020 A 
ATOM      3  C2  UNL d   1       0.087   2.455  -0.620  0.00  0.00     0.034 A 
ATOM      4  C3  UNL d   1       0.346   1.188  -0.085  0.00  0.00     0.017 A 
ATOM      5  C4  UNL d   1      -0.346   0.758   1.052  0.00  0.00     0.017 A 
ATOM      6  C5  UNL d   1      -1.293   1.598   1.648  0.00  0.00     0.034 A 
ATOM      7 Cl   UNL d   1      -0.080  -0.792   1.769  0.00  0.00    -0.070 Cl
ATOM      8 Cl1  UNL d   1       1.529   0.209  -0.878  0.00  0.00    -0.070 Cl
ENDROOT
TORSDOF 0
ENDMDL
