MODEL 1
REMARK minimizedAffinity -3.13639855
REMARK minimizedRMSD -1
REMARK  0 active torsions:
REMARK  status: ('A' for Active; 'I' for Inactive)
ROOT
ATOM      1  C1  BNZ d   1      -0.420   1.241  -0.788  0.00  0.00     0.000 A 
ATOM      2  C2  BNZ d   1       0.601   0.621  -1.457  0.00  0.00     0.000 A 
ATOM      3  C3  BNZ d   1       1.178  -0.514  -0.958  0.00  0.00     0.000 A 
ATOM      4  C4  BNZ d   1       0.760  -1.004   0.227  0.00  0.00     0.000 A 
ATOM      5  C5  BNZ d   1      -0.262  -0.385   0.918  0.00  0.00     0.000 A 
ATOM      6  C6  BNZ d   1      -0.867   0.735   0.394  0.00  0.00     0.000 A 
ENDROOT
TORSDOF 0
ENDMDL
