MODEL 1
REMARK minimizedAffinity -4.84643984
REMARK minimizedRMSD -1
REMARK  0 active torsions:
REMARK  status: ('A' for Active; 'I' for Inactive)
ROOT
ATOM      1  C1  BNZ d   1      -0.264  -0.408   1.359  0.00  0.00     0.000 A 
ATOM      2  C2  BNZ d   1      -1.221   0.558   1.520  0.00  0.00     0.000 A 
ATOM      3  C3  BNZ d   1      -1.506   1.436   0.511  0.00  0.00     0.000 A 
ATOM      4  C4  BNZ d   1      -0.807   1.372  -0.640  0.00  0.00     0.000 A 
ATOM      5  C5  BNZ d   1       0.168   0.409  -0.814  0.00  0.00     0.000 A 
ATOM      6  C6  BNZ d   1       0.425  -0.497   0.189  0.00  0.00     0.000 A 
ENDROOT
TORSDOF 0
ENDMDL
