MODEL 1
REMARK minimizedAffinity -5.10411358
REMARK minimizedRMSD -1
REMARK  0 active torsions:
REMARK  status: ('A' for Active; 'I' for Inactive)
ROOT
ATOM      1  C1  BNZ d   1      -0.799  -0.356   1.607  0.00  0.00     0.000 A 
ATOM      2  C2  BNZ d   1      -1.573   0.671   2.079  0.00  0.00     0.000 A 
ATOM      3  C3  BNZ d   1      -2.035   1.643   1.236  0.00  0.00     0.000 A 
ATOM      4  C4  BNZ d   1      -1.689   1.611  -0.067  0.00  0.00     0.000 A 
ATOM      5  C5  BNZ d   1      -0.901   0.587  -0.556  0.00  0.00     0.000 A 
ATOM      6  C6  BNZ d   1      -0.471  -0.411   0.287  0.00  0.00     0.000 A 
ENDROOT
TORSDOF 0
ENDMDL
