MODEL 1
REMARK minimizedAffinity -4.64541721
REMARK minimizedRMSD -1
REMARK  0 active torsions:
REMARK  status: ('A' for Active; 'I' for Inactive)
ROOT
ATOM      1  C1  BNZ d   1      -1.023   2.029   0.048  0.00  0.00     0.000 A 
ATOM      2  C2  BNZ d   1      -0.127   1.079  -0.367  0.00  0.00     0.000 A 
ATOM      3  C3  BNZ d   1       0.048  -0.075   0.344  0.00  0.00     0.000 A 
ATOM      4  C4  BNZ d   1      -0.642  -0.261   1.488  0.00  0.00     0.000 A 
ATOM      5  C5  BNZ d   1      -1.542   0.692   1.924  0.00  0.00     0.000 A 
ATOM      6  C6  BNZ d   1      -1.744   1.835   1.185  0.00  0.00     0.000 A 
ENDROOT
TORSDOF 0
ENDMDL
