MODEL 1
REMARK minimizedAffinity -1.66742826
REMARK minimizedRMSD -1
REMARK  0 active torsions:
REMARK  status: ('A' for Active; 'I' for Inactive)
ROOT
ATOM      1  C1  BNZ d   1      -0.243   0.010   2.158  0.00  0.00     0.000 A 
ATOM      2  C2  BNZ d   1      -0.980   1.161   2.254  0.00  0.00     0.000 A 
ATOM      3  C3  BNZ d   1      -1.332   1.862   1.134  0.00  0.00     0.000 A 
ATOM      4  C4  BNZ d   1      -0.914   1.434  -0.074  0.00  0.00     0.000 A 
ATOM      5  C5  BNZ d   1      -0.162   0.281  -0.187  0.00  0.00     0.000 A 
ATOM      6  C6  BNZ d   1       0.157  -0.443   0.939  0.00  0.00     0.000 A 
ENDROOT
TORSDOF 0
ENDMDL
