MODEL 1
REMARK minimizedAffinity -4.19690514
REMARK minimizedRMSD -1
REMARK  0 active torsions:
REMARK  status: ('A' for Active; 'I' for Inactive)
ROOT
ATOM      1  C1  BNZ d   1       0.183   0.623  -0.499  0.00  0.00     0.000 A 
ATOM      2  C2  BNZ d   1      -0.643   1.708  -0.373  0.00  0.00     0.000 A 
ATOM      3  C3  BNZ d   1      -1.385   1.895   0.760  0.00  0.00     0.000 A 
ATOM      4  C4  BNZ d   1      -1.330   0.978   1.747  0.00  0.00     0.000 A 
ATOM      5  C5  BNZ d   1      -0.509  -0.126   1.631  0.00  0.00     0.000 A 
ATOM      6  C6  BNZ d   1       0.265  -0.291   0.505  0.00  0.00     0.000 A 
ENDROOT
TORSDOF 0
ENDMDL
