MODEL 1
REMARK minimizedAffinity -2.30184364
REMARK minimizedRMSD -1
REMARK  0 active torsions:
REMARK  status: ('A' for Active; 'I' for Inactive)
ROOT
ATOM      1  C1  BNZ d   1      -0.618  -0.530   1.143  0.00  0.00     0.000 A 
ATOM      2  C2  BNZ d   1      -1.491   0.139   1.959  0.00  0.00     0.000 A 
ATOM      3  C3  BNZ d   1      -1.828   1.440   1.707  0.00  0.00     0.000 A 
ATOM      4  C4  BNZ d   1      -1.261   2.081   0.665  0.00  0.00     0.000 A 
ATOM      5  C5  BNZ d   1      -0.372   1.423  -0.161  0.00  0.00     0.000 A 
ATOM      6  C6  BNZ d   1      -0.066   0.102   0.073  0.00  0.00     0.000 A 
ENDROOT
TORSDOF 0
ENDMDL
