MODEL 1
REMARK minimizedAffinity -3.74795914
REMARK minimizedRMSD -1
REMARK  0 active torsions:
REMARK  status: ('A' for Active; 'I' for Inactive)
ROOT
ATOM      1  C1  BNZ d   1      -0.229  -0.887   1.630  0.00  0.00     0.000 A 
ATOM      2  C2  BNZ d   1      -0.971   0.232   1.902  0.00  0.00     0.000 A 
ATOM      3  C3  BNZ d   1      -1.279   1.124   0.913  0.00  0.00     0.000 A 
ATOM      4  C4  BNZ d   1      -0.813   0.918  -0.335  0.00  0.00     0.000 A 
ATOM      5  C5  BNZ d   1      -0.056  -0.201  -0.623  0.00  0.00     0.000 A 
ATOM      6  C6  BNZ d   1       0.219  -1.117   0.366  0.00  0.00     0.000 A 
ENDROOT
TORSDOF 0
ENDMDL
