MODEL 1
REMARK minimizedAffinity -4.42816019
REMARK minimizedRMSD -1
REMARK  0 active torsions:
REMARK  status: ('A' for Active; 'I' for Inactive)
ROOT
ATOM      1  C1  BNZ d   1      -0.394  -0.401   1.600  0.00  0.00     0.000 A 
ATOM      2  C2  BNZ d   1      -1.111   0.653   2.100  0.00  0.00     0.000 A 
ATOM      3  C3  BNZ d   1      -1.592   1.628   1.272  0.00  0.00     0.000 A 
ATOM      4  C4  BNZ d   1      -1.322   1.569  -0.048  0.00  0.00     0.000 A 
ATOM      5  C5  BNZ d   1      -0.593   0.518  -0.566  0.00  0.00     0.000 A 
ATOM      6  C6  BNZ d   1      -0.143  -0.482   0.265  0.00  0.00     0.000 A 
ENDROOT
TORSDOF 0
ENDMDL
