MODEL 1
REMARK minimizedAffinity -5.10346508
REMARK minimizedRMSD -1
REMARK  0 active torsions:
REMARK  status: ('A' for Active; 'I' for Inactive)
ROOT
ATOM      1  C1  BNZ d   1      -0.092  -0.138   1.790  0.00  0.00     0.000 A 
ATOM      2  C2  BNZ d   1      -1.123   0.647   2.235  0.00  0.00     0.000 A 
ATOM      3  C3  BNZ d   1      -1.736   1.538   1.399  0.00  0.00     0.000 A 
ATOM      4  C4  BNZ d   1      -1.292   1.672   0.132  0.00  0.00     0.000 A 
ATOM      5  C5  BNZ d   1      -0.248   0.895  -0.329  0.00  0.00     0.000 A 
ATOM      6  C6  BNZ d   1       0.341  -0.029   0.504  0.00  0.00     0.000 A 
ENDROOT
TORSDOF 0
ENDMDL
