MODEL 1
REMARK minimizedAffinity -3.02356648
REMARK minimizedRMSD -1
REMARK  0 active torsions:
REMARK  status: ('A' for Active; 'I' for Inactive)
ROOT
ATOM      1  C1  BNZ d   1      -0.998   0.741   2.016  0.00  0.00     0.000 A 
ATOM      2  C2  BNZ d   1       0.056  -0.058   1.660  0.00  0.00     0.000 A 
ATOM      3  C3  BNZ d   1       0.444  -0.164   0.354  0.00  0.00     0.000 A 
ATOM      4  C4  BNZ d   1      -0.246   0.496  -0.599  0.00  0.00     0.000 A 
ATOM      5  C5  BNZ d   1      -1.317   1.298  -0.257  0.00  0.00     0.000 A 
ATOM      6  C6  BNZ d   1      -1.680   1.434   1.063  0.00  0.00     0.000 A 
ENDROOT
TORSDOF 0
ENDMDL
