MODEL 1
REMARK minimizedAffinity -3.58682537
REMARK minimizedRMSD -1
REMARK  0 active torsions:
REMARK  status: ('A' for Active; 'I' for Inactive)
ROOT
ATOM      1  C1  BNZ d   1      -1.694   1.868   0.080  0.00  0.00     0.000 A 
ATOM      2  C2  BNZ d   1      -0.791   0.878  -0.205  0.00  0.00     0.000 A 
ATOM      3  C3  BNZ d   1      -0.330   0.047   0.777  0.00  0.00     0.000 A 
ATOM      4  C4  BNZ d   1      -0.739   0.232   2.049  0.00  0.00     0.000 A 
ATOM      5  C5  BNZ d   1      -1.641   1.232   2.354  0.00  0.00     0.000 A 
ATOM      6  C6  BNZ d   1      -2.134   2.041   1.356  0.00  0.00     0.000 A 
ENDROOT
TORSDOF 0
ENDMDL
