MODEL 1
REMARK minimizedAffinity -4.07980824
REMARK minimizedRMSD -1
REMARK  0 active torsions:
REMARK  status: ('A' for Active; 'I' for Inactive)
ROOT
ATOM      1  C1  BNZ d   1      -0.511   1.014  -0.614  0.00  0.00     0.000 A 
ATOM      2  C2  BNZ d   1       0.340  -0.044  -0.794  0.00  0.00     0.000 A 
ATOM      3  C3  BNZ d   1       0.527  -0.967   0.197  0.00  0.00     0.000 A 
ATOM      4  C4  BNZ d   1      -0.105  -0.810   1.378  0.00  0.00     0.000 A 
ATOM      5  C5  BNZ d   1      -0.959   0.256   1.577  0.00  0.00     0.000 A 
ATOM      6  C6  BNZ d   1      -1.175   1.162   0.564  0.00  0.00     0.000 A 
ENDROOT
TORSDOF 0
ENDMDL
