MODEL 1
REMARK minimizedAffinity -2.87809944
REMARK minimizedRMSD -1
REMARK  0 active torsions:
REMARK  status: ('A' for Active; 'I' for Inactive)
ROOT
ATOM      1  C   UNL d   1       0.670  -0.596  -0.841  0.00  0.00     0.172 C 
ATOM      2  N   UNL d   1      -0.066   0.238   0.080  0.00  0.00    -0.070 N 
ATOM      3  C1  UNL d   1       0.217   0.402   1.410  0.00  0.00    -0.004 A 
ATOM      4  C2  UNL d   1      -0.713   1.272   1.935  0.00  0.00    -0.047 A 
ATOM      5  C3  UNL d   1      -1.586   1.643   0.885  0.00  0.00    -0.047 A 
ATOM      6  C4  UNL d   1      -1.163   0.988  -0.252  0.00  0.00    -0.004 A 
ENDROOT
TORSDOF 0
ENDMDL
