MODEL 1
REMARK minimizedAffinity -1.32288742
REMARK minimizedRMSD -1
REMARK  0 active torsions:
REMARK  status: ('A' for Active; 'I' for Inactive)
ROOT
ATOM      1  C   UNL d   1       0.365  -0.850  -0.503  0.00  0.00     0.172 C 
ATOM      2  N   UNL d   1       0.376  -2.265  -0.788  0.00  0.00    -0.070 N 
ATOM      3  C1  UNL d   1      -0.608  -2.955  -1.445  0.00  0.00    -0.004 A 
ATOM      4  C2  UNL d   1      -0.222  -4.277  -1.514  0.00  0.00    -0.047 A 
ATOM      5  C3  UNL d   1       1.036  -4.385  -0.875  0.00  0.00    -0.047 A 
ATOM      6  C4  UNL d   1       1.383  -3.125  -0.435  0.00  0.00    -0.004 A 
ENDROOT
TORSDOF 0
ENDMDL
