MODEL 1
REMARK minimizedAffinity -3.67152905
REMARK minimizedRMSD -1
REMARK  0 active torsions:
REMARK  status: ('A' for Active; 'I' for Inactive)
ROOT
ATOM      1  C   UNL d   1       0.615  -1.225  -0.790  0.00  0.00     0.172 C 
ATOM      2  N   UNL d   1      -0.026  -0.082  -0.184  0.00  0.00    -0.070 N 
ATOM      3  C1  UNL d   1       0.012   0.243   1.146  0.00  0.00    -0.004 A 
ATOM      4  C2  UNL d   1      -0.719   1.398   1.319  0.00  0.00    -0.047 A 
ATOM      5  C3  UNL d   1      -1.214   1.780   0.050  0.00  0.00    -0.047 A 
ATOM      6  C4  UNL d   1      -0.770   0.847  -0.863  0.00  0.00    -0.004 A 
ENDROOT
TORSDOF 0
ENDMDL
