MODEL 1
REMARK minimizedAffinity -3.57598209
REMARK minimizedRMSD -1
REMARK  0 active torsions:
REMARK  status: ('A' for Active; 'I' for Inactive)
ROOT
ATOM      1  C   UNL d   1       0.010  -0.619  -0.673  0.00  0.00     0.172 C 
ATOM      2  N   UNL d   1      -0.318   0.408   0.288  0.00  0.00    -0.070 N 
ATOM      3  C1  UNL d   1       0.127   0.461   1.582  0.00  0.00    -0.004 A 
ATOM      4  C2  UNL d   1      -0.407   1.589   2.166  0.00  0.00    -0.047 A 
ATOM      5  C3  UNL d   1      -1.201   2.236   1.189  0.00  0.00    -0.047 A 
ATOM      6  C4  UNL d   1      -1.128   1.483   0.036  0.00  0.00    -0.004 A 
ENDROOT
TORSDOF 0
ENDMDL
