MODEL 1
REMARK minimizedAffinity -3.07838559
REMARK minimizedRMSD -1
REMARK  0 active torsions:
REMARK  status: ('A' for Active; 'I' for Inactive)
ROOT
ATOM      1  C   UNL d   1       0.029  -1.117  -0.846  0.00  0.00     0.172 C 
ATOM      2  N   UNL d   1      -0.230  -0.141   0.187  0.00  0.00    -0.070 N 
ATOM      3  C1  UNL d   1      -1.083   0.925   0.083  0.00  0.00    -0.004 A 
ATOM      4  C2  UNL d   1      -1.048   1.611   1.278  0.00  0.00    -0.047 A 
ATOM      5  C3  UNL d   1      -0.142   0.935   2.129  0.00  0.00    -0.047 A 
ATOM      6  C4  UNL d   1       0.350  -0.146   1.428  0.00  0.00    -0.004 A 
ENDROOT
TORSDOF 0
ENDMDL
