MODEL 1
REMARK minimizedAffinity -4.16681242
REMARK minimizedRMSD -1
REMARK  0 active torsions:
REMARK  status: ('A' for Active; 'I' for Inactive)
ROOT
ATOM      1  C   UNL d   1       0.128  -0.045   1.087  0.00  0.00     0.172 C 
ATOM      2  N   UNL d   1      -0.327   1.284   0.752  0.00  0.00    -0.070 N 
ATOM      3  C1  UNL d   1      -0.554   1.755  -0.513  0.00  0.00    -0.004 A 
ATOM      4  C2  UNL d   1      -0.978   3.063  -0.407  0.00  0.00    -0.047 A 
ATOM      5  C3  UNL d   1      -1.005   3.388   0.970  0.00  0.00    -0.047 A 
ATOM      6  C4  UNL d   1      -0.597   2.269   1.665  0.00  0.00    -0.004 A 
ENDROOT
TORSDOF 0
ENDMDL
