MODEL 1
REMARK minimizedAffinity -3.10164213
REMARK minimizedRMSD -1
REMARK  0 active torsions:
REMARK  status: ('A' for Active; 'I' for Inactive)
ROOT
ATOM      1  C   UNL d   1      -0.137  -0.147   0.072  0.00  0.00     0.172 C 
ATOM      2  N   UNL d   1      -0.117  -1.343  -0.737  0.00  0.00    -0.070 N 
ATOM      3  C1  UNL d   1      -1.122  -2.269  -0.818  0.00  0.00    -0.004 A 
ATOM      4  C2  UNL d   1      -0.718  -3.254  -1.693  0.00  0.00    -0.047 A 
ATOM      5  C3  UNL d   1       0.574  -2.908  -2.154  0.00  0.00    -0.047 A 
ATOM      6  C4  UNL d   1       0.922  -1.720  -1.547  0.00  0.00    -0.004 A 
ENDROOT
TORSDOF 0
ENDMDL
