MODEL 1
REMARK minimizedAffinity -3.55103898
REMARK minimizedRMSD -1
REMARK  0 active torsions:
REMARK  status: ('A' for Active; 'I' for Inactive)
ROOT
ATOM      1  C   UNL d   1       0.301  -0.399  -0.731  0.00  0.00     0.172 C 
ATOM      2  N   UNL d   1      -0.131   0.486   0.324  0.00  0.00    -0.070 N 
ATOM      3  C1  UNL d   1       0.369   0.514   1.599  0.00  0.00    -0.004 A 
ATOM      4  C2  UNL d   1      -0.304   1.493   2.296  0.00  0.00    -0.047 A 
ATOM      5  C3  UNL d   1      -1.242   2.074   1.410  0.00  0.00    -0.047 A 
ATOM      6  C4  UNL d   1      -1.114   1.432   0.197  0.00  0.00    -0.004 A 
ENDROOT
TORSDOF 0
ENDMDL
