MODEL 1
REMARK minimizedAffinity -1.32303512
REMARK minimizedRMSD -1
REMARK  0 active torsions:
REMARK  status: ('A' for Active; 'I' for Inactive)
ROOT
ATOM      1  C   UNL d   1      -1.453   2.058   2.110  0.00  0.00     0.172 C 
ATOM      2  N   UNL d   1      -0.758   1.188   1.190  0.00  0.00    -0.070 N 
ATOM      3  C1  UNL d   1       0.341   0.427   1.487  0.00  0.00    -0.004 A 
ATOM      4  C2  UNL d   1       0.701  -0.258   0.347  0.00  0.00    -0.047 A 
ATOM      5  C3  UNL d   1      -0.213   0.104  -0.671  0.00  0.00    -0.047 A 
ATOM      6  C4  UNL d   1      -1.105   1.000  -0.122  0.00  0.00    -0.004 A 
ENDROOT
TORSDOF 0
ENDMDL
