MODEL 1
REMARK minimizedAffinity -3.02190447
REMARK minimizedRMSD -1
REMARK  0 active torsions:
REMARK  status: ('A' for Active; 'I' for Inactive)
ROOT
ATOM      1  C   UNL d   1      -0.425   2.894   1.832  0.00  0.00     0.172 C 
ATOM      2  N   UNL d   1      -0.182   1.808   0.911  0.00  0.00    -0.070 N 
ATOM      3  C1  UNL d   1      -0.260   1.886  -0.454  0.00  0.00    -0.004 A 
ATOM      4  C2  UNL d   1       0.042   0.643  -0.966  0.00  0.00    -0.047 A 
ATOM      5  C3  UNL d   1       0.311  -0.212   0.129  0.00  0.00    -0.047 A 
ATOM      6  C4  UNL d   1       0.165   0.535   1.279  0.00  0.00    -0.004 A 
ENDROOT
TORSDOF 0
ENDMDL
