MODEL 1
REMARK minimizedAffinity -3.07365084
REMARK minimizedRMSD -1
REMARK  3 active torsions:
REMARK  status: ('A' for Active; 'I' for Inactive)
REMARK    1  A    between atoms: C3'_2  and  C2'_3 
REMARK    2  A    between atoms: C2'_3  and  C1'_4 
REMARK    3  A    between atoms: C1'_4  and  C1_5 
ROOT
ATOM      1  C1  N4B d   1       0.249  -0.388   0.171  0.00  0.00    -0.075 A 
ATOM      2  C2  N4B d   1      -0.073  -1.171   1.302  0.00  0.00     0.002 A 
ATOM      3  C3  N4B d   1      -0.790  -0.621   2.336  0.00  0.00     0.002 A 
ATOM      4  C4  N4B d   1      -1.178   0.708   2.271  0.00  0.00    -0.004 A 
ATOM      5  C5  N4B d   1      -0.886   1.451   1.164  0.00  0.00     0.002 A 
ATOM      6  C6  N4B d   1      -0.169   0.910   0.116  0.00  0.00     0.002 A 
ENDROOT
BRANCH   1   7
ATOM      7  C1' N4B d   1       1.104  -0.920  -0.946  0.00  0.00     0.057 C 
BRANCH   7   8
ATOM      8  C2' N4B d   1       0.204  -1.459  -2.053  0.00  0.00     0.009 C 
BRANCH   8   9
ATOM      9  C3' N4B d   1       0.678  -2.809  -2.564  0.00  0.00     0.004 C 
ATOM     10  C4' N4B d   1      -0.098  -3.954  -1.984  0.00  0.00     0.003 C 
ENDBRANCH   8   9
ENDBRANCH   7   8
ENDBRANCH   1   7
TORSDOF 3
ENDMDL
