MODEL 1
REMARK minimizedAffinity -6.5300746
REMARK minimizedRMSD -1
REMARK  3 active torsions:
REMARK  status: ('A' for Active; 'I' for Inactive)
REMARK    1  A    between atoms: C3'_2  and  C2'_3 
REMARK    2  A    between atoms: C2'_3  and  C1'_4 
REMARK    3  A    between atoms: C1'_4  and  C1_5 
ROOT
ATOM      1  C1  N4B d   1      -0.043   0.028  -1.748  0.00  0.00    -0.075 A 
ATOM      2  C2  N4B d   1       1.153  -0.616  -2.132  0.00  0.00     0.002 A 
ATOM      3  C3  N4B d   1       1.122  -1.917  -2.571  0.00  0.00     0.002 A 
ATOM      4  C4  N4B d   1      -0.086  -2.597  -2.616  0.00  0.00    -0.004 A 
ATOM      5  C5  N4B d   1      -1.241  -1.959  -2.267  0.00  0.00     0.002 A 
ATOM      6  C6  N4B d   1      -1.225  -0.651  -1.828  0.00  0.00     0.002 A 
ENDROOT
BRANCH   1   7
ATOM      7  C1' N4B d   1      -0.048   1.421  -1.180  0.00  0.00     0.057 C 
BRANCH   7   8
ATOM      8  C2' N4B d   1      -0.894   1.442   0.089  0.00  0.00     0.009 C 
BRANCH   8   9
ATOM      9  C3' N4B d   1      -1.223   2.858   0.530  0.00  0.00     0.004 C 
ATOM     10  C4' N4B d   1      -2.071   2.899   1.766  0.00  0.00     0.003 C 
ENDBRANCH   8   9
ENDBRANCH   7   8
ENDBRANCH   1   7
TORSDOF 3
ENDMDL
