MODEL 1
REMARK minimizedAffinity -3.33663106
REMARK minimizedRMSD -1
REMARK  3 active torsions:
REMARK  status: ('A' for Active; 'I' for Inactive)
REMARK    1  A    between atoms: C3'_2  and  C2'_3 
REMARK    2  A    between atoms: C2'_3  and  C1'_4 
REMARK    3  A    between atoms: C1'_4  and  C1_5 
ROOT
ATOM      1  C1  N4B d   1      -0.833   2.719   1.534  0.00  0.00    -0.075 A 
ATOM      2  C2  N4B d   1       0.266   2.333   2.333  0.00  0.00     0.002 A 
ATOM      3  C3  N4B d   1       0.332   2.729   3.646  0.00  0.00     0.002 A 
ATOM      4  C4  N4B d   1      -0.675   3.524   4.175  0.00  0.00    -0.004 A 
ATOM      5  C5  N4B d   1      -1.745   3.871   3.403  0.00  0.00     0.002 A 
ATOM      6  C6  N4B d   1      -1.827   3.476   2.083  0.00  0.00     0.002 A 
ENDROOT
BRANCH   1   7
ATOM      7  C1' N4B d   1      -0.907   2.382   0.070  0.00  0.00     0.057 C 
BRANCH   7   8
ATOM      8  C2' N4B d   1      -0.756   0.873  -0.105  0.00  0.00     0.009 C 
BRANCH   8   9
ATOM      9  C3' N4B d   1       0.292   0.524  -1.148  0.00  0.00     0.004 C 
ATOM     10  C4' N4B d   1       1.039  -0.734  -0.822  0.00  0.00     0.003 C 
ENDBRANCH   8   9
ENDBRANCH   7   8
ENDBRANCH   1   7
TORSDOF 3
ENDMDL
