MODEL 1
REMARK minimizedAffinity -5.93327856
REMARK minimizedRMSD -1
REMARK  3 active torsions:
REMARK  status: ('A' for Active; 'I' for Inactive)
REMARK    1  A    between atoms: C3'_2  and  C2'_3 
REMARK    2  A    between atoms: C2'_3  and  C1'_4 
REMARK    3  A    between atoms: C1'_4  and  C1_5 
ROOT
ATOM      1  C1  N4B d   1      -1.248   1.460   0.299  0.00  0.00    -0.075 A 
ATOM      2  C2  N4B d   1      -0.758   2.389  -0.645  0.00  0.00     0.002 A 
ATOM      3  C3  N4B d   1      -1.206   3.687  -0.627  0.00  0.00     0.002 A 
ATOM      4  C4  N4B d   1      -2.153   4.073   0.309  0.00  0.00    -0.004 A 
ATOM      5  C5  N4B d   1      -2.603   3.176   1.234  0.00  0.00     0.002 A 
ATOM      6  C6  N4B d   1      -2.158   1.869   1.230  0.00  0.00     0.002 A 
ENDROOT
BRANCH   1   7
ATOM      7  C1' N4B d   1      -0.853   0.009   0.264  0.00  0.00     0.057 C 
BRANCH   7   8
ATOM      8  C2' N4B d   1       0.515  -0.122  -0.399  0.00  0.00     0.009 C 
BRANCH   8   9
ATOM      9  C3' N4B d   1       1.532  -0.777   0.519  0.00  0.00     0.004 C 
ATOM     10  C4' N4B d   1       1.038  -0.912   1.929  0.00  0.00     0.003 C 
ENDBRANCH   8   9
ENDBRANCH   7   8
ENDBRANCH   1   7
TORSDOF 3
ENDMDL
