MODEL 1
REMARK minimizedAffinity -5.9760685
REMARK minimizedRMSD -1
REMARK  3 active torsions:
REMARK  status: ('A' for Active; 'I' for Inactive)
REMARK    1  A    between atoms: C3'_2  and  C2'_3 
REMARK    2  A    between atoms: C2'_3  and  C1'_4 
REMARK    3  A    between atoms: C1'_4  and  C1_5 
ROOT
ATOM      1  C1  N4B d   1      -0.914   1.144   0.622  0.00  0.00    -0.075 A 
ATOM      2  C2  N4B d   1      -2.001   1.597   1.402  0.00  0.00     0.002 A 
ATOM      3  C3  N4B d   1      -2.378   2.917   1.353  0.00  0.00     0.002 A 
ATOM      4  C4  N4B d   1      -1.675   3.802   0.549  0.00  0.00    -0.004 A 
ATOM      5  C5  N4B d   1      -0.643   3.351  -0.220  0.00  0.00     0.002 A 
ATOM      6  C6  N4B d   1      -0.255   2.027  -0.184  0.00  0.00     0.002 A 
ENDROOT
BRANCH   1   7
ATOM      7  C1' N4B d   1      -0.410  -0.271   0.707  0.00  0.00     0.057 C 
BRANCH   7   8
ATOM      8  C2' N4B d   1       0.430  -0.578  -0.529  0.00  0.00     0.009 C 
BRANCH   8   9
ATOM      9  C3' N4B d   1       0.397  -2.055  -0.885  0.00  0.00     0.004 C 
ATOM     10  C4' N4B d   1      -0.138  -2.308  -2.263  0.00  0.00     0.003 C 
ENDBRANCH   8   9
ENDBRANCH   7   8
ENDBRANCH   1   7
TORSDOF 3
ENDMDL
