MODEL 1
REMARK minimizedAffinity -5.58452368
REMARK minimizedRMSD -1
REMARK  3 active torsions:
REMARK  status: ('A' for Active; 'I' for Inactive)
REMARK    1  A    between atoms: C3'_2  and  C2'_3 
REMARK    2  A    between atoms: C2'_3  and  C1'_4 
REMARK    3  A    between atoms: C1'_4  and  C1_5 
ROOT
ATOM      1  C1  N4B d   1      -0.760   0.306   0.401  0.00  0.00    -0.075 A 
ATOM      2  C2  N4B d   1      -1.065   1.155  -0.685  0.00  0.00     0.002 A 
ATOM      3  C3  N4B d   1      -1.771   2.314  -0.474  0.00  0.00     0.002 A 
ATOM      4  C4  N4B d   1      -2.195   2.634   0.807  0.00  0.00    -0.004 A 
ATOM      5  C5  N4B d   1      -1.875   1.822   1.855  0.00  0.00     0.002 A 
ATOM      6  C6  N4B d   1      -1.163   0.656   1.657  0.00  0.00     0.002 A 
ENDROOT
BRANCH   1   7
ATOM      7  C1' N4B d   1      -0.066  -1.015   0.206  0.00  0.00     0.057 C 
BRANCH   7   8
ATOM      8  C2' N4B d   1       0.689  -0.993  -1.119  0.00  0.00     0.009 C 
BRANCH   8   9
ATOM      9  C3' N4B d   1       0.047  -1.900  -2.154  0.00  0.00     0.004 C 
ATOM     10  C4' N4B d   1       0.469  -3.332  -2.013  0.00  0.00     0.003 C 
ENDBRANCH   8   9
ENDBRANCH   7   8
ENDBRANCH   1   7
TORSDOF 3
ENDMDL
