MODEL 1
REMARK minimizedAffinity -5.79624176
REMARK minimizedRMSD -1
REMARK  3 active torsions:
REMARK  status: ('A' for Active; 'I' for Inactive)
REMARK    1  A    between atoms: C3'_2  and  C2'_3 
REMARK    2  A    between atoms: C2'_3  and  C1'_4 
REMARK    3  A    between atoms: C1'_4  and  C1_5 
ROOT
ATOM      1  C1  N4B d   1      -0.742   1.060   0.111  0.00  0.00    -0.075 A 
ATOM      2  C2  N4B d   1      -0.288   2.108  -0.719  0.00  0.00     0.002 A 
ATOM      3  C3  N4B d   1      -0.694   3.399  -0.480  0.00  0.00     0.002 A 
ATOM      4  C4  N4B d   1      -1.563   3.661   0.568  0.00  0.00    -0.004 A 
ATOM      5  C5  N4B d   1      -1.977   2.647   1.381  0.00  0.00     0.002 A 
ATOM      6  C6  N4B d   1      -1.574   1.346   1.155  0.00  0.00     0.002 A 
ENDROOT
BRANCH   1   7
ATOM      7  C1' N4B d   1      -0.395  -0.377  -0.163  0.00  0.00     0.057 C 
BRANCH   7   8
ATOM      8  C2' N4B d   1       1.121  -0.543  -0.123  0.00  0.00     0.009 C 
BRANCH   8   9
ATOM      9  C3' N4B d   1       1.683  -0.962  -1.471  0.00  0.00     0.004 C 
ATOM     10  C4' N4B d   1       1.588  -2.440  -1.706  0.00  0.00     0.003 C 
ENDBRANCH   8   9
ENDBRANCH   7   8
ENDBRANCH   1   7
TORSDOF 3
ENDMDL
