MODEL 1
REMARK minimizedAffinity -3.57839203
REMARK minimizedRMSD -1
REMARK  3 active torsions:
REMARK  status: ('A' for Active; 'I' for Inactive)
REMARK    1  A    between atoms: C3'_2  and  C2'_3 
REMARK    2  A    between atoms: C2'_3  and  C1'_4 
REMARK    3  A    between atoms: C1'_4  and  C1_5 
ROOT
ATOM      1  C1  N4B d   1      -0.502   1.884   0.994  0.00  0.00    -0.075 A 
ATOM      2  C2  N4B d   1       0.151   1.806  -0.256  0.00  0.00     0.002 A 
ATOM      3  C3  N4B d   1       0.441   2.954  -0.952  0.00  0.00     0.002 A 
ATOM      4  C4  N4B d   1       0.073   4.184  -0.430  0.00  0.00    -0.004 A 
ATOM      5  C5  N4B d   1      -0.534   4.253   0.790  0.00  0.00     0.002 A 
ATOM      6  C6  N4B d   1      -0.828   3.108   1.503  0.00  0.00     0.002 A 
ENDROOT
BRANCH   1   7
ATOM      7  C1' N4B d   1      -0.917   0.653   1.752  0.00  0.00     0.057 C 
BRANCH   7   8
ATOM      8  C2' N4B d   1       0.037  -0.489   1.413  0.00  0.00     0.009 C 
BRANCH   8   9
ATOM      9  C3' N4B d   1      -0.392  -1.235   0.161  0.00  0.00     0.004 C 
ATOM     10  C4' N4B d   1       0.769  -1.754  -0.632  0.00  0.00     0.003 C 
ENDBRANCH   8   9
ENDBRANCH   7   8
ENDBRANCH   1   7
TORSDOF 3
ENDMDL
