MODEL 1
REMARK minimizedAffinity -5.38278008
REMARK minimizedRMSD -1
REMARK  3 active torsions:
REMARK  status: ('A' for Active; 'I' for Inactive)
REMARK    1  A    between atoms: C3'_2  and  C2'_3 
REMARK    2  A    between atoms: C2'_3  and  C1'_4 
REMARK    3  A    between atoms: C1'_4  and  C1_5 
ROOT
ATOM      1  C1  N4B d   1       0.470   0.486   0.049  0.00  0.00    -0.075 A 
ATOM      2  C2  N4B d   1       0.461   1.767  -0.547  0.00  0.00     0.002 A 
ATOM      3  C3  N4B d   1      -0.171   2.812   0.081  0.00  0.00     0.002 A 
ATOM      4  C4  N4B d   1      -0.814   2.598   1.291  0.00  0.00    -0.004 A 
ATOM      5  C5  N4B d   1      -0.779   1.364   1.873  0.00  0.00     0.002 A 
ATOM      6  C6  N4B d   1      -0.144   0.305   1.255  0.00  0.00     0.002 A 
ENDROOT
BRANCH   1   7
ATOM      7  C1' N4B d   1       1.074  -0.706  -0.640  0.00  0.00     0.057 C 
BRANCH   7   8
ATOM      8  C2' N4B d   1      -0.042  -1.553  -1.245  0.00  0.00     0.009 C 
BRANCH   8   9
ATOM      9  C3' N4B d   1       0.441  -2.942  -1.626  0.00  0.00     0.004 C 
ATOM     10  C4' N4B d   1       1.722  -3.319  -0.943  0.00  0.00     0.003 C 
ENDBRANCH   8   9
ENDBRANCH   7   8
ENDBRANCH   1   7
TORSDOF 3
ENDMDL
