MODEL 1
REMARK minimizedAffinity -0.167285055
REMARK minimizedRMSD -1
REMARK  1 active torsions:
REMARK  status: ('A' for Active; 'I' for Inactive)
REMARK    1  A    between atoms: C1_2  and  C2_3 
ROOT
ATOM      1  C2  UNL d   1       0.468   0.686  -0.273  0.00  0.00    -0.076 A 
ATOM      2  C3  UNL d   1       1.016   1.579   0.664  0.00  0.00     0.004 A 
ATOM      3  C4  UNL d   1       1.521   1.123   1.880  0.00  0.00    -0.003 A 
ATOM      4  C5  UNL d   1       1.488  -0.235   2.179  0.00  0.00     0.000 A 
ATOM      5  C6  UNL d   1       0.964  -1.137   1.254  0.00  0.00     0.000 A 
ATOM      6  C7  UNL d   1       0.466  -0.695   0.016  0.00  0.00    -0.073 A 
ATOM      7  C8  UNL d   1      -0.093  -1.712  -0.941  0.00  0.00     0.078 C 
ENDROOT
BRANCH   1   8
ATOM      8  C1  UNL d   1      -0.089   1.242  -1.564  0.00  0.00     0.053 C 
ATOM      9  C   UNL d   1       0.952   1.301  -2.671  0.00  0.00     0.018 C 
ENDBRANCH   1   8
TORSDOF 1
ENDMDL
