MODEL 1
REMARK minimizedAffinity -2.97419524
REMARK minimizedRMSD -1
REMARK  1 active torsions:
REMARK  status: ('A' for Active; 'I' for Inactive)
REMARK    1  A    between atoms: C1_2  and  C2_3 
ROOT
ATOM      1  C2  UNL d   1      -1.643  -0.875  -0.085  0.00  0.00    -0.076 A 
ATOM      2  C3  UNL d   1      -2.726  -1.771  -0.058  0.00  0.00     0.004 A 
ATOM      3  C4  UNL d   1      -2.624  -3.036  -0.634  0.00  0.00    -0.003 A 
ATOM      4  C5  UNL d   1      -1.438  -3.426  -1.246  0.00  0.00     0.000 A 
ATOM      5  C6  UNL d   1      -0.348  -2.557  -1.267  0.00  0.00     0.000 A 
ATOM      6  C7  UNL d   1      -0.429  -1.284  -0.676  0.00  0.00    -0.073 A 
ATOM      7  C8  UNL d   1       0.776  -0.384  -0.733  0.00  0.00     0.078 C 
ENDROOT
BRANCH   1   8
ATOM      8  C1  UNL d   1      -1.821   0.494   0.532  0.00  0.00     0.053 C 
ATOM      9  C   UNL d   1      -1.633   0.481   2.041  0.00  0.00     0.018 C 
ENDBRANCH   1   8
TORSDOF 1
ENDMDL
