MODEL 1
REMARK minimizedAffinity -4.11708546
REMARK minimizedRMSD -1
REMARK  1 active torsions:
REMARK  status: ('A' for Active; 'I' for Inactive)
REMARK    1  A    between atoms: C1_2  and  C2_3 
ROOT
ATOM      1  C2  UNL d   1       0.293   0.240   0.346  0.00  0.00    -0.076 A 
ATOM      2  C3  UNL d   1       1.174   0.949   1.182  0.00  0.00     0.004 A 
ATOM      3  C4  UNL d   1       0.711   1.602   2.323  0.00  0.00    -0.003 A 
ATOM      4  C5  UNL d   1      -0.640   1.557   2.647  0.00  0.00     0.000 A 
ATOM      5  C6  UNL d   1      -1.526   0.844   1.839  0.00  0.00     0.000 A 
ATOM      6  C7  UNL d   1      -1.073   0.166   0.694  0.00  0.00    -0.073 A 
ATOM      7  C8  UNL d   1      -2.072  -0.582  -0.144  0.00  0.00     0.078 C 
ENDROOT
BRANCH   1   8
ATOM      8  C1  UNL d   1       0.848  -0.426  -0.892  0.00  0.00     0.053 C 
ATOM      9  C   UNL d   1       1.183   0.572  -1.990  0.00  0.00     0.018 C 
ENDBRANCH   1   8
TORSDOF 1
ENDMDL
