MODEL 1
REMARK minimizedAffinity -1.75774658
REMARK minimizedRMSD -1
REMARK  1 active torsions:
REMARK  status: ('A' for Active; 'I' for Inactive)
REMARK    1  A    between atoms: C1_2  and  C2_3 
ROOT
ATOM      1  C2  UNL d   1      -1.423  -0.828   0.248  0.00  0.00    -0.076 A 
ATOM      2  C3  UNL d   1      -2.329  -0.820   1.323  0.00  0.00     0.004 A 
ATOM      3  C4  UNL d   1      -2.080  -0.062   2.466  0.00  0.00    -0.003 A 
ATOM      4  C5  UNL d   1      -0.921   0.702   2.551  0.00  0.00     0.000 A 
ATOM      5  C6  UNL d   1      -0.020   0.721   1.487  0.00  0.00     0.000 A 
ATOM      6  C7  UNL d   1      -0.264  -0.026   0.321  0.00  0.00    -0.073 A 
ATOM      7  C8  UNL d   1       0.744   0.026  -0.793  0.00  0.00     0.078 C 
ENDROOT
BRANCH   1   8
ATOM      8  C1  UNL d   1      -1.733  -1.691  -0.954  0.00  0.00     0.053 C 
ATOM      9  C   UNL d   1      -2.424  -2.992  -0.574  0.00  0.00     0.018 C 
ENDBRANCH   1   8
TORSDOF 1
ENDMDL
