MODEL 1
REMARK minimizedAffinity -1.08645487
REMARK minimizedRMSD -1
REMARK  1 active torsions:
REMARK  status: ('A' for Active; 'I' for Inactive)
REMARK    1  A    between atoms: C1_2  and  C2_3 
ROOT
ATOM      1  C2  UNL d   1       0.273   0.095   1.014  0.00  0.00    -0.076 A 
ATOM      2  C3  UNL d   1      -0.043  -0.738  -0.073  0.00  0.00     0.004 A 
ATOM      3  C4  UNL d   1      -1.369  -0.993  -0.420  0.00  0.00    -0.003 A 
ATOM      4  C5  UNL d   1      -2.400  -0.418   0.314  0.00  0.00     0.000 A 
ATOM      5  C6  UNL d   1      -2.105   0.425   1.385  0.00  0.00     0.000 A 
ATOM      6  C7  UNL d   1      -0.774   0.705   1.738  0.00  0.00    -0.073 A 
ATOM      7  C8  UNL d   1      -0.513   1.616   2.906  0.00  0.00     0.078 C 
ENDROOT
BRANCH   1   8
ATOM      8  C1  UNL d   1       1.728   0.313   1.361  0.00  0.00     0.053 C 
ATOM      9  C   UNL d   1       2.533  -0.978   1.335  0.00  0.00     0.018 C 
ENDBRANCH   1   8
TORSDOF 1
ENDMDL
