MODEL 1
REMARK minimizedAffinity -4.75484991
REMARK minimizedRMSD -1
REMARK  0 active torsions:
REMARK  status: ('A' for Active; 'I' for Inactive)
ROOT
ATOM      1  O1  BZF d   1       1.495  -0.771   0.920  0.00  0.00    -0.204 OA
ATOM      2  C2  BZF d   1       2.583  -0.690   0.073  0.00  0.00     0.174 A 
ATOM      3  C3  BZF d   1       2.321   0.129  -0.966  0.00  0.00    -0.012 A 
ATOM      4  C3A BZF d   1       1.018   0.661  -0.706  0.00  0.00    -0.107 A 
ATOM      5  C4  BZF d   1       0.215   1.545  -1.368  0.00  0.00     0.055 A 
ATOM      6  C5  BZF d   1      -1.030   1.796  -0.886  0.00  0.00    -0.016 A 
ATOM      7  C6  BZF d   1      -1.506   1.178   0.252  0.00  0.00     0.022 A 
ATOM      8  C7  BZF d   1      -0.744   0.298   0.946  0.00  0.00     0.029 A 
ATOM      9  C7A BZF d   1       0.526   0.067   0.480  0.00  0.00     0.058 A 
ENDROOT
TORSDOF 0
ENDMDL
