MODEL 1
REMARK minimizedAffinity -4.6499753
REMARK minimizedRMSD -1
REMARK  0 active torsions:
REMARK  status: ('A' for Active; 'I' for Inactive)
ROOT
ATOM      1  O1  BZF d   1       2.468   0.764  -0.972  0.00  0.00    -0.204 OA
ATOM      2  C2  BZF d   1       2.985  -0.506  -1.140  0.00  0.00     0.174 A 
ATOM      3  C3  BZF d   1       2.064  -1.442  -0.829  0.00  0.00    -0.012 A 
ATOM      4  C3A BZF d   1       0.871  -0.711  -0.531  0.00  0.00    -0.107 A 
ATOM      5  C4  BZF d   1      -0.392  -1.083  -0.169  0.00  0.00     0.055 A 
ATOM      6  C5  BZF d   1      -1.307  -0.121   0.120  0.00  0.00    -0.016 A 
ATOM      7  C6  BZF d   1      -0.992   1.221   0.062  0.00  0.00     0.022 A 
ATOM      8  C7  BZF d   1       0.246   1.639  -0.296  0.00  0.00     0.029 A 
ATOM      9  C7A BZF d   1       1.163   0.670  -0.621  0.00  0.00     0.058 A 
ENDROOT
TORSDOF 0
ENDMDL
