MODEL 1
REMARK minimizedAffinity -4.79960918
REMARK minimizedRMSD -1
REMARK  0 active torsions:
REMARK  status: ('A' for Active; 'I' for Inactive)
ROOT
ATOM      1  O1  BZF d   1       1.468  -2.161  -0.886  0.00  0.00    -0.204 OA
ATOM      2  C2  BZF d   1       0.107  -2.249  -0.661  0.00  0.00     0.174 A 
ATOM      3  C3  BZF d   1      -0.439  -1.021  -0.544  0.00  0.00    -0.012 A 
ATOM      4  C3A BZF d   1       0.633  -0.107  -0.797  0.00  0.00    -0.107 A 
ATOM      5  C4  BZF d   1       0.714   1.255  -0.841  0.00  0.00     0.055 A 
ATOM      6  C5  BZF d   1       1.924   1.838  -1.043  0.00  0.00    -0.016 A 
ATOM      7  C6  BZF d   1       3.073   1.091  -1.199  0.00  0.00     0.022 A 
ATOM      8  C7  BZF d   1       3.042  -0.263  -1.169  0.00  0.00     0.029 A 
ATOM      9  C7A BZF d   1       1.815  -0.856  -0.998  0.00  0.00     0.058 A 
ENDROOT
TORSDOF 0
ENDMDL
