MODEL 1
REMARK minimizedAffinity 2.47818398
REMARK minimizedRMSD -1
REMARK  0 active torsions:
REMARK  status: ('A' for Active; 'I' for Inactive)
ROOT
ATOM      1  O1  BZF d   1       2.515  -1.529  -1.310  0.00  0.00    -0.204 OA
ATOM      2  C2  BZF d   1       3.421  -0.516  -1.063  0.00  0.00     0.174 A 
ATOM      3  C3  BZF d   1       2.805   0.556  -0.525  0.00  0.00    -0.012 A 
ATOM      4  C3A BZF d   1       1.443   0.157  -0.345  0.00  0.00    -0.107 A 
ATOM      5  C4  BZF d   1       0.340   0.782   0.162  0.00  0.00     0.055 A 
ATOM      6  C5  BZF d   1      -0.857   0.141   0.128  0.00  0.00    -0.016 A 
ATOM      7  C6  BZF d   1      -0.989  -1.123  -0.410  0.00  0.00     0.022 A 
ATOM      8  C7  BZF d   1       0.077  -1.785  -0.921  0.00  0.00     0.029 A 
ATOM      9  C7A BZF d   1       1.295  -1.153  -0.858  0.00  0.00     0.058 A 
ENDROOT
TORSDOF 0
ENDMDL
