MODEL 1
REMARK minimizedAffinity -3.97445655
REMARK minimizedRMSD -1
REMARK  0 active torsions:
REMARK  status: ('A' for Active; 'I' for Inactive)
ROOT
ATOM      1  O1  BZF d   1      -0.474   1.044  -0.722  0.00  0.00    -0.204 OA
ATOM      2  C2  BZF d   1      -0.865   0.034   0.135  0.00  0.00     0.174 A 
ATOM      3  C3  BZF d   1       0.013  -0.989   0.101  0.00  0.00    -0.012 A 
ATOM      4  C3A BZF d   1       1.064  -0.554  -0.767  0.00  0.00    -0.107 A 
ATOM      5  C4  BZF d   1       2.232  -1.124  -1.187  0.00  0.00     0.055 A 
ATOM      6  C5  BZF d   1       3.001  -0.464  -2.093  0.00  0.00    -0.016 A 
ATOM      7  C6  BZF d   1       2.630   0.763  -2.603  0.00  0.00     0.022 A 
ATOM      8  C7  BZF d   1       1.483   1.370  -2.213  0.00  0.00     0.029 A 
ATOM      9  C7A BZF d   1       0.721   0.722  -1.272  0.00  0.00     0.058 A 
ENDROOT
TORSDOF 0
ENDMDL
