MODEL 1
REMARK minimizedAffinity -2.36067343
REMARK minimizedRMSD -1
REMARK  0 active torsions:
REMARK  status: ('A' for Active; 'I' for Inactive)
ROOT
ATOM      1  O1  BZF d   1       3.009  -1.209  -0.643  0.00  0.00    -0.204 OA
ATOM      2  C2  BZF d   1       3.449   0.099  -0.585  0.00  0.00     0.174 A 
ATOM      3  C3  BZF d   1       2.407   0.950  -0.484  0.00  0.00    -0.012 A 
ATOM      4  C3A BZF d   1       1.249   0.116  -0.385  0.00  0.00    -0.107 A 
ATOM      5  C4  BZF d   1      -0.085   0.375  -0.247  0.00  0.00     0.055 A 
ATOM      6  C5  BZF d   1      -0.963  -0.662  -0.255  0.00  0.00    -0.016 A 
ATOM      7  C6  BZF d   1      -0.544  -1.968  -0.404  0.00  0.00     0.022 A 
ATOM      8  C7  BZF d   1       0.769  -2.274  -0.539  0.00  0.00     0.029 A 
ATOM      9  C7A BZF d   1       1.662  -1.231  -0.498  0.00  0.00     0.058 A 
ENDROOT
TORSDOF 0
ENDMDL
