MODEL 1
REMARK minimizedAffinity -1.66656792
REMARK minimizedRMSD -1
REMARK  0 active torsions:
REMARK  status: ('A' for Active; 'I' for Inactive)
ROOT
ATOM      1  O1  BZF d   1       0.424  -1.581  -2.027  0.00  0.00    -0.204 OA
ATOM      2  C2  BZF d   1       1.804  -1.522  -2.049  0.00  0.00     0.174 A 
ATOM      3  C3  BZF d   1       2.266  -0.755  -1.041  0.00  0.00    -0.012 A 
ATOM      4  C3A BZF d   1       1.107  -0.382  -0.290  0.00  0.00    -0.107 A 
ATOM      5  C4  BZF d   1       0.918   0.365   0.838  0.00  0.00     0.055 A 
ATOM      6  C5  BZF d   1      -0.348   0.599   1.272  0.00  0.00    -0.016 A 
ATOM      7  C6  BZF d   1      -1.448   0.107   0.600  0.00  0.00     0.022 A 
ATOM      8  C7  BZF d   1      -1.311  -0.643  -0.521  0.00  0.00     0.029 A 
ATOM      9  C7A BZF d   1      -0.032  -0.909  -0.943  0.00  0.00     0.058 A 
ENDROOT
TORSDOF 0
ENDMDL
