MODEL 1
REMARK minimizedAffinity -5.17420816
REMARK minimizedRMSD -1
REMARK  0 active torsions:
REMARK  status: ('A' for Active; 'I' for Inactive)
ROOT
ATOM      1  O1  BZF d   1      -0.923   0.623  -0.820  0.00  0.00    -0.204 OA
ATOM      2  C2  BZF d   1      -1.020  -0.081   0.365  0.00  0.00     0.174 A 
ATOM      3  C3  BZF d   1       0.175  -0.598   0.714  0.00  0.00    -0.012 A 
ATOM      4  C3A BZF d   1       1.096  -0.115  -0.269  0.00  0.00    -0.107 A 
ATOM      5  C4  BZF d   1       2.439  -0.272  -0.454  0.00  0.00     0.055 A 
ATOM      6  C5  BZF d   1       3.022   0.271  -1.555  0.00  0.00    -0.016 A 
ATOM      7  C6  BZF d   1       2.292   0.972  -2.492  0.00  0.00     0.022 A 
ATOM      8  C7  BZF d   1       0.957   1.158  -2.349  0.00  0.00     0.029 A 
ATOM      9  C7A BZF d   1       0.371   0.639  -1.221  0.00  0.00     0.058 A 
ENDROOT
TORSDOF 0
ENDMDL
