MODEL 1
REMARK minimizedAffinity -5.98811674
REMARK minimizedRMSD -1
REMARK  0 active torsions:
REMARK  status: ('A' for Active; 'I' for Inactive)
ROOT
ATOM      1  O1  BZF d   1      -0.261   0.834  -0.138  0.00  0.00    -0.204 OA
ATOM      2  C2  BZF d   1      -0.399  -0.128   0.844  0.00  0.00     0.174 A 
ATOM      3  C3  BZF d   1       0.593  -1.038   0.766  0.00  0.00    -0.012 A 
ATOM      4  C3A BZF d   1       1.454  -0.568  -0.276  0.00  0.00    -0.107 A 
ATOM      5  C4  BZF d   1       2.620  -1.035  -0.812  0.00  0.00     0.055 A 
ATOM      6  C5  BZF d   1       3.169  -0.380  -1.869  0.00  0.00    -0.016 A 
ATOM      7  C6  BZF d   1       2.577   0.738  -2.417  0.00  0.00     0.022 A 
ATOM      8  C7  BZF d   1       1.422   1.241  -1.916  0.00  0.00     0.029 A 
ATOM      9  C7A BZF d   1       0.883   0.602  -0.827  0.00  0.00     0.058 A 
ENDROOT
TORSDOF 0
ENDMDL
