MODEL 1
REMARK minimizedAffinity -3.80770731
REMARK minimizedRMSD -1
REMARK  0 active torsions:
REMARK  status: ('A' for Active; 'I' for Inactive)
ROOT
ATOM      1  O1  BZF d   1      -0.658   1.201  -0.492  0.00  0.00    -0.204 OA
ATOM      2  C2  BZF d   1      -0.698   0.117   0.363  0.00  0.00     0.174 A 
ATOM      3  C3  BZF d   1       0.303  -0.745   0.089  0.00  0.00    -0.012 A 
ATOM      4  C3A BZF d   1       1.067  -0.118  -0.945  0.00  0.00    -0.107 A 
ATOM      5  C4  BZF d   1       2.195  -0.476  -1.627  0.00  0.00     0.055 A 
ATOM      6  C5  BZF d   1       2.643   0.326  -2.628  0.00  0.00    -0.016 A 
ATOM      7  C6  BZF d   1       1.987   1.488  -2.977  0.00  0.00     0.022 A 
ATOM      8  C7  BZF d   1       0.867   1.887  -2.326  0.00  0.00     0.029 A 
ATOM      9  C7A BZF d   1       0.430   1.095  -1.292  0.00  0.00     0.058 A 
ENDROOT
TORSDOF 0
ENDMDL
