MODEL 1
REMARK minimizedAffinity -4.25748205
REMARK minimizedRMSD -1
REMARK  0 active torsions:
REMARK  status: ('A' for Active; 'I' for Inactive)
ROOT
ATOM      1  O1  BZF d   1      -0.859   0.668  -0.477  0.00  0.00    -0.204 OA
ATOM      2  C2  BZF d   1      -0.748  -0.517   0.225  0.00  0.00     0.174 A 
ATOM      3  C3  BZF d   1       0.276  -1.257  -0.245  0.00  0.00    -0.012 A 
ATOM      4  C3A BZF d   1       0.899  -0.446  -1.246  0.00  0.00    -0.107 A 
ATOM      5  C4  BZF d   1       1.979  -0.625  -2.062  0.00  0.00     0.055 A 
ATOM      6  C5  BZF d   1       2.280   0.331  -2.980  0.00  0.00    -0.016 A 
ATOM      7  C6  BZF d   1       1.519   1.474  -3.113  0.00  0.00     0.022 A 
ATOM      8  C7  BZF d   1       0.441   1.699  -2.323  0.00  0.00     0.029 A 
ATOM      9  C7A BZF d   1       0.154   0.750  -1.372  0.00  0.00     0.058 A 
ENDROOT
TORSDOF 0
ENDMDL
