MODEL 1
REMARK minimizedAffinity -4.2873745
REMARK minimizedRMSD -1
REMARK  0 active torsions:
REMARK  status: ('A' for Active; 'I' for Inactive)
ROOT
ATOM      1  O1  BZF d   1      -0.340   1.100  -0.251  0.00  0.00    -0.204 OA
ATOM      2  C2  BZF d   1      -1.240   0.114   0.103  0.00  0.00     0.174 A 
ATOM      3  C3  BZF d   1      -0.713  -1.111  -0.099  0.00  0.00    -0.012 A 
ATOM      4  C3A BZF d   1       0.633  -0.876  -0.524  0.00  0.00    -0.107 A 
ATOM      5  C4  BZF d   1       1.668  -1.699  -0.863  0.00  0.00     0.055 A 
ATOM      6  C5  BZF d   1       2.831  -1.152  -1.304  0.00  0.00    -0.016 A 
ATOM      7  C6  BZF d   1       2.991   0.213  -1.424  0.00  0.00     0.022 A 
ATOM      8  C7  BZF d   1       1.994   1.071  -1.095  0.00  0.00     0.029 A 
ATOM      9  C7A BZF d   1       0.829   0.522  -0.618  0.00  0.00     0.058 A 
ENDROOT
TORSDOF 0
ENDMDL
