MODEL 1
REMARK minimizedAffinity -2.8891921
REMARK minimizedRMSD -1
REMARK  0 active torsions:
REMARK  status: ('A' for Active; 'I' for Inactive)
ROOT
ATOM      1  O1  BZF d   1      -0.318  -1.439  -0.319  0.00  0.00    -0.204 OA
ATOM      2  C2  BZF d   1      -0.988  -0.401   0.299  0.00  0.00     0.174 A 
ATOM      3  C3  BZF d   1      -0.242   0.723   0.289  0.00  0.00    -0.012 A 
ATOM      4  C3A BZF d   1       0.932   0.389  -0.457  0.00  0.00    -0.107 A 
ATOM      5  C4  BZF d   1       2.042   1.094  -0.826  0.00  0.00     0.055 A 
ATOM      6  C5  BZF d   1       3.040   0.454  -1.490  0.00  0.00    -0.016 A 
ATOM      7  C6  BZF d   1       2.963  -0.889  -1.797  0.00  0.00     0.022 A 
ATOM      8  C7  BZF d   1       1.880  -1.629  -1.456  0.00  0.00     0.029 A 
ATOM      9  C7A BZF d   1       0.855  -0.977  -0.814  0.00  0.00     0.058 A 
ENDROOT
TORSDOF 0
ENDMDL
