MODEL 1
REMARK minimizedAffinity -3.51847076
REMARK minimizedRMSD -1
REMARK  0 active torsions:
REMARK  status: ('A' for Active; 'I' for Inactive)
ROOT
ATOM      1  O1  BZF d   1      -0.364   1.184  -0.150  0.00  0.00    -0.204 OA
ATOM      2  C2  BZF d   1      -1.295   0.429   0.537  0.00  0.00     0.174 A 
ATOM      3  C3  BZF d   1      -0.869  -0.843   0.676  0.00  0.00    -0.012 A 
ATOM      4  C3A BZF d   1       0.448  -0.863   0.117  0.00  0.00    -0.107 A 
ATOM      5  C4  BZF d   1       1.393  -1.839  -0.025  0.00  0.00     0.055 A 
ATOM      6  C5  BZF d   1       2.547  -1.549  -0.681  0.00  0.00    -0.016 A 
ATOM      7  C6  BZF d   1       2.786  -0.299  -1.213  0.00  0.00     0.022 A 
ATOM      8  C7  BZF d   1       1.881   0.702  -1.093  0.00  0.00     0.029 A 
ATOM      9  C7A BZF d   1       0.728   0.423  -0.401  0.00  0.00     0.058 A 
ENDROOT
TORSDOF 0
ENDMDL
