MODEL 1
REMARK minimizedAffinity -0.683934033
REMARK minimizedRMSD -1
REMARK  0 active torsions:
REMARK  status: ('A' for Active; 'I' for Inactive)
ROOT
ATOM      1  O1  BZF d   1       0.948  -1.786  -0.406  0.00  0.00    -0.204 OA
ATOM      2  C2  BZF d   1       2.118  -1.823  -1.140  0.00  0.00     0.174 A 
ATOM      3  C3  BZF d   1       2.252  -0.705  -1.883  0.00  0.00    -0.012 A 
ATOM      4  C3A BZF d   1       1.139   0.121  -1.525  0.00  0.00    -0.107 A 
ATOM      5  C4  BZF d   1       0.730   1.364  -1.914  0.00  0.00     0.055 A 
ATOM      6  C5  BZF d   1      -0.441   1.855  -1.429  0.00  0.00    -0.016 A 
ATOM      7  C6  BZF d   1      -1.229   1.129  -0.560  0.00  0.00     0.022 A 
ATOM      8  C7  BZF d   1      -0.862  -0.107  -0.143  0.00  0.00     0.029 A 
ATOM      9  C7A BZF d   1       0.337  -0.593  -0.605  0.00  0.00     0.058 A 
ENDROOT
TORSDOF 0
ENDMDL
