MODEL 1
REMARK minimizedAffinity -4.45621061
REMARK minimizedRMSD -1
REMARK  0 active torsions:
REMARK  status: ('A' for Active; 'I' for Inactive)
ROOT
ATOM      1  O1  BZF d   1      -0.733  -1.022   0.156  0.00  0.00    -0.204 OA
ATOM      2  C2  BZF d   1      -1.257   0.252   0.267  0.00  0.00     0.174 A 
ATOM      3  C3  BZF d   1      -0.315   1.181   0.001  0.00  0.00    -0.012 A 
ATOM      4  C3A BZF d   1       0.847   0.440  -0.383  0.00  0.00    -0.107 A 
ATOM      5  C4  BZF d   1       2.102   0.802  -0.780  0.00  0.00     0.055 A 
ATOM      6  C5  BZF d   1       3.026  -0.166  -1.013  0.00  0.00    -0.016 A 
ATOM      7  C6  BZF d   1       2.731  -1.505  -0.856  0.00  0.00     0.022 A 
ATOM      8  C7  BZF d   1       1.497  -1.913  -0.470  0.00  0.00     0.029 A 
ATOM      9  C7A BZF d   1       0.552  -0.938  -0.265  0.00  0.00     0.058 A 
ENDROOT
TORSDOF 0
ENDMDL
