MODEL 1
REMARK minimizedAffinity -5.49215794
REMARK minimizedRMSD -1
REMARK  0 active torsions:
REMARK  status: ('A' for Active; 'I' for Inactive)
ROOT
ATOM      1  O1  BZF d   1       2.095   0.985  -1.998  0.00  0.00    -0.204 OA
ATOM      2  C2  BZF d   1       2.849  -0.164  -2.147  0.00  0.00     0.174 A 
ATOM      3  C3  BZF d   1       2.318  -1.180  -1.437  0.00  0.00    -0.012 A 
ATOM      4  C3A BZF d   1       1.109  -0.657  -0.878  0.00  0.00    -0.107 A 
ATOM      5  C4  BZF d   1       0.131  -1.191  -0.088  0.00  0.00     0.055 A 
ATOM      6  C5  BZF d   1      -0.880  -0.392   0.343  0.00  0.00    -0.016 A 
ATOM      7  C6  BZF d   1      -0.943   0.944   0.008  0.00  0.00     0.022 A 
ATOM      8  C7  BZF d   1       0.001   1.518  -0.778  0.00  0.00     0.029 A 
ATOM      9  C7A BZF d   1       1.006   0.706  -1.242  0.00  0.00     0.058 A 
ENDROOT
TORSDOF 0
ENDMDL
