MODEL 1
REMARK minimizedAffinity 2.91514564
REMARK minimizedRMSD -1
REMARK  0 active torsions:
REMARK  status: ('A' for Active; 'I' for Inactive)
ROOT
ATOM      1  O1  BZF d   1      -1.028   1.815  -0.801  0.00  0.00    -0.204 OA
ATOM      2  C2  BZF d   1       0.145   2.237  -1.395  0.00  0.00     0.174 A 
ATOM      3  C3  BZF d   1       1.075   1.260  -1.366  0.00  0.00    -0.012 A 
ATOM      4  C3A BZF d   1       0.412   0.128  -0.795  0.00  0.00    -0.107 A 
ATOM      5  C4  BZF d   1       0.807  -1.150  -0.519  0.00  0.00     0.055 A 
ATOM      6  C5  BZF d   1      -0.060  -1.989   0.106  0.00  0.00    -0.016 A 
ATOM      7  C6  BZF d   1      -1.326  -1.582   0.475  0.00  0.00     0.022 A 
ATOM      8  C7  BZF d   1      -1.764  -0.325   0.218  0.00  0.00     0.029 A 
ATOM      9  C7A BZF d   1      -0.902   0.514  -0.444  0.00  0.00     0.058 A 
ENDROOT
TORSDOF 0
ENDMDL
