MODEL 1
REMARK minimizedAffinity -2.08653641
REMARK minimizedRMSD -1
REMARK  0 active torsions:
REMARK  status: ('A' for Active; 'I' for Inactive)
ROOT
ATOM      1  O1  BZF d   1      -1.862   0.428   3.105  0.00  0.00    -0.204 OA
ATOM      2  C2  BZF d   1      -2.321   1.657   3.536  0.00  0.00     0.174 A 
ATOM      3  C3  BZF d   1      -2.185   2.585   2.567  0.00  0.00    -0.012 A 
ATOM      4  C3A BZF d   1      -1.690   1.871   1.429  0.00  0.00    -0.107 A 
ATOM      5  C4  BZF d   1      -1.369   2.242   0.155  0.00  0.00     0.055 A 
ATOM      6  C5  BZF d   1      -0.843   1.317  -0.690  0.00  0.00    -0.016 A 
ATOM      7  C6  BZF d   1      -0.620   0.015  -0.292  0.00  0.00     0.022 A 
ATOM      8  C7  BZF d   1      -0.928  -0.401   0.961  0.00  0.00     0.029 A 
ATOM      9  C7A BZF d   1      -1.490   0.523   1.806  0.00  0.00     0.058 A 
ENDROOT
TORSDOF 0
ENDMDL
