MODEL 1
REMARK minimizedAffinity 0.799746156
REMARK minimizedRMSD -1
REMARK  0 active torsions:
REMARK  status: ('A' for Active; 'I' for Inactive)
ROOT
ATOM      1  O1  BZF d   1       0.325   0.413  -1.442  0.00  0.00    -0.204 OA
ATOM      2  C2  BZF d   1      -0.860   0.834  -0.871  0.00  0.00     0.174 A 
ATOM      3  C3  BZF d   1      -1.427  -0.159  -0.157  0.00  0.00    -0.012 A 
ATOM      4  C3A BZF d   1      -0.495  -1.243  -0.214  0.00  0.00    -0.107 A 
ATOM      5  C4  BZF d   1      -0.485  -2.502   0.316  0.00  0.00     0.055 A 
ATOM      6  C5  BZF d   1       0.541  -3.339   0.010  0.00  0.00    -0.016 A 
ATOM      7  C6  BZF d   1       1.569  -2.953  -0.824  0.00  0.00     0.022 A 
ATOM      8  C7  BZF d   1       1.605  -1.713  -1.370  0.00  0.00     0.029 A 
ATOM      9  C7A BZF d   1       0.587  -0.853  -1.036  0.00  0.00     0.058 A 
ENDROOT
TORSDOF 0
ENDMDL
