MODEL 1
REMARK minimizedAffinity -4.99069405
REMARK minimizedRMSD -1
REMARK  0 active torsions:
REMARK  status: ('A' for Active; 'I' for Inactive)
ROOT
ATOM      1  C1  BNZ d   1      -1.248   3.703   1.176  0.00  0.00     0.000 A 
ATOM      2  C2  BNZ d   1      -1.160   2.576   1.950  0.00  0.00     0.000 A 
ATOM      3  C3  BNZ d   1      -0.692   1.403   1.427  0.00  0.00     0.000 A 
ATOM      4  C4  BNZ d   1      -0.351   1.347   0.124  0.00  0.00     0.000 A 
ATOM      5  C5  BNZ d   1      -0.443   2.472  -0.672  0.00  0.00     0.000 A 
ATOM      6  C6  BNZ d   1      -0.877   3.661  -0.133  0.00  0.00     0.000 A 
ENDROOT
TORSDOF 0
ENDMDL
