MODEL 1
REMARK minimizedAffinity -3.35347271
REMARK minimizedRMSD -1
REMARK  0 active torsions:
REMARK  status: ('A' for Active; 'I' for Inactive)
ROOT
ATOM      1  C1  BNZ d   1      -1.346   2.192   0.094  0.00  0.00     0.000 A 
ATOM      2  C2  BNZ d   1      -0.833   1.112  -0.572  0.00  0.00     0.000 A 
ATOM      3  C3  BNZ d   1      -0.024   0.215   0.068  0.00  0.00     0.000 A 
ATOM      4  C4  BNZ d   1       0.302   0.420   1.360  0.00  0.00     0.000 A 
ATOM      5  C5  BNZ d   1      -0.200   1.510   2.043  0.00  0.00     0.000 A 
ATOM      6  C6  BNZ d   1      -1.045   2.390   1.406  0.00  0.00     0.000 A 
ENDROOT
TORSDOF 0
ENDMDL
