MODEL 1
REMARK minimizedAffinity -4.52767324
REMARK minimizedRMSD -1
REMARK  0 active torsions:
REMARK  status: ('A' for Active; 'I' for Inactive)
ROOT
ATOM      1  C1  BNZ d   1      -1.950   2.233   0.453  0.00  0.00     0.000 A 
ATOM      2  C2  BNZ d   1      -1.561   1.055  -0.128  0.00  0.00     0.000 A 
ATOM      3  C3  BNZ d   1      -0.499   0.349   0.365  0.00  0.00     0.000 A 
ATOM      4  C4  BNZ d   1       0.196   0.842   1.411  0.00  0.00     0.000 A 
ATOM      5  C5  BNZ d   1      -0.178   2.032   2.001  0.00  0.00     0.000 A 
ATOM      6  C6  BNZ d   1      -1.271   2.721   1.526  0.00  0.00     0.000 A 
ENDROOT
TORSDOF 0
ENDMDL
