MODEL 1
REMARK minimizedAffinity -3.93215871
REMARK minimizedRMSD -1
REMARK  0 active torsions:
REMARK  status: ('A' for Active; 'I' for Inactive)
ROOT
ATOM      1  C1  BNZ d   1      -0.182   0.169   0.167  0.00  0.00     0.000 A 
ATOM      2  C2  BNZ d   1      -0.304   0.653  -1.108  0.00  0.00     0.000 A 
ATOM      3  C3  BNZ d   1      -1.008   1.798  -1.357  0.00  0.00     0.000 A 
ATOM      4  C4  BNZ d   1      -1.621   2.435  -0.338  0.00  0.00     0.000 A 
ATOM      5  C5  BNZ d   1      -1.515   1.954   0.951  0.00  0.00     0.000 A 
ATOM      6  C6  BNZ d   1      -0.774   0.823   1.204  0.00  0.00     0.000 A 
ENDROOT
TORSDOF 0
ENDMDL
