MODEL 1
REMARK minimizedAffinity -3.54098868
REMARK minimizedRMSD -1
REMARK  0 active torsions:
REMARK  status: ('A' for Active; 'I' for Inactive)
ROOT
ATOM      1  C1  BNZ d   1      -0.512   2.112  -1.144  0.00  0.00     0.000 A 
ATOM      2  C2  BNZ d   1      -0.710   2.674   0.089  0.00  0.00     0.000 A 
ATOM      3  C3  BNZ d   1      -0.448   1.968   1.230  0.00  0.00     0.000 A 
ATOM      4  C4  BNZ d   1      -0.027   0.690   1.138  0.00  0.00     0.000 A 
ATOM      5  C5  BNZ d   1       0.169   0.106  -0.098  0.00  0.00     0.000 A 
ATOM      6  C6  BNZ d   1      -0.059   0.833  -1.245  0.00  0.00     0.000 A 
ENDROOT
TORSDOF 0
ENDMDL
