MODEL 1
REMARK minimizedAffinity -4.00398636
REMARK minimizedRMSD -1
REMARK  0 active torsions:
REMARK  status: ('A' for Active; 'I' for Inactive)
ROOT
ATOM      1  C1  BNZ d   1       0.798   1.086   1.302  0.00  0.00     0.000 A 
ATOM      2  C2  BNZ d   1      -0.001   1.845   2.114  0.00  0.00     0.000 A 
ATOM      3  C3  BNZ d   1      -0.989   2.630   1.588  0.00  0.00     0.000 A 
ATOM      4  C4  BNZ d   1      -1.151   2.685   0.250  0.00  0.00     0.000 A 
ATOM      5  C5  BNZ d   1      -0.347   1.932  -0.583  0.00  0.00     0.000 A 
ATOM      6  C6  BNZ d   1       0.621   1.113  -0.047  0.00  0.00     0.000 A 
ENDROOT
TORSDOF 0
ENDMDL
