MODEL 1
REMARK minimizedAffinity -1.62574458
REMARK minimizedRMSD -1
REMARK  0 active torsions:
REMARK  status: ('A' for Active; 'I' for Inactive)
ROOT
ATOM      1  C1  BNZ d   1      -0.684   1.696  -0.436  0.00  0.00     0.000 A 
ATOM      2  C2  BNZ d   1      -1.058   2.704   0.411  0.00  0.00     0.000 A 
ATOM      3  C3  BNZ d   1      -0.717   2.670   1.734  0.00  0.00     0.000 A 
ATOM      4  C4  BNZ d   1      -0.037   1.609   2.216  0.00  0.00     0.000 A 
ATOM      5  C5  BNZ d   1       0.340   0.580   1.376  0.00  0.00     0.000 A 
ATOM      6  C6  BNZ d   1       0.028   0.637   0.037  0.00  0.00     0.000 A 
ENDROOT
TORSDOF 0
ENDMDL
