MODEL 1
REMARK minimizedAffinity -4.24734592
REMARK minimizedRMSD -1
REMARK  0 active torsions:
REMARK  status: ('A' for Active; 'I' for Inactive)
ROOT
ATOM      1  C1  BNZ d   1       0.255  -0.541  -0.544  0.00  0.00     0.000 A 
ATOM      2  C2  BNZ d   1      -0.762  -0.426   0.366  0.00  0.00     0.000 A 
ATOM      3  C3  BNZ d   1      -1.619   0.639   0.327  0.00  0.00     0.000 A 
ATOM      4  C4  BNZ d   1      -1.433   1.606  -0.595  0.00  0.00     0.000 A 
ATOM      5  C5  BNZ d   1      -0.406   1.509  -1.512  0.00  0.00     0.000 A 
ATOM      6  C6  BNZ d   1       0.431   0.417  -1.495  0.00  0.00     0.000 A 
ENDROOT
TORSDOF 0
ENDMDL
