MODEL 1
REMARK minimizedAffinity 1.87871146
REMARK minimizedRMSD -1
REMARK  0 active torsions:
REMARK  status: ('A' for Active; 'I' for Inactive)
ROOT
ATOM      1  C   UNL d   1       0.233  -0.479  -1.014  0.00  0.00     0.023 A 
ATOM      2  C1  UNL d   1      -0.168   0.827  -0.732  0.00  0.00     0.003 A 
ATOM      3  C2  UNL d   1      -1.408   1.064  -0.135  0.00  0.00     0.048 A 
ATOM      4  C3  UNL d   1      -2.240  -0.010   0.180  0.00  0.00     0.023 A 
ATOM      5  C4  UNL d   1      -1.843  -1.318  -0.100  0.00  0.00     0.048 A 
ATOM      6  C5  UNL d   1      -0.603  -1.550  -0.699  0.00  0.00     0.003 A 
ATOM      7  I   UNL d   1      -4.086   0.341   1.070  0.00  0.00    -0.146 I 
ENDROOT
TORSDOF 0
ENDMDL
