MODEL 1
REMARK minimizedAffinity 2.39512467
REMARK minimizedRMSD -1
REMARK  0 active torsions:
REMARK  status: ('A' for Active; 'I' for Inactive)
ROOT
ATOM      1  C   UNL d   1       2.428  -2.304   0.168  0.00  0.00     0.023 A 
ATOM      2  C1  UNL d   1       1.473  -1.734  -0.675  0.00  0.00     0.003 A 
ATOM      3  C2  UNL d   1       1.134  -0.387  -0.537  0.00  0.00     0.048 A 
ATOM      4  C3  UNL d   1       1.753   0.385   0.445  0.00  0.00     0.023 A 
ATOM      5  C4  UNL d   1       2.709  -0.180   1.290  0.00  0.00     0.048 A 
ATOM      6  C5  UNL d   1       3.045  -1.528   1.150  0.00  0.00     0.003 A 
ATOM      7  I   UNL d   1       1.248   2.391   0.651  0.00  0.00    -0.146 I 
ENDROOT
TORSDOF 0
ENDMDL
