MODEL 1
REMARK minimizedAffinity 1.13096261
REMARK minimizedRMSD -1
REMARK  0 active torsions:
REMARK  status: ('A' for Active; 'I' for Inactive)
ROOT
ATOM      1  C   UNL d   1       2.419   2.088   3.228  0.00  0.00     0.023 A 
ATOM      2  C1  UNL d   1       1.990   2.889   4.286  0.00  0.00     0.003 A 
ATOM      3  C2  UNL d   1       2.871   3.797   4.878  0.00  0.00     0.048 A 
ATOM      4  C3  UNL d   1       4.179   3.899   4.405  0.00  0.00     0.023 A 
ATOM      5  C4  UNL d   1       4.612   3.100   3.346  0.00  0.00     0.048 A 
ATOM      6  C5  UNL d   1       3.728   2.193   2.759  0.00  0.00     0.003 A 
ATOM      7  I   UNL d   1       5.492   5.249   5.284  0.00  0.00    -0.146 I 
ENDROOT
TORSDOF 0
ENDMDL
