MODEL 1
REMARK minimizedAffinity 3.37365842
REMARK minimizedRMSD -1
REMARK  0 active torsions:
REMARK  status: ('A' for Active; 'I' for Inactive)
ROOT
ATOM      1  C   UNL d   1       0.856   1.782   1.473  0.00  0.00     0.023 A 
ATOM      2  C1  UNL d   1       0.175   1.524   2.663  0.00  0.00     0.003 A 
ATOM      3  C2  UNL d   1      -1.221   1.542   2.688  0.00  0.00     0.048 A 
ATOM      4  C3  UNL d   1      -1.930   1.818   1.520  0.00  0.00     0.023 A 
ATOM      5  C4  UNL d   1      -1.253   2.076   0.327  0.00  0.00     0.048 A 
ATOM      6  C5  UNL d   1       0.143   2.058   0.306  0.00  0.00     0.003 A 
ATOM      7  I   UNL d   1      -4.008   1.845   1.555  0.00  0.00    -0.146 I 
ENDROOT
TORSDOF 0
ENDMDL
