MODEL 1
REMARK minimizedAffinity -0.282524228
REMARK minimizedRMSD -1
REMARK  0 active torsions:
REMARK  status: ('A' for Active; 'I' for Inactive)
ROOT
ATOM      1  C   UNL d   1      -0.268  -3.820  -0.408  0.00  0.00     0.023 A 
ATOM      2  C1  UNL d   1       0.794  -3.746   0.493  0.00  0.00     0.003 A 
ATOM      3  C2  UNL d   1       1.520  -2.560   0.622  0.00  0.00     0.048 A 
ATOM      4  C3  UNL d   1       1.179  -1.452  -0.153  0.00  0.00     0.023 A 
ATOM      5  C4  UNL d   1       0.116  -1.522  -1.055  0.00  0.00     0.048 A 
ATOM      6  C5  UNL d   1      -0.606  -2.710  -1.181  0.00  0.00     0.003 A 
ATOM      7  I   UNL d   1       2.258   0.314   0.038  0.00  0.00    -0.146 I 
ENDROOT
TORSDOF 0
ENDMDL
