MODEL 1
REMARK minimizedAffinity 5.18834019
REMARK minimizedRMSD -1
REMARK  0 active torsions:
REMARK  status: ('A' for Active; 'I' for Inactive)
ROOT
ATOM      1  C   UNL d   1       3.344  -2.151   0.641  0.00  0.00     0.023 A 
ATOM      2  C1  UNL d   1       2.575  -1.965  -0.507  0.00  0.00     0.003 A 
ATOM      3  C2  UNL d   1       1.858  -0.781  -0.685  0.00  0.00     0.048 A 
ATOM      4  C3  UNL d   1       1.915   0.215   0.290  0.00  0.00     0.023 A 
ATOM      5  C4  UNL d   1       2.685   0.034   1.441  0.00  0.00     0.048 A 
ATOM      6  C5  UNL d   1       3.399  -1.153   1.614  0.00  0.00     0.003 A 
ATOM      7  I   UNL d   1       0.849   1.980   0.028  0.00  0.00    -0.146 I 
ENDROOT
TORSDOF 0
ENDMDL
