MODEL 1
REMARK minimizedAffinity 9.5887804
REMARK minimizedRMSD -1
REMARK  0 active torsions:
REMARK  status: ('A' for Active; 'I' for Inactive)
ROOT
ATOM      1  O1  BZF d   1       3.899  -2.227   0.255  0.00  0.00    -0.204 OA
ATOM      2  C2  BZF d   1       3.818  -3.512  -0.245  0.00  0.00     0.174 A 
ATOM      3  C3  BZF d   1       3.022  -3.553  -1.333  0.00  0.00    -0.012 A 
ATOM      4  C3A BZF d   1       2.652  -2.194  -1.580  0.00  0.00    -0.107 A 
ATOM      5  C4  BZF d   1       1.884  -1.588  -2.533  0.00  0.00     0.055 A 
ATOM      6  C5  BZF d   1       1.661  -0.250  -2.450  0.00  0.00    -0.016 A 
ATOM      7  C6  BZF d   1       2.185   0.511  -1.425  0.00  0.00     0.022 A 
ATOM      8  C7  BZF d   1       2.957  -0.044  -0.459  0.00  0.00     0.029 A 
ATOM      9  C7A BZF d   1       3.211  -1.390  -0.559  0.00  0.00     0.058 A 
ENDROOT
TORSDOF 0
ENDMDL
