MODEL 1
REMARK minimizedAffinity -1.36666596
REMARK minimizedRMSD -1
REMARK  0 active torsions:
REMARK  status: ('A' for Active; 'I' for Inactive)
ROOT
ATOM      1  O1  BZF d   1       4.508  -4.680  -0.937  0.00  0.00    -0.204 OA
ATOM      2  C2  BZF d   1       3.990  -3.829   0.020  0.00  0.00     0.174 A 
ATOM      3  C3  BZF d   1       2.935  -3.144  -0.469  0.00  0.00    -0.012 A 
ATOM      4  C3A BZF d   1       2.728  -3.663  -1.786  0.00  0.00    -0.107 A 
ATOM      5  C4  BZF d   1       1.818  -3.395  -2.768  0.00  0.00     0.055 A 
ATOM      6  C5  BZF d   1       1.934  -4.025  -3.966  0.00  0.00    -0.016 A 
ATOM      7  C6  BZF d   1       2.949  -4.925  -4.218  0.00  0.00     0.022 A 
ATOM      8  C7  BZF d   1       3.872  -5.228  -3.273  0.00  0.00     0.029 A 
ATOM      9  C7A BZF d   1       3.738  -4.617  -2.050  0.00  0.00     0.058 A 
ENDROOT
TORSDOF 0
ENDMDL
