MODEL 1
REMARK minimizedAffinity 2.21280718
REMARK minimizedRMSD -1
REMARK  0 active torsions:
REMARK  status: ('A' for Active; 'I' for Inactive)
ROOT
ATOM      1  O1  BZF d   1       2.373  -3.148   0.083  0.00  0.00    -0.204 OA
ATOM      2  C2  BZF d   1       1.589  -2.035   0.317  0.00  0.00     0.174 A 
ATOM      3  C3  BZF d   1       1.140  -1.513  -0.843  0.00  0.00    -0.012 A 
ATOM      4  C3A BZF d   1       1.602  -2.407  -1.861  0.00  0.00    -0.107 A 
ATOM      5  C4  BZF d   1       1.463  -2.435  -3.219  0.00  0.00     0.055 A 
ATOM      6  C5  BZF d   1       2.099  -3.405  -3.928  0.00  0.00    -0.016 A 
ATOM      7  C6  BZF d   1       2.884  -4.357  -3.312  0.00  0.00     0.022 A 
ATOM      8  C7  BZF d   1       3.048  -4.373  -1.967  0.00  0.00     0.029 A 
ATOM      9  C7A BZF d   1       2.380  -3.415  -1.245  0.00  0.00     0.058 A 
ENDROOT
TORSDOF 0
ENDMDL
