MODEL 1
REMARK minimizedAffinity 3.12453866
REMARK minimizedRMSD -1
REMARK  0 active torsions:
REMARK  status: ('A' for Active; 'I' for Inactive)
ROOT
ATOM      1  O1  BZF d   1       4.380  -5.020  -0.802  0.00  0.00    -0.204 OA
ATOM      2  C2  BZF d   1       3.909  -4.217   0.218  0.00  0.00     0.174 A 
ATOM      3  C3  BZF d   1       3.015  -3.323  -0.251  0.00  0.00    -0.012 A 
ATOM      4  C3A BZF d   1       2.852  -3.644  -1.636  0.00  0.00    -0.107 A 
ATOM      5  C4  BZF d   1       2.084  -3.122  -2.637  0.00  0.00     0.055 A 
ATOM      6  C5  BZF d   1       2.213  -3.618  -3.896  0.00  0.00    -0.016 A 
ATOM      7  C6  BZF d   1       3.103  -4.630  -4.189  0.00  0.00     0.022 A 
ATOM      8  C7  BZF d   1       3.883  -5.183  -3.228  0.00  0.00     0.029 A 
ATOM      9  C7A BZF d   1       3.731  -4.707  -1.949  0.00  0.00     0.058 A 
ENDROOT
TORSDOF 0
ENDMDL
