MODEL 1
REMARK minimizedAffinity 2.06808662
REMARK minimizedRMSD -1
REMARK  0 active torsions:
REMARK  status: ('A' for Active; 'I' for Inactive)
ROOT
ATOM      1  O1  BZF d   1      -2.780   2.217   5.995  0.00  0.00    -0.204 OA
ATOM      2  C2  BZF d   1      -3.735   2.237   4.998  0.00  0.00     0.174 A 
ATOM      3  C3  BZF d   1      -3.157   2.183   3.781  0.00  0.00    -0.012 A 
ATOM      4  C3A BZF d   1      -1.757   2.034   4.036  0.00  0.00    -0.107 A 
ATOM      5  C4  BZF d   1      -0.663   1.908   3.227  0.00  0.00     0.055 A 
ATOM      6  C5  BZF d   1       0.572   1.854   3.791  0.00  0.00    -0.016 A 
ATOM      7  C6  BZF d   1       0.751   1.928   5.157  0.00  0.00     0.022 A 
ATOM      8  C7  BZF d   1      -0.304   2.048   5.999  0.00  0.00     0.029 A 
ATOM      9  C7A BZF d   1      -1.556   2.069   5.435  0.00  0.00     0.058 A 
ENDROOT
TORSDOF 0
ENDMDL
