MODEL 1
REMARK minimizedAffinity 10.5108624
REMARK minimizedRMSD -1
REMARK  0 active torsions:
REMARK  status: ('A' for Active; 'I' for Inactive)
ROOT
ATOM      1  O1  BZF d   1       3.533  -3.786  -0.318  0.00  0.00    -0.204 OA
ATOM      2  C2  BZF d   1       4.694  -4.482  -0.042  0.00  0.00     0.174 A 
ATOM      3  C3  BZF d   1       5.118  -5.156  -1.131  0.00  0.00    -0.012 A 
ATOM      4  C3A BZF d   1       4.212  -4.789  -2.176  0.00  0.00    -0.107 A 
ATOM      5  C4  BZF d   1       4.121  -5.121  -3.498  0.00  0.00     0.055 A 
ATOM      6  C5  BZF d   1       3.075  -4.649  -4.226  0.00  0.00    -0.016 A 
ATOM      7  C6  BZF d   1       2.102  -3.849  -3.665  0.00  0.00     0.022 A 
ATOM      8  C7  BZF d   1       2.152  -3.489  -2.359  0.00  0.00     0.029 A 
ATOM      9  C7A BZF d   1       3.225  -3.937  -1.628  0.00  0.00     0.058 A 
ENDROOT
TORSDOF 0
ENDMDL
