MODEL 1
REMARK minimizedAffinity 13.4169531
REMARK minimizedRMSD -1
REMARK  0 active torsions:
REMARK  status: ('A' for Active; 'I' for Inactive)
ROOT
ATOM      1  O1  BZF d   1      -2.815   1.216   2.255  0.00  0.00    -0.204 OA
ATOM      2  C2  BZF d   1      -3.621   1.824   3.198  0.00  0.00     0.174 A 
ATOM      3  C3  BZF d   1      -2.908   2.160   4.292  0.00  0.00    -0.012 A 
ATOM      4  C3A BZF d   1      -1.554   1.819   3.978  0.00  0.00    -0.107 A 
ATOM      5  C4  BZF d   1      -0.376   1.930   4.660  0.00  0.00     0.055 A 
ATOM      6  C5  BZF d   1       0.759   1.436   4.101  0.00  0.00    -0.016 A 
ATOM      7  C6  BZF d   1       0.753   0.821   2.866  0.00  0.00     0.022 A 
ATOM      8  C7  BZF d   1      -0.391   0.693   2.149  0.00  0.00     0.029 A 
ATOM      9  C7A BZF d   1      -1.534   1.220   2.697  0.00  0.00     0.058 A 
ENDROOT
TORSDOF 0
ENDMDL
