MODEL 1
REMARK minimizedAffinity 6.72567034
REMARK minimizedRMSD -1
REMARK  0 active torsions:
REMARK  status: ('A' for Active; 'I' for Inactive)
ROOT
ATOM      1  O1  BZF d   1       0.143   0.930   3.781  0.00  0.00    -0.204 OA
ATOM      2  C2  BZF d   1       0.869   0.889   4.956  0.00  0.00     0.174 A 
ATOM      3  C3  BZF d   1       0.112   1.286   5.999  0.00  0.00    -0.012 A 
ATOM      4  C3A BZF d   1      -1.193   1.505   5.456  0.00  0.00    -0.107 A 
ATOM      5  C4  BZF d   1      -2.383   1.896   6.000  0.00  0.00     0.055 A 
ATOM      6  C5  BZF d   1      -3.452   2.086   5.183  0.00  0.00    -0.016 A 
ATOM      7  C6  BZF d   1      -3.366   1.900   3.819  0.00  0.00     0.022 A 
ATOM      8  C7  BZF d   1      -2.208   1.507   3.234  0.00  0.00     0.029 A 
ATOM      9  C7A BZF d   1      -1.135   1.283   4.061  0.00  0.00     0.058 A 
ENDROOT
TORSDOF 0
ENDMDL
