MODEL 1
REMARK minimizedAffinity 16.1497364
REMARK minimizedRMSD -1
REMARK  0 active torsions:
REMARK  status: ('A' for Active; 'I' for Inactive)
ROOT
ATOM      1  O1  BZF d   1       4.179  -2.772   0.331  0.00  0.00    -0.204 OA
ATOM      2  C2  BZF d   1       3.194  -3.682  -0.000  0.00  0.00     0.174 A 
ATOM      3  C3  BZF d   1       2.116  -3.055  -0.513  0.00  0.00    -0.012 A 
ATOM      4  C3A BZF d   1       2.484  -1.674  -0.587  0.00  0.00    -0.107 A 
ATOM      5  C4  BZF d   1       1.840  -0.553  -1.026  0.00  0.00     0.055 A 
ATOM      6  C5  BZF d   1       2.450   0.654  -0.893  0.00  0.00    -0.016 A 
ATOM      7  C6  BZF d   1       3.700   0.777  -0.322  0.00  0.00     0.022 A 
ATOM      8  C7  BZF d   1       4.381  -0.307   0.123  0.00  0.00     0.029 A 
ATOM      9  C7A BZF d   1       3.780  -1.532  -0.040  0.00  0.00     0.058 A 
ENDROOT
TORSDOF 0
ENDMDL
