MODEL 1
REMARK minimizedAffinity 19.9319992
REMARK minimizedRMSD -1
REMARK  0 active torsions:
REMARK  status: ('A' for Active; 'I' for Inactive)
ROOT
ATOM      1  O1  BZF d   1       1.253   1.085  -3.452  0.00  0.00    -0.204 OA
ATOM      2  C2  BZF d   1       1.046  -0.159  -4.018  0.00  0.00     0.174 A 
ATOM      3  C3  BZF d   1       1.769  -1.101  -3.378  0.00  0.00    -0.012 A 
ATOM      4  C3A BZF d   1       2.399  -0.418  -2.291  0.00  0.00    -0.107 A 
ATOM      5  C4  BZF d   1       3.233  -0.820  -1.286  0.00  0.00     0.055 A 
ATOM      6  C5  BZF d   1       3.729   0.110  -0.428  0.00  0.00    -0.016 A 
ATOM      7  C6  BZF d   1       3.418   1.448  -0.548  0.00  0.00     0.022 A 
ATOM      8  C7  BZF d   1       2.591   1.894  -1.525  0.00  0.00     0.029 A 
ATOM      9  C7A BZF d   1       2.062   0.953  -2.374  0.00  0.00     0.058 A 
ENDROOT
TORSDOF 0
ENDMDL
