MODEL 1
REMARK minimizedAffinity 17.8356876
REMARK minimizedRMSD -1
REMARK  0 active torsions:
REMARK  status: ('A' for Active; 'I' for Inactive)
ROOT
ATOM      1  O1  BZF d   1      -1.964   5.165  -4.351  0.00  0.00    -0.204 OA
ATOM      2  C2  BZF d   1      -2.679   6.000  -5.187  0.00  0.00     0.174 A 
ATOM      3  C3  BZF d   1      -3.486   5.287  -5.999  0.00  0.00    -0.012 A 
ATOM      4  C3A BZF d   1      -3.330   3.926  -5.584  0.00  0.00    -0.107 A 
ATOM      5  C4  BZF d   1      -3.883   2.749  -6.000  0.00  0.00     0.055 A 
ATOM      6  C5  BZF d   1      -3.462   1.586  -5.436  0.00  0.00    -0.016 A 
ATOM      7  C6  BZF d   1      -2.487   1.564  -4.460  0.00  0.00     0.022 A 
ATOM      8  C7  BZF d   1      -1.913   2.707  -4.012  0.00  0.00     0.029 A 
ATOM      9  C7A BZF d   1      -2.360   3.886  -4.556  0.00  0.00     0.058 A 
ENDROOT
TORSDOF 0
ENDMDL
