MODEL 1
REMARK minimizedAffinity 18.1549187
REMARK minimizedRMSD -1
REMARK  0 active torsions:
REMARK  status: ('A' for Active; 'I' for Inactive)
ROOT
ATOM      1  O1  BZF d   1       2.143   1.396   4.800  0.00  0.00    -0.204 OA
ATOM      2  C2  BZF d   1       1.662   1.894   5.995  0.00  0.00     0.174 A 
ATOM      3  C3  BZF d   1       0.379   2.291   5.866  0.00  0.00    -0.012 A 
ATOM      4  C3A BZF d   1       0.010   1.941   4.529  0.00  0.00    -0.107 A 
ATOM      5  C4  BZF d   1      -1.144   2.066   3.810  0.00  0.00     0.055 A 
ATOM      6  C5  BZF d   1      -1.154   1.691   2.504  0.00  0.00    -0.016 A 
ATOM      7  C6  BZF d   1      -0.027   1.191   1.884  0.00  0.00     0.022 A 
ATOM      8  C7  BZF d   1       1.140   1.043   2.558  0.00  0.00     0.029 A 
ATOM      9  C7A BZF d   1       1.143   1.391   3.886  0.00  0.00     0.058 A 
ENDROOT
TORSDOF 0
ENDMDL
