MODEL 1
REMARK minimizedAffinity 17.0437508
REMARK minimizedRMSD -1
REMARK  0 active torsions:
REMARK  status: ('A' for Active; 'I' for Inactive)
ROOT
ATOM      1  O1  BZF d   1      -3.549   1.194   2.770  0.00  0.00    -0.204 OA
ATOM      2  C2  BZF d   1      -2.263   0.972   3.224  0.00  0.00     0.174 A 
ATOM      3  C3  BZF d   1      -2.101   1.472   4.466  0.00  0.00    -0.012 A 
ATOM      4  C3A BZF d   1      -3.392   1.960   4.846  0.00  0.00    -0.107 A 
ATOM      5  C4  BZF d   1      -3.875   2.555   5.976  0.00  0.00     0.055 A 
ATOM      6  C5  BZF d   1      -5.166   2.977   6.000  0.00  0.00    -0.016 A 
ATOM      7  C6  BZF d   1      -6.000   2.825   4.912  0.00  0.00     0.022 A 
ATOM      8  C7  BZF d   1      -5.567   2.235   3.770  0.00  0.00     0.029 A 
ATOM      9  C7A BZF d   1      -4.272   1.778   3.755  0.00  0.00     0.058 A 
ENDROOT
TORSDOF 0
ENDMDL
