MODEL 1
REMARK minimizedAffinity 20.5944023
REMARK minimizedRMSD -1
REMARK  0 active torsions:
REMARK  status: ('A' for Active; 'I' for Inactive)
ROOT
ATOM      1  O1  BZF d   1      -5.363   0.205   3.626  0.00  0.00    -0.204 OA
ATOM      2  C2  BZF d   1      -4.428  -0.717   4.056  0.00  0.00     0.174 A 
ATOM      3  C3  BZF d   1      -3.602  -0.169   4.971  0.00  0.00    -0.012 A 
ATOM      4  C3A BZF d   1      -4.105   1.152   5.190  0.00  0.00    -0.107 A 
ATOM      5  C4  BZF d   1      -3.719   2.182   5.999  0.00  0.00     0.055 A 
ATOM      6  C5  BZF d   1      -4.379   3.367   5.921  0.00  0.00    -0.016 A 
ATOM      7  C6  BZF d   1      -5.425   3.559   5.042  0.00  0.00     0.022 A 
ATOM      8  C7  BZF d   1      -5.847   2.565   4.222  0.00  0.00     0.029 A 
ATOM      9  C7A BZF d   1      -5.203   1.356   4.323  0.00  0.00     0.058 A 
ENDROOT
TORSDOF 0
ENDMDL
