MODEL 1
REMARK minimizedAffinity 14.4330883
REMARK minimizedRMSD -1
REMARK  0 active torsions:
REMARK  status: ('A' for Active; 'I' for Inactive)
ROOT
ATOM      1  O1  BZF d   1       0.144  -4.858  -2.065  0.00  0.00    -0.204 OA
ATOM      2  C2  BZF d   1      -0.810  -4.463  -2.984  0.00  0.00     0.174 A 
ATOM      3  C3  BZF d   1      -0.799  -3.123  -3.138  0.00  0.00    -0.012 A 
ATOM      4  C3A BZF d   1       0.287  -2.660  -2.329  0.00  0.00    -0.107 A 
ATOM      5  C4  BZF d   1       0.811  -1.424  -2.080  0.00  0.00     0.055 A 
ATOM      6  C5  BZF d   1       1.826  -1.305  -1.184  0.00  0.00    -0.016 A 
ATOM      7  C6  BZF d   1       2.336  -2.399  -0.517  0.00  0.00     0.022 A 
ATOM      8  C7  BZF d   1       1.852  -3.646  -0.734  0.00  0.00     0.029 A 
ATOM      9  C7A BZF d   1       0.849  -3.774  -1.663  0.00  0.00     0.058 A 
ENDROOT
TORSDOF 0
ENDMDL
