MODEL 1
REMARK minimizedAffinity 22.0545769
REMARK minimizedRMSD -1
REMARK  0 active torsions:
REMARK  status: ('A' for Active; 'I' for Inactive)
ROOT
ATOM      1  O1  BZF d   1      -4.182  -1.196   3.805  0.00  0.00    -0.204 OA
ATOM      2  C2  BZF d   1      -3.950  -1.902   4.970  0.00  0.00     0.174 A 
ATOM      3  C3  BZF d   1      -3.711  -1.063   5.998  0.00  0.00    -0.012 A 
ATOM      4  C3A BZF d   1      -3.889   0.251   5.461  0.00  0.00    -0.107 A 
ATOM      5  C4  BZF d   1      -3.804   1.504   5.997  0.00  0.00     0.055 A 
ATOM      6  C5  BZF d   1      -3.963   2.583   5.186  0.00  0.00    -0.016 A 
ATOM      7  C6  BZF d   1      -4.203   2.445   3.834  0.00  0.00     0.022 A 
ATOM      8  C7  BZF d   1      -4.301   1.222   3.258  0.00  0.00     0.029 A 
ATOM      9  C7A BZF d   1      -4.173   0.130   4.081  0.00  0.00     0.058 A 
ENDROOT
TORSDOF 0
ENDMDL
