MODEL 1
REMARK minimizedAffinity 10.9540787
REMARK minimizedRMSD -1
REMARK  2 active torsions:
REMARK  status: ('A' for Active; 'I' for Inactive)
REMARK    1  A    between atoms: C2'_3  and  C1'_4 
REMARK    2  A    between atoms: C1'_4  and  C1_5 
ROOT
ATOM      1  C1  I4B d   1      -4.573   1.599   4.070  0.00  0.00    -0.075 A 
ATOM      2  C2  I4B d   1      -4.458   2.962   3.961  0.00  0.00     0.003 A 
ATOM      3  C3  I4B d   1      -5.109   3.809   4.890  0.00  0.00     0.002 A 
ATOM      4  C4  I4B d   1      -5.902   3.255   5.875  0.00  0.00    -0.004 A 
ATOM      5  C5  I4B d   1      -5.999   1.872   5.997  0.00  0.00     0.002 A 
ATOM      6  C6  I4B d   1      -5.321   1.038   5.097  0.00  0.00     0.003 A 
ENDROOT
BRANCH   1   7
ATOM      7  C1' I4B d   1      -3.899   0.735   3.052  0.00  0.00     0.060 C 
BRANCH   7   8
ATOM      8  C2' I4B d   1      -4.972  -0.021   2.295  0.00  0.00    -0.013 C 
ATOM      9  C4' I4B d   1      -4.383  -1.155   1.500  0.00  0.00     0.013 C 
ATOM     10  C3' I4B d   1      -5.975  -0.522   3.292  0.00  0.00     0.013 C 
ENDBRANCH   7   8
ENDBRANCH   1   7
TORSDOF 2
ENDMDL
