MODEL 1
REMARK minimizedAffinity 21.0094471
REMARK minimizedRMSD -1
REMARK  2 active torsions:
REMARK  status: ('A' for Active; 'I' for Inactive)
REMARK    1  A    between atoms: C2'_3  and  C1'_4 
REMARK    2  A    between atoms: C1'_4  and  C1_5 
ROOT
ATOM      1  C1  I4B d   1      -5.349   2.249   5.058  0.00  0.00    -0.075 A 
ATOM      2  C2  I4B d   1      -4.455   2.448   4.036  0.00  0.00     0.003 A 
ATOM      3  C3  I4B d   1      -4.116   1.381   3.168  0.00  0.00     0.002 A 
ATOM      4  C4  I4B d   1      -4.653   0.130   3.388  0.00  0.00    -0.004 A 
ATOM      5  C5  I4B d   1      -5.577  -0.064   4.410  0.00  0.00     0.002 A 
ATOM      6  C6  I4B d   1      -5.937   1.005   5.243  0.00  0.00     0.003 A 
ENDROOT
BRANCH   1   7
ATOM      7  C1' I4B d   1      -5.659   3.389   5.976  0.00  0.00     0.060 C 
BRANCH   7   8
ATOM      8  C2' I4B d   1      -4.875   4.596   5.503  0.00  0.00    -0.013 C 
ATOM      9  C4' I4B d   1      -5.499   5.877   5.991  0.00  0.00     0.013 C 
ATOM     10  C3' I4B d   1      -3.467   4.456   5.999  0.00  0.00     0.013 C 
ENDBRANCH   7   8
ENDBRANCH   1   7
TORSDOF 2
ENDMDL
