MODEL 1
REMARK minimizedAffinity 5.41710711
REMARK minimizedRMSD -1
REMARK  2 active torsions:
REMARK  status: ('A' for Active; 'I' for Inactive)
REMARK    1  A    between atoms: C2'_3  and  C1'_4 
REMARK    2  A    between atoms: C1'_4  and  C1_5 
ROOT
ATOM      1  C1  I4B d   1       3.857   1.629  -0.436  0.00  0.00    -0.075 A 
ATOM      2  C2  I4B d   1       4.564   0.470  -0.233  0.00  0.00     0.003 A 
ATOM      3  C3  I4B d   1       4.194  -0.417   0.807  0.00  0.00     0.002 A 
ATOM      4  C4  I4B d   1       3.149  -0.085   1.644  0.00  0.00    -0.004 A 
ATOM      5  C5  I4B d   1       2.419   1.078   1.422  0.00  0.00     0.002 A 
ATOM      6  C6  I4B d   1       2.766   1.935   0.368  0.00  0.00     0.003 A 
ENDROOT
BRANCH   1   7
ATOM      7  C1' I4B d   1       4.295   2.560  -1.522  0.00  0.00     0.060 C 
BRANCH   7   8
ATOM      8  C2' I4B d   1       3.390   2.343  -2.717  0.00  0.00    -0.013 C 
ATOM      9  C4' I4B d   1       2.931   3.654  -3.299  0.00  0.00     0.013 C 
ATOM     10  C3' I4B d   1       4.145   1.535  -3.730  0.00  0.00     0.013 C 
ENDBRANCH   7   8
ENDBRANCH   1   7
TORSDOF 2
ENDMDL
