MODEL 1
REMARK minimizedAffinity 11.4977074
REMARK minimizedRMSD -1
REMARK  2 active torsions:
REMARK  status: ('A' for Active; 'I' for Inactive)
REMARK    1  A    between atoms: C2'_3  and  C1'_4 
REMARK    2  A    between atoms: C1'_4  and  C1_5 
ROOT
ATOM      1  C1  I4B d   1      -0.492  -0.984   2.393  0.00  0.00    -0.075 A 
ATOM      2  C2  I4B d   1      -0.838  -1.101   1.070  0.00  0.00     0.003 A 
ATOM      3  C3  I4B d   1      -1.574  -2.225   0.623  0.00  0.00     0.002 A 
ATOM      4  C4  I4B d   1      -1.897  -3.226   1.517  0.00  0.00    -0.004 A 
ATOM      5  C5  I4B d   1      -1.565  -3.094   2.862  0.00  0.00     0.002 A 
ATOM      6  C6  I4B d   1      -0.868  -1.961   3.306  0.00  0.00     0.003 A 
ENDROOT
BRANCH   1   7
ATOM      7  C1' I4B d   1       0.314   0.200   2.825  0.00  0.00     0.060 C 
BRANCH   7   8
ATOM      8  C2' I4B d   1       0.999   0.770   1.600  0.00  0.00    -0.013 C 
ATOM      9  C4' I4B d   1       0.991   2.276   1.622  0.00  0.00     0.013 C 
ATOM     10  C3' I4B d   1       2.400   0.237   1.562  0.00  0.00     0.013 C 
ENDBRANCH   7   8
ENDBRANCH   1   7
TORSDOF 2
ENDMDL
