MODEL 1
REMARK minimizedAffinity 14.0589256
REMARK minimizedRMSD -1
REMARK  2 active torsions:
REMARK  status: ('A' for Active; 'I' for Inactive)
REMARK    1  A    between atoms: C2'_3  and  C1'_4 
REMARK    2  A    between atoms: C1'_4  and  C1_5 
ROOT
ATOM      1  C1  I4B d   1       3.073   1.615  -0.866  0.00  0.00    -0.075 A 
ATOM      2  C2  I4B d   1       3.580   0.364  -0.618  0.00  0.00     0.003 A 
ATOM      3  C3  I4B d   1       3.080  -0.407   0.460  0.00  0.00     0.002 A 
ATOM      4  C4  I4B d   1       2.114   0.129   1.288  0.00  0.00    -0.004 A 
ATOM      5  C5  I4B d   1       1.586   1.389   1.020  0.00  0.00     0.002 A 
ATOM      6  C6  I4B d   1       2.059   2.132  -0.071  0.00  0.00     0.003 A 
ENDROOT
BRANCH   1   7
ATOM      7  C1' I4B d   1       3.648   2.415  -1.992  0.00  0.00     0.060 C 
BRANCH   7   8
ATOM      8  C2' I4B d   1       2.975   1.968  -3.274  0.00  0.00    -0.013 C 
ATOM      9  C4' I4B d   1       2.243   3.109  -3.931  0.00  0.00     0.013 C 
ATOM     10  C3' I4B d   1       4.030   1.408  -4.180  0.00  0.00     0.013 C 
ENDBRANCH   7   8
ENDBRANCH   1   7
TORSDOF 2
ENDMDL
