MODEL 1
REMARK minimizedAffinity 15.4053783
REMARK minimizedRMSD -1
REMARK  2 active torsions:
REMARK  status: ('A' for Active; 'I' for Inactive)
REMARK    1  A    between atoms: C2'_3  and  C1'_4 
REMARK    2  A    between atoms: C1'_4  and  C1_5 
ROOT
ATOM      1  C1  I4B d   1      -3.681   3.997   1.109  0.00  0.00    -0.075 A 
ATOM      2  C2  I4B d   1      -4.232   4.511  -0.039  0.00  0.00     0.003 A 
ATOM      3  C3  I4B d   1      -3.408   5.125  -1.013  0.00  0.00     0.002 A 
ATOM      4  C4  I4B d   1      -2.054   5.248  -0.777  0.00  0.00    -0.004 A 
ATOM      5  C5  I4B d   1      -1.494   4.706   0.376  0.00  0.00     0.002 A 
ATOM      6  C6  I4B d   1      -2.310   4.065   1.320  0.00  0.00     0.003 A 
ENDROOT
BRANCH   1   7
ATOM      7  C1' I4B d   1      -4.585   3.385   2.131  0.00  0.00     0.060 C 
BRANCH   7   8
ATOM      8  C2' I4B d   1      -3.728   2.903   3.284  0.00  0.00    -0.013 C 
ATOM      9  C4' I4B d   1      -4.032   3.668   4.546  0.00  0.00     0.013 C 
ATOM     10  C3' I4B d   1      -3.978   1.436   3.466  0.00  0.00     0.013 C 
ENDBRANCH   7   8
ENDBRANCH   1   7
TORSDOF 2
ENDMDL
