MODEL 1
REMARK minimizedAffinity 15.5089474
REMARK minimizedRMSD -1
REMARK  2 active torsions:
REMARK  status: ('A' for Active; 'I' for Inactive)
REMARK    1  A    between atoms: C2'_3  and  C1'_4 
REMARK    2  A    between atoms: C1'_4  and  C1_5 
ROOT
ATOM      1  C1  I4B d   1       3.732   3.445  -4.728  0.00  0.00    -0.075 A 
ATOM      2  C2  I4B d   1       3.301   2.171  -4.454  0.00  0.00     0.003 A 
ATOM      3  C3  I4B d   1       4.015   1.358  -3.542  0.00  0.00     0.002 A 
ATOM      4  C4  I4B d   1       5.176   1.837  -2.969  0.00  0.00    -0.004 A 
ATOM      5  C5  I4B d   1       5.599   3.137  -3.231  0.00  0.00     0.002 A 
ATOM      6  C6  I4B d   1       4.866   3.951  -4.106  0.00  0.00     0.003 A 
ENDROOT
BRANCH   1   7
ATOM      7  C1' I4B d   1       2.972   4.265  -5.722  0.00  0.00     0.060 C 
BRANCH   7   8
ATOM      8  C2' I4B d   1       1.508   4.232  -5.332  0.00  0.00    -0.013 C 
ATOM      9  C4' I4B d   1       1.341   4.291  -3.836  0.00  0.00     0.013 C 
ATOM     10  C3' I4B d   1       0.825   5.389  -5.999  0.00  0.00     0.013 C 
ENDBRANCH   7   8
ENDBRANCH   1   7
TORSDOF 2
ENDMDL
