MODEL 1
REMARK minimizedAffinity 5.56376266
REMARK minimizedRMSD -1
REMARK  2 active torsions:
REMARK  status: ('A' for Active; 'I' for Inactive)
REMARK    1  A    between atoms: C2'_3  and  C1'_4 
REMARK    2  A    between atoms: C1'_4  and  C1_5 
ROOT
ATOM      1  C1  I4B d   1       4.557   3.309  -5.245  0.00  0.00    -0.075 A 
ATOM      2  C2  I4B d   1       3.435   4.033  -5.562  0.00  0.00     0.003 A 
ATOM      3  C3  I4B d   1       3.550   5.384  -5.970  0.00  0.00     0.002 A 
ATOM      4  C4  I4B d   1       4.793   5.982  -5.997  0.00  0.00    -0.004 A 
ATOM      5  C5  I4B d   1       5.932   5.241  -5.697  0.00  0.00     0.002 A 
ATOM      6  C6  I4B d   1       5.815   3.892  -5.330  0.00  0.00     0.003 A 
ENDROOT
BRANCH   1   7
ATOM      7  C1' I4B d   1       4.397   1.894  -4.787  0.00  0.00     0.060 C 
BRANCH   7   8
ATOM      8  C2' I4B d   1       4.956   1.792  -3.382  0.00  0.00    -0.013 C 
ATOM      9  C4' I4B d   1       6.000   2.849  -3.133  0.00  0.00     0.013 C 
ATOM     10  C3' I4B d   1       3.815   1.919  -2.419  0.00  0.00     0.013 C 
ENDBRANCH   7   8
ENDBRANCH   1   7
TORSDOF 2
ENDMDL
