MODEL 1
REMARK minimizedAffinity 11.8248129
REMARK minimizedRMSD -1
REMARK  1 active torsions:
REMARK  status: ('A' for Active; 'I' for Inactive)
REMARK    1  A    between atoms: C1_2  and  C2_3 
ROOT
ATOM      1  C2  UNL d   1      -1.325   3.367   1.281  0.00  0.00    -0.077 A 
ATOM      2  C3  UNL d   1      -0.261   2.589   1.760  0.00  0.00     0.002 A 
ATOM      3  C4  UNL d   1      -0.496   1.555   2.668  0.00  0.00     0.002 A 
ATOM      4  C5  UNL d   1      -1.793   1.286   3.101  0.00  0.00    -0.004 A 
ATOM      5  C6  UNL d   1      -2.857   2.055   2.631  0.00  0.00     0.002 A 
ATOM      6  C7  UNL d   1      -2.624   3.090   1.725  0.00  0.00     0.002 A 
ENDROOT
BRANCH   1   7
ATOM      7  C1  UNL d   1      -1.080   4.451   0.264  0.00  0.00     0.055 C 
ATOM      8  C   UNL d   1      -2.151   4.449  -0.817  0.00  0.00     0.019 C 
ENDBRANCH   1   7
TORSDOF 1
ENDMDL
