MODEL 1
REMARK minimizedAffinity 8.82420921
REMARK minimizedRMSD -1
REMARK  1 active torsions:
REMARK  status: ('A' for Active; 'I' for Inactive)
REMARK    1  A    between atoms: C1_2  and  C2_3 
ROOT
ATOM      1  C2  UNL d   1       1.213   2.994   1.021  0.00  0.00    -0.077 A 
ATOM      2  C3  UNL d   1       0.267   2.682   2.007  0.00  0.00     0.002 A 
ATOM      3  C4  UNL d   1       0.116   1.366   2.449  0.00  0.00     0.002 A 
ATOM      4  C5  UNL d   1       0.910   0.354   1.913  0.00  0.00    -0.004 A 
ATOM      5  C6  UNL d   1       1.852   0.654   0.930  0.00  0.00     0.002 A 
ATOM      6  C7  UNL d   1       2.004   1.969   0.487  0.00  0.00     0.002 A 
ENDROOT
BRANCH   1   7
ATOM      7  C1  UNL d   1       1.412   4.421   0.579  0.00  0.00     0.055 C 
ATOM      8  C   UNL d   1       2.702   5.000   1.142  0.00  0.00     0.019 C 
ENDBRANCH   1   7
TORSDOF 1
ENDMDL
