MODEL 1
REMARK minimizedAffinity 5.63084126
REMARK minimizedRMSD -1
REMARK  1 active torsions:
REMARK  status: ('A' for Active; 'I' for Inactive)
REMARK    1  A    between atoms: C1_2  and  C2_3 
ROOT
ATOM      1  C2  UNL d   1      -0.601   2.274   2.286  0.00  0.00    -0.077 A 
ATOM      2  C3  UNL d   1      -0.032   3.219   1.421  0.00  0.00     0.002 A 
ATOM      3  C4  UNL d   1       1.290   3.081   0.994  0.00  0.00     0.002 A 
ATOM      4  C5  UNL d   1       2.052   1.996   1.422  0.00  0.00    -0.004 A 
ATOM      5  C6  UNL d   1       1.496   1.051   2.284  0.00  0.00     0.002 A 
ATOM      6  C7  UNL d   1       0.175   1.189   2.713  0.00  0.00     0.002 A 
ENDROOT
BRANCH   1   7
ATOM      7  C1  UNL d   1      -2.042   2.395   2.709  0.00  0.00     0.055 C 
ATOM      8  C   UNL d   1      -2.744   1.045   2.677  0.00  0.00     0.019 C 
ENDBRANCH   1   7
TORSDOF 1
ENDMDL
