MODEL 1
REMARK minimizedAffinity 2.69401145
REMARK minimizedRMSD -1
REMARK  1 active torsions:
REMARK  status: ('A' for Active; 'I' for Inactive)
REMARK    1  A    between atoms: C1_2  and  C2_3 
ROOT
ATOM      1  C2  UNL d   1      -1.031   1.531   2.136  0.00  0.00    -0.077 A 
ATOM      2  C3  UNL d   1      -0.714   2.891   2.258  0.00  0.00     0.002 A 
ATOM      3  C4  UNL d   1       0.613   3.317   2.177  0.00  0.00     0.002 A 
ATOM      4  C5  UNL d   1       1.633   2.390   1.969  0.00  0.00    -0.004 A 
ATOM      5  C6  UNL d   1       1.328   1.035   1.848  0.00  0.00     0.002 A 
ATOM      6  C7  UNL d   1       0.002   0.608   1.930  0.00  0.00     0.002 A 
ENDROOT
BRANCH   1   7
ATOM      7  C1  UNL d   1      -2.466   1.075   2.174  0.00  0.00     0.055 C 
ATOM      8  C   UNL d   1      -3.353   2.098   2.869  0.00  0.00     0.019 C 
ENDBRANCH   1   7
TORSDOF 1
ENDMDL
