MODEL 1
REMARK minimizedAffinity 3.62754846
REMARK minimizedRMSD -1
REMARK  1 active torsions:
REMARK  status: ('A' for Active; 'I' for Inactive)
REMARK    1  A    between atoms: C1_2  and  C2_3 
ROOT
ATOM      1  C2  UNL d   1       1.457   2.045   1.155  0.00  0.00    -0.077 A 
ATOM      2  C3  UNL d   1       2.721   2.651   1.153  0.00  0.00     0.002 A 
ATOM      3  C4  UNL d   1       3.769   2.095   0.417  0.00  0.00     0.002 A 
ATOM      4  C5  UNL d   1       3.563   0.933  -0.324  0.00  0.00    -0.004 A 
ATOM      5  C6  UNL d   1       2.310   0.322  -0.327  0.00  0.00     0.002 A 
ATOM      6  C7  UNL d   1       1.261   0.876   0.409  0.00  0.00     0.002 A 
ENDROOT
BRANCH   1   7
ATOM      7  C1  UNL d   1       0.312   2.671   1.908  0.00  0.00     0.055 C 
ATOM      8  C   UNL d   1      -0.510   1.619   2.639  0.00  0.00     0.019 C 
ENDBRANCH   1   7
TORSDOF 1
ENDMDL
