MODEL 1
REMARK minimizedAffinity 7.61400366
REMARK minimizedRMSD -1
REMARK  1 active torsions:
REMARK  status: ('A' for Active; 'I' for Inactive)
REMARK    1  A    between atoms: C1_2  and  C2_3 
ROOT
ATOM      1  C2  UNL d   1      -0.655   1.964   2.643  0.00  0.00    -0.077 A 
ATOM      2  C3  UNL d   1       0.095   2.945   1.979  0.00  0.00     0.002 A 
ATOM      3  C4  UNL d   1       1.372   2.650   1.496  0.00  0.00     0.002 A 
ATOM      4  C5  UNL d   1       1.906   1.374   1.666  0.00  0.00    -0.004 A 
ATOM      5  C6  UNL d   1       1.168   0.393   2.326  0.00  0.00     0.002 A 
ATOM      6  C7  UNL d   1      -0.108   0.686   2.811  0.00  0.00     0.002 A 
ENDROOT
BRANCH   1   7
ATOM      7  C1  UNL d   1      -2.051   2.265   3.122  0.00  0.00     0.055 C 
ATOM      8  C   UNL d   1      -3.044   1.224   2.626  0.00  0.00     0.019 C 
ENDBRANCH   1   7
TORSDOF 1
ENDMDL
