MODEL 1
REMARK minimizedAffinity 10.4675493
REMARK minimizedRMSD -1
REMARK  1 active torsions:
REMARK  status: ('A' for Active; 'I' for Inactive)
REMARK    1  A    between atoms: C1_2  and  C2_3 
ROOT
ATOM      1  C2  UNL d   1       1.553   1.677  -0.398  0.00  0.00    -0.077 A 
ATOM      2  C3  UNL d   1       0.831   2.061  -1.537  0.00  0.00     0.002 A 
ATOM      3  C4  UNL d   1       0.605   1.150  -2.571  0.00  0.00     0.002 A 
ATOM      4  C5  UNL d   1       1.093  -0.152  -2.473  0.00  0.00    -0.004 A 
ATOM      5  C6  UNL d   1       1.813  -0.543  -1.345  0.00  0.00     0.002 A 
ATOM      6  C7  UNL d   1       2.042   0.367  -0.312  0.00  0.00     0.002 A 
ENDROOT
BRANCH   1   7
ATOM      7  C1  UNL d   1       1.756   2.644   0.739  0.00  0.00     0.055 C 
ATOM      8  C   UNL d   1       0.722   3.760   0.707  0.00  0.00     0.019 C 
ENDBRANCH   1   7
TORSDOF 1
ENDMDL
