MODEL 1
REMARK minimizedAffinity 10.170393
REMARK minimizedRMSD -1
REMARK  1 active torsions:
REMARK  status: ('A' for Active; 'I' for Inactive)
REMARK    1  A    between atoms: C1_2  and  C2_3 
ROOT
ATOM      1  C2  UNL d   1       5.989   3.389  -3.783  0.00  0.00    -0.077 A 
ATOM      2  C3  UNL d   1       5.990   4.544  -2.989  0.00  0.00     0.002 A 
ATOM      3  C4  UNL d   1       5.996   5.808  -3.581  0.00  0.00     0.002 A 
ATOM      4  C5  UNL d   1       5.997   5.929  -4.969  0.00  0.00    -0.004 A 
ATOM      5  C6  UNL d   1       5.997   4.786  -5.768  0.00  0.00     0.002 A 
ATOM      6  C7  UNL d   1       5.993   3.522  -5.177  0.00  0.00     0.002 A 
ENDROOT
BRANCH   1   7
ATOM      7  C1  UNL d   1       5.933   2.025  -3.146  0.00  0.00     0.055 C 
ATOM      8  C   UNL d   1       5.963   0.922  -4.195  0.00  0.00     0.019 C 
ENDBRANCH   1   7
TORSDOF 1
ENDMDL
