MODEL 1
REMARK minimizedAffinity 5.96013546
REMARK minimizedRMSD -1
REMARK  1 active torsions:
REMARK  status: ('A' for Active; 'I' for Inactive)
REMARK    1  A    between atoms: C1_2  and  C2_3 
ROOT
ATOM      1  C2  UNL d   1      -1.377   1.788   2.647  0.00  0.00    -0.077 A 
ATOM      2  C3  UNL d   1      -0.522   0.730   2.987  0.00  0.00     0.002 A 
ATOM      3  C4  UNL d   1       0.855   0.840   2.780  0.00  0.00     0.002 A 
ATOM      4  C5  UNL d   1       1.388   2.007   2.236  0.00  0.00    -0.004 A 
ATOM      5  C6  UNL d   1       0.546   3.063   1.892  0.00  0.00     0.002 A 
ATOM      6  C7  UNL d   1      -0.831   2.955   2.098  0.00  0.00     0.002 A 
ENDROOT
BRANCH   1   7
ATOM      7  C1  UNL d   1      -2.856   1.690   2.916  0.00  0.00     0.055 C 
ATOM      8  C   UNL d   1      -3.319   0.241   2.947  0.00  0.00     0.019 C 
ENDBRANCH   1   7
TORSDOF 1
ENDMDL
