MODEL 1
REMARK minimizedAffinity 8.4442091
REMARK minimizedRMSD -1
REMARK  1 active torsions:
REMARK  status: ('A' for Active; 'I' for Inactive)
REMARK    1  A    between atoms: C1_2  and  C2_3 
ROOT
ATOM      1  C2  UNL d   1       1.742   0.602  -0.112  0.00  0.00    -0.077 A 
ATOM      2  C3  UNL d   1       0.965   1.429   0.711  0.00  0.00     0.002 A 
ATOM      3  C4  UNL d   1       1.540   2.526   1.355  0.00  0.00     0.002 A 
ATOM      4  C5  UNL d   1       2.893   2.808   1.181  0.00  0.00    -0.004 A 
ATOM      5  C6  UNL d   1       3.675   1.991   0.366  0.00  0.00     0.002 A 
ATOM      6  C7  UNL d   1       3.102   0.893  -0.278  0.00  0.00     0.002 A 
ENDROOT
BRANCH   1   7
ATOM      7  C1  UNL d   1       1.113  -0.552  -0.847  0.00  0.00     0.055 C 
ATOM      8  C   UNL d   1       0.442  -0.090  -2.132  0.00  0.00     0.019 C 
ENDBRANCH   1   7
TORSDOF 1
ENDMDL
