MODEL 1
REMARK minimizedAffinity -2.20811772
REMARK minimizedRMSD -1
REMARK  0 active torsions:
REMARK  status: ('A' for Active; 'I' for Inactive)
ROOT
ATOM      1  C   UNL d   1      -2.636   0.343   1.901  0.00  0.00     0.020 A 
ATOM      2  C1  UNL d   1      -1.655   0.242   2.887  0.00  0.00     0.020 A 
ATOM      3  C2  UNL d   1      -0.306   0.209   2.529  0.00  0.00     0.034 A 
ATOM      4  C3  UNL d   1       0.066   0.277   1.182  0.00  0.00     0.017 A 
ATOM      5  C4  UNL d   1      -0.919   0.378   0.193  0.00  0.00     0.017 A 
ATOM      6  C5  UNL d   1      -2.268   0.411   0.557  0.00  0.00     0.034 A 
ATOM      7 Cl   UNL d   1      -0.537   0.467  -1.491  0.00  0.00    -0.070 Cl
ATOM      8 Cl1  UNL d   1       1.753   0.231   0.811  0.00  0.00    -0.070 Cl
ENDROOT
TORSDOF 0
ENDMDL
