MODEL 1
REMARK minimizedAffinity -0.818377256
REMARK minimizedRMSD -1
REMARK  0 active torsions:
REMARK  status: ('A' for Active; 'I' for Inactive)
ROOT
ATOM      1  C   UNL d   1       0.002   0.239  -1.351  0.00  0.00     0.020 A 
ATOM      2  C1  UNL d   1       1.042   0.252  -0.423  0.00  0.00     0.020 A 
ATOM      3  C2  UNL d   1       0.759   0.191   0.944  0.00  0.00     0.034 A 
ATOM      4  C3  UNL d   1      -0.568   0.118   1.385  0.00  0.00     0.017 A 
ATOM      5  C4  UNL d   1      -1.611   0.105   0.451  0.00  0.00     0.017 A 
ATOM      6  C5  UNL d   1      -1.321   0.166  -0.915  0.00  0.00     0.034 A 
ATOM      7 Cl   UNL d   1      -3.272   0.017   0.919  0.00  0.00    -0.070 Cl
ATOM      8 Cl1  UNL d   1      -0.845   0.046   3.089  0.00  0.00    -0.070 Cl
ENDROOT
TORSDOF 0
ENDMDL
