MODEL 1
REMARK minimizedAffinity -4.91809273
REMARK minimizedRMSD -1
REMARK  0 active torsions:
REMARK  status: ('A' for Active; 'I' for Inactive)
ROOT
ATOM      1  C   UNL d   1      -1.524  -0.229   2.987  0.00  0.00     0.020 A 
ATOM      2  C1  UNL d   1      -2.514  -0.093   2.015  0.00  0.00     0.020 A 
ATOM      3  C2  UNL d   1      -2.159   0.113   0.681  0.00  0.00     0.034 A 
ATOM      4  C3  UNL d   1      -0.810   0.184   0.315  0.00  0.00     0.017 A 
ATOM      5  C4  UNL d   1       0.184   0.048   1.291  0.00  0.00     0.017 A 
ATOM      6  C5  UNL d   1      -0.178  -0.159   2.626  0.00  0.00     0.034 A 
ATOM      7 Cl   UNL d   1       1.869   0.124   0.916  0.00  0.00    -0.070 Cl
ATOM      8 Cl1  UNL d   1      -0.442   0.441  -1.354  0.00  0.00    -0.070 Cl
ENDROOT
TORSDOF 0
ENDMDL
