MODEL 1
REMARK minimizedAffinity -2.77785134
REMARK minimizedRMSD -1
REMARK  0 active torsions:
REMARK  status: ('A' for Active; 'I' for Inactive)
ROOT
ATOM      1  C   UNL d   1       1.146   0.379   0.754  0.00  0.00     0.020 A 
ATOM      2  C1  UNL d   1       0.482   0.398  -0.472  0.00  0.00     0.020 A 
ATOM      3  C2  UNL d   1      -0.914   0.408  -0.509  0.00  0.00     0.034 A 
ATOM      4  C3  UNL d   1      -1.650   0.398   0.681  0.00  0.00     0.017 A 
ATOM      5  C4  UNL d   1      -0.982   0.378   1.911  0.00  0.00     0.017 A 
ATOM      6  C5  UNL d   1       0.415   0.369   1.943  0.00  0.00     0.034 A 
ATOM      7 Cl   UNL d   1      -1.822   0.365   3.422  0.00  0.00    -0.070 Cl
ATOM      8 Cl1  UNL d   1      -3.374   0.412   0.561  0.00  0.00    -0.070 Cl
ENDROOT
TORSDOF 0
ENDMDL
