MODEL 1
REMARK minimizedAffinity -1.5080061
REMARK minimizedRMSD -1
REMARK  0 active torsions:
REMARK  status: ('A' for Active; 'I' for Inactive)
ROOT
ATOM      1  C   UNL d   1       0.000  -0.191   0.224  0.00  0.00     0.020 A 
ATOM      2  C1  UNL d   1       0.970   0.811   0.210  0.00  0.00     0.020 A 
ATOM      3  C2  UNL d   1       1.735   1.026  -0.938  0.00  0.00     0.034 A 
ATOM      4  C3  UNL d   1       1.532   0.239  -2.077  0.00  0.00     0.017 A 
ATOM      5  C4  UNL d   1       0.558  -0.766  -2.062  0.00  0.00     0.017 A 
ATOM      6  C5  UNL d   1      -0.205  -0.978  -0.910  0.00  0.00     0.034 A 
ATOM      7 Cl   UNL d   1       0.250  -1.778  -3.429  0.00  0.00    -0.070 Cl
ATOM      8 Cl1  UNL d   1       2.514   0.561  -3.462  0.00  0.00    -0.070 Cl
ENDROOT
TORSDOF 0
ENDMDL
