MODEL 1
REMARK minimizedAffinity -0.817091048
REMARK minimizedRMSD -1
REMARK  0 active torsions:
REMARK  status: ('A' for Active; 'I' for Inactive)
ROOT
ATOM      1  C   UNL d   1       2.640  -0.844  -2.525  0.00  0.00     0.020 A 
ATOM      2  C1  UNL d   1       2.321  -1.368  -3.778  0.00  0.00     0.020 A 
ATOM      3  C2  UNL d   1       0.987  -1.452  -4.181  0.00  0.00     0.034 A 
ATOM      4  C3  UNL d   1      -0.034  -1.013  -3.331  0.00  0.00     0.017 A 
ATOM      5  C4  UNL d   1       0.286  -0.487  -2.074  0.00  0.00     0.017 A 
ATOM      6  C5  UNL d   1       1.624  -0.405  -1.675  0.00  0.00     0.034 A 
ATOM      7 Cl   UNL d   1      -0.919   0.076  -0.970  0.00  0.00    -0.070 Cl
ATOM      8 Cl1  UNL d   1      -1.662  -1.146  -3.894  0.00  0.00    -0.070 Cl
ENDROOT
TORSDOF 0
ENDMDL
