MODEL 1
REMARK minimizedAffinity -2.20171428
REMARK minimizedRMSD -1
REMARK  0 active torsions:
REMARK  status: ('A' for Active; 'I' for Inactive)
ROOT
ATOM      1  C   UNL d   1       1.390   0.072   2.257  0.00  0.00     0.020 A 
ATOM      2  C1  UNL d   1       0.224   0.083   3.022  0.00  0.00     0.020 A 
ATOM      3  C2  UNL d   1      -1.023   0.109   2.393  0.00  0.00     0.034 A 
ATOM      4  C3  UNL d   1      -1.107   0.125   0.996  0.00  0.00     0.017 A 
ATOM      5  C4  UNL d   1       0.064   0.114   0.229  0.00  0.00     0.017 A 
ATOM      6  C5  UNL d   1       1.310   0.087   0.864  0.00  0.00     0.034 A 
ATOM      7 Cl   UNL d   1       0.041   0.132  -1.499  0.00  0.00    -0.070 Cl
ATOM      8 Cl1  UNL d   1      -2.682   0.158   0.286  0.00  0.00    -0.070 Cl
ENDROOT
TORSDOF 0
ENDMDL
