MODEL 1
REMARK minimizedAffinity -0.677719414
REMARK minimizedRMSD -1
REMARK  0 active torsions:
REMARK  status: ('A' for Active; 'I' for Inactive)
ROOT
ATOM      1  C   UNL d   1       1.019   0.694   0.535  0.00  0.00     0.020 A 
ATOM      2  C1  UNL d   1      -0.267   0.159   0.484  0.00  0.00     0.020 A 
ATOM      3  C2  UNL d   1      -0.757  -0.371  -0.712  0.00  0.00     0.034 A 
ATOM      4  C3  UNL d   1       0.041  -0.366  -1.862  0.00  0.00     0.017 A 
ATOM      5  C4  UNL d   1       1.332   0.171  -1.810  0.00  0.00     0.017 A 
ATOM      6  C5  UNL d   1       1.817   0.700  -0.610  0.00  0.00     0.034 A 
ATOM      7 Cl   UNL d   1       2.375   0.212  -3.187  0.00  0.00    -0.070 Cl
ATOM      8 Cl1  UNL d   1      -0.628  -1.038  -3.307  0.00  0.00    -0.070 Cl
ENDROOT
TORSDOF 0
ENDMDL
