MODEL 1
REMARK minimizedAffinity -3.29088545
REMARK minimizedRMSD -1
REMARK  0 active torsions:
REMARK  status: ('A' for Active; 'I' for Inactive)
ROOT
ATOM      1  C   UNL d   1       1.002   0.085   2.039  0.00  0.00     0.020 A 
ATOM      2  C1  UNL d   1      -0.007   0.018   2.999  0.00  0.00     0.020 A 
ATOM      3  C2  UNL d   1      -1.334   0.260   2.635  0.00  0.00     0.034 A 
ATOM      4  C3  UNL d   1      -1.655   0.569   1.308  0.00  0.00     0.017 A 
ATOM      5  C4  UNL d   1      -0.641   0.636   0.346  0.00  0.00     0.017 A 
ATOM      6  C5  UNL d   1       0.686   0.393   0.715  0.00  0.00     0.034 A 
ATOM      7 Cl   UNL d   1      -0.959   1.011  -1.311  0.00  0.00    -0.070 Cl
ATOM      8 Cl1  UNL d   1      -3.316   0.855   0.929  0.00  0.00    -0.070 Cl
ENDROOT
TORSDOF 0
ENDMDL
