MODEL 1
REMARK minimizedAffinity -2.19329143
REMARK minimizedRMSD -1
REMARK  0 active torsions:
REMARK  status: ('A' for Active; 'I' for Inactive)
ROOT
ATOM      1  C   UNL d   1       1.662  -0.884  -3.372  0.00  0.00     0.020 A 
ATOM      2  C1  UNL d   1       0.356  -1.340  -3.545  0.00  0.00     0.020 A 
ATOM      3  C2  UNL d   1      -0.591  -1.144  -2.539  0.00  0.00     0.034 A 
ATOM      4  C3  UNL d   1      -0.235  -0.490  -1.354  0.00  0.00     0.017 A 
ATOM      5  C4  UNL d   1       1.077  -0.032  -1.181  0.00  0.00     0.017 A 
ATOM      6  C5  UNL d   1       2.022  -0.231  -2.192  0.00  0.00     0.034 A 
ATOM      7 Cl   UNL d   1       1.592   0.784   0.254  0.00  0.00    -0.070 Cl
ATOM      8 Cl1  UNL d   1      -1.458  -0.281  -0.152  0.00  0.00    -0.070 Cl
ENDROOT
TORSDOF 0
ENDMDL
