MODEL 1
REMARK minimizedAffinity -2.34562302
REMARK minimizedRMSD -1
REMARK  0 active torsions:
REMARK  status: ('A' for Active; 'I' for Inactive)
ROOT
ATOM      1  C   UNL d   1       0.781  -0.837  -3.757  0.00  0.00     0.020 A 
ATOM      2  C1  UNL d   1       1.859  -0.148  -3.204  0.00  0.00     0.020 A 
ATOM      3  C2  UNL d   1       1.794   0.308  -1.885  0.00  0.00     0.034 A 
ATOM      4  C3  UNL d   1       0.649   0.075  -1.116  0.00  0.00     0.017 A 
ATOM      5  C4  UNL d   1      -0.433  -0.617  -1.672  0.00  0.00     0.017 A 
ATOM      6  C5  UNL d   1      -0.362  -1.072  -2.992  0.00  0.00     0.034 A 
ATOM      7 Cl   UNL d   1      -1.880  -0.943  -0.784  0.00  0.00    -0.070 Cl
ATOM      8 Cl1  UNL d   1       0.637   0.667   0.508  0.00  0.00    -0.070 Cl
ENDROOT
TORSDOF 0
ENDMDL
