MODEL 1
REMARK minimizedAffinity -2.44794011
REMARK minimizedRMSD -1
REMARK  0 active torsions:
REMARK  status: ('A' for Active; 'I' for Inactive)
ROOT
ATOM      1  C   UNL d   1       0.725   0.238  -1.249  0.00  0.00     0.020 A 
ATOM      2  C1  UNL d   1      -0.596   0.274  -1.694  0.00  0.00     0.020 A 
ATOM      3  C2  UNL d   1      -1.640   0.381  -0.773  0.00  0.00     0.034 A 
ATOM      4  C3  UNL d   1      -1.365   0.452   0.597  0.00  0.00     0.017 A 
ATOM      5  C4  UNL d   1      -0.039   0.416   1.043  0.00  0.00     0.017 A 
ATOM      6  C5  UNL d   1       1.003   0.309   0.116  0.00  0.00     0.034 A 
ATOM      7 Cl   UNL d   1       0.379   0.499   2.718  0.00  0.00    -0.070 Cl
ATOM      8 Cl1  UNL d   1      -2.705   0.583   1.680  0.00  0.00    -0.070 Cl
ENDROOT
TORSDOF 0
ENDMDL
