MODEL 1
REMARK minimizedAffinity 0.404874384
REMARK minimizedRMSD -1
REMARK  0 active torsions:
REMARK  status: ('A' for Active; 'I' for Inactive)
ROOT
ATOM      1  C   UNL d   1      -1.911   0.325   2.312  0.00  0.00     0.020 A 
ATOM      2  C1  UNL d   1      -3.161   0.943   2.298  0.00  0.00     0.020 A 
ATOM      3  C2  UNL d   1      -3.324   2.201   2.882  0.00  0.00     0.034 A 
ATOM      4  C3  UNL d   1      -2.236   2.845   3.483  0.00  0.00     0.017 A 
ATOM      5  C4  UNL d   1      -0.982   2.223   3.497  0.00  0.00     0.017 A 
ATOM      6  C5  UNL d   1      -0.824   0.964   2.911  0.00  0.00     0.034 A 
ATOM      7 Cl   UNL d   1       0.407   2.955   4.219  0.00  0.00    -0.070 Cl
ATOM      8 Cl1  UNL d   1      -2.510   4.399   4.186  0.00  0.00    -0.070 Cl
ENDROOT
TORSDOF 0
ENDMDL
