MODEL 1
REMARK minimizedAffinity 1.06661201
REMARK minimizedRMSD -1
REMARK  0 active torsions:
REMARK  status: ('A' for Active; 'I' for Inactive)
ROOT
ATOM      1  C   UNL d   1       1.656  -0.677  -3.273  0.00  0.00     0.020 A 
ATOM      2  C1  UNL d   1       0.379  -1.228  -3.367  0.00  0.00     0.020 A 
ATOM      3  C2  UNL d   1      -0.496  -1.151  -2.281  0.00  0.00     0.034 A 
ATOM      4  C3  UNL d   1      -0.095  -0.522  -1.097  0.00  0.00     0.017 A 
ATOM      5  C4  UNL d   1       1.187   0.031  -1.004  0.00  0.00     0.017 A 
ATOM      6  C5  UNL d   1       2.059  -0.049  -2.094  0.00  0.00     0.034 A 
ATOM      7 Cl   UNL d   1       1.753   0.823   0.424  0.00  0.00    -0.070 Cl
ATOM      8 Cl1  UNL d   1      -1.229  -0.463   0.205  0.00  0.00    -0.070 Cl
ENDROOT
TORSDOF 0
ENDMDL
