MODEL 1
REMARK minimizedAffinity -0.890475988
REMARK minimizedRMSD -1
REMARK  0 active torsions:
REMARK  status: ('A' for Active; 'I' for Inactive)
ROOT
ATOM      1  C   UNL d   1      -0.007   0.246  -1.483  0.00  0.00     0.020 A 
ATOM      2  C1  UNL d   1       1.157   0.227  -0.715  0.00  0.00     0.020 A 
ATOM      3  C2  UNL d   1       1.078   0.320   0.676  0.00  0.00     0.034 A 
ATOM      4  C3  UNL d   1      -0.168   0.432   1.304  0.00  0.00     0.017 A 
ATOM      5  C4  UNL d   1      -1.336   0.452   0.533  0.00  0.00     0.017 A 
ATOM      6  C5  UNL d   1      -1.250   0.358  -0.860  0.00  0.00     0.034 A 
ATOM      7 Cl   UNL d   1      -2.909   0.588   1.236  0.00  0.00    -0.070 Cl
ATOM      8 Cl1  UNL d   1      -0.192   0.543   3.028  0.00  0.00    -0.070 Cl
ENDROOT
TORSDOF 0
ENDMDL
