MODEL 1
REMARK minimizedAffinity -0.650164962
REMARK minimizedRMSD -1
REMARK  0 active torsions:
REMARK  status: ('A' for Active; 'I' for Inactive)
ROOT
ATOM      1  C   UNL d   1      -1.936   0.560   1.276  0.00  0.00     0.020 A 
ATOM      2  C1  UNL d   1      -1.187   0.463   2.448  0.00  0.00     0.020 A 
ATOM      3  C2  UNL d   1       0.187   0.223   2.381  0.00  0.00     0.034 A 
ATOM      4  C3  UNL d   1       0.817   0.078   1.139  0.00  0.00     0.017 A 
ATOM      5  C4  UNL d   1       0.064   0.176  -0.037  0.00  0.00     0.017 A 
ATOM      6  C5  UNL d   1      -1.312   0.417   0.036  0.00  0.00     0.034 A 
ATOM      7 Cl   UNL d   1       0.769   0.009  -1.606  0.00  0.00    -0.070 Cl
ATOM      8 Cl1  UNL d   1       2.519  -0.217   1.130  0.00  0.00    -0.070 Cl
ENDROOT
TORSDOF 0
ENDMDL
