MODEL 1
REMARK minimizedAffinity -3.04272437
REMARK minimizedRMSD -1
REMARK  0 active torsions:
REMARK  status: ('A' for Active; 'I' for Inactive)
ROOT
ATOM      1  C   UNL d   1       1.306  -0.236   1.537  0.00  0.00     0.020 A 
ATOM      2  C1  UNL d   1       0.600  -0.136   2.735  0.00  0.00     0.020 A 
ATOM      3  C2  UNL d   1      -0.752   0.212   2.722  0.00  0.00     0.034 A 
ATOM      4  C3  UNL d   1      -1.403   0.461   1.508  0.00  0.00     0.017 A 
ATOM      5  C4  UNL d   1      -0.693   0.360   0.306  0.00  0.00     0.017 A 
ATOM      6  C5  UNL d   1       0.661   0.011   0.325  0.00  0.00     0.034 A 
ATOM      7 Cl   UNL d   1      -1.428   0.652  -1.231  0.00  0.00    -0.070 Cl
ATOM      8 Cl1  UNL d   1      -3.077   0.886   1.566  0.00  0.00    -0.070 Cl
ENDROOT
TORSDOF 0
ENDMDL
