MODEL 1
REMARK minimizedAffinity 3.70805216
REMARK minimizedRMSD -1
REMARK  0 active torsions:
REMARK  status: ('A' for Active; 'I' for Inactive)
ROOT
ATOM      1  C   UNL d   1      -0.281  -0.539   0.422  0.00  0.00     0.124 A 
ATOM      2  C1  UNL d   1       0.847   0.240   0.202  0.00  0.00     0.062 A 
ATOM      3  C2  UNL d   1       0.862   1.176  -0.828  0.00  0.00     0.162 A 
ATOM      4  C3  UNL d   1      -0.255   1.339  -1.647  0.00  0.00    -0.034 A 
ATOM      5  C4  UNL d   1      -1.386   0.551  -1.421  0.00  0.00     0.162 A 
ATOM      6  C5  UNL d   1      -1.395  -0.383  -0.390  0.00  0.00     0.062 A 
ATOM      7  F   UNL d   1      -2.486  -1.134  -0.179  0.00  0.00    -0.097 F 
ATOM      8  F1  UNL d   1      -2.477   0.682  -2.189  0.00  0.00    -0.096 F 
ATOM      9  I   UNL d   1      -0.237   2.736  -3.189  0.00  0.00    -0.060 I 
ATOM     10  F2  UNL d   1       1.965   1.915  -1.017  0.00  0.00    -0.096 F 
ATOM     11  F3  UNL d   1       1.926   0.091   0.984  0.00  0.00    -0.097 F 
ATOM     12  F4  UNL d   1      -0.292  -1.439   1.413  0.00  0.00    -0.092 F 
ENDROOT
TORSDOF 0
ENDMDL
