MODEL 1
REMARK minimizedAffinity -2.74306512
REMARK minimizedRMSD -1
REMARK  0 active torsions:
REMARK  status: ('A' for Active; 'I' for Inactive)
ROOT
ATOM      1  C   UNL d   1       2.267  -1.606   1.931  0.00  0.00     0.124 A 
ATOM      2  C1  UNL d   1       1.540  -0.490   2.322  0.00  0.00     0.062 A 
ATOM      3  C2  UNL d   1       0.754   0.192   1.398  0.00  0.00     0.162 A 
ATOM      4  C3  UNL d   1       0.689  -0.240   0.074  0.00  0.00    -0.034 A 
ATOM      5  C4  UNL d   1       1.424  -1.362  -0.313  0.00  0.00     0.162 A 
ATOM      6  C5  UNL d   1       2.208  -2.041   0.614  0.00  0.00     0.062 A 
ATOM      7  F   UNL d   1       2.910  -3.119   0.234  0.00  0.00    -0.097 F 
ATOM      8  F1  UNL d   1       1.385  -1.805  -1.578  0.00  0.00    -0.096 F 
ATOM      9  I   UNL d   1      -0.486   0.778  -1.310  0.00  0.00    -0.060 I 
ATOM     10  F2  UNL d   1       0.062   1.267   1.805  0.00  0.00    -0.096 F 
ATOM     11  F3  UNL d   1       1.596  -0.068   3.593  0.00  0.00    -0.097 F 
ATOM     12  F4  UNL d   1       3.024  -2.260   2.821  0.00  0.00    -0.092 F 
ENDROOT
TORSDOF 0
ENDMDL
