MODEL 1
REMARK minimizedAffinity -4.08367443
REMARK minimizedRMSD -1
REMARK  0 active torsions:
REMARK  status: ('A' for Active; 'I' for Inactive)
ROOT
ATOM      1  C   UNL d   1      -0.455   3.090  -2.022  0.00  0.00     0.124 A 
ATOM      2  C1  UNL d   1      -1.081   1.852  -2.050  0.00  0.00     0.062 A 
ATOM      3  C2  UNL d   1      -0.530   0.773  -1.363  0.00  0.00     0.162 A 
ATOM      4  C3  UNL d   1       0.654   0.928  -0.643  0.00  0.00    -0.034 A 
ATOM      5  C4  UNL d   1       1.279   2.177  -0.621  0.00  0.00     0.162 A 
ATOM      6  C5  UNL d   1       0.724   3.251  -1.308  0.00  0.00     0.062 A 
ATOM      7  F   UNL d   1       1.331   4.447  -1.281  0.00  0.00    -0.097 F 
ATOM      8  F1  UNL d   1       2.419   2.361   0.062  0.00  0.00    -0.096 F 
ATOM      9  I   UNL d   1       1.481  -0.682   0.385  0.00  0.00    -0.060 I 
ATOM     10  F2  UNL d   1      -1.157  -0.412  -1.407  0.00  0.00    -0.096 F 
ATOM     11  F3  UNL d   1      -2.220   1.693  -2.739  0.00  0.00    -0.097 F 
ATOM     12  F4  UNL d   1      -0.987   4.126  -2.684  0.00  0.00    -0.092 F 
ENDROOT
TORSDOF 0
ENDMDL
