MODEL 1
REMARK minimizedAffinity 0.4528355
REMARK minimizedRMSD -1
REMARK  0 active torsions:
REMARK  status: ('A' for Active; 'I' for Inactive)
ROOT
ATOM      1  C   UNL d   1      -0.661   1.467  -1.785  0.00  0.00     0.124 A 
ATOM      2  C1  UNL d   1      -1.078   2.215  -0.693  0.00  0.00     0.062 A 
ATOM      3  C2  UNL d   1      -0.885   1.736   0.599  0.00  0.00     0.162 A 
ATOM      4  C3  UNL d   1      -0.270   0.501   0.807  0.00  0.00    -0.034 A 
ATOM      5  C4  UNL d   1       0.146  -0.246  -0.297  0.00  0.00     0.162 A 
ATOM      6  C5  UNL d   1      -0.049   0.237  -1.586  0.00  0.00     0.062 A 
ATOM      7  F   UNL d   1       0.355  -0.487  -2.640  0.00  0.00    -0.097 F 
ATOM      8  F1  UNL d   1       0.741  -1.437  -0.133  0.00  0.00    -0.096 F 
ATOM      9  I   UNL d   1       0.020  -0.220   2.737  0.00  0.00    -0.060 I 
ATOM     10  F2  UNL d   1      -1.299   2.480   1.635  0.00  0.00    -0.096 F 
ATOM     11  F3  UNL d   1      -1.670   3.403  -0.883  0.00  0.00    -0.097 F 
ATOM     12  F4  UNL d   1      -0.849   1.931  -3.028  0.00  0.00    -0.092 F 
ENDROOT
TORSDOF 0
ENDMDL
