MODEL 1
REMARK minimizedAffinity -3.52191973
REMARK minimizedRMSD -1
REMARK  0 active torsions:
REMARK  status: ('A' for Active; 'I' for Inactive)
ROOT
ATOM      1  C   UNL d   1       1.933  -0.150   1.975  0.00  0.00     0.020 A 
ATOM      2  C1  UNL d   1       1.044  -0.615   2.943  0.00  0.00     0.020 A 
ATOM      3  C2  UNL d   1      -0.289  -0.859   2.605  0.00  0.00     0.034 A 
ATOM      4  C3  UNL d   1      -0.736  -0.639   1.298  0.00  0.00     0.017 A 
ATOM      5  C4  UNL d   1       0.158  -0.172   0.327  0.00  0.00     0.017 A 
ATOM      6  C5  UNL d   1       1.491   0.071   0.670  0.00  0.00     0.034 A 
ATOM      7 Cl   UNL d   1      -0.320   0.123  -1.308  0.00  0.00    -0.070 Cl
ATOM      8 Cl1  UNL d   1      -2.398  -0.963   0.951  0.00  0.00    -0.070 Cl
ENDROOT
TORSDOF 0
ENDMDL
