MODEL 1
REMARK minimizedAffinity -1.85661149
REMARK minimizedRMSD -1
REMARK  0 active torsions:
REMARK  status: ('A' for Active; 'I' for Inactive)
ROOT
ATOM      1  C   UNL d   1       0.628  -0.888   2.604  0.00  0.00     0.020 A 
ATOM      2  C1  UNL d   1      -0.597  -0.394   2.156  0.00  0.00     0.020 A 
ATOM      3  C2  UNL d   1      -0.793  -0.140   0.797  0.00  0.00     0.034 A 
ATOM      4  C3  UNL d   1       0.238  -0.379  -0.119  0.00  0.00     0.017 A 
ATOM      5  C4  UNL d   1       1.467  -0.875   0.331  0.00  0.00     0.017 A 
ATOM      6  C5  UNL d   1       1.657  -1.128   1.693  0.00  0.00     0.034 A 
ATOM      7 Cl   UNL d   1       2.785  -1.196  -0.740  0.00  0.00    -0.070 Cl
ATOM      8 Cl1  UNL d   1      -0.074  -0.043  -1.785  0.00  0.00    -0.070 Cl
ENDROOT
TORSDOF 0
ENDMDL
