MODEL 1
REMARK minimizedAffinity -2.90599346
REMARK minimizedRMSD -1
REMARK  0 active torsions:
REMARK  status: ('A' for Active; 'I' for Inactive)
ROOT
ATOM      1  C   UNL d   1      -4.422   3.758  -2.845  0.00  0.00     0.020 A 
ATOM      2  C1  UNL d   1      -4.676   2.487  -2.330  0.00  0.00     0.020 A 
ATOM      3  C2  UNL d   1      -3.632   1.570  -2.187  0.00  0.00     0.034 A 
ATOM      4  C3  UNL d   1      -2.330   1.922  -2.560  0.00  0.00     0.017 A 
ATOM      5  C4  UNL d   1      -2.076   3.198  -3.077  0.00  0.00     0.017 A 
ATOM      6  C5  UNL d   1      -3.124   4.112  -3.218  0.00  0.00     0.034 A 
ATOM      7 Cl   UNL d   1      -0.495   3.705  -3.559  0.00  0.00    -0.070 Cl
ATOM      8 Cl1  UNL d   1      -1.088   0.739  -2.355  0.00  0.00    -0.070 Cl
ENDROOT
TORSDOF 0
ENDMDL
