MODEL 1
REMARK minimizedAffinity 1.47844136
REMARK minimizedRMSD -1
REMARK  0 active torsions:
REMARK  status: ('A' for Active; 'I' for Inactive)
ROOT
ATOM      1  C   UNL d   1       1.891  -0.214  -0.325  0.00  0.00     0.020 A 
ATOM      2  C1  UNL d   1       0.546  -0.215  -0.693  0.00  0.00     0.020 A 
ATOM      3  C2  UNL d   1      -0.440  -0.463   0.263  0.00  0.00     0.034 A 
ATOM      4  C3  UNL d   1      -0.083  -0.712   1.594  0.00  0.00     0.017 A 
ATOM      5  C4  UNL d   1       1.267  -0.711   1.963  0.00  0.00     0.017 A 
ATOM      6  C5  UNL d   1       2.250  -0.461   1.001  0.00  0.00     0.034 A 
ATOM      7 Cl   UNL d   1       1.784  -1.010   3.585  0.00  0.00    -0.070 Cl
ATOM      8 Cl1  UNL d   1      -1.355  -1.011   2.724  0.00  0.00    -0.070 Cl
ENDROOT
TORSDOF 0
ENDMDL
