MODEL 1
REMARK minimizedAffinity -3.33719206
REMARK minimizedRMSD -1
REMARK  0 active torsions:
REMARK  status: ('A' for Active; 'I' for Inactive)
ROOT
ATOM      1  C   UNL d   1       0.300  -1.616   2.319  0.00  0.00     0.020 A 
ATOM      2  C1  UNL d   1      -0.456  -0.446   2.274  0.00  0.00     0.020 A 
ATOM      3  C2  UNL d   1      -0.398   0.380   1.149  0.00  0.00     0.034 A 
ATOM      4  C3  UNL d   1       0.418   0.036   0.065  0.00  0.00     0.017 A 
ATOM      5  C4  UNL d   1       1.176  -1.140   0.111  0.00  0.00     0.017 A 
ATOM      6  C5  UNL d   1       1.114  -1.963   1.240  0.00  0.00     0.034 A 
ATOM      7 Cl   UNL d   1       2.206  -1.631  -1.187  0.00  0.00    -0.070 Cl
ATOM      8 Cl1  UNL d   1       0.441   1.103  -1.294  0.00  0.00    -0.070 Cl
ENDROOT
TORSDOF 0
ENDMDL
