MODEL 1
REMARK minimizedAffinity 5.80694008
REMARK minimizedRMSD -1
REMARK  1 active torsions:
REMARK  status: ('A' for Active; 'I' for Inactive)
REMARK    1  A    between atoms: C1_2  and  C2_3 
ROOT
ATOM      1  C2  UNL d   1       0.045   0.938  -1.470  0.00  0.00    -0.081 A 
ATOM      2  C3  UNL d   1      -0.060   1.013  -0.076  0.00  0.00     0.006 A 
ATOM      3  C4  UNL d   1      -0.023   2.250   0.572  0.00  0.00     0.002 A 
ATOM      4  C5  UNL d   1       0.112   3.433  -0.163  0.00  0.00    -0.080 A 
ATOM      5  C6  UNL d   1       0.122   4.769   0.517  0.00  0.00     0.076 C 
ATOM      6  C7  UNL d   1       0.234   3.357  -1.555  0.00  0.00     0.002 A 
ATOM      7  C8  UNL d   1       0.198   2.120  -2.203  0.00  0.00     0.006 A 
ENDROOT
BRANCH   1   8
ATOM      8  C1  UNL d   1      -0.059  -0.389  -2.176  0.00  0.00     0.054 C 
ATOM      9  C   UNL d   1      -1.429  -0.570  -2.815  0.00  0.00     0.018 C 
ENDBRANCH   1   8
TORSDOF 1
ENDMDL
