MODEL 1
REMARK minimizedAffinity 1.9833107
REMARK minimizedRMSD -1
REMARK  1 active torsions:
REMARK  status: ('A' for Active; 'I' for Inactive)
REMARK    1  A    between atoms: C1_2  and  C2_3 
ROOT
ATOM      1  C2  UNL d   1      -0.750   2.761   0.182  0.00  0.00    -0.081 A 
ATOM      2  C3  UNL d   1       0.194   1.889   0.738  0.00  0.00     0.006 A 
ATOM      3  C4  UNL d   1      -0.197   0.921   1.666  0.00  0.00     0.002 A 
ATOM      4  C5  UNL d   1      -1.538   0.805   2.048  0.00  0.00    -0.080 A 
ATOM      5  C6  UNL d   1      -1.976  -0.250   3.021  0.00  0.00     0.076 C 
ATOM      6  C7  UNL d   1      -2.478   1.688   1.506  0.00  0.00     0.002 A 
ATOM      7  C8  UNL d   1      -2.088   2.656   0.578  0.00  0.00     0.006 A 
ENDROOT
BRANCH   1   8
ATOM      8  C1  UNL d   1      -0.342   3.763  -0.868  0.00  0.00     0.054 C 
ATOM      9  C   UNL d   1       0.447   4.913  -0.259  0.00  0.00     0.018 C 
ENDBRANCH   1   8
TORSDOF 1
ENDMDL
