MODEL 1
REMARK minimizedAffinity 9.20684528
REMARK minimizedRMSD -1
REMARK  1 active torsions:
REMARK  status: ('A' for Active; 'I' for Inactive)
REMARK    1  A    between atoms: C1_2  and  C2_3 
ROOT
ATOM      1  C2  UNL d   1      -1.443   2.219   0.760  0.00  0.00    -0.081 A 
ATOM      2  C3  UNL d   1      -0.489   1.475   0.056  0.00  0.00     0.006 A 
ATOM      3  C4  UNL d   1       0.375   2.102  -0.845  0.00  0.00     0.002 A 
ATOM      4  C5  UNL d   1       0.305   3.484  -1.051  0.00  0.00    -0.080 A 
ATOM      5  C6  UNL d   1       1.247   4.174  -1.992  0.00  0.00     0.076 C 
ATOM      6  C7  UNL d   1      -0.660   4.225  -0.361  0.00  0.00     0.002 A 
ATOM      7  C8  UNL d   1      -1.525   3.599   0.540  0.00  0.00     0.006 A 
ENDROOT
BRANCH   1   8
ATOM      8  C1  UNL d   1      -2.333   1.556   1.780  0.00  0.00     0.054 C 
ATOM      9  C   UNL d   1      -1.521   0.976   2.929  0.00  0.00     0.018 C 
ENDBRANCH   1   8
TORSDOF 1
ENDMDL
