MODEL 1
REMARK minimizedAffinity 5.43261194
REMARK minimizedRMSD -1
REMARK  1 active torsions:
REMARK  status: ('A' for Active; 'I' for Inactive)
REMARK    1  A    between atoms: C1_2  and  C2_3 
ROOT
ATOM      1  C2  UNL d   1      -1.626   2.422   1.700  0.00  0.00    -0.081 A 
ATOM      2  C3  UNL d   1      -1.881   3.742   1.310  0.00  0.00     0.006 A 
ATOM      3  C4  UNL d   1      -1.215   4.298   0.215  0.00  0.00     0.002 A 
ATOM      4  C5  UNL d   1      -0.289   3.542  -0.511  0.00  0.00    -0.080 A 
ATOM      5  C6  UNL d   1       0.411   4.117  -1.707  0.00  0.00     0.076 C 
ATOM      6  C7  UNL d   1      -0.021   2.229  -0.111  0.00  0.00     0.002 A 
ATOM      7  C8  UNL d   1      -0.686   1.672   0.984  0.00  0.00     0.006 A 
ENDROOT
BRANCH   1   8
ATOM      8  C1  UNL d   1      -2.391   1.798   2.840  0.00  0.00     0.054 C 
ATOM      9  C   UNL d   1      -3.639   1.083   2.343  0.00  0.00     0.018 C 
ENDBRANCH   1   8
TORSDOF 1
ENDMDL
