MODEL 1
REMARK minimizedAffinity 2.49801373
REMARK minimizedRMSD -1
REMARK  1 active torsions:
REMARK  status: ('A' for Active; 'I' for Inactive)
REMARK    1  A    between atoms: C1_2  and  C2_3 
ROOT
ATOM      1  C2  UNL d   1      -1.825   2.015   1.753  0.00  0.00    -0.081 A 
ATOM      2  C3  UNL d   1      -2.269   3.151   1.066  0.00  0.00     0.006 A 
ATOM      3  C4  UNL d   1      -1.512   3.688   0.022  0.00  0.00     0.002 A 
ATOM      4  C5  UNL d   1      -0.304   3.094  -0.357  0.00  0.00    -0.080 A 
ATOM      5  C6  UNL d   1       0.503   3.643  -1.496  0.00  0.00     0.076 C 
ATOM      6  C7  UNL d   1       0.149   1.969   0.341  0.00  0.00     0.002 A 
ATOM      7  C8  UNL d   1      -0.607   1.432   1.385  0.00  0.00     0.006 A 
ENDROOT
BRANCH   1   8
ATOM      8  C1  UNL d   1      -2.671   1.395   2.837  0.00  0.00     0.054 C 
ATOM      9  C   UNL d   1      -2.065   0.090   3.333  0.00  0.00     0.018 C 
ENDBRANCH   1   8
TORSDOF 1
ENDMDL
