MODEL 1
REMARK minimizedAffinity 4.31086922
REMARK minimizedRMSD -1
REMARK  1 active torsions:
REMARK  status: ('A' for Active; 'I' for Inactive)
REMARK    1  A    between atoms: C1_2  and  C2_3 
ROOT
ATOM      1  C2  UNL d   1      -0.850   1.802   1.344  0.00  0.00    -0.081 A 
ATOM      2  C3  UNL d   1       0.259   0.966   1.523  0.00  0.00     0.006 A 
ATOM      3  C4  UNL d   1       0.127  -0.251   2.196  0.00  0.00     0.002 A 
ATOM      4  C5  UNL d   1      -1.116  -0.655   2.695  0.00  0.00    -0.080 A 
ATOM      5  C6  UNL d   1      -1.277  -1.973   3.394  0.00  0.00     0.076 C 
ATOM      6  C7  UNL d   1      -2.220   0.188   2.532  0.00  0.00     0.002 A 
ATOM      7  C8  UNL d   1      -2.089   1.405   1.860  0.00  0.00     0.006 A 
ENDROOT
BRANCH   1   8
ATOM      8  C1  UNL d   1      -0.725   3.084   0.562  0.00  0.00     0.054 C 
ATOM      9  C   UNL d   1      -0.075   2.845  -0.793  0.00  0.00     0.018 C 
ENDBRANCH   1   8
TORSDOF 1
ENDMDL
