MODEL 1
REMARK minimizedAffinity 3.81424117
REMARK minimizedRMSD -1
REMARK  1 active torsions:
REMARK  status: ('A' for Active; 'I' for Inactive)
REMARK    1  A    between atoms: C1_2  and  C2_3 
ROOT
ATOM      1  C2  UNL d   1      -0.967   2.642   0.129  0.00  0.00    -0.081 A 
ATOM      2  C3  UNL d   1      -2.252   2.719   0.679  0.00  0.00     0.006 A 
ATOM      3  C4  UNL d   1      -2.659   1.807   1.656  0.00  0.00     0.002 A 
ATOM      4  C5  UNL d   1      -1.786   0.810   2.104  0.00  0.00    -0.080 A 
ATOM      5  C6  UNL d   1      -2.200  -0.157   3.174  0.00  0.00     0.076 C 
ATOM      6  C7  UNL d   1      -0.508   0.722   1.542  0.00  0.00     0.002 A 
ATOM      7  C8  UNL d   1      -0.101   1.633   0.564  0.00  0.00     0.006 A 
ENDROOT
BRANCH   1   8
ATOM      8  C1  UNL d   1      -0.503   3.664  -0.878  0.00  0.00     0.054 C 
ATOM      9  C   UNL d   1       0.301   4.772  -0.212  0.00  0.00     0.018 C 
ENDBRANCH   1   8
TORSDOF 1
ENDMDL
