MODEL 1
REMARK minimizedAffinity 7.0849514
REMARK minimizedRMSD -1
REMARK  1 active torsions:
REMARK  status: ('A' for Active; 'I' for Inactive)
REMARK    1  A    between atoms: C1_2  and  C2_3 
ROOT
ATOM      1  C2  UNL d   1       0.024   0.840  -0.524  0.00  0.00    -0.081 A 
ATOM      2  C3  UNL d   1      -0.790   1.012   0.603  0.00  0.00     0.006 A 
ATOM      3  C4  UNL d   1      -1.260   2.280   0.949  0.00  0.00     0.002 A 
ATOM      4  C5  UNL d   1      -0.931   3.396   0.172  0.00  0.00    -0.080 A 
ATOM      5  C6  UNL d   1      -1.454   4.759   0.516  0.00  0.00     0.076 C 
ATOM      6  C7  UNL d   1      -0.103   3.227  -0.943  0.00  0.00     0.002 A 
ATOM      7  C8  UNL d   1       0.368   1.959  -1.290  0.00  0.00     0.006 A 
ENDROOT
BRANCH   1   8
ATOM      8  C1  UNL d   1       0.480  -0.536  -0.937  0.00  0.00     0.054 C 
ATOM      9  C   UNL d   1      -0.398  -1.100  -2.045  0.00  0.00     0.018 C 
ENDBRANCH   1   8
TORSDOF 1
ENDMDL
