MODEL 1
REMARK minimizedAffinity 14.5778141
REMARK minimizedRMSD -1
REMARK  1 active torsions:
REMARK  status: ('A' for Active; 'I' for Inactive)
REMARK    1  A    between atoms: C1_2  and  C2_3 
ROOT
ATOM      1  C2  UNL d   1      -0.313   2.215  -2.243  0.00  0.00    -0.081 A 
ATOM      2  C3  UNL d   1       0.420   1.176  -1.657  0.00  0.00     0.006 A 
ATOM      3  C4  UNL d   1      -0.014  -0.147  -1.768  0.00  0.00     0.002 A 
ATOM      4  C5  UNL d   1      -1.182  -0.454  -2.475  0.00  0.00    -0.080 A 
ATOM      5  C6  UNL d   1      -1.642  -1.874  -2.628  0.00  0.00     0.076 C 
ATOM      6  C7  UNL d   1      -1.923   0.585  -3.046  0.00  0.00     0.002 A 
ATOM      7  C8  UNL d   1      -1.491   1.909  -2.934  0.00  0.00     0.006 A 
ENDROOT
BRANCH   1   8
ATOM      8  C1  UNL d   1       0.186   3.636  -2.180  0.00  0.00     0.054 C 
ATOM      9  C   UNL d   1       0.072   4.200  -0.771  0.00  0.00     0.018 C 
ENDBRANCH   1   8
TORSDOF 1
ENDMDL
