MODEL 1
REMARK minimizedAffinity 5.55967951
REMARK minimizedRMSD -1
REMARK  1 active torsions:
REMARK  status: ('A' for Active; 'I' for Inactive)
REMARK    1  A    between atoms: C1_2  and  C2_3 
ROOT
ATOM      1  C2  UNL d   1      -1.125   0.904  -2.890  0.00  0.00    -0.081 A 
ATOM      2  C3  UNL d   1      -2.318   1.265  -3.528  0.00  0.00     0.006 A 
ATOM      3  C4  UNL d   1      -2.641   2.611  -3.717  0.00  0.00     0.002 A 
ATOM      4  C5  UNL d   1      -1.774   3.617  -3.277  0.00  0.00    -0.080 A 
ATOM      5  C6  UNL d   1      -2.095   5.065  -3.500  0.00  0.00     0.076 C 
ATOM      6  C7  UNL d   1      -0.591   3.257  -2.623  0.00  0.00     0.002 A 
ATOM      7  C8  UNL d   1      -0.268   1.911  -2.434  0.00  0.00     0.006 A 
ENDROOT
BRANCH   1   8
ATOM      8  C1  UNL d   1      -0.743  -0.547  -2.743  0.00  0.00     0.054 C 
ATOM      9  C   UNL d   1       0.080  -1.025  -3.930  0.00  0.00     0.018 C 
ENDBRANCH   1   8
TORSDOF 1
ENDMDL
