MODEL 1
REMARK minimizedAffinity 8.20832825
REMARK minimizedRMSD -1
REMARK  1 active torsions:
REMARK  status: ('A' for Active; 'I' for Inactive)
REMARK    1  A    between atoms: C1_2  and  C2_3 
ROOT
ATOM      1  C2  UNL d   1      -0.687   2.612   0.587  0.00  0.00    -0.081 A 
ATOM      2  C3  UNL d   1      -0.687   3.761  -0.213  0.00  0.00     0.006 A 
ATOM      3  C4  UNL d   1      -0.151   3.727  -1.503  0.00  0.00     0.002 A 
ATOM      4  C5  UNL d   1       0.385   2.542  -2.017  0.00  0.00    -0.080 A 
ATOM      5  C6  UNL d   1       0.935   2.484  -3.411  0.00  0.00     0.076 C 
ATOM      6  C7  UNL d   1       0.401   1.398  -1.212  0.00  0.00     0.002 A 
ATOM      7  C8  UNL d   1      -0.134   1.432   0.078  0.00  0.00     0.006 A 
ENDROOT
BRANCH   1   8
ATOM      8  C1  UNL d   1      -1.322   2.629   1.954  0.00  0.00     0.054 C 
ATOM      9  C   UNL d   1      -1.764   1.235   2.376  0.00  0.00     0.018 C 
ENDBRANCH   1   8
TORSDOF 1
ENDMDL
