MODEL 1
REMARK minimizedAffinity 5.28236246
REMARK minimizedRMSD -1
REMARK  1 active torsions:
REMARK  status: ('A' for Active; 'I' for Inactive)
REMARK    1  A    between atoms: C1_2  and  C2_3 
ROOT
ATOM      1  C2  UNL d   1       0.100   2.083  -0.972  0.00  0.00    -0.081 A 
ATOM      2  C3  UNL d   1       0.406   3.250  -1.682  0.00  0.00     0.006 A 
ATOM      3  C4  UNL d   1       0.411   4.490  -1.038  0.00  0.00     0.002 A 
ATOM      4  C5  UNL d   1       0.117   4.582   0.327  0.00  0.00    -0.080 A 
ATOM      5  C6  UNL d   1       0.148   5.903   1.037  0.00  0.00     0.076 C 
ATOM      6  C7  UNL d   1      -0.205   3.418   1.032  0.00  0.00     0.002 A 
ATOM      7  C8  UNL d   1      -0.211   2.178   0.389  0.00  0.00     0.006 A 
ENDROOT
BRANCH   1   8
ATOM      8  C1  UNL d   1       0.158   0.737  -1.649  0.00  0.00     0.054 C 
ATOM      9  C   UNL d   1       1.174   0.730  -2.782  0.00  0.00     0.018 C 
ENDBRANCH   1   8
TORSDOF 1
ENDMDL
