MODEL 1
REMARK minimizedAffinity -0.293725938
REMARK minimizedRMSD -1
REMARK  1 active torsions:
REMARK  status: ('A' for Active; 'I' for Inactive)
REMARK    1  A    between atoms: C1_2  and  C2_3 
ROOT
ATOM      1  C2  UNL d   1      -0.589   0.461  -3.356  0.00  0.00    -0.076 A 
ATOM      2  C3  UNL d   1      -0.385  -0.834  -3.862  0.00  0.00     0.004 A 
ATOM      3  C4  UNL d   1       0.896  -1.292  -4.166  0.00  0.00    -0.003 A 
ATOM      4  C5  UNL d   1       1.994  -0.462  -3.969  0.00  0.00     0.000 A 
ATOM      5  C6  UNL d   1       1.812   0.820  -3.451  0.00  0.00     0.000 A 
ATOM      6  C7  UNL d   1       0.529   1.291  -3.124  0.00  0.00    -0.073 A 
ATOM      7  C8  UNL d   1       0.390   2.684  -2.574  0.00  0.00     0.078 C 
ENDROOT
BRANCH   1   8
ATOM      8  C1  UNL d   1      -2.003   0.913  -3.070  0.00  0.00     0.053 C 
ATOM      9  C   UNL d   1      -2.823   1.098  -4.337  0.00  0.00     0.018 C 
ENDBRANCH   1   8
TORSDOF 1
ENDMDL
