MODEL 1
REMARK minimizedAffinity 8.22387314
REMARK minimizedRMSD -1
REMARK  1 active torsions:
REMARK  status: ('A' for Active; 'I' for Inactive)
REMARK    1  A    between atoms: C1_2  and  C2_3 
ROOT
ATOM      1  C2  UNL d   1       1.748   1.601  -3.063  0.00  0.00    -0.076 A 
ATOM      2  C3  UNL d   1       2.126   0.415  -2.409  0.00  0.00     0.004 A 
ATOM      3  C4  UNL d   1       3.119  -0.410  -2.935  0.00  0.00    -0.003 A 
ATOM      4  C5  UNL d   1       3.751  -0.062  -4.124  0.00  0.00     0.000 A 
ATOM      5  C6  UNL d   1       3.401   1.120  -4.777  0.00  0.00     0.000 A 
ATOM      6  C7  UNL d   1       2.413   1.970  -4.251  0.00  0.00    -0.073 A 
ATOM      7  C8  UNL d   1       2.072   3.229  -5.001  0.00  0.00     0.078 C 
ENDROOT
BRANCH   1   8
ATOM      8  C1  UNL d   1       0.646   2.441  -2.459  0.00  0.00     0.053 C 
ATOM      9  C   UNL d   1      -0.499   1.599  -1.918  0.00  0.00     0.018 C 
ENDBRANCH   1   8
TORSDOF 1
ENDMDL
