MODEL 1
REMARK minimizedAffinity 11.0150948
REMARK minimizedRMSD -1
REMARK  1 active torsions:
REMARK  status: ('A' for Active; 'I' for Inactive)
REMARK    1  A    between atoms: C1_2  and  C2_3 
ROOT
ATOM      1  C2  UNL d   1      -5.024   2.270   3.608  0.00  0.00    -0.076 A 
ATOM      2  C3  UNL d   1      -5.547   0.965   3.618  0.00  0.00     0.004 A 
ATOM      3  C4  UNL d   1      -5.999   0.382   4.801  0.00  0.00    -0.003 A 
ATOM      4  C5  UNL d   1      -5.935   1.095   5.993  0.00  0.00     0.000 A 
ATOM      5  C6  UNL d   1      -5.436   2.397   5.999  0.00  0.00     0.000 A 
ATOM      6  C7  UNL d   1      -4.992   3.005   4.812  0.00  0.00    -0.073 A 
ATOM      7  C8  UNL d   1      -4.457   4.410   4.877  0.00  0.00     0.078 C 
ENDROOT
BRANCH   1   8
ATOM      8  C1  UNL d   1      -4.525   2.840   2.300  0.00  0.00     0.053 C 
ATOM      9  C   UNL d   1      -3.907   1.780   1.400  0.00  0.00     0.018 C 
ENDBRANCH   1   8
TORSDOF 1
ENDMDL
