MODEL 1
REMARK minimizedAffinity 11.2648277
REMARK minimizedRMSD -1
REMARK  1 active torsions:
REMARK  status: ('A' for Active; 'I' for Inactive)
REMARK    1  A    between atoms: C1_2  and  C2_3 
ROOT
ATOM      1  C2  UNL d   1       2.467   0.330  -1.358  0.00  0.00    -0.076 A 
ATOM      2  C3  UNL d   1       3.526   0.257  -0.436  0.00  0.00     0.004 A 
ATOM      3  C4  UNL d   1       3.584   1.117   0.660  0.00  0.00    -0.003 A 
ATOM      4  C5  UNL d   1       2.583   2.063   0.852  0.00  0.00     0.000 A 
ATOM      5  C6  UNL d   1       1.516   2.138  -0.043  0.00  0.00     0.000 A 
ATOM      6  C7  UNL d   1       1.434   1.268  -1.144  0.00  0.00    -0.073 A 
ATOM      7  C8  UNL d   1       0.264   1.397  -2.080  0.00  0.00     0.078 C 
ENDROOT
BRANCH   1   8
ATOM      8  C1  UNL d   1       2.472  -0.609  -2.542  0.00  0.00     0.053 C 
ATOM      9  C   UNL d   1       3.580  -0.291  -3.534  0.00  0.00     0.018 C 
ENDBRANCH   1   8
TORSDOF 1
ENDMDL
