MODEL 1
REMARK minimizedAffinity 12.2245054
REMARK minimizedRMSD -1
REMARK  1 active torsions:
REMARK  status: ('A' for Active; 'I' for Inactive)
REMARK    1  A    between atoms: C1_2  and  C2_3 
ROOT
ATOM      1  C2  UNL d   1      -4.898   1.687   3.645  0.00  0.00    -0.076 A 
ATOM      2  C3  UNL d   1      -5.457   0.418   3.416  0.00  0.00     0.004 A 
ATOM      3  C4  UNL d   1      -5.995  -0.329   4.463  0.00  0.00    -0.003 A 
ATOM      4  C5  UNL d   1      -5.984   0.182   5.756  0.00  0.00     0.000 A 
ATOM      5  C6  UNL d   1      -5.450   1.447   5.999  0.00  0.00     0.000 A 
ATOM      6  C7  UNL d   1      -4.918   2.220   4.952  0.00  0.00    -0.073 A 
ATOM      7  C8  UNL d   1      -4.349   3.575   5.272  0.00  0.00     0.078 C 
ENDROOT
BRANCH   1   8
ATOM      8  C1  UNL d   1      -4.304   2.439   2.476  0.00  0.00     0.053 C 
ATOM      9  C   UNL d   1      -3.497   1.539   1.554  0.00  0.00     0.018 C 
ENDBRANCH   1   8
TORSDOF 1
ENDMDL
