MODEL 1
REMARK minimizedAffinity 17.7131329
REMARK minimizedRMSD -1
REMARK  1 active torsions:
REMARK  status: ('A' for Active; 'I' for Inactive)
REMARK    1  A    between atoms: C1_2  and  C2_3 
ROOT
ATOM      1  C2  UNL d   1       2.961   0.345  -2.800  0.00  0.00    -0.076 A 
ATOM      2  C3  UNL d   1       2.340  -0.890  -2.542  0.00  0.00     0.004 A 
ATOM      3  C4  UNL d   1       2.525  -1.978  -3.393  0.00  0.00    -0.003 A 
ATOM      4  C5  UNL d   1       3.335  -1.849  -4.516  0.00  0.00     0.000 A 
ATOM      5  C6  UNL d   1       3.973  -0.637  -4.778  0.00  0.00     0.000 A 
ATOM      6  C7  UNL d   1       3.810   0.465  -3.921  0.00  0.00    -0.073 A 
ATOM      7  C8  UNL d   1       4.517   1.750  -4.255  0.00  0.00     0.078 C 
ENDROOT
BRANCH   1   8
ATOM      8  C1  UNL d   1       2.702   1.497  -1.856  0.00  0.00     0.053 C 
ATOM      9  C   UNL d   1       3.542   1.415  -0.591  0.00  0.00     0.018 C 
ENDBRANCH   1   8
TORSDOF 1
ENDMDL
