MODEL 1
REMARK minimizedAffinity 6.22093821
REMARK minimizedRMSD -1
REMARK  1 active torsions:
REMARK  status: ('A' for Active; 'I' for Inactive)
REMARK    1  A    between atoms: C1_2  and  C2_3 
ROOT
ATOM      1  C2  UNL d   1       1.914   3.580  -5.088  0.00  0.00    -0.076 A 
ATOM      2  C3  UNL d   1       2.063   4.643  -5.995  0.00  0.00     0.004 A 
ATOM      3  C4  UNL d   1       1.368   5.839  -5.820  0.00  0.00    -0.003 A 
ATOM      4  C5  UNL d   1       0.512   5.990  -4.735  0.00  0.00     0.000 A 
ATOM      5  C6  UNL d   1       0.366   4.953  -3.815  0.00  0.00     0.000 A 
ATOM      6  C7  UNL d   1       1.072   3.747  -3.967  0.00  0.00    -0.073 A 
ATOM      7  C8  UNL d   1       0.872   2.659  -2.948  0.00  0.00     0.078 C 
ENDROOT
BRANCH   1   8
ATOM      8  C1  UNL d   1       2.673   2.298  -5.344  0.00  0.00     0.053 C 
ATOM      9  C   UNL d   1       3.596   1.927  -4.193  0.00  0.00     0.018 C 
ENDBRANCH   1   8
TORSDOF 1
ENDMDL
