MODEL 1
REMARK minimizedAffinity 4.54411793
REMARK minimizedRMSD -1
REMARK  1 active torsions:
REMARK  status: ('A' for Active; 'I' for Inactive)
REMARK    1  A    between atoms: C1_2  and  C2_3 
ROOT
ATOM      1  C2  UNL d   1      -2.607   0.051  -0.513  0.00  0.00    -0.076 A 
ATOM      2  C3  UNL d   1      -3.711  -0.805  -0.662  0.00  0.00     0.004 A 
ATOM      3  C4  UNL d   1      -4.792  -0.741   0.216  0.00  0.00    -0.003 A 
ATOM      4  C5  UNL d   1      -4.786   0.181   1.256  0.00  0.00     0.000 A 
ATOM      5  C6  UNL d   1      -3.706   1.050   1.408  0.00  0.00     0.000 A 
ATOM      6  C7  UNL d   1      -2.616   1.010   0.522  0.00  0.00    -0.073 A 
ATOM      7  C8  UNL d   1      -1.476   1.967   0.737  0.00  0.00     0.078 C 
ENDROOT
BRANCH   1   8
ATOM      8  C1  UNL d   1      -1.451  -0.083  -1.479  0.00  0.00     0.053 C 
ATOM      9  C   UNL d   1      -1.549   0.891  -2.644  0.00  0.00     0.018 C 
ENDBRANCH   1   8
TORSDOF 1
ENDMDL
