MODEL 1
REMARK minimizedAffinity 4.12343788
REMARK minimizedRMSD -1
REMARK  1 active torsions:
REMARK  status: ('A' for Active; 'I' for Inactive)
REMARK    1  A    between atoms: C1_2  and  C2_3 
ROOT
ATOM      1  C2  UNL d   1      -1.467   1.039  -1.312  0.00  0.00    -0.076 A 
ATOM      2  C3  UNL d   1      -0.163   1.037  -1.836  0.00  0.00     0.004 A 
ATOM      3  C4  UNL d   1       0.926   1.409  -1.050  0.00  0.00    -0.003 A 
ATOM      4  C5  UNL d   1       0.729   1.788   0.273  0.00  0.00     0.000 A 
ATOM      5  C6  UNL d   1      -0.556   1.779   0.815  0.00  0.00     0.000 A 
ATOM      6  C7  UNL d   1      -1.663   1.391   0.041  0.00  0.00    -0.073 A 
ATOM      7  C8  UNL d   1      -3.027   1.406   0.674  0.00  0.00     0.078 C 
ENDROOT
BRANCH   1   8
ATOM      8  C1  UNL d   1      -2.613   0.652  -2.220  0.00  0.00     0.053 C 
ATOM      9  C   UNL d   1      -2.570   1.380  -3.555  0.00  0.00     0.018 C 
ENDBRANCH   1   8
TORSDOF 1
ENDMDL
