MODEL 1
REMARK minimizedAffinity 11.2505817
REMARK minimizedRMSD -1
REMARK  1 active torsions:
REMARK  status: ('A' for Active; 'I' for Inactive)
REMARK    1  A    between atoms: C1_2  and  C2_3 
ROOT
ATOM      1  C2  UNL d   1       0.018  -5.650   0.947  0.00  0.00    -0.076 A 
ATOM      2  C3  UNL d   1       1.043  -5.574  -0.012  0.00  0.00     0.004 A 
ATOM      3  C4  UNL d   1       2.381  -5.699   0.358  0.00  0.00    -0.003 A 
ATOM      4  C5  UNL d   1       2.715  -5.903   1.693  0.00  0.00     0.000 A 
ATOM      5  C6  UNL d   1       1.710  -5.999   2.654  0.00  0.00     0.000 A 
ATOM      6  C7  UNL d   1       0.355  -5.891   2.296  0.00  0.00    -0.073 A 
ATOM      7  C8  UNL d   1      -0.688  -5.996   3.374  0.00  0.00     0.078 C 
ENDROOT
BRANCH   1   8
ATOM      8  C1  UNL d   1      -1.414  -5.480   0.490  0.00  0.00     0.053 C 
ATOM      9  C   UNL d   1      -1.945  -4.078   0.749  0.00  0.00     0.018 C 
ENDBRANCH   1   8
TORSDOF 1
ENDMDL
