MODEL 1
REMARK minimizedAffinity 6.20758772
REMARK minimizedRMSD -1
REMARK  1 active torsions:
REMARK  status: ('A' for Active; 'I' for Inactive)
REMARK    1  A    between atoms: C1_2  and  C2_3 
ROOT
ATOM      1  C2  UNL d   1       2.523   2.029  -2.857  0.00  0.00    -0.076 A 
ATOM      2  C3  UNL d   1       1.564   3.055  -2.883  0.00  0.00     0.004 A 
ATOM      3  C4  UNL d   1       1.467   3.920  -3.972  0.00  0.00    -0.003 A 
ATOM      4  C5  UNL d   1       2.328   3.771  -5.053  0.00  0.00     0.000 A 
ATOM      5  C6  UNL d   1       3.274   2.747  -5.053  0.00  0.00     0.000 A 
ATOM      6  C7  UNL d   1       3.374   1.857  -3.969  0.00  0.00    -0.073 A 
ATOM      7  C8  UNL d   1       4.418   0.774  -4.019  0.00  0.00     0.078 C 
ENDROOT
BRANCH   1   8
ATOM      8  C1  UNL d   1       2.600   1.139  -1.637  0.00  0.00     0.053 C 
ATOM      9  C   UNL d   1       2.885   1.920  -0.363  0.00  0.00     0.018 C 
ENDBRANCH   1   8
TORSDOF 1
ENDMDL
