MODEL 1
REMARK minimizedAffinity 9.11608124
REMARK minimizedRMSD -1
REMARK  1 active torsions:
REMARK  status: ('A' for Active; 'I' for Inactive)
REMARK    1  A    between atoms: N_2  and  C1_3 
ROOT
ATOM      1  C1  UNL d   1      -1.396   2.379  -0.082  0.00  0.00     0.143 A 
ATOM      2  C2  UNL d   1      -0.852   2.182   1.191  0.00  0.00    -0.057 A 
ATOM      3  C3  UNL d   1      -1.054   3.111   2.219  0.00  0.00     0.033 A 
ATOM      4  C4  UNL d   1      -1.784   4.272   1.982  0.00  0.00    -0.042 A 
ATOM      5  C5  UNL d   1      -2.313   4.500   0.717  0.00  0.00     0.033 A 
ATOM      6  C6  UNL d   1      -2.113   3.565  -0.303  0.00  0.00    -0.057 A 
ENDROOT
BRANCH   1   7
ATOM      7  N   UNL d   1      -1.148   1.541  -1.172  0.00  0.00    -0.732 N 
ATOM      8  C   UNL d   1      -2.229   0.824  -1.812  0.00  0.00     0.284 C 
ATOM      9  H3  UNL d   1      -0.471   1.938  -1.821  0.00  0.00     0.395 HD
ENDBRANCH   1   7
TORSDOF 1
ENDMDL
