MODEL 1
REMARK minimizedAffinity 6.66319704
REMARK minimizedRMSD -1
REMARK  1 active torsions:
REMARK  status: ('A' for Active; 'I' for Inactive)
REMARK    1  A    between atoms: N_2  and  C1_3 
ROOT
ATOM      1  C1  UNL d   1       0.983   0.985   0.841  0.00  0.00     0.143 A 
ATOM      2  C2  UNL d   1       0.655   0.927   2.200  0.00  0.00    -0.057 A 
ATOM      3  C3  UNL d   1      -0.664   1.095   2.636  0.00  0.00     0.033 A 
ATOM      4  C4  UNL d   1      -1.678   1.354   1.720  0.00  0.00    -0.042 A 
ATOM      5  C5  UNL d   1      -1.372   1.441   0.367  0.00  0.00     0.033 A 
ATOM      6  C6  UNL d   1      -0.053   1.266  -0.063  0.00  0.00    -0.057 A 
ENDROOT
BRANCH   1   7
ATOM      7  N   UNL d   1       2.291   0.924   0.353  0.00  0.00    -0.732 N 
ATOM      8  C   UNL d   1       2.871  -0.340  -0.046  0.00  0.00     0.284 C 
ATOM      9  H3  UNL d   1       2.509   1.697  -0.271  0.00  0.00     0.395 HD
ENDBRANCH   1   7
TORSDOF 1
ENDMDL
