MODEL 1
REMARK minimizedAffinity 5.37913847
REMARK minimizedRMSD -1
REMARK  1 active torsions:
REMARK  status: ('A' for Active; 'I' for Inactive)
REMARK    1  A    between atoms: N_2  and  C1_3 
ROOT
ATOM      1  C1  UNL d   1       0.165   0.855   2.941  0.00  0.00     0.143 A 
ATOM      2  C2  UNL d   1       1.109   0.781   1.911  0.00  0.00    -0.057 A 
ATOM      3  C3  UNL d   1       0.785   1.154   0.601  0.00  0.00     0.033 A 
ATOM      4  C4  UNL d   1      -0.502   1.582   0.291  0.00  0.00    -0.042 A 
ATOM      5  C5  UNL d   1      -1.463   1.640   1.294  0.00  0.00     0.033 A 
ATOM      6  C6  UNL d   1      -1.131   1.273   2.602  0.00  0.00    -0.057 A 
ENDROOT
BRANCH   1   7
ATOM      7  N   UNL d   1       0.398   0.406   4.243  0.00  0.00    -0.732 N 
ATOM      8  C   UNL d   1       1.141  -0.813   4.480  0.00  0.00     0.284 C 
ATOM      9  H3  UNL d   1       0.629   1.165   4.880  0.00  0.00     0.395 HD
ENDBRANCH   1   7
TORSDOF 1
ENDMDL
