MODEL 1
REMARK minimizedAffinity 5.75841331
REMARK minimizedRMSD -1
REMARK  1 active torsions:
REMARK  status: ('A' for Active; 'I' for Inactive)
REMARK    1  A    between atoms: N_2  and  C1_3 
ROOT
ATOM      1  C1  UNL d   1      -4.609   1.966  -3.786  0.00  0.00     0.143 A 
ATOM      2  C2  UNL d   1      -5.228   1.781  -2.546  0.00  0.00    -0.057 A 
ATOM      3  C3  UNL d   1      -5.926   2.822  -1.920  0.00  0.00     0.033 A 
ATOM      4  C4  UNL d   1      -5.991   4.078  -2.513  0.00  0.00    -0.042 A 
ATOM      5  C5  UNL d   1      -5.361   4.292  -3.734  0.00  0.00     0.033 A 
ATOM      6  C6  UNL d   1      -4.672   3.246  -4.357  0.00  0.00    -0.057 A 
ENDROOT
BRANCH   1   7
ATOM      7  N   UNL d   1      -3.818   0.999  -4.412  0.00  0.00    -0.732 N 
ATOM      8  C   UNL d   1      -2.374   1.063  -4.332  0.00  0.00     0.284 C 
ATOM      9  H3  UNL d   1      -4.198   0.061  -4.311  0.00  0.00     0.395 HD
ENDBRANCH   1   7
TORSDOF 1
ENDMDL
