MODEL 1
REMARK minimizedAffinity 0.8287341
REMARK minimizedRMSD -1
REMARK  1 active torsions:
REMARK  status: ('A' for Active; 'I' for Inactive)
REMARK    1  A    between atoms: N_2  and  C1_3 
ROOT
ATOM      1  C1  UNL d   1       0.157   0.510   2.624  0.00  0.00     0.143 A 
ATOM      2  C2  UNL d   1       1.239  -0.047   1.933  0.00  0.00    -0.057 A 
ATOM      3  C3  UNL d   1       1.432   0.197   0.568  0.00  0.00     0.033 A 
ATOM      4  C4  UNL d   1       0.526   0.980  -0.140  0.00  0.00    -0.042 A 
ATOM      5  C5  UNL d   1      -0.571   1.522   0.520  0.00  0.00     0.033 A 
ATOM      6  C6  UNL d   1      -0.754   1.281   1.885  0.00  0.00    -0.057 A 
ENDROOT
BRANCH   1   7
ATOM      7  N   UNL d   1      -0.144   0.225   3.958  0.00  0.00    -0.732 N 
ATOM      8  C   UNL d   1       0.828  -0.425   4.810  0.00  0.00     0.284 C 
ATOM      9  H3  UNL d   1      -0.654   0.980   4.410  0.00  0.00     0.395 HD
ENDBRANCH   1   7
TORSDOF 1
ENDMDL
