MODEL 1
REMARK minimizedAffinity 0.425399959
REMARK minimizedRMSD -1
REMARK  1 active torsions:
REMARK  status: ('A' for Active; 'I' for Inactive)
REMARK    1  A    between atoms: N_2  and  C1_3 
ROOT
ATOM      1  C1  UNL d   1       1.099   1.199   0.681  0.00  0.00     0.143 A 
ATOM      2  C2  UNL d   1      -0.175   1.306   0.113  0.00  0.00    -0.057 A 
ATOM      3  C3  UNL d   1      -1.318   1.432   0.911  0.00  0.00     0.033 A 
ATOM      4  C4  UNL d   1      -1.209   1.424   2.298  0.00  0.00    -0.042 A 
ATOM      5  C5  UNL d   1       0.044   1.293   2.885  0.00  0.00     0.033 A 
ATOM      6  C6  UNL d   1       1.183   1.174   2.082  0.00  0.00    -0.057 A 
ENDROOT
BRANCH   1   7
ATOM      7  N   UNL d   1       2.263   0.972  -0.057  0.00  0.00    -0.732 N 
ATOM      8  C   UNL d   1       3.491   1.666   0.270  0.00  0.00     0.284 C 
ATOM      9  H3  UNL d   1       2.390  -0.010  -0.291  0.00  0.00     0.395 HD
ENDBRANCH   1   7
TORSDOF 1
ENDMDL
