MODEL 1
REMARK minimizedAffinity 7.25016737
REMARK minimizedRMSD -1
REMARK  1 active torsions:
REMARK  status: ('A' for Active; 'I' for Inactive)
REMARK    1  A    between atoms: N_2  and  C1_3 
ROOT
ATOM      1  C1  UNL d   1       1.020   1.051   0.606  0.00  0.00     0.143 A 
ATOM      2  C2  UNL d   1       0.900   0.875   1.989  0.00  0.00    -0.057 A 
ATOM      3  C3  UNL d   1      -0.354   0.798   2.605  0.00  0.00     0.033 A 
ATOM      4  C4  UNL d   1      -1.516   0.926   1.851  0.00  0.00    -0.042 A 
ATOM      5  C5  UNL d   1      -1.421   1.127   0.478  0.00  0.00     0.033 A 
ATOM      6  C6  UNL d   1      -0.165   1.196  -0.133  0.00  0.00    -0.057 A 
ENDROOT
BRANCH   1   7
ATOM      7  N   UNL d   1       2.238   1.233  -0.053  0.00  0.00    -0.732 N 
ATOM      8  C   UNL d   1       2.866   0.137  -0.759  0.00  0.00     0.284 C 
ATOM      9  H3  UNL d   1       2.285   2.124  -0.542  0.00  0.00     0.395 HD
ENDBRANCH   1   7
TORSDOF 1
ENDMDL
