MODEL 1
REMARK minimizedAffinity 1.7983464
REMARK minimizedRMSD -1
REMARK  1 active torsions:
REMARK  status: ('A' for Active; 'I' for Inactive)
REMARK    1  A    between atoms: N_2  and  C1_3 
ROOT
ATOM      1  C1  UNL d   1      -0.669   0.976   0.544  0.00  0.00     0.143 A 
ATOM      2  C2  UNL d   1      -1.065   0.800   1.874  0.00  0.00    -0.057 A 
ATOM      3  C3  UNL d   1      -0.178   0.302   2.836  0.00  0.00     0.033 A 
ATOM      4  C4  UNL d   1       1.117  -0.057   2.477  0.00  0.00    -0.042 A 
ATOM      5  C5  UNL d   1       1.525   0.086   1.156  0.00  0.00     0.033 A 
ATOM      6  C6  UNL d   1       0.636   0.589   0.201  0.00  0.00    -0.057 A 
ENDROOT
BRANCH   1   7
ATOM      7  N   UNL d   1      -1.533   1.373  -0.479  0.00  0.00    -0.732 N 
ATOM      8  C   UNL d   1      -2.335   0.398  -1.187  0.00  0.00     0.284 C 
ATOM      9  H3  UNL d   1      -2.026   2.235  -0.259  0.00  0.00     0.395 HD
ENDBRANCH   1   7
TORSDOF 1
ENDMDL
