MODEL 1
REMARK minimizedAffinity 3.61596036
REMARK minimizedRMSD -1
REMARK  1 active torsions:
REMARK  status: ('A' for Active; 'I' for Inactive)
REMARK    1  A    between atoms: N_2  and  C1_3 
ROOT
ATOM      1  C1  UNL d   1       0.832   0.898   0.372  0.00  0.00     0.143 A 
ATOM      2  C2  UNL d   1      -0.270   1.347  -0.364  0.00  0.00    -0.057 A 
ATOM      3  C3  UNL d   1      -1.467   1.707   0.268  0.00  0.00     0.033 A 
ATOM      4  C4  UNL d   1      -1.592   1.596   1.649  0.00  0.00    -0.042 A 
ATOM      5  C5  UNL d   1      -0.518   1.127   2.398  0.00  0.00     0.033 A 
ATOM      6  C6  UNL d   1       0.676   0.776   1.761  0.00  0.00    -0.057 A 
ENDROOT
BRANCH   1   7
ATOM      7  N   UNL d   1       2.015   0.432  -0.207  0.00  0.00    -0.732 N 
ATOM      8  C   UNL d   1       3.264   1.132   0.004  0.00  0.00     0.284 C 
ATOM      9  H3  UNL d   1       2.095  -0.582  -0.165  0.00  0.00     0.395 HD
ENDBRANCH   1   7
TORSDOF 1
ENDMDL
