MODEL 1
REMARK minimizedAffinity -4.28156996
REMARK minimizedRMSD -1
REMARK  1 active torsions:
REMARK  status: ('A' for Active; 'I' for Inactive)
REMARK    1  A    between atoms: C3_4  and  O_7 
ROOT
ATOM      1  C   UNL d   1       2.596  -1.085   0.449  0.00  0.00    -0.033 A 
ATOM      2  C1  UNL d   1       1.621  -1.991   0.027  0.00  0.00     0.039 A 
ATOM      3  C2  UNL d   1       0.319  -1.553  -0.220  0.00  0.00    -0.080 A 
ATOM      4  C3  UNL d   1       0.005  -0.208  -0.043  0.00  0.00     0.150 A 
ATOM      5  C4  UNL d   1       0.972   0.701   0.374  0.00  0.00    -0.007 A 
ATOM      6  C5  UNL d   1       2.272   0.261   0.621  0.00  0.00     0.039 A 
ENDROOT
BRANCH   4   7
ATOM      7  O   UNL d   1      -1.254   0.265  -0.267  0.00  0.00    -0.526 OA
ATOM      8  H5  UNL d   1      -1.822  -0.481  -0.522  0.00  0.00     0.418 HD
ENDBRANCH   4   7
TORSDOF 1
ENDMDL
