MODEL 1
REMARK minimizedAffinity -4.69318533
REMARK minimizedRMSD -1
REMARK  1 active torsions:
REMARK  status: ('A' for Active; 'I' for Inactive)
REMARK    1  A    between atoms: C3_4  and  O_7 
ROOT
ATOM      1  C   UNL d   1       3.348  -0.231   0.138  0.00  0.00    -0.033 A 
ATOM      2  C1  UNL d   1       2.975   1.115   0.144  0.00  0.00     0.039 A 
ATOM      3  C2  UNL d   1       1.631   1.468   0.007  0.00  0.00    -0.080 A 
ATOM      4  C3  UNL d   1       0.672   0.469  -0.133  0.00  0.00     0.150 A 
ATOM      5  C4  UNL d   1       1.037  -0.873  -0.136  0.00  0.00    -0.007 A 
ATOM      6  C5  UNL d   1       2.379  -1.225  -0.001  0.00  0.00     0.039 A 
ENDROOT
BRANCH   4   7
ATOM      7  O   UNL d   1      -0.651   0.765  -0.274  0.00  0.00    -0.526 OA
ATOM      8  H5  UNL d   1      -0.750   1.732  -0.283  0.00  0.00     0.418 HD
ENDBRANCH   4   7
TORSDOF 1
ENDMDL
