MODEL 1
REMARK minimizedAffinity -3.63139486
REMARK minimizedRMSD -1
REMARK  1 active torsions:
REMARK  status: ('A' for Active; 'I' for Inactive)
REMARK    1  A    between atoms: C3_4  and  O_7 
ROOT
ATOM      1  C   UNL d   1       1.095   1.742  -0.056  0.00  0.00    -0.033 A 
ATOM      2  C1  UNL d   1       0.538   0.461  -0.066  0.00  0.00     0.039 A 
ATOM      3  C2  UNL d   1       1.337  -0.651   0.206  0.00  0.00    -0.080 A 
ATOM      4  C3  UNL d   1       2.688  -0.470   0.487  0.00  0.00     0.150 A 
ATOM      5  C4  UNL d   1       3.248   0.803   0.502  0.00  0.00    -0.007 A 
ATOM      6  C5  UNL d   1       2.450   1.913   0.229  0.00  0.00     0.039 A 
ENDROOT
BRANCH   4   7
ATOM      7  O   UNL d   1       3.508  -1.525   0.754  0.00  0.00    -0.526 OA
ATOM      8  H5  UNL d   1       2.990  -2.344   0.680  0.00  0.00     0.418 HD
ENDBRANCH   4   7
TORSDOF 1
ENDMDL
