MODEL 1
REMARK minimizedAffinity -4.4078927
REMARK minimizedRMSD -1
REMARK  1 active torsions:
REMARK  status: ('A' for Active; 'I' for Inactive)
REMARK    1  A    between atoms: C3_4  and  O_7 
ROOT
ATOM      1  C   UNL d   1      -0.035  -0.122  -0.376  0.00  0.00    -0.033 A 
ATOM      2  C1  UNL d   1       1.050   0.626   0.083  0.00  0.00     0.039 A 
ATOM      3  C2  UNL d   1       2.118  -0.008   0.721  0.00  0.00    -0.080 A 
ATOM      4  C3  UNL d   1       2.089  -1.389   0.892  0.00  0.00     0.150 A 
ATOM      5  C4  UNL d   1       1.012  -2.141   0.434  0.00  0.00    -0.007 A 
ATOM      6  C5  UNL d   1      -0.054  -1.506  -0.202  0.00  0.00     0.039 A 
ENDROOT
BRANCH   4   7
ATOM      7  O   UNL d   1       3.106  -2.052   1.513  0.00  0.00    -0.526 OA
ATOM      8  H5  UNL d   1       3.767  -1.401   1.801  0.00  0.00     0.418 HD
ENDBRANCH   4   7
TORSDOF 1
ENDMDL
