MODEL 1
REMARK minimizedAffinity -2.20375061
REMARK minimizedRMSD -1
REMARK  1 active torsions:
REMARK  status: ('A' for Active; 'I' for Inactive)
REMARK    1  A    between atoms: C3_4  and  O_7 
ROOT
ATOM      1  C   UNL d   1      -5.268   0.711   0.793  0.00  0.00    -0.033 A 
ATOM      2  C1  UNL d   1      -4.555   1.882   1.055  0.00  0.00     0.039 A 
ATOM      3  C2  UNL d   1      -3.234   2.009   0.623  0.00  0.00    -0.080 A 
ATOM      4  C3  UNL d   1      -2.638   0.959  -0.070  0.00  0.00     0.150 A 
ATOM      5  C4  UNL d   1      -3.343  -0.209  -0.338  0.00  0.00    -0.007 A 
ATOM      6  C5  UNL d   1      -4.663  -0.334   0.095  0.00  0.00     0.039 A 
ENDROOT
BRANCH   4   7
ATOM      7  O   UNL d   1      -1.349   1.035  -0.508  0.00  0.00    -0.526 OA
ATOM      8  H5  UNL d   1      -0.978   1.888  -0.226  0.00  0.00     0.418 HD
ENDBRANCH   4   7
TORSDOF 1
ENDMDL
