MODEL 1
REMARK minimizedAffinity -2.8476131
REMARK minimizedRMSD -1
REMARK  1 active torsions:
REMARK  status: ('A' for Active; 'I' for Inactive)
REMARK    1  A    between atoms: C3_4  and  O_7 
ROOT
ATOM      1  C   UNL d   1      -0.719   1.015  -0.988  0.00  0.00    -0.033 A 
ATOM      2  C1  UNL d   1       0.178   1.784  -0.244  0.00  0.00     0.039 A 
ATOM      3  C2  UNL d   1       1.184   1.164   0.498  0.00  0.00    -0.080 A 
ATOM      4  C3  UNL d   1       1.284  -0.225   0.487  0.00  0.00     0.150 A 
ATOM      5  C4  UNL d   1       0.397  -0.997  -0.255  0.00  0.00    -0.007 A 
ATOM      6  C5  UNL d   1      -0.608  -0.376  -0.995  0.00  0.00     0.039 A 
ENDROOT
BRANCH   4   7
ATOM      7  O   UNL d   1       2.247  -0.876   1.199  0.00  0.00    -0.526 OA
ATOM      8  H5  UNL d   1       2.769  -0.216   1.686  0.00  0.00     0.418 HD
ENDBRANCH   4   7
TORSDOF 1
ENDMDL
