MODEL 1
REMARK minimizedAffinity -3.35354877
REMARK minimizedRMSD -1
REMARK  1 active torsions:
REMARK  status: ('A' for Active; 'I' for Inactive)
REMARK    1  A    between atoms: C3_4  and  O_7 
ROOT
ATOM      1  C   UNL d   1       3.446   0.963   0.572  0.00  0.00    -0.033 A 
ATOM      2  C1  UNL d   1       3.624  -0.398   0.313  0.00  0.00     0.039 A 
ATOM      3  C2  UNL d   1       2.521  -1.208   0.036  0.00  0.00    -0.080 A 
ATOM      4  C3  UNL d   1       1.248  -0.646   0.020  0.00  0.00     0.150 A 
ATOM      5  C4  UNL d   1       1.063   0.709   0.274  0.00  0.00    -0.007 A 
ATOM      6  C5  UNL d   1       2.166   1.517   0.551  0.00  0.00     0.039 A 
ENDROOT
BRANCH   4   7
ATOM      7  O   UNL d   1       0.140  -1.397  -0.240  0.00  0.00    -0.526 OA
ATOM      8  H5  UNL d   1       0.418  -2.320  -0.367  0.00  0.00     0.418 HD
ENDBRANCH   4   7
TORSDOF 1
ENDMDL
