MODEL 1
REMARK minimizedAffinity -1.08261001
REMARK minimizedRMSD -1
REMARK  2 active torsions:
REMARK  status: ('A' for Active; 'I' for Inactive)
REMARK    1  A    between atoms: C1_2  and  C2_3 
REMARK    2  A    between atoms: C2_3  and  C3_4 
ROOT
ATOM      1  C3  UNL d   1      -0.035   0.254   0.885  0.00  0.00    -0.075 A 
ATOM      2  C4  UNL d   1      -0.489  -1.071   0.959  0.00  0.00     0.002 A 
ATOM      3  C5  UNL d   1      -0.203  -1.976  -0.063  0.00  0.00     0.002 A 
ATOM      4  C6  UNL d   1       0.530  -1.567  -1.175  0.00  0.00    -0.004 A 
ATOM      5  C7  UNL d   1       0.972  -0.249  -1.267  0.00  0.00     0.002 A 
ATOM      6  C8  UNL d   1       0.692   0.657  -0.243  0.00  0.00     0.002 A 
ENDROOT
BRANCH   1   7
ATOM      7  C2  UNL d   1      -0.315   1.231   2.002  0.00  0.00     0.056 C 
BRANCH   7   8
ATOM      8  C1  UNL d   1       0.658   1.127   3.181  0.00  0.00     0.007 C 
ATOM      9  C   UNL d   1       1.699   2.238   3.199  0.00  0.00     0.009 C 
ENDBRANCH   7   8
ENDBRANCH   1   7
TORSDOF 2
ENDMDL
