MODEL 1
REMARK minimizedAffinity 1.25495327
REMARK minimizedRMSD -1
REMARK  2 active torsions:
REMARK  status: ('A' for Active; 'I' for Inactive)
REMARK    1  A    between atoms: C1_2  and  C2_3 
REMARK    2  A    between atoms: C2_3  and  C3_4 
ROOT
ATOM      1  C3  UNL d   1      -3.526   3.408  -5.404  0.00  0.00    -0.075 A 
ATOM      2  C4  UNL d   1      -4.663   2.617  -5.625  0.00  0.00     0.002 A 
ATOM      3  C5  UNL d   1      -5.890   3.209  -5.926  0.00  0.00     0.002 A 
ATOM      4  C6  UNL d   1      -5.999   4.596  -5.999  0.00  0.00    -0.004 A 
ATOM      5  C7  UNL d   1      -4.880   5.392  -5.764  0.00  0.00     0.002 A 
ATOM      6  C8  UNL d   1      -3.650   4.803  -5.467  0.00  0.00     0.002 A 
ENDROOT
BRANCH   1   7
ATOM      7  C2  UNL d   1      -2.189   2.773  -5.107  0.00  0.00     0.056 C 
BRANCH   7   8
ATOM      8  C1  UNL d   1      -2.255   1.261  -4.870  0.00  0.00     0.007 C 
ATOM      9  C   UNL d   1      -1.272   0.775  -3.813  0.00  0.00     0.009 C 
ENDBRANCH   7   8
ENDBRANCH   1   7
TORSDOF 2
ENDMDL
