MODEL 1
REMARK minimizedAffinity -3.18858409
REMARK minimizedRMSD -1
REMARK  2 active torsions:
REMARK  status: ('A' for Active; 'I' for Inactive)
REMARK    1  A    between atoms: C1_2  and  C2_3 
REMARK    2  A    between atoms: C2_3  and  C3_4 
ROOT
ATOM      1  C3  UNL d   1      -1.644   0.108   1.828  0.00  0.00    -0.075 A 
ATOM      2  C4  UNL d   1      -3.011   0.072   1.519  0.00  0.00     0.002 A 
ATOM      3  C5  UNL d   1      -3.932   0.772   2.298  0.00  0.00     0.002 A 
ATOM      4  C6  UNL d   1      -3.501   1.507   3.400  0.00  0.00    -0.004 A 
ATOM      5  C7  UNL d   1      -2.147   1.536   3.726  0.00  0.00     0.002 A 
ATOM      6  C8  UNL d   1      -1.222   0.840   2.945  0.00  0.00     0.002 A 
ENDROOT
BRANCH   1   7
ATOM      7  C2  UNL d   1      -0.638  -0.624   0.971  0.00  0.00     0.056 C 
BRANCH   7   8
ATOM      8  C1  UNL d   1      -0.627  -0.178  -0.495  0.00  0.00     0.007 C 
ATOM      9  C   UNL d   1       0.629   0.592  -0.879  0.00  0.00     0.009 C 
ENDBRANCH   7   8
ENDBRANCH   1   7
TORSDOF 2
ENDMDL
