MODEL 1
REMARK minimizedAffinity -3.84235454
REMARK minimizedRMSD -1
REMARK  2 active torsions:
REMARK  status: ('A' for Active; 'I' for Inactive)
REMARK    1  A    between atoms: C1_2  and  C2_3 
REMARK    2  A    between atoms: C2_3  and  C3_4 
ROOT
ATOM      1  C3  UNL d   1      -1.235   0.552   2.494  0.00  0.00    -0.075 A 
ATOM      2  C4  UNL d   1      -1.745   1.479   3.415  0.00  0.00     0.002 A 
ATOM      3  C5  UNL d   1      -3.122   1.674   3.535  0.00  0.00     0.002 A 
ATOM      4  C6  UNL d   1      -4.003   0.954   2.731  0.00  0.00    -0.004 A 
ATOM      5  C7  UNL d   1      -3.507   0.043   1.802  0.00  0.00     0.002 A 
ATOM      6  C8  UNL d   1      -2.130  -0.157   1.683  0.00  0.00     0.002 A 
ENDROOT
BRANCH   1   7
ATOM      7  C2  UNL d   1       0.252   0.315   2.380  0.00  0.00     0.056 C 
BRANCH   7   8
ATOM      8  C1  UNL d   1       1.051   0.768   3.606  0.00  0.00     0.007 C 
ATOM      9  C   UNL d   1       2.175   1.738   3.265  0.00  0.00     0.009 C 
ENDBRANCH   7   8
ENDBRANCH   1   7
TORSDOF 2
ENDMDL
