MODEL 1
REMARK minimizedAffinity -1.5196116
REMARK minimizedRMSD -1
REMARK  2 active torsions:
REMARK  status: ('A' for Active; 'I' for Inactive)
REMARK    1  A    between atoms: C1_2  and  C2_3 
REMARK    2  A    between atoms: C2_3  and  C3_4 
ROOT
ATOM      1  C3  UNL d   1      -3.652   1.218   2.154  0.00  0.00    -0.075 A 
ATOM      2  C4  UNL d   1      -2.487   1.360   2.921  0.00  0.00     0.002 A 
ATOM      3  C5  UNL d   1      -2.487   2.147   4.072  0.00  0.00     0.002 A 
ATOM      4  C6  UNL d   1      -3.648   2.810   4.466  0.00  0.00    -0.004 A 
ATOM      5  C7  UNL d   1      -4.807   2.691   3.702  0.00  0.00     0.002 A 
ATOM      6  C8  UNL d   1      -4.810   1.900   2.552  0.00  0.00     0.002 A 
ENDROOT
BRANCH   1   7
ATOM      7  C2  UNL d   1      -3.666   0.344   0.923  0.00  0.00     0.056 C 
BRANCH   7   8
ATOM      8  C1  UNL d   1      -4.631  -0.843   1.012  0.00  0.00     0.007 C 
ATOM      9  C   UNL d   1      -4.248  -1.848   2.090  0.00  0.00     0.009 C 
ENDBRANCH   7   8
ENDBRANCH   1   7
TORSDOF 2
ENDMDL
