MODEL 1
REMARK minimizedAffinity -2.28091002
REMARK minimizedRMSD -1
REMARK  2 active torsions:
REMARK  status: ('A' for Active; 'I' for Inactive)
REMARK    1  A    between atoms: C1_2  and  C2_3 
REMARK    2  A    between atoms: C2_3  and  C3_4 
ROOT
ATOM      1  C3  UNL d   1       0.710   0.873   1.394  0.00  0.00    -0.075 A 
ATOM      2  C4  UNL d   1       1.392   1.588   0.399  0.00  0.00     0.002 A 
ATOM      3  C5  UNL d   1       1.319   1.190  -0.936  0.00  0.00     0.002 A 
ATOM      4  C6  UNL d   1       0.572   0.069  -1.291  0.00  0.00    -0.004 A 
ATOM      5  C7  UNL d   1      -0.096  -0.659  -0.309  0.00  0.00     0.002 A 
ATOM      6  C8  UNL d   1      -0.028  -0.260   1.027  0.00  0.00     0.002 A 
ENDROOT
BRANCH   1   7
ATOM      7  C2  UNL d   1       0.762   1.316   2.837  0.00  0.00     0.056 C 
BRANCH   7   8
ATOM      8  C1  UNL d   1       2.172   1.641   3.340  0.00  0.00     0.007 C 
ATOM      9  C   UNL d   1       2.488   3.131   3.324  0.00  0.00     0.009 C 
ENDBRANCH   7   8
ENDBRANCH   1   7
TORSDOF 2
ENDMDL
