MODEL 1
REMARK minimizedAffinity -1.35867298
REMARK minimizedRMSD -1
REMARK  2 active torsions:
REMARK  status: ('A' for Active; 'I' for Inactive)
REMARK    1  A    between atoms: C1_2  and  C2_3 
REMARK    2  A    between atoms: C2_3  and  C3_4 
ROOT
ATOM      1  C3  UNL d   1      -0.933   0.099  -0.450  0.00  0.00    -0.075 A 
ATOM      2  C4  UNL d   1      -0.558   1.239  -1.176  0.00  0.00     0.002 A 
ATOM      3  C5  UNL d   1       0.781   1.465  -1.496  0.00  0.00     0.002 A 
ATOM      4  C6  UNL d   1       1.761   0.563  -1.087  0.00  0.00    -0.004 A 
ATOM      5  C7  UNL d   1       1.401  -0.564  -0.351  0.00  0.00     0.002 A 
ATOM      6  C8  UNL d   1       0.061  -0.795  -0.033  0.00  0.00     0.002 A 
ENDROOT
BRANCH   1   7
ATOM      7  C2  UNL d   1      -2.384  -0.166  -0.125  0.00  0.00     0.056 C 
BRANCH   7   8
ATOM      8  C1  UNL d   1      -3.037   0.915   0.742  0.00  0.00     0.007 C 
ATOM      9  C   UNL d   1      -4.316   0.447   1.424  0.00  0.00     0.009 C 
ENDBRANCH   7   8
ENDBRANCH   1   7
TORSDOF 2
ENDMDL
