MODEL 1
REMARK minimizedAffinity -5.65718555
REMARK minimizedRMSD -1
REMARK  2 active torsions:
REMARK  status: ('A' for Active; 'I' for Inactive)
REMARK    1  A    between atoms: C1_2  and  C2_3 
REMARK    2  A    between atoms: C2_3  and  C3_4 
ROOT
ATOM      1  C3  UNL d   1      -0.150   0.226   0.846  0.00  0.00    -0.075 A 
ATOM      2  C4  UNL d   1       0.773   0.780   1.745  0.00  0.00     0.002 A 
ATOM      3  C5  UNL d   1       0.374   1.155   3.029  0.00  0.00     0.002 A 
ATOM      4  C6  UNL d   1      -0.952   0.992   3.425  0.00  0.00    -0.004 A 
ATOM      5  C7  UNL d   1      -1.881   0.459   2.534  0.00  0.00     0.002 A 
ATOM      6  C8  UNL d   1      -1.483   0.079   1.251  0.00  0.00     0.002 A 
ENDROOT
BRANCH   1   7
ATOM      7  C2  UNL d   1       0.282  -0.209  -0.534  0.00  0.00     0.056 C 
BRANCH   7   8
ATOM      8  C1  UNL d   1       0.747   0.941  -1.434  0.00  0.00     0.007 C 
ATOM      9  C   UNL d   1       1.665   0.488  -2.561  0.00  0.00     0.009 C 
ENDBRANCH   7   8
ENDBRANCH   1   7
TORSDOF 2
ENDMDL
