MODEL 1
REMARK minimizedAffinity -1.05908215
REMARK minimizedRMSD -1
REMARK  2 active torsions:
REMARK  status: ('A' for Active; 'I' for Inactive)
REMARK    1  A    between atoms: C1_2  and  C2_3 
REMARK    2  A    between atoms: C2_3  and  C3_4 
ROOT
ATOM      1  C3  UNL d   1      -3.382  -3.010  -3.258  0.00  0.00    -0.075 A 
ATOM      2  C4  UNL d   1      -2.659  -4.112  -3.737  0.00  0.00     0.002 A 
ATOM      3  C5  UNL d   1      -2.685  -4.441  -5.093  0.00  0.00     0.002 A 
ATOM      4  C6  UNL d   1      -3.440  -3.680  -5.983  0.00  0.00    -0.004 A 
ATOM      5  C7  UNL d   1      -4.175  -2.593  -5.515  0.00  0.00     0.002 A 
ATOM      6  C8  UNL d   1      -4.148  -2.260  -4.160  0.00  0.00     0.002 A 
ENDROOT
BRANCH   1   7
ATOM      7  C2  UNL d   1      -3.336  -2.632  -1.797  0.00  0.00     0.056 C 
BRANCH   7   8
ATOM      8  C1  UNL d   1      -4.476  -1.708  -1.355  0.00  0.00     0.007 C 
ATOM      9  C   UNL d   1      -4.327  -1.214   0.078  0.00  0.00     0.009 C 
ENDBRANCH   7   8
ENDBRANCH   1   7
TORSDOF 2
ENDMDL
