MODEL 1
REMARK minimizedAffinity 6.03112936
REMARK minimizedRMSD -1
REMARK  2 active torsions:
REMARK  status: ('A' for Active; 'I' for Inactive)
REMARK    1  A    between atoms: C1_2  and  C2_3 
REMARK    2  A    between atoms: C2_3  and  C3_4 
ROOT
ATOM      1  C3  UNL d   1      -0.789  -1.705  -0.761  0.00  0.00    -0.075 A 
ATOM      2  C4  UNL d   1      -0.339  -1.161   0.450  0.00  0.00     0.002 A 
ATOM      3  C5  UNL d   1       0.585  -0.115   0.457  0.00  0.00     0.002 A 
ATOM      4  C6  UNL d   1       1.078   0.391  -0.743  0.00  0.00    -0.004 A 
ATOM      5  C7  UNL d   1       0.650  -0.153  -1.952  0.00  0.00     0.002 A 
ATOM      6  C8  UNL d   1      -0.277  -1.197  -1.963  0.00  0.00     0.002 A 
ENDROOT
BRANCH   1   7
ATOM      7  C2  UNL d   1      -1.810  -2.817  -0.776  0.00  0.00     0.056 C 
BRANCH   7   8
ATOM      8  C1  UNL d   1      -2.451  -3.094   0.588  0.00  0.00     0.007 C 
ATOM      9  C   UNL d   1      -3.844  -2.496   0.730  0.00  0.00     0.009 C 
ENDBRANCH   7   8
ENDBRANCH   1   7
TORSDOF 2
ENDMDL
