MODEL 1
REMARK minimizedAffinity -0.0177414771
REMARK minimizedRMSD -1
REMARK  1 active torsions:
REMARK  status: ('A' for Active; 'I' for Inactive)
REMARK    1  A    between atoms: C1_2  and  C2_3 
ROOT
ATOM      1  C2  UNL d   1       2.943   0.027  -1.918  0.00  0.00    -0.073 A 
ATOM      2  C3  UNL d   1       1.632  -0.461  -1.877  0.00  0.00    -0.002 A 
ATOM      3  C4  UNL d   1       0.900  -0.415  -0.689  0.00  0.00     0.004 A 
ATOM      4  C5  UNL d   1       1.468   0.124   0.465  0.00  0.00    -0.004 A 
ATOM      5  C6  UNL d   1       2.772   0.627   0.441  0.00  0.00    -0.075 A 
ATOM      6  C7  UNL d   1       3.398   1.208   1.674  0.00  0.00     0.076 C 
ATOM      7  C8  UNL d   1       3.502   0.576  -0.755  0.00  0.00     0.001 A 
ENDROOT
BRANCH   1   8
ATOM      8  C1  UNL d   1       3.734  -0.014  -3.200  0.00  0.00     0.053 C 
ATOM      9  C   UNL d   1       4.737   1.126  -3.287  0.00  0.00     0.018 C 
ENDBRANCH   1   8
TORSDOF 1
ENDMDL
