MODEL 1
REMARK minimizedAffinity 3.43606353
REMARK minimizedRMSD -1
REMARK  1 active torsions:
REMARK  status: ('A' for Active; 'I' for Inactive)
REMARK    1  A    between atoms: C1_2  and  C2_3 
ROOT
ATOM      1  C2  UNL d   1       5.120   2.163  -2.103  0.00  0.00    -0.073 A 
ATOM      2  C3  UNL d   1       4.091   1.240  -2.321  0.00  0.00    -0.002 A 
ATOM      3  C4  UNL d   1       3.451   0.629  -1.241  0.00  0.00     0.004 A 
ATOM      4  C5  UNL d   1       3.829   0.940   0.065  0.00  0.00    -0.004 A 
ATOM      5  C6  UNL d   1       4.847   1.869   0.303  0.00  0.00    -0.075 A 
ATOM      6  C7  UNL d   1       5.266   2.212   1.703  0.00  0.00     0.076 C 
ATOM      7  C8  UNL d   1       5.486   2.475  -0.786  0.00  0.00     0.001 A 
ENDROOT
BRANCH   1   8
ATOM      8  C1  UNL d   1       5.810   2.829  -3.266  0.00  0.00     0.053 C 
ATOM      9  C   UNL d   1       5.602   4.335  -3.264  0.00  0.00     0.018 C 
ENDBRANCH   1   8
TORSDOF 1
ENDMDL
