MODEL 1
REMARK minimizedAffinity 5.03878403
REMARK minimizedRMSD -1
REMARK  1 active torsions:
REMARK  status: ('A' for Active; 'I' for Inactive)
REMARK    1  A    between atoms: C1_2  and  C2_3 
ROOT
ATOM      1  C2  UNL d   1       2.579  -0.409   1.691  0.00  0.00    -0.073 A 
ATOM      2  C3  UNL d   1       3.311   0.784   1.649  0.00  0.00    -0.002 A 
ATOM      3  C4  UNL d   1       3.536   1.431   0.433  0.00  0.00     0.004 A 
ATOM      4  C5  UNL d   1       3.028   0.897  -0.751  0.00  0.00    -0.004 A 
ATOM      5  C6  UNL d   1       2.284  -0.288  -0.728  0.00  0.00    -0.075 A 
ATOM      6  C7  UNL d   1       1.732  -0.876  -1.993  0.00  0.00     0.076 C 
ATOM      7  C8  UNL d   1       2.065  -0.933   0.496  0.00  0.00     0.001 A 
ENDROOT
BRANCH   1   8
ATOM      8  C1  UNL d   1       2.328  -1.107   3.002  0.00  0.00     0.053 C 
ATOM      9  C   UNL d   1       1.549  -2.400   2.819  0.00  0.00     0.018 C 
ENDBRANCH   1   8
TORSDOF 1
ENDMDL
