MODEL 1
REMARK minimizedAffinity -4.46369934
REMARK minimizedRMSD -1
REMARK  1 active torsions:
REMARK  status: ('A' for Active; 'I' for Inactive)
REMARK    1  A    between atoms: C3_4  and  O_7 
ROOT
ATOM      1  C   UNL d   1       0.582  -0.983  -0.133  0.00  0.00    -0.033 A 
ATOM      2  C1  UNL d   1       1.917  -1.087   0.262  0.00  0.00     0.039 A 
ATOM      3  C2  UNL d   1       2.604   0.042   0.712  0.00  0.00    -0.080 A 
ATOM      4  C3  UNL d   1       1.946   1.267   0.763  0.00  0.00     0.150 A 
ATOM      5  C4  UNL d   1       0.615   1.378   0.375  0.00  0.00    -0.007 A 
ATOM      6  C5  UNL d   1      -0.070   0.250  -0.075  0.00  0.00     0.039 A 
ENDROOT
BRANCH   4   7
ATOM      7  O   UNL d   1       2.576   2.398   1.191  0.00  0.00    -0.526 OA
ATOM      8  H5  UNL d   1       3.499   2.175   1.399  0.00  0.00     0.418 HD
ENDBRANCH   4   7
TORSDOF 1
ENDMDL
