MODEL 1
REMARK minimizedAffinity 0.699787736
REMARK minimizedRMSD -1
REMARK  1 active torsions:
REMARK  status: ('A' for Active; 'I' for Inactive)
REMARK    1  A    between atoms: C3_4  and  O_7 
ROOT
ATOM      1  C   UNL d   1       0.277  -1.946  -0.936  0.00  0.00    -0.033 A 
ATOM      2  C1  UNL d   1      -0.726  -1.004  -1.176  0.00  0.00     0.039 A 
ATOM      3  C2  UNL d   1      -0.555   0.320  -0.765  0.00  0.00    -0.080 A 
ATOM      4  C3  UNL d   1       0.622   0.688  -0.119  0.00  0.00     0.150 A 
ATOM      5  C4  UNL d   1       1.626  -0.244   0.119  0.00  0.00    -0.007 A 
ATOM      6  C5  UNL d   1       1.453  -1.566  -0.290  0.00  0.00     0.039 A 
ENDROOT
BRANCH   4   7
ATOM      7  O   UNL d   1       0.832   1.967   0.304  0.00  0.00    -0.526 OA
ATOM      8  H5  UNL d   1       0.042   2.493   0.097  0.00  0.00     0.418 HD
ENDBRANCH   4   7
TORSDOF 1
ENDMDL
