MODEL 1
REMARK minimizedAffinity 6.32944012
REMARK minimizedRMSD -1
REMARK  1 active torsions:
REMARK  status: ('A' for Active; 'I' for Inactive)
REMARK    1  A    between atoms: C3_4  and  O_7 
ROOT
ATOM      1  C   UNL d   1       1.348  -0.098   4.520  0.00  0.00    -0.033 A 
ATOM      2  C1  UNL d   1       1.350  -1.202   3.665  0.00  0.00     0.039 A 
ATOM      3  C2  UNL d   1       1.218  -1.021   2.287  0.00  0.00    -0.080 A 
ATOM      4  C3  UNL d   1       1.085   0.268   1.777  0.00  0.00     0.150 A 
ATOM      5  C4  UNL d   1       1.086   1.372   2.623  0.00  0.00    -0.007 A 
ATOM      6  C5  UNL d   1       1.217   1.189   3.998  0.00  0.00     0.039 A 
ENDROOT
BRANCH   4   7
ATOM      7  O   UNL d   1       0.948   0.494   0.440  0.00  0.00    -0.526 OA
ATOM      8  H5  UNL d   1       0.936  -0.363  -0.018  0.00  0.00     0.418 HD
ENDBRANCH   4   7
TORSDOF 1
ENDMDL
