MODEL 1
REMARK minimizedAffinity 3.05528808
REMARK minimizedRMSD -1
REMARK  1 active torsions:
REMARK  status: ('A' for Active; 'I' for Inactive)
REMARK    1  A    between atoms: C3_4  and  O_7 
ROOT
ATOM      1  C   UNL d   1       0.160  -1.659   0.897  0.00  0.00    -0.033 A 
ATOM      2  C1  UNL d   1      -0.294  -0.542   0.193  0.00  0.00     0.039 A 
ATOM      3  C2  UNL d   1      -0.599  -0.647  -1.166  0.00  0.00    -0.080 A 
ATOM      4  C3  UNL d   1      -0.447  -1.873  -1.807  0.00  0.00     0.150 A 
ATOM      5  C4  UNL d   1       0.001  -2.991  -1.111  0.00  0.00    -0.007 A 
ATOM      6  C5  UNL d   1       0.306  -2.884   0.245  0.00  0.00     0.039 A 
ENDROOT
BRANCH   4   7
ATOM      7  O   UNL d   1      -0.728  -2.023  -3.133  0.00  0.00    -0.526 OA
ATOM      8  H5  UNL d   1      -0.999  -1.161  -3.489  0.00  0.00     0.418 HD
ENDBRANCH   4   7
TORSDOF 1
ENDMDL
