MODEL 1
REMARK minimizedAffinity 0.0788719878
REMARK minimizedRMSD -1
REMARK  1 active torsions:
REMARK  status: ('A' for Active; 'I' for Inactive)
REMARK    1  A    between atoms: C3_4  and  O_7 
ROOT
ATOM      1  C   UNL d   1       4.346   5.538   5.994  0.00  0.00    -0.033 A 
ATOM      2  C1  UNL d   1       3.788   4.264   5.868  0.00  0.00     0.039 A 
ATOM      3  C2  UNL d   1       4.334   3.348   4.967  0.00  0.00    -0.080 A 
ATOM      4  C3  UNL d   1       5.436   3.716   4.200  0.00  0.00     0.150 A 
ATOM      5  C4  UNL d   1       5.999   4.982   4.324  0.00  0.00    -0.007 A 
ATOM      6  C5  UNL d   1       5.452   5.896   5.224  0.00  0.00     0.039 A 
ENDROOT
BRANCH   4   7
ATOM      7  O   UNL d   1       6.000   2.858   3.304  0.00  0.00    -0.526 OA
ATOM      8  H5  UNL d   1       5.488   2.031   3.306  0.00  0.00     0.418 HD
ENDBRANCH   4   7
TORSDOF 1
ENDMDL
