MODEL 1
REMARK minimizedAffinity 0.920352221
REMARK minimizedRMSD -1
REMARK  1 active torsions:
REMARK  status: ('A' for Active; 'I' for Inactive)
REMARK    1  A    between atoms: C3_4  and  O_7 
ROOT
ATOM      1  C   UNL d   1      -1.027  -1.415  -0.837  0.00  0.00    -0.033 A 
ATOM      2  C1  UNL d   1       0.121  -1.104  -0.107  0.00  0.00     0.039 A 
ATOM      3  C2  UNL d   1       1.355  -1.642  -0.480  0.00  0.00    -0.080 A 
ATOM      4  C3  UNL d   1       1.426  -2.488  -1.583  0.00  0.00     0.150 A 
ATOM      5  C4  UNL d   1       0.286  -2.799  -2.317  0.00  0.00    -0.007 A 
ATOM      6  C5  UNL d   1      -0.945  -2.262  -1.943  0.00  0.00     0.039 A 
ENDROOT
BRANCH   4   7
ATOM      7  O   UNL d   1       2.606  -3.041  -1.982  0.00  0.00    -0.526 OA
ATOM      8  H5  UNL d   1       3.302  -2.760  -1.365  0.00  0.00     0.418 HD
ENDBRANCH   4   7
TORSDOF 1
ENDMDL
