MODEL 1
REMARK minimizedAffinity 4.66711712
REMARK minimizedRMSD -1
REMARK  0 active torsions:
REMARK  status: ('A' for Active; 'I' for Inactive)
ROOT
ATOM      1  C   UNL d   1      -3.154   0.889  -2.261  0.00  0.00     0.078 C 
ATOM      2  C1  UNL d   1      -3.573   2.171  -2.918  0.00  0.00    -0.077 A 
ATOM      3  C2  UNL d   1      -3.367   2.380  -4.287  0.00  0.00    -0.001 A 
ATOM      4  C3  UNL d   1      -3.754   3.582  -4.883  0.00  0.00     0.003 A 
ATOM      5  C4  UNL d   1      -4.348   4.583  -4.117  0.00  0.00    -0.005 A 
ATOM      6  C5  UNL d   1      -4.555   4.384  -2.754  0.00  0.00     0.003 A 
ATOM      7  C6  UNL d   1      -4.169   3.184  -2.156  0.00  0.00    -0.001 A 
ENDROOT
TORSDOF 0
ENDMDL
