MODEL 1
REMARK minimizedAffinity 7.38511276
REMARK minimizedRMSD -1
REMARK  0 active torsions:
REMARK  status: ('A' for Active; 'I' for Inactive)
ROOT
ATOM      1  C   UNL d   1       6.000  -5.459  -2.217  0.00  0.00     0.078 C 
ATOM      2  C1  UNL d   1       5.322  -4.469  -1.317  0.00  0.00    -0.077 A 
ATOM      3  C2  UNL d   1       6.000  -3.896  -0.234  0.00  0.00    -0.001 A 
ATOM      4  C3  UNL d   1       5.353  -2.984   0.601  0.00  0.00     0.003 A 
ATOM      5  C4  UNL d   1       4.025  -2.637   0.363  0.00  0.00    -0.005 A 
ATOM      6  C5  UNL d   1       3.341  -3.204  -0.711  0.00  0.00     0.003 A 
ATOM      7  C6  UNL d   1       3.986  -4.116  -1.547  0.00  0.00    -0.001 A 
ENDROOT
TORSDOF 0
ENDMDL
