MODEL 1
REMARK minimizedAffinity 10.1862335
REMARK minimizedRMSD -1
REMARK  0 active torsions:
REMARK  status: ('A' for Active; 'I' for Inactive)
ROOT
ATOM      1  C   UNL d   1      -3.576   0.927  -2.628  0.00  0.00     0.078 C 
ATOM      2  C1  UNL d   1      -3.657   2.362  -3.055  0.00  0.00    -0.077 A 
ATOM      3  C2  UNL d   1      -3.513   2.724  -4.400  0.00  0.00    -0.001 A 
ATOM      4  C3  UNL d   1      -3.581   4.065  -4.781  0.00  0.00     0.003 A 
ATOM      5  C4  UNL d   1      -3.792   5.055  -3.824  0.00  0.00    -0.005 A 
ATOM      6  C5  UNL d   1      -3.935   4.705  -2.482  0.00  0.00     0.003 A 
ATOM      7  C6  UNL d   1      -3.867   3.364  -2.099  0.00  0.00    -0.001 A 
ENDROOT
TORSDOF 0
ENDMDL
