MODEL 1
REMARK minimizedAffinity 6.30755377
REMARK minimizedRMSD -1
REMARK  0 active torsions:
REMARK  status: ('A' for Active; 'I' for Inactive)
ROOT
ATOM      1  C   UNL d   1       1.520  -1.843   1.933  0.00  0.00     0.078 C 
ATOM      2  C1  UNL d   1       1.634  -2.314   3.352  0.00  0.00    -0.077 A 
ATOM      3  C2  UNL d   1       1.040  -1.598   4.399  0.00  0.00    -0.001 A 
ATOM      4  C3  UNL d   1       1.161  -2.043   5.716  0.00  0.00     0.003 A 
ATOM      5  C4  UNL d   1       1.877  -3.204   5.999  0.00  0.00    -0.005 A 
ATOM      6  C5  UNL d   1       2.474  -3.922   4.965  0.00  0.00     0.003 A 
ATOM      7  C6  UNL d   1       2.353  -3.479   3.647  0.00  0.00    -0.001 A 
ENDROOT
TORSDOF 0
ENDMDL
