MODEL 1
REMARK minimizedAffinity 2.6560719
REMARK minimizedRMSD -1
REMARK  0 active torsions:
REMARK  status: ('A' for Active; 'I' for Inactive)
ROOT
ATOM      1  C   UNL d   1       0.719  -2.888   6.000  0.00  0.00     0.078 C 
ATOM      2  C1  UNL d   1       1.089  -2.653   4.566  0.00  0.00    -0.077 A 
ATOM      3  C2  UNL d   1       1.788  -3.620   3.833  0.00  0.00    -0.001 A 
ATOM      4  C3  UNL d   1       2.134  -3.383   2.502  0.00  0.00     0.003 A 
ATOM      5  C4  UNL d   1       1.787  -2.180   1.892  0.00  0.00    -0.005 A 
ATOM      6  C5  UNL d   1       1.093  -1.211   2.614  0.00  0.00     0.003 A 
ATOM      7  C6  UNL d   1       0.746  -1.445   3.945  0.00  0.00    -0.001 A 
ENDROOT
TORSDOF 0
ENDMDL
