MODEL 1
REMARK minimizedAffinity 6.92766047
REMARK minimizedRMSD -1
REMARK  0 active torsions:
REMARK  status: ('A' for Active; 'I' for Inactive)
ROOT
ATOM      1  C   UNL d   1       0.536  -3.000   6.000  0.00  0.00     0.078 C 
ATOM      2  C1  UNL d   1       0.753  -2.245   4.723  0.00  0.00    -0.077 A 
ATOM      3  C2  UNL d   1       0.561  -0.859   4.663  0.00  0.00    -0.001 A 
ATOM      4  C3  UNL d   1       0.758  -0.170   3.465  0.00  0.00     0.003 A 
ATOM      5  C4  UNL d   1       1.147  -0.859   2.318  0.00  0.00    -0.005 A 
ATOM      6  C5  UNL d   1       1.339  -2.238   2.367  0.00  0.00     0.003 A 
ATOM      7  C6  UNL d   1       1.142  -2.928   3.564  0.00  0.00    -0.001 A 
ENDROOT
TORSDOF 0
ENDMDL
