MODEL 1
REMARK minimizedAffinity 8.97809696
REMARK minimizedRMSD -1
REMARK  2 active torsions:
REMARK  status: ('A' for Active; 'I' for Inactive)
REMARK    1  A    between atoms: C2'_3  and  C1'_4 
REMARK    2  A    between atoms: C1'_4  and  C1_5 
ROOT
ATOM      1  C1  I4B d   1      -1.959   0.937   1.479  0.00  0.00    -0.075 A 
ATOM      2  C2  I4B d   1      -1.512   1.967   2.269  0.00  0.00     0.003 A 
ATOM      3  C3  I4B d   1      -1.454   1.813   3.675  0.00  0.00     0.002 A 
ATOM      4  C4  I4B d   1      -1.897   0.639   4.250  0.00  0.00    -0.004 A 
ATOM      5  C5  I4B d   1      -2.328  -0.412   3.446  0.00  0.00     0.002 A 
ATOM      6  C6  I4B d   1      -2.348  -0.267   2.051  0.00  0.00     0.003 A 
ENDROOT
BRANCH   1   7
ATOM      7  C1' I4B d   1      -2.039   1.145   0.000  0.00  0.00     0.060 C 
BRANCH   7   8
ATOM      8  C2' I4B d   1      -2.773   2.447  -0.249  0.00  0.00    -0.013 C 
ATOM      9  C4' I4B d   1      -2.537   2.947  -1.650  0.00  0.00     0.013 C 
ATOM     10  C3' I4B d   1      -4.232   2.211   0.002  0.00  0.00     0.013 C 
ENDBRANCH   7   8
ENDBRANCH   1   7
TORSDOF 2
ENDMDL
