MODEL 1
REMARK minimizedAffinity 4.6584754
REMARK minimizedRMSD -1
REMARK  2 active torsions:
REMARK  status: ('A' for Active; 'I' for Inactive)
REMARK    1  A    between atoms: C2'_3  and  C1'_4 
REMARK    2  A    between atoms: C1'_4  and  C1_5 
ROOT
ATOM      1  C1  I4B d   1      -3.617   1.401   0.384  0.00  0.00    -0.075 A 
ATOM      2  C2  I4B d   1      -4.806   2.062   0.201  0.00  0.00     0.003 A 
ATOM      3  C3  I4B d   1      -6.000   1.552   0.766  0.00  0.00     0.002 A 
ATOM      4  C4  I4B d   1      -5.968   0.360   1.460  0.00  0.00    -0.004 A 
ATOM      5  C5  I4B d   1      -4.758  -0.298   1.664  0.00  0.00     0.002 A 
ATOM      6  C6  I4B d   1      -3.573   0.232   1.133  0.00  0.00     0.003 A 
ENDROOT
BRANCH   1   7
ATOM      7  C1' I4B d   1      -2.381   1.950  -0.255  0.00  0.00     0.060 C 
BRANCH   7   8
ATOM      8  C2' I4B d   1      -1.475   0.784  -0.596  0.00  0.00    -0.013 C 
ATOM      9  C4' I4B d   1      -0.271   1.240  -1.377  0.00  0.00     0.013 C 
ATOM     10  C3' I4B d   1      -1.069   0.123   0.687  0.00  0.00     0.013 C 
ENDBRANCH   7   8
ENDBRANCH   1   7
TORSDOF 2
ENDMDL
