MODEL 1
REMARK minimizedAffinity 1.70333672
REMARK minimizedRMSD -1
REMARK  2 active torsions:
REMARK  status: ('A' for Active; 'I' for Inactive)
REMARK    1  A    between atoms: C2'_3  and  C1'_4 
REMARK    2  A    between atoms: C1'_4  and  C1_5 
ROOT
ATOM      1  C1  I4B d   1      -3.373   0.853   1.426  0.00  0.00    -0.075 A 
ATOM      2  C2  I4B d   1      -4.420   0.003   1.682  0.00  0.00     0.003 A 
ATOM      3  C3  I4B d   1      -5.755   0.457   1.557  0.00  0.00     0.002 A 
ATOM      4  C4  I4B d   1      -5.996   1.775   1.225  0.00  0.00    -0.004 A 
ATOM      5  C5  I4B d   1      -4.934   2.630   0.943  0.00  0.00     0.002 A 
ATOM      6  C6  I4B d   1      -3.615   2.163   1.032  0.00  0.00     0.003 A 
ENDROOT
BRANCH   1   7
ATOM      7  C1' I4B d   1      -1.976   0.349   1.599  0.00  0.00     0.060 C 
BRANCH   7   8
ATOM      8  C2' I4B d   1      -1.519  -0.226   0.274  0.00  0.00    -0.013 C 
ATOM      9  C4' I4B d   1      -2.386  -1.384  -0.145  0.00  0.00     0.013 C 
ATOM     10  C3' I4B d   1      -1.555   0.874  -0.745  0.00  0.00     0.013 C 
ENDBRANCH   7   8
ENDBRANCH   1   7
TORSDOF 2
ENDMDL
