MODEL 1
REMARK minimizedAffinity 12.4502783
REMARK minimizedRMSD -1
REMARK  2 active torsions:
REMARK  status: ('A' for Active; 'I' for Inactive)
REMARK    1  A    between atoms: C2'_3  and  C1'_4 
REMARK    2  A    between atoms: C1'_4  and  C1_5 
ROOT
ATOM      1  C1  I4B d   1      -2.780   0.160   0.930  0.00  0.00    -0.075 A 
ATOM      2  C2  I4B d   1      -1.873   0.059   1.955  0.00  0.00     0.003 A 
ATOM      3  C3  I4B d   1      -2.263  -0.492   3.200  0.00  0.00     0.002 A 
ATOM      4  C4  I4B d   1      -3.574  -0.879   3.391  0.00  0.00    -0.004 A 
ATOM      5  C5  I4B d   1      -4.486  -0.796   2.343  0.00  0.00     0.002 A 
ATOM      6  C6  I4B d   1      -4.084  -0.285   1.101  0.00  0.00     0.003 A 
ENDROOT
BRANCH   1   7
ATOM      7  C1' I4B d   1      -2.342   0.777  -0.361  0.00  0.00     0.060 C 
BRANCH   7   8
ATOM      8  C2' I4B d   1      -2.833   2.210  -0.384  0.00  0.00    -0.013 C 
ATOM      9  C4' I4B d   1      -2.617   2.839  -1.735  0.00  0.00     0.013 C 
ATOM     10  C3' I4B d   1      -4.286   2.207  -0.013  0.00  0.00     0.013 C 
ENDBRANCH   7   8
ENDBRANCH   1   7
TORSDOF 2
ENDMDL
