MODEL 1
REMARK minimizedAffinity 4.34979153
REMARK minimizedRMSD -1
REMARK  2 active torsions:
REMARK  status: ('A' for Active; 'I' for Inactive)
REMARK    1  A    between atoms: C2'_3  and  C1'_4 
REMARK    2  A    between atoms: C1'_4  and  C1_5 
ROOT
ATOM      1  C1  I4B d   1       5.260   3.608   3.201  0.00  0.00    -0.075 A 
ATOM      2  C2  I4B d   1       5.268   4.836   2.589  0.00  0.00     0.003 A 
ATOM      3  C3  I4B d   1       4.928   6.000   3.320  0.00  0.00     0.002 A 
ATOM      4  C4  I4B d   1       4.540   5.884   4.639  0.00  0.00    -0.004 A 
ATOM      5  C5  I4B d   1       4.555   4.641   5.265  0.00  0.00     0.002 A 
ATOM      6  C6  I4B d   1       4.929   3.497   4.545  0.00  0.00     0.003 A 
ENDROOT
BRANCH   1   7
ATOM      7  C1' I4B d   1       5.592   2.396   2.390  0.00  0.00     0.060 C 
BRANCH   7   8
ATOM      8  C2' I4B d   1       4.954   2.558   1.025  0.00  0.00    -0.013 C 
ATOM      9  C4' I4B d   1       5.998   2.663  -0.055  0.00  0.00     0.013 C 
ATOM     10  C3' I4B d   1       4.052   1.383   0.794  0.00  0.00     0.013 C 
ENDBRANCH   7   8
ENDBRANCH   1   7
TORSDOF 2
ENDMDL
