MODEL 1
REMARK minimizedAffinity 10.0072241
REMARK minimizedRMSD -1
REMARK  2 active torsions:
REMARK  status: ('A' for Active; 'I' for Inactive)
REMARK    1  A    between atoms: C2'_3  and  C1'_4 
REMARK    2  A    between atoms: C1'_4  and  C1_5 
ROOT
ATOM      1  C1  I4B d   1       4.683   4.205   2.816  0.00  0.00    -0.075 A 
ATOM      2  C2  I4B d   1       4.587   3.096   3.618  0.00  0.00     0.003 A 
ATOM      3  C3  I4B d   1       4.738   1.801   3.066  0.00  0.00     0.002 A 
ATOM      4  C4  I4B d   1       4.932   1.660   1.707  0.00  0.00    -0.004 A 
ATOM      5  C5  I4B d   1       5.053   2.786   0.898  0.00  0.00     0.002 A 
ATOM      6  C6  I4B d   1       4.940   4.068   1.458  0.00  0.00     0.003 A 
ENDROOT
BRANCH   1   7
ATOM      7  C1' I4B d   1       4.486   5.556   3.427  0.00  0.00     0.060 C 
BRANCH   7   8
ATOM      8  C2' I4B d   1       4.335   5.374   4.923  0.00  0.00    -0.013 C 
ATOM      9  C4' I4B d   1       5.491   5.991   5.667  0.00  0.00     0.013 C 
ATOM     10  C3' I4B d   1       3.033   5.993   5.336  0.00  0.00     0.013 C 
ENDBRANCH   7   8
ENDBRANCH   1   7
TORSDOF 2
ENDMDL
