MODEL 1
REMARK minimizedAffinity -1.02203131
REMARK minimizedRMSD -1
REMARK  2 active torsions:
REMARK  status: ('A' for Active; 'I' for Inactive)
REMARK    1  A    between atoms: C2'_3  and  C1'_4 
REMARK    2  A    between atoms: C1'_4  and  C1_5 
ROOT
ATOM      1  C1  I4B d   1      -0.398  -5.441  -3.108  0.00  0.00    -0.075 A 
ATOM      2  C2  I4B d   1       0.511  -4.940  -2.210  0.00  0.00     0.003 A 
ATOM      3  C3  I4B d   1       1.893  -4.950  -2.514  0.00  0.00     0.002 A 
ATOM      4  C4  I4B d   1       2.324  -5.512  -3.698  0.00  0.00    -0.004 A 
ATOM      5  C5  I4B d   1       1.400  -5.999  -4.618  0.00  0.00     0.002 A 
ATOM      6  C6  I4B d   1       0.029  -5.951  -4.327  0.00  0.00     0.003 A 
ENDROOT
BRANCH   1   7
ATOM      7  C1' I4B d   1      -1.848  -5.444  -2.740  0.00  0.00     0.060 C 
BRANCH   7   8
ATOM      8  C2' I4B d   1      -1.994  -4.738  -1.408  0.00  0.00    -0.013 C 
ATOM      9  C4' I4B d   1      -3.213  -3.854  -1.389  0.00  0.00     0.013 C 
ATOM     10  C3' I4B d   1      -2.066  -5.783  -0.335  0.00  0.00     0.013 C 
ENDBRANCH   7   8
ENDBRANCH   1   7
TORSDOF 2
ENDMDL
