MODEL 1
REMARK minimizedAffinity 5.92576647
REMARK minimizedRMSD -1
REMARK  2 active torsions:
REMARK  status: ('A' for Active; 'I' for Inactive)
REMARK    1  A    between atoms: C2'_3  and  C1'_4 
REMARK    2  A    between atoms: C1'_4  and  C1_5 
ROOT
ATOM      1  C1  I4B d   1      -2.277   3.696  -5.521  0.00  0.00    -0.075 A 
ATOM      2  C2  I4B d   1      -1.123   3.884  -4.803  0.00  0.00     0.003 A 
ATOM      3  C3  I4B d   1      -0.401   2.771  -4.309  0.00  0.00     0.002 A 
ATOM      4  C4  I4B d   1      -0.893   1.498  -4.512  0.00  0.00    -0.004 A 
ATOM      5  C5  I4B d   1      -2.051   1.308  -5.261  0.00  0.00     0.002 A 
ATOM      6  C6  I4B d   1      -2.742   2.413  -5.779  0.00  0.00     0.003 A 
ENDROOT
BRANCH   1   7
ATOM      7  C1' I4B d   1      -3.032   4.896  -6.000  0.00  0.00     0.060 C 
BRANCH   7   8
ATOM      8  C2' I4B d   1      -4.508   4.639  -5.773  0.00  0.00    -0.013 C 
ATOM      9  C4' I4B d   1      -4.762   4.104  -4.388  0.00  0.00     0.013 C 
ATOM     10  C3' I4B d   1      -5.242   5.927  -5.999  0.00  0.00     0.013 C 
ENDBRANCH   7   8
ENDBRANCH   1   7
TORSDOF 2
ENDMDL
