MODEL 1
REMARK minimizedAffinity 10.2825823
REMARK minimizedRMSD -1
REMARK  2 active torsions:
REMARK  status: ('A' for Active; 'I' for Inactive)
REMARK    1  A    between atoms: C2'_3  and  C1'_4 
REMARK    2  A    between atoms: C1'_4  and  C1_5 
ROOT
ATOM      1  C1  I4B d   1       1.636   1.038   0.091  0.00  0.00    -0.075 A 
ATOM      2  C2  I4B d   1       2.506   0.000  -0.135  0.00  0.00     0.003 A 
ATOM      3  C3  I4B d   1       2.839  -0.375  -1.459  0.00  0.00     0.002 A 
ATOM      4  C4  I4B d   1       2.244   0.276  -2.520  0.00  0.00    -0.004 A 
ATOM      5  C5  I4B d   1       1.380   1.342  -2.290  0.00  0.00     0.002 A 
ATOM      6  C6  I4B d   1       1.083   1.734  -0.976  0.00  0.00     0.003 A 
ENDROOT
BRANCH   1   7
ATOM      7  C1' I4B d   1       1.281   1.386   1.501  0.00  0.00     0.060 C 
BRANCH   7   8
ATOM      8  C2' I4B d   1       0.442   2.648   1.473  0.00  0.00    -0.013 C 
ATOM      9  C4' I4B d   1      -0.565   2.658   2.593  0.00  0.00     0.013 C 
ATOM     10  C3' I4B d   1       1.370   3.822   1.568  0.00  0.00     0.013 C 
ENDBRANCH   7   8
ENDBRANCH   1   7
TORSDOF 2
ENDMDL
