MODEL 1
REMARK minimizedAffinity 5.59269571
REMARK minimizedRMSD -1
REMARK  2 active torsions:
REMARK  status: ('A' for Active; 'I' for Inactive)
REMARK    1  A    between atoms: C2'_3  and  C1'_4 
REMARK    2  A    between atoms: C1'_4  and  C1_5 
ROOT
ATOM      1  C1  I4B d   1       1.429   2.471   2.015  0.00  0.00    -0.075 A 
ATOM      2  C2  I4B d   1       0.858   2.666   3.248  0.00  0.00     0.003 A 
ATOM      3  C3  I4B d   1      -0.530   2.459   3.432  0.00  0.00     0.002 A 
ATOM      4  C4  I4B d   1      -1.314   2.109   2.351  0.00  0.00    -0.004 A 
ATOM      5  C5  I4B d   1      -0.729   1.890   1.107  0.00  0.00     0.002 A 
ATOM      6  C6  I4B d   1       0.653   2.060   0.940  0.00  0.00     0.003 A 
ENDROOT
BRANCH   1   7
ATOM      7  C1' I4B d   1       2.893   2.731   1.850  0.00  0.00     0.060 C 
BRANCH   7   8
ATOM      8  C2' I4B d   1       3.585   1.396   1.659  0.00  0.00    -0.013 C 
ATOM      9  C4' I4B d   1       3.001   0.641   0.495  0.00  0.00     0.013 C 
ATOM     10  C3' I4B d   1       5.048   1.658   1.456  0.00  0.00     0.013 C 
ENDBRANCH   7   8
ENDBRANCH   1   7
TORSDOF 2
ENDMDL
