MODEL 1
REMARK minimizedAffinity 11.5322418
REMARK minimizedRMSD -1
REMARK  2 active torsions:
REMARK  status: ('A' for Active; 'I' for Inactive)
REMARK    1  A    between atoms: C2'_3  and  C1'_4 
REMARK    2  A    between atoms: C1'_4  and  C1_5 
ROOT
ATOM      1  C1  I4B d   1       1.217   1.756   0.087  0.00  0.00    -0.075 A 
ATOM      2  C2  I4B d   1       1.143   1.621  -1.277  0.00  0.00     0.003 A 
ATOM      3  C3  I4B d   1       2.174   0.955  -1.985  0.00  0.00     0.002 A 
ATOM      4  C4  I4B d   1       3.276   0.488  -1.299  0.00  0.00    -0.004 A 
ATOM      5  C5  I4B d   1       3.338   0.605   0.087  0.00  0.00     0.002 A 
ATOM      6  C6  I4B d   1       2.297   1.232   0.786  0.00  0.00     0.003 A 
ENDROOT
BRANCH   1   7
ATOM      7  C1' I4B d   1       0.127   2.494   0.798  0.00  0.00     0.060 C 
BRANCH   7   8
ATOM      8  C2' I4B d   1      -0.335   1.638   1.960  0.00  0.00    -0.013 C 
ATOM      9  C4' I4B d   1      -1.228   2.416   2.889  0.00  0.00     0.013 C 
ATOM     10  C3' I4B d   1      -1.046   0.442   1.399  0.00  0.00     0.013 C 
ENDBRANCH   7   8
ENDBRANCH   1   7
TORSDOF 2
ENDMDL
