MODEL 1
REMARK minimizedAffinity 6.76595926
REMARK minimizedRMSD -1
REMARK  2 active torsions:
REMARK  status: ('A' for Active; 'I' for Inactive)
REMARK    1  A    between atoms: C2'_3  and  C1'_4 
REMARK    2  A    between atoms: C1'_4  and  C1_5 
ROOT
ATOM      1  C1  I4B d   1       1.607   2.877   2.044  0.00  0.00    -0.075 A 
ATOM      2  C2  I4B d   1       1.148   3.059   3.325  0.00  0.00     0.003 A 
ATOM      3  C3  I4B d   1      -0.237   2.966   3.605  0.00  0.00     0.002 A 
ATOM      4  C4  I4B d   1      -1.126   2.742   2.574  0.00  0.00    -0.004 A 
ATOM      5  C5  I4B d   1      -0.657   2.535   1.280  0.00  0.00     0.002 A 
ATOM      6  C6  I4B d   1       0.719   2.591   1.015  0.00  0.00     0.003 A 
ENDROOT
BRANCH   1   7
ATOM      7  C1' I4B d   1       3.072   3.014   1.777  0.00  0.00     0.060 C 
BRANCH   7   8
ATOM      8  C2' I4B d   1       3.669   1.623   1.721  0.00  0.00    -0.013 C 
ATOM      9  C4' I4B d   1       2.991   0.781   0.672  0.00  0.00     0.013 C 
ATOM     10  C3' I4B d   1       5.136   1.759   1.441  0.00  0.00     0.013 C 
ENDBRANCH   7   8
ENDBRANCH   1   7
TORSDOF 2
ENDMDL
