MODEL 1
REMARK minimizedAffinity 2.58334517
REMARK minimizedRMSD -1
REMARK  2 active torsions:
REMARK  status: ('A' for Active; 'I' for Inactive)
REMARK    1  A    between atoms: C2'_3  and  C1'_4 
REMARK    2  A    between atoms: C1'_4  and  C1_5 
ROOT
ATOM      1  C1  I4B d   1       2.151   1.394   0.832  0.00  0.00    -0.075 A 
ATOM      2  C2  I4B d   1       1.209   0.693   0.121  0.00  0.00     0.003 A 
ATOM      3  C3  I4B d   1      -0.156   1.066   0.186  0.00  0.00     0.002 A 
ATOM      4  C4  I4B d   1      -0.538   2.107   1.007  0.00  0.00    -0.004 A 
ATOM      5  C5  I4B d   1       0.422   2.832   1.708  0.00  0.00     0.002 A 
ATOM      6  C6  I4B d   1       1.776   2.481   1.611  0.00  0.00     0.003 A 
ENDROOT
BRANCH   1   7
ATOM      7  C1' I4B d   1       3.579   0.953   0.766  0.00  0.00     0.060 C 
BRANCH   7   8
ATOM      8  C2' I4B d   1       4.417   2.143   0.345  0.00  0.00    -0.013 C 
ATOM      9  C4' I4B d   1       5.587   2.341   1.272  0.00  0.00     0.013 C 
ATOM     10  C3' I4B d   1       4.875   1.911  -1.064  0.00  0.00     0.013 C 
ENDBRANCH   7   8
ENDBRANCH   1   7
TORSDOF 2
ENDMDL
