MODEL 1
REMARK minimizedAffinity 9.28473759
REMARK minimizedRMSD -1
REMARK  0 active torsions:
REMARK  status: ('A' for Active; 'I' for Inactive)
ROOT
ATOM      1  C   UNL d   1       2.409   1.670  -5.966  0.00  0.00     0.172 C 
ATOM      2  N   UNL d   1       3.531   2.579  -5.964  0.00  0.00    -0.070 N 
ATOM      3  C1  UNL d   1       3.451   3.945  -5.933  0.00  0.00    -0.004 A 
ATOM      4  C2  UNL d   1       4.736   4.444  -5.941  0.00  0.00    -0.047 A 
ATOM      5  C3  UNL d   1       5.619   3.338  -5.978  0.00  0.00    -0.047 A 
ATOM      6  C4  UNL d   1       4.846   2.196  -5.992  0.00  0.00    -0.004 A 
ENDROOT
TORSDOF 0
ENDMDL
