MODEL 1
REMARK minimizedAffinity 11.6201668
REMARK minimizedRMSD -1
REMARK  0 active torsions:
REMARK  status: ('A' for Active; 'I' for Inactive)
ROOT
ATOM      1  C   UNL d   1      -2.980   3.928   2.367  0.00  0.00     0.172 C 
ATOM      2  N   UNL d   1      -2.734   2.698   1.653  0.00  0.00    -0.070 N 
ATOM      3  C1  UNL d   1      -1.616   1.916   1.772  0.00  0.00    -0.004 A 
ATOM      4  C2  UNL d   1      -1.765   0.836   0.928  0.00  0.00    -0.047 A 
ATOM      5  C3  UNL d   1      -3.014   0.975   0.279  0.00  0.00    -0.047 A 
ATOM      6  C4  UNL d   1      -3.593   2.136   0.746  0.00  0.00    -0.004 A 
ENDROOT
TORSDOF 0
ENDMDL
