MODEL 1
REMARK minimizedAffinity 1.06109893
REMARK minimizedRMSD -1
REMARK  0 active torsions:
REMARK  status: ('A' for Active; 'I' for Inactive)
ROOT
ATOM      1  C   UNL d   1       5.999  -5.765   5.866  0.00  0.00     0.172 C 
ATOM      2  N   UNL d   1       5.149  -5.823   4.700  0.00  0.00    -0.070 N 
ATOM      3  C1  UNL d   1       5.568  -5.713   3.401  0.00  0.00    -0.004 A 
ATOM      4  C2  UNL d   1       4.459  -5.820   2.589  0.00  0.00    -0.047 A 
ATOM      5  C3  UNL d   1       3.335  -6.000   3.430  0.00  0.00    -0.047 A 
ATOM      6  C4  UNL d   1       3.791  -5.998   4.731  0.00  0.00    -0.004 A 
ENDROOT
TORSDOF 0
ENDMDL
