MODEL 1
REMARK minimizedAffinity 6.83871222
REMARK minimizedRMSD -1
REMARK  0 active torsions:
REMARK  status: ('A' for Active; 'I' for Inactive)
ROOT
ATOM      1  C   UNL d   1       2.638   5.252  -5.989  0.00  0.00     0.172 C 
ATOM      2  N   UNL d   1       3.776   4.371  -5.874  0.00  0.00    -0.070 N 
ATOM      3  C1  UNL d   1       3.747   3.007  -6.000  0.00  0.00    -0.004 A 
ATOM      4  C2  UNL d   1       5.031   2.539  -5.824  0.00  0.00    -0.047 A 
ATOM      5  C3  UNL d   1       5.861   3.660  -5.583  0.00  0.00    -0.047 A 
ATOM      6  C4  UNL d   1       5.058   4.781  -5.620  0.00  0.00    -0.004 A 
ENDROOT
TORSDOF 0
ENDMDL
