MODEL 1
REMARK minimizedAffinity 2.49479437
REMARK minimizedRMSD -1
REMARK  0 active torsions:
REMARK  status: ('A' for Active; 'I' for Inactive)
ROOT
ATOM      1  C   UNL d   1      -2.707   2.471   1.851  0.00  0.00     0.172 C 
ATOM      2  N   UNL d   1      -1.723   1.534   2.342  0.00  0.00    -0.070 N 
ATOM      3  C1  UNL d   1      -0.375   1.760   2.419  0.00  0.00    -0.004 A 
ATOM      4  C2  UNL d   1       0.213   0.627   2.939  0.00  0.00    -0.047 A 
ATOM      5  C3  UNL d   1      -0.817  -0.312   3.182  0.00  0.00    -0.047 A 
ATOM      6  C4  UNL d   1      -2.006   0.276   2.803  0.00  0.00    -0.004 A 
ENDROOT
TORSDOF 0
ENDMDL
