MODEL 1
REMARK minimizedAffinity 6.85773659
REMARK minimizedRMSD -1
REMARK  0 active torsions:
REMARK  status: ('A' for Active; 'I' for Inactive)
ROOT
ATOM      1  C   UNL d   1      -4.067   2.451   2.547  0.00  0.00     0.172 C 
ATOM      2  N   UNL d   1      -3.182   1.378   2.160  0.00  0.00    -0.070 N 
ATOM      3  C1  UNL d   1      -3.292   0.623   1.023  0.00  0.00    -0.004 A 
ATOM      4  C2  UNL d   1      -2.260  -0.290   1.021  0.00  0.00    -0.047 A 
ATOM      5  C3  UNL d   1      -1.504  -0.078   2.199  0.00  0.00    -0.047 A 
ATOM      6  C4  UNL d   1      -2.097   0.961   2.885  0.00  0.00    -0.004 A 
ENDROOT
TORSDOF 0
ENDMDL
