MODEL 1
REMARK minimizedAffinity 6.77290726
REMARK minimizedRMSD -1
REMARK  0 active torsions:
REMARK  status: ('A' for Active; 'I' for Inactive)
ROOT
ATOM      1  C   UNL d   1       0.166  -2.292  -5.591  0.00  0.00     0.172 C 
ATOM      2  N   UNL d   1       0.934  -1.294  -4.885  0.00  0.00    -0.070 N 
ATOM      3  C1  UNL d   1       2.200  -0.883  -5.208  0.00  0.00    -0.004 A 
ATOM      4  C2  UNL d   1       2.578   0.078  -4.296  0.00  0.00    -0.047 A 
ATOM      5  C3  UNL d   1       1.502   0.251  -3.392  0.00  0.00    -0.047 A 
ATOM      6  C4  UNL d   1       0.498  -0.611  -3.780  0.00  0.00    -0.004 A 
ENDROOT
TORSDOF 0
ENDMDL
