MODEL 1
REMARK minimizedAffinity 3.22227383
REMARK minimizedRMSD -1
REMARK  0 active torsions:
REMARK  status: ('A' for Active; 'I' for Inactive)
ROOT
ATOM      1  C   UNL d   1      -3.792  -3.380  -6.000  0.00  0.00     0.172 C 
ATOM      2  N   UNL d   1      -2.550  -2.727  -5.657  0.00  0.00    -0.070 N 
ATOM      3  C1  UNL d   1      -2.430  -1.563  -4.946  0.00  0.00    -0.004 A 
ATOM      4  C2  UNL d   1      -1.087  -1.275  -4.832  0.00  0.00    -0.047 A 
ATOM      5  C3  UNL d   1      -0.376  -2.301  -5.498  0.00  0.00    -0.047 A 
ATOM      6  C4  UNL d   1      -1.306  -3.187  -6.000  0.00  0.00    -0.004 A 
ENDROOT
TORSDOF 0
ENDMDL
