MODEL 1
REMARK minimizedAffinity 1.3206284
REMARK minimizedRMSD -1
REMARK  0 active torsions:
REMARK  status: ('A' for Active; 'I' for Inactive)
ROOT
ATOM      1  C   UNL d   1       0.775   0.805   2.714  0.00  0.00     0.172 C 
ATOM      2  N   UNL d   1       2.010   0.770   1.966  0.00  0.00    -0.070 N 
ATOM      3  C1  UNL d   1       3.140   0.085   2.323  0.00  0.00    -0.004 A 
ATOM      4  C2  UNL d   1       4.092   0.306   1.351  0.00  0.00    -0.047 A 
ATOM      5  C3  UNL d   1       3.514   1.154   0.377  0.00  0.00    -0.047 A 
ATOM      6  C4  UNL d   1       2.224   1.426   0.783  0.00  0.00    -0.004 A 
ENDROOT
TORSDOF 0
ENDMDL
