MODEL 1
REMARK minimizedAffinity 5.9834671
REMARK minimizedRMSD -1
REMARK  0 active torsions:
REMARK  status: ('A' for Active; 'I' for Inactive)
ROOT
ATOM      1  C   UNL d   1       5.350   3.380  -5.235  0.00  0.00     0.172 C 
ATOM      2  N   UNL d   1       4.071   4.047  -5.166  0.00  0.00    -0.070 N 
ATOM      3  C1  UNL d   1       3.726   5.019  -4.265  0.00  0.00    -0.004 A 
ATOM      4  C2  UNL d   1       2.427   5.397  -4.529  0.00  0.00    -0.047 A 
ATOM      5  C3  UNL d   1       1.976   4.624  -5.626  0.00  0.00    -0.047 A 
ATOM      6  C4  UNL d   1       3.014   3.797  -6.000  0.00  0.00    -0.004 A 
ENDROOT
TORSDOF 0
ENDMDL
