MODEL 1
REMARK minimizedAffinity 3.20845294
REMARK minimizedRMSD -1
REMARK  0 active torsions:
REMARK  status: ('A' for Active; 'I' for Inactive)
ROOT
ATOM      1  C   UNL d   1      -2.248  -2.990  -6.000  0.00  0.00     0.172 C 
ATOM      2  N   UNL d   1      -1.982  -1.571  -5.995  0.00  0.00    -0.070 N 
ATOM      3  C1  UNL d   1      -0.742  -0.991  -5.993  0.00  0.00    -0.004 A 
ATOM      4  C2  UNL d   1      -0.916   0.377  -5.989  0.00  0.00    -0.047 A 
ATOM      5  C3  UNL d   1      -2.308   0.627  -5.989  0.00  0.00    -0.047 A 
ATOM      6  C4  UNL d   1      -2.945  -0.596  -5.993  0.00  0.00    -0.004 A 
ENDROOT
TORSDOF 0
ENDMDL
