MODEL 1
REMARK minimizedAffinity 3.98603892
REMARK minimizedRMSD -1
REMARK  0 active torsions:
REMARK  status: ('A' for Active; 'I' for Inactive)
ROOT
ATOM      1  C   UNL d   1      -4.611  -1.214   1.105  0.00  0.00     0.172 C 
ATOM      2  N   UNL d   1      -3.606  -0.237   1.455  0.00  0.00    -0.070 N 
ATOM      3  C1  UNL d   1      -2.359  -0.516   1.946  0.00  0.00    -0.004 A 
ATOM      4  C2  UNL d   1      -1.708   0.682   2.150  0.00  0.00    -0.047 A 
ATOM      5  C3  UNL d   1      -2.596   1.716   1.770  0.00  0.00    -0.047 A 
ATOM      6  C4  UNL d   1      -3.764   1.119   1.344  0.00  0.00    -0.004 A 
ENDROOT
TORSDOF 0
ENDMDL
