MODEL 1
REMARK minimizedAffinity 8.43031502
REMARK minimizedRMSD -1
REMARK  0 active torsions:
REMARK  status: ('A' for Active; 'I' for Inactive)
ROOT
ATOM      1  C   UNL d   1       1.390  -5.999   4.837  0.00  0.00     0.172 C 
ATOM      2  N   UNL d   1       1.674  -5.463   3.527  0.00  0.00    -0.070 N 
ATOM      3  C1  UNL d   1       1.095  -4.350   2.977  0.00  0.00    -0.004 A 
ATOM      4  C2  UNL d   1       1.633  -4.172   1.721  0.00  0.00    -0.047 A 
ATOM      5  C3  UNL d   1       2.567  -5.214   1.508  0.00  0.00    -0.047 A 
ATOM      6  C4  UNL d   1       2.572  -5.999   2.642  0.00  0.00    -0.004 A 
ENDROOT
TORSDOF 0
ENDMDL
