MODEL 1
REMARK minimizedAffinity 7.8162756
REMARK minimizedRMSD -1
REMARK  0 active torsions:
REMARK  status: ('A' for Active; 'I' for Inactive)
ROOT
ATOM      1  C   UNL d   1      -5.008  -4.180  -5.970  0.00  0.00     0.172 C 
ATOM      2  N   UNL d   1      -3.583  -4.412  -5.981  0.00  0.00    -0.070 N 
ATOM      3  C1  UNL d   1      -2.973  -5.638  -5.991  0.00  0.00    -0.004 A 
ATOM      4  C2  UNL d   1      -1.610  -5.432  -5.999  0.00  0.00    -0.047 A 
ATOM      5  C3  UNL d   1      -1.394  -4.033  -5.993  0.00  0.00    -0.047 A 
ATOM      6  C4  UNL d   1      -2.631  -3.426  -5.981  0.00  0.00    -0.004 A 
ENDROOT
TORSDOF 0
ENDMDL
