MODEL 1
REMARK minimizedAffinity -2.49588728
REMARK minimizedRMSD -1
REMARK  0 active torsions:
REMARK  status: ('A' for Active; 'I' for Inactive)
ROOT
ATOM      1  C   UNL d   1       5.570  -5.459   5.952  0.00  0.00     0.172 C 
ATOM      2  N   UNL d   1       5.632  -5.141   4.545  0.00  0.00    -0.070 N 
ATOM      3  C1  UNL d   1       5.339  -6.000   3.519  0.00  0.00    -0.004 A 
ATOM      4  C2  UNL d   1       5.519  -5.319   2.334  0.00  0.00    -0.047 A 
ATOM      5  C3  UNL d   1       5.935  -4.006   2.659  0.00  0.00    -0.047 A 
ATOM      6  C4  UNL d   1       5.996  -3.923   4.034  0.00  0.00    -0.004 A 
ENDROOT
TORSDOF 0
ENDMDL
