MODEL 1
REMARK minimizedAffinity 2.29238892
REMARK minimizedRMSD -1
REMARK  0 active torsions:
REMARK  status: ('A' for Active; 'I' for Inactive)
ROOT
ATOM      1  C   UNL d   1       5.952  -5.044   5.965  0.00  0.00     0.172 C 
ATOM      2  N   UNL d   1       5.971  -3.875   5.117  0.00  0.00    -0.070 N 
ATOM      3  C1  UNL d   1       5.982  -3.882   3.748  0.00  0.00    -0.004 A 
ATOM      4  C2  UNL d   1       5.999  -2.572   3.319  0.00  0.00    -0.047 A 
ATOM      5  C3  UNL d   1       5.999  -1.750   4.471  0.00  0.00    -0.047 A 
ATOM      6  C4  UNL d   1       5.982  -2.582   5.570  0.00  0.00    -0.004 A 
ENDROOT
TORSDOF 0
ENDMDL
