MODEL 1
REMARK minimizedAffinity -2.86056447
REMARK minimizedRMSD -1
REMARK  0 active torsions:
REMARK  status: ('A' for Active; 'I' for Inactive)
ROOT
ATOM      1  C   UNL d   1      -0.922  -2.458   1.862  0.00  0.00    -0.002 A 
ATOM      2  C1  UNL d   1      -1.851  -1.669   2.525  0.00  0.00     0.010 A 
ATOM      3  C2  UNL d   1      -1.903  -0.292   2.300  0.00  0.00     0.041 A 
ATOM      4  C3  UNL d   1      -0.998   0.284   1.387  0.00  0.00    -0.075 A 
ATOM      5  S   UNL d   1      -0.877   1.948   0.953  0.00  0.00     0.015 SA
ATOM      6  C4  UNL d   1       0.410   1.651  -0.124  0.00  0.00     0.022 A 
ATOM      7  C5  UNL d   1       0.752   0.320  -0.164  0.00  0.00     0.026 A 
ATOM      8  C6  UNL d   1      -0.054  -0.490   0.706  0.00  0.00    -0.082 A 
ATOM      9  C7  UNL d   1      -0.026  -1.883   0.957  0.00  0.00     0.045 A 
ENDROOT
TORSDOF 0
ENDMDL
