MODEL 1
REMARK minimizedAffinity -3.74775934
REMARK minimizedRMSD -1
REMARK  0 active torsions:
REMARK  status: ('A' for Active; 'I' for Inactive)
ROOT
ATOM      1  C   UNL d   1      -1.150  -2.786   0.661  0.00  0.00    -0.002 A 
ATOM      2  C1  UNL d   1      -2.229  -2.084   1.180  0.00  0.00     0.010 A 
ATOM      3  C2  UNL d   1      -2.242  -0.687   1.161  0.00  0.00     0.041 A 
ATOM      4  C3  UNL d   1      -1.144  -0.003   0.604  0.00  0.00    -0.075 A 
ATOM      5  S   UNL d   1      -0.942   1.704   0.471  0.00  0.00     0.015 SA
ATOM      6  C4  UNL d   1       0.580   1.541  -0.278  0.00  0.00     0.022 A 
ATOM      7  C5  UNL d   1       0.941   0.223  -0.430  0.00  0.00     0.026 A 
ATOM      8  C6  UNL d   1      -0.047  -0.688   0.075  0.00  0.00    -0.082 A 
ATOM      9  C7  UNL d   1      -0.063  -2.103   0.110  0.00  0.00     0.045 A 
ENDROOT
TORSDOF 0
ENDMDL
