MODEL 1
REMARK minimizedAffinity 0.801383674
REMARK minimizedRMSD -1
REMARK  0 active torsions:
REMARK  status: ('A' for Active; 'I' for Inactive)
ROOT
ATOM      1  C   UNL d   1       0.502  -2.293   0.158  0.00  0.00    -0.002 A 
ATOM      2  C1  UNL d   1       0.695  -1.318   1.126  0.00  0.00     0.010 A 
ATOM      3  C2  UNL d   1       0.787   0.029   0.768  0.00  0.00     0.041 A 
ATOM      4  C3  UNL d   1       0.680   0.382  -0.591  0.00  0.00    -0.075 A 
ATOM      5  S   UNL d   1       0.762   1.968  -1.263  0.00  0.00     0.015 SA
ATOM      6  C4  UNL d   1       0.542   1.387  -2.851  0.00  0.00     0.022 A 
ATOM      7  C5  UNL d   1       0.408   0.019  -2.886  0.00  0.00     0.026 A 
ATOM      8  C6  UNL d   1       0.485  -0.583  -1.584  0.00  0.00    -0.082 A 
ATOM      9  C7  UNL d   1       0.396  -1.939  -1.190  0.00  0.00     0.045 A 
ENDROOT
TORSDOF 0
ENDMDL
