MODEL 1
REMARK minimizedAffinity 0.000735440466
REMARK minimizedRMSD -1
REMARK  0 active torsions:
REMARK  status: ('A' for Active; 'I' for Inactive)
ROOT
ATOM      1  C   UNL d   1      -0.032   2.208  -0.098  0.00  0.00    -0.002 A 
ATOM      2  C1  UNL d   1      -1.104   1.809   0.687  0.00  0.00     0.010 A 
ATOM      3  C2  UNL d   1      -1.203   0.491   1.138  0.00  0.00     0.041 A 
ATOM      4  C3  UNL d   1      -0.195  -0.427   0.785  0.00  0.00    -0.075 A 
ATOM      5  S   UNL d   1      -0.105  -2.092   1.224  0.00  0.00     0.015 SA
ATOM      6  C4  UNL d   1       1.359  -2.313   0.381  0.00  0.00     0.022 A 
ATOM      7  C5  UNL d   1       1.784  -1.155  -0.227  0.00  0.00     0.026 A 
ATOM      8  C6  UNL d   1       0.896  -0.049  -0.003  0.00  0.00    -0.082 A 
ATOM      9  C7  UNL d   1       0.966   1.294  -0.446  0.00  0.00     0.045 A 
ENDROOT
TORSDOF 0
ENDMDL
