MODEL 1
REMARK minimizedAffinity 0.0698380247
REMARK minimizedRMSD -1
REMARK  0 active torsions:
REMARK  status: ('A' for Active; 'I' for Inactive)
ROOT
ATOM      1  C   UNL d   1       0.379   0.338   0.372  0.00  0.00    -0.002 A 
ATOM      2  C1  UNL d   1      -0.125  -0.628  -0.487  0.00  0.00     0.010 A 
ATOM      3  C2  UNL d   1      -0.170  -0.400  -1.864  0.00  0.00     0.041 A 
ATOM      4  C3  UNL d   1       0.306   0.826  -2.368  0.00  0.00    -0.075 A 
ATOM      5  S   UNL d   1       0.350   1.325  -4.018  0.00  0.00     0.015 SA
ATOM      6  C4  UNL d   1       1.040   2.832  -3.621  0.00  0.00     0.022 A 
ATOM      7  C5  UNL d   1       1.238   2.968  -2.268  0.00  0.00     0.026 A 
ATOM      8  C6  UNL d   1       0.819   1.814  -1.523  0.00  0.00    -0.082 A 
ATOM      9  C7  UNL d   1       0.851   1.554  -0.132  0.00  0.00     0.045 A 
ENDROOT
TORSDOF 0
ENDMDL
