MODEL 1
REMARK minimizedAffinity -0.169285297
REMARK minimizedRMSD -1
REMARK  0 active torsions:
REMARK  status: ('A' for Active; 'I' for Inactive)
ROOT
ATOM      1  C   UNL d   1      -2.813  -0.816   2.799  0.00  0.00    -0.002 A 
ATOM      2  C1  UNL d   1      -2.903   0.460   2.260  0.00  0.00     0.010 A 
ATOM      3  C2  UNL d   1      -1.924   0.930   1.383  0.00  0.00     0.041 A 
ATOM      4  C3  UNL d   1      -0.844   0.088   1.052  0.00  0.00    -0.075 A 
ATOM      5  S   UNL d   1       0.471   0.450  -0.003  0.00  0.00     0.015 SA
ATOM      6  C4  UNL d   1       1.182  -1.080   0.237  0.00  0.00     0.022 A 
ATOM      7  C5  UNL d   1       0.447  -1.861   1.097  0.00  0.00     0.026 A 
ATOM      8  C6  UNL d   1      -0.733  -1.201   1.581  0.00  0.00    -0.082 A 
ATOM      9  C7  UNL d   1      -1.741  -1.649   2.468  0.00  0.00     0.045 A 
ENDROOT
TORSDOF 0
ENDMDL
