MODEL 1
REMARK minimizedAffinity -3.82381344
REMARK minimizedRMSD -1
REMARK  0 active torsions:
REMARK  status: ('A' for Active; 'I' for Inactive)
ROOT
ATOM      1  C   UNL d   1      -2.701  -0.529   2.877  0.00  0.00    -0.002 A 
ATOM      2  C1  UNL d   1      -2.601   0.702   2.245  0.00  0.00     0.010 A 
ATOM      3  C2  UNL d   1      -1.728   0.879   1.169  0.00  0.00     0.041 A 
ATOM      4  C3  UNL d   1      -0.951  -0.212   0.735  0.00  0.00    -0.075 A 
ATOM      5  S   UNL d   1       0.185  -0.229  -0.562  0.00  0.00     0.015 SA
ATOM      6  C4  UNL d   1       0.564  -1.871  -0.307  0.00  0.00     0.022 A 
ATOM      7  C5  UNL d   1      -0.149  -2.409   0.738  0.00  0.00     0.026 A 
ATOM      8  C6  UNL d   1      -1.035  -1.462   1.356  0.00  0.00    -0.082 A 
ATOM      9  C7  UNL d   1      -1.928  -1.610   2.444  0.00  0.00     0.045 A 
ENDROOT
TORSDOF 0
ENDMDL
