MODEL 1
REMARK minimizedAffinity 2.61570239
REMARK minimizedRMSD -1
REMARK  1 active torsions:
REMARK  status: ('A' for Active; 'I' for Inactive)
REMARK    1  A    between atoms: C3_4  and  O_7 
ROOT
ATOM      1  C   UNL d   1       4.888   1.059   0.169  0.00  0.00    -0.033 A 
ATOM      2  C1  UNL d   1       5.894   0.962   1.133  0.00  0.00     0.039 A 
ATOM      3  C2  UNL d   1       6.000   1.931   2.133  0.00  0.00    -0.080 A 
ATOM      4  C3  UNL d   1       5.095   2.988   2.159  0.00  0.00     0.150 A 
ATOM      5  C4  UNL d   1       4.088   3.089   1.204  0.00  0.00    -0.007 A 
ATOM      6  C5  UNL d   1       3.985   2.121   0.205  0.00  0.00     0.039 A 
ENDROOT
BRANCH   4   7
ATOM      7  O   UNL d   1       5.161   3.960   3.113  0.00  0.00    -0.526 OA
ATOM      8  H5  UNL d   1       5.923   3.776   3.687  0.00  0.00     0.418 HD
ENDBRANCH   4   7
TORSDOF 1
ENDMDL
