MODEL 1
REMARK minimizedAffinity -3.37282443
REMARK minimizedRMSD -1
REMARK  1 active torsions:
REMARK  status: ('A' for Active; 'I' for Inactive)
REMARK    1  A    between atoms: C3_4  and  O_7 
ROOT
ATOM      1  C   UNL d   1       2.562  -2.176   1.133  0.00  0.00    -0.033 A 
ATOM      2  C1  UNL d   1       3.682  -3.009   1.085  0.00  0.00     0.039 A 
ATOM      3  C2  UNL d   1       4.420  -3.256   2.243  0.00  0.00    -0.080 A 
ATOM      4  C3  UNL d   1       4.028  -2.667   3.442  0.00  0.00     0.150 A 
ATOM      5  C4  UNL d   1       2.912  -1.839   3.498  0.00  0.00    -0.007 A 
ATOM      6  C5  UNL d   1       2.176  -1.592   2.340  0.00  0.00     0.039 A 
ENDROOT
BRANCH   4   7
ATOM      7  O   UNL d   1       4.720  -2.875   4.598  0.00  0.00    -0.526 OA
ATOM      8  H5  UNL d   1       5.483  -3.444   4.402  0.00  0.00     0.418 HD
ENDBRANCH   4   7
TORSDOF 1
ENDMDL
