MODEL 1
REMARK minimizedAffinity 8.04604816
REMARK minimizedRMSD -1
REMARK  1 active torsions:
REMARK  status: ('A' for Active; 'I' for Inactive)
REMARK    1  A    between atoms: C3_4  and  O_7 
ROOT
ATOM      1  C   UNL d   1       0.152   4.380   2.114  0.00  0.00    -0.033 A 
ATOM      2  C1  UNL d   1       0.924   4.216   3.266  0.00  0.00     0.039 A 
ATOM      3  C2  UNL d   1       2.128   3.512   3.206  0.00  0.00    -0.080 A 
ATOM      4  C3  UNL d   1       2.549   2.978   1.991  0.00  0.00     0.150 A 
ATOM      5  C4  UNL d   1       1.786   3.141   0.839  0.00  0.00    -0.007 A 
ATOM      6  C5  UNL d   1       0.583   3.844   0.901  0.00  0.00     0.039 A 
ENDROOT
BRANCH   4   7
ATOM      7  O   UNL d   1       3.714   2.279   1.885  0.00  0.00    -0.526 OA
ATOM      8  H5  UNL d   1       4.120   2.223   2.766  0.00  0.00     0.418 HD
ENDBRANCH   4   7
TORSDOF 1
ENDMDL
