MODEL 1
REMARK minimizedAffinity 2.53322697
REMARK minimizedRMSD -1
REMARK  1 active torsions:
REMARK  status: ('A' for Active; 'I' for Inactive)
REMARK    1  A    between atoms: C3_4  and  O_7 
ROOT
ATOM      1  C   UNL d   1       3.998   2.384   0.702  0.00  0.00    -0.033 A 
ATOM      2  C1  UNL d   1       5.244   2.418   1.331  0.00  0.00     0.039 A 
ATOM      3  C2  UNL d   1       5.932   3.627   1.457  0.00  0.00    -0.080 A 
ATOM      4  C3  UNL d   1       5.363   4.792   0.951  0.00  0.00     0.150 A 
ATOM      5  C4  UNL d   1       4.121   4.766   0.326  0.00  0.00    -0.007 A 
ATOM      6  C5  UNL d   1       3.436   3.558   0.201  0.00  0.00     0.039 A 
ENDROOT
BRANCH   4   7
ATOM      7  O   UNL d   1       5.999   5.995   1.046  0.00  0.00    -0.526 OA
ATOM      8  H5  UNL d   1       6.859   5.855   1.475  0.00  0.00     0.418 HD
ENDBRANCH   4   7
TORSDOF 1
ENDMDL
