MODEL 1
REMARK minimizedAffinity 6.6590867
REMARK minimizedRMSD -1
REMARK  1 active torsions:
REMARK  status: ('A' for Active; 'I' for Inactive)
REMARK    1  A    between atoms: C3_4  and  O_7 
ROOT
ATOM      1  C   UNL d   1      -4.980   2.933  -3.244  0.00  0.00    -0.033 A 
ATOM      2  C1  UNL d   1      -6.000   2.571  -4.127  0.00  0.00     0.039 A 
ATOM      3  C2  UNL d   1      -5.788   1.556  -5.062  0.00  0.00    -0.080 A 
ATOM      4  C3  UNL d   1      -4.555   0.910  -5.102  0.00  0.00     0.150 A 
ATOM      5  C4  UNL d   1      -3.536   1.263  -4.223  0.00  0.00    -0.007 A 
ATOM      6  C5  UNL d   1      -3.749   2.278  -3.291  0.00  0.00     0.039 A 
ENDROOT
BRANCH   4   7
ATOM      7  O   UNL d   1      -4.300  -0.083  -6.000  0.00  0.00    -0.526 OA
ATOM      8  H5  UNL d   1      -5.084  -0.200  -6.561  0.00  0.00     0.418 HD
ENDBRANCH   4   7
TORSDOF 1
ENDMDL
