MODEL 1
REMARK minimizedAffinity -0.176832408
REMARK minimizedRMSD -1
REMARK  1 active torsions:
REMARK  status: ('A' for Active; 'I' for Inactive)
REMARK    1  A    between atoms: C3_4  and  O_7 
ROOT
ATOM      1  C   UNL d   1       3.658  -2.190   0.178  0.00  0.00    -0.033 A 
ATOM      2  C1  UNL d   1       2.626  -2.669   0.988  0.00  0.00     0.039 A 
ATOM      3  C2  UNL d   1       2.876  -2.989   2.324  0.00  0.00    -0.080 A 
ATOM      4  C3  UNL d   1       4.159  -2.824   2.837  0.00  0.00     0.150 A 
ATOM      5  C4  UNL d   1       5.191  -2.344   2.037  0.00  0.00    -0.007 A 
ATOM      6  C5  UNL d   1       4.940  -2.026   0.703  0.00  0.00     0.039 A 
ENDROOT
BRANCH   4   7
ATOM      7  O   UNL d   1       4.452  -3.127   4.134  0.00  0.00    -0.526 OA
ATOM      8  H5  UNL d   1       3.650  -3.475   4.557  0.00  0.00     0.418 HD
ENDBRANCH   4   7
TORSDOF 1
ENDMDL
