MODEL 1
REMARK minimizedAffinity -1.16248477
REMARK minimizedRMSD -1
REMARK  1 active torsions:
REMARK  status: ('A' for Active; 'I' for Inactive)
REMARK    1  A    between atoms: C3_4  and  O_7 
ROOT
ATOM      1  C   UNL d   1      -1.490   0.278   2.217  0.00  0.00    -0.033 A 
ATOM      2  C1  UNL d   1      -0.990  -0.711   3.065  0.00  0.00     0.039 A 
ATOM      3  C2  UNL d   1      -0.027  -1.610   2.601  0.00  0.00    -0.080 A 
ATOM      4  C3  UNL d   1       0.427  -1.507   1.289  0.00  0.00     0.150 A 
ATOM      5  C4  UNL d   1      -0.065  -0.521   0.440  0.00  0.00    -0.007 A 
ATOM      6  C5  UNL d   1      -1.027   0.374   0.905  0.00  0.00     0.039 A 
ENDROOT
BRANCH   4   7
ATOM      7  O   UNL d   1       1.362  -2.364   0.789  0.00  0.00    -0.526 OA
ATOM      8  H5  UNL d   1       1.588  -3.010   1.480  0.00  0.00     0.418 HD
ENDBRANCH   4   7
TORSDOF 1
ENDMDL
