MODEL 1
REMARK minimizedAffinity -2.16504979
REMARK minimizedRMSD -1
REMARK  1 active torsions:
REMARK  status: ('A' for Active; 'I' for Inactive)
REMARK    1  A    between atoms: C3_4  and  O_7 
ROOT
ATOM      1  C   UNL d   1      -1.172  -0.102   2.630  0.00  0.00    -0.033 A 
ATOM      2  C1  UNL d   1      -0.035  -0.758   3.107  0.00  0.00     0.039 A 
ATOM      3  C2  UNL d   1       0.901  -1.277   2.210  0.00  0.00    -0.080 A 
ATOM      4  C3  UNL d   1       0.690  -1.132   0.842  0.00  0.00     0.150 A 
ATOM      5  C4  UNL d   1      -0.438  -0.476   0.360  0.00  0.00    -0.007 A 
ATOM      6  C5  UNL d   1      -1.373   0.040   1.257  0.00  0.00     0.039 A 
ENDROOT
BRANCH   4   7
ATOM      7  O   UNL d   1       1.574  -1.625  -0.071  0.00  0.00    -0.526 OA
ATOM      8  H5  UNL d   1       2.289  -2.078   0.406  0.00  0.00     0.418 HD
ENDBRANCH   4   7
TORSDOF 1
ENDMDL
