MODEL 1
REMARK minimizedAffinity 0.443629861
REMARK minimizedRMSD -1
REMARK  1 active torsions:
REMARK  status: ('A' for Active; 'I' for Inactive)
REMARK    1  A    between atoms: C3_4  and  O_7 
ROOT
ATOM      1  C   UNL d   1       6.000  -5.951  -0.007  0.00  0.00    -0.033 A 
ATOM      2  C1  UNL d   1       5.628  -5.225   1.125  0.00  0.00     0.039 A 
ATOM      3  C2  UNL d   1       4.410  -4.542   1.149  0.00  0.00    -0.080 A 
ATOM      4  C3  UNL d   1       3.575  -4.594   0.037  0.00  0.00     0.150 A 
ATOM      5  C4  UNL d   1       3.938  -5.319  -1.093  0.00  0.00    -0.007 A 
ATOM      6  C5  UNL d   1       5.154  -6.000  -1.116  0.00  0.00     0.039 A 
ENDROOT
BRANCH   4   7
ATOM      7  O   UNL d   1       2.379  -3.940   0.012  0.00  0.00    -0.526 OA
ATOM      8  H5  UNL d   1       2.274  -3.458   0.849  0.00  0.00     0.418 HD
ENDBRANCH   4   7
TORSDOF 1
ENDMDL
