MODEL 1
REMARK minimizedAffinity 4.4962554
REMARK minimizedRMSD -1
REMARK  1 active torsions:
REMARK  status: ('A' for Active; 'I' for Inactive)
REMARK    1  A    between atoms: C3_4  and  O_7 
ROOT
ATOM      1  C   UNL d   1       1.800   3.950  -5.990  0.00  0.00    -0.033 A 
ATOM      2  C1  UNL d   1       1.856   5.345  -5.983  0.00  0.00     0.039 A 
ATOM      3  C2  UNL d   1       3.091   5.996  -5.971  0.00  0.00    -0.080 A 
ATOM      4  C3  UNL d   1       4.261   5.241  -5.968  0.00  0.00     0.150 A 
ATOM      5  C4  UNL d   1       4.212   3.851  -5.979  0.00  0.00    -0.007 A 
ATOM      6  C5  UNL d   1       2.978   3.203  -5.990  0.00  0.00     0.039 A 
ENDROOT
BRANCH   4   7
ATOM      7  O   UNL d   1       5.490   5.831  -5.951  0.00  0.00    -0.526 OA
ATOM      8  H5  UNL d   1       5.368   6.795  -5.916  0.00  0.00     0.418 HD
ENDBRANCH   4   7
TORSDOF 1
ENDMDL
