MODEL 1
REMARK minimizedAffinity -6.2437911
REMARK minimizedRMSD -1
REMARK  2 active torsions:
REMARK  status: ('A' for Active; 'I' for Inactive)
REMARK    1  A    between atoms: C1_2  and  C2_3 
REMARK    2  A    between atoms: C2_3  and  C3_4 
ROOT
ATOM      1  C3  UNL d   1      -0.346   0.773   0.300  0.00  0.00    -0.075 A 
ATOM      2  C4  UNL d   1      -1.593   1.318   0.639  0.00  0.00     0.002 A 
ATOM      3  C5  UNL d   1      -1.894   1.628   1.966  0.00  0.00     0.002 A 
ATOM      4  C6  UNL d   1      -0.958   1.388   2.970  0.00  0.00    -0.004 A 
ATOM      5  C7  UNL d   1       0.278   0.832   2.646  0.00  0.00     0.002 A 
ATOM      6  C8  UNL d   1       0.583   0.525   1.319  0.00  0.00     0.002 A 
ENDROOT
BRANCH   1   7
ATOM      7  C2  UNL d   1      -0.004   0.463  -1.137  0.00  0.00     0.056 C 
BRANCH   7   8
ATOM      8  C1  UNL d   1       0.591   1.647  -1.907  0.00  0.00     0.007 C 
ATOM      9  C   UNL d   1       0.374   1.556  -3.411  0.00  0.00     0.009 C 
ENDBRANCH   7   8
ENDBRANCH   1   7
TORSDOF 2
ENDMDL
