MODEL 1
REMARK minimizedAffinity -5.19365644
REMARK minimizedRMSD -1
REMARK  2 active torsions:
REMARK  status: ('A' for Active; 'I' for Inactive)
REMARK    1  A    between atoms: C1_2  and  C2_3 
REMARK    2  A    between atoms: C2_3  and  C3_4 
ROOT
ATOM      1  C3  UNL d   1       0.119   1.038  -1.336  0.00  0.00    -0.075 A 
ATOM      2  C4  UNL d   1       0.592  -0.272  -1.167  0.00  0.00     0.002 A 
ATOM      3  C5  UNL d   1      -0.144  -1.202  -0.433  0.00  0.00     0.002 A 
ATOM      4  C6  UNL d   1      -1.355  -0.833   0.149  0.00  0.00    -0.004 A 
ATOM      5  C7  UNL d   1      -1.826   0.470   0.002  0.00  0.00     0.002 A 
ATOM      6  C8  UNL d   1      -1.094   1.401  -0.736  0.00  0.00     0.002 A 
ENDROOT
BRANCH   1   7
ATOM      7  C2  UNL d   1       0.897   2.041  -2.154  0.00  0.00     0.056 C 
BRANCH   7   8
ATOM      8  C1  UNL d   1       1.708   1.419  -3.296  0.00  0.00     0.007 C 
ATOM      9  C   UNL d   1       0.904   1.245  -4.577  0.00  0.00     0.009 C 
ENDBRANCH   7   8
ENDBRANCH   1   7
TORSDOF 2
ENDMDL
