MODEL 1
REMARK minimizedAffinity -2.1811986
REMARK minimizedRMSD -1
REMARK  2 active torsions:
REMARK  status: ('A' for Active; 'I' for Inactive)
REMARK    1  A    between atoms: C1_2  and  C2_3 
REMARK    2  A    between atoms: C2_3  and  C3_4 
ROOT
ATOM      1  C3  UNL d   1      -0.096  -0.319  -0.012  0.00  0.00    -0.075 A 
ATOM      2  C4  UNL d   1      -1.342   0.268   0.251  0.00  0.00     0.002 A 
ATOM      3  C5  UNL d   1      -1.763   0.479   1.564  0.00  0.00     0.002 A 
ATOM      4  C6  UNL d   1      -0.951   0.097   2.629  0.00  0.00    -0.004 A 
ATOM      5  C7  UNL d   1       0.282  -0.503   2.380  0.00  0.00     0.002 A 
ATOM      6  C8  UNL d   1       0.708  -0.711   1.067  0.00  0.00     0.002 A 
ENDROOT
BRANCH   1   7
ATOM      7  C2  UNL d   1       0.378  -0.523  -1.431  0.00  0.00     0.056 C 
BRANCH   7   8
ATOM      8  C1  UNL d   1       0.724   0.777  -2.165  0.00  0.00     0.007 C 
ATOM      9  C   UNL d   1       1.190   0.552  -3.597  0.00  0.00     0.009 C 
ENDBRANCH   7   8
ENDBRANCH   1   7
TORSDOF 2
ENDMDL
