MODEL 1
REMARK minimizedAffinity -3.76816201
REMARK minimizedRMSD -1
REMARK  2 active torsions:
REMARK  status: ('A' for Active; 'I' for Inactive)
REMARK    1  A    between atoms: C1_2  and  C2_3 
REMARK    2  A    between atoms: C2_3  and  C3_4 
ROOT
ATOM      1  C3  UNL d   1       0.578  -0.634  -1.889  0.00  0.00    -0.075 A 
ATOM      2  C4  UNL d   1       1.618   0.306  -1.946  0.00  0.00     0.002 A 
ATOM      3  C5  UNL d   1       2.050   0.810  -3.173  0.00  0.00     0.002 A 
ATOM      4  C6  UNL d   1       1.458   0.374  -4.357  0.00  0.00    -0.004 A 
ATOM      5  C7  UNL d   1       0.436  -0.571  -4.313  0.00  0.00     0.002 A 
ATOM      6  C8  UNL d   1      -0.002  -1.074  -3.086  0.00  0.00     0.002 A 
ENDROOT
BRANCH   1   7
ATOM      7  C2  UNL d   1       0.085  -1.161  -0.563  0.00  0.00     0.056 C 
BRANCH   7   8
ATOM      8  C1  UNL d   1      -0.163  -0.073   0.487  0.00  0.00     0.007 C 
ATOM      9  C   UNL d   1      -1.550   0.550   0.390  0.00  0.00     0.009 C 
ENDBRANCH   7   8
ENDBRANCH   1   7
TORSDOF 2
ENDMDL
