MODEL 1
REMARK minimizedAffinity -2.01615024
REMARK minimizedRMSD -1
REMARK  2 active torsions:
REMARK  status: ('A' for Active; 'I' for Inactive)
REMARK    1  A    between atoms: C1_2  and  C2_3 
REMARK    2  A    between atoms: C2_3  and  C3_4 
ROOT
ATOM      1  C3  UNL d   1       0.332   0.065   0.245  0.00  0.00    -0.075 A 
ATOM      2  C4  UNL d   1      -1.014   0.404   0.450  0.00  0.00     0.002 A 
ATOM      3  C5  UNL d   1      -1.546   0.443   1.739  0.00  0.00     0.002 A 
ATOM      4  C6  UNL d   1      -0.746   0.134   2.836  0.00  0.00    -0.004 A 
ATOM      5  C7  UNL d   1       0.588  -0.220   2.644  0.00  0.00     0.002 A 
ATOM      6  C8  UNL d   1       1.125  -0.255   1.355  0.00  0.00     0.002 A 
ENDROOT
BRANCH   1   7
ATOM      7  C2  UNL d   1       0.922   0.051  -1.144  0.00  0.00     0.056 C 
BRANCH   7   8
ATOM      8  C1  UNL d   1      -0.114  -0.119  -2.260  0.00  0.00     0.007 C 
ATOM      9  C   UNL d   1       0.426   0.234  -3.640  0.00  0.00     0.009 C 
ENDBRANCH   7   8
ENDBRANCH   1   7
TORSDOF 2
ENDMDL
