MODEL 1
REMARK minimizedAffinity 1.71995044
REMARK minimizedRMSD -1
REMARK  1 active torsions:
REMARK  status: ('A' for Active; 'I' for Inactive)
REMARK    1  A    between atoms: C3_4  and  O_7 
ROOT
ATOM      1  C   UNL d   1       4.046  -4.993   4.048  0.00  0.00    -0.033 A 
ATOM      2  C1  UNL d   1       3.801  -4.696   5.391  0.00  0.00     0.039 A 
ATOM      3  C2  UNL d   1       4.450  -3.620   5.999  0.00  0.00    -0.080 A 
ATOM      4  C3  UNL d   1       5.339  -2.849   5.256  0.00  0.00     0.150 A 
ATOM      5  C4  UNL d   1       5.585  -3.137   3.917  0.00  0.00    -0.007 A 
ATOM      6  C5  UNL d   1       4.937  -4.212   3.311  0.00  0.00     0.039 A 
ENDROOT
BRANCH   4   7
ATOM      7  O   UNL d   1       6.000  -1.792   5.808  0.00  0.00    -0.526 OA
ATOM      8  H5  UNL d   1       5.753  -1.731   6.746  0.00  0.00     0.418 HD
ENDBRANCH   4   7
TORSDOF 1
ENDMDL
