MODEL 1
REMARK minimizedAffinity -2.61863422
REMARK minimizedRMSD -1
REMARK  1 active torsions:
REMARK  status: ('A' for Active; 'I' for Inactive)
REMARK    1  A    between atoms: C3_4  and  O_7 
ROOT
ATOM      1  C   UNL d   1      -0.897  -0.754   2.200  0.00  0.00    -0.033 A 
ATOM      2  C1  UNL d   1      -0.218  -0.723   0.980  0.00  0.00     0.039 A 
ATOM      3  C2  UNL d   1       0.821  -1.624   0.735  0.00  0.00    -0.080 A 
ATOM      4  C3  UNL d   1       1.168  -2.550   1.714  0.00  0.00     0.150 A 
ATOM      5  C4  UNL d   1       0.493  -2.589   2.930  0.00  0.00    -0.007 A 
ATOM      6  C5  UNL d   1      -0.543  -1.688   3.174  0.00  0.00     0.039 A 
ENDROOT
BRANCH   4   7
ATOM      7  O   UNL d   1       2.177  -3.446   1.522  0.00  0.00    -0.526 OA
ATOM      8  H5  UNL d   1       2.572  -3.283   0.649  0.00  0.00     0.418 HD
ENDBRANCH   4   7
TORSDOF 1
ENDMDL
