MODEL 1
REMARK minimizedAffinity -2.06204271
REMARK minimizedRMSD -1
REMARK  1 active torsions:
REMARK  status: ('A' for Active; 'I' for Inactive)
REMARK    1  A    between atoms: C3_4  and  O_7 
ROOT
ATOM      1  C   UNL d   1       1.491  -1.863   1.524  0.00  0.00    -0.033 A 
ATOM      2  C1  UNL d   1       0.582  -1.839   2.584  0.00  0.00     0.039 A 
ATOM      3  C2  UNL d   1      -0.692  -1.297   2.401  0.00  0.00    -0.080 A 
ATOM      4  C3  UNL d   1      -1.045  -0.785   1.155  0.00  0.00     0.150 A 
ATOM      5  C4  UNL d   1      -0.145  -0.810   0.094  0.00  0.00    -0.007 A 
ATOM      6  C5  UNL d   1       1.127  -1.350   0.279  0.00  0.00     0.039 A 
ENDROOT
BRANCH   4   7
ATOM      7  O   UNL d   1      -2.275  -0.242   0.930  0.00  0.00    -0.526 OA
ATOM      8  H5  UNL d   1      -2.779  -0.268   1.760  0.00  0.00     0.418 HD
ENDBRANCH   4   7
TORSDOF 1
ENDMDL
