MODEL 1
REMARK minimizedAffinity -3.33980393
REMARK minimizedRMSD -1
REMARK  1 active torsions:
REMARK  status: ('A' for Active; 'I' for Inactive)
REMARK    1  A    between atoms: C3_4  and  O_7 
ROOT
ATOM      1  C   UNL d   1       4.065   5.600   4.479  0.00  0.00    -0.033 A 
ATOM      2  C1  UNL d   1       5.400   5.986   4.342  0.00  0.00     0.039 A 
ATOM      3  C2  UNL d   1       5.998   6.000   3.080  0.00  0.00    -0.080 A 
ATOM      4  C3  UNL d   1       5.251   5.628   1.966  0.00  0.00     0.150 A 
ATOM      5  C4  UNL d   1       3.920   5.247   2.095  0.00  0.00    -0.007 A 
ATOM      6  C5  UNL d   1       3.325   5.233   3.356  0.00  0.00     0.039 A 
ENDROOT
BRANCH   4   7
ATOM      7  O   UNL d   1       5.793   5.621   0.715  0.00  0.00    -0.526 OA
ATOM      8  H5  UNL d   1       6.727   5.879   0.782  0.00  0.00     0.418 HD
ENDBRANCH   4   7
TORSDOF 1
ENDMDL
