MODEL 1
REMARK minimizedAffinity -2.61367774
REMARK minimizedRMSD -1
REMARK  1 active torsions:
REMARK  status: ('A' for Active; 'I' for Inactive)
REMARK    1  A    between atoms: C3_4  and  O_7 
ROOT
ATOM      1  C   UNL d   1      -0.405  -0.751   1.754  0.00  0.00    -0.033 A 
ATOM      2  C1  UNL d   1      -0.307  -1.839   2.624  0.00  0.00     0.039 A 
ATOM      3  C2  UNL d   1       0.465  -2.948   2.273  0.00  0.00    -0.080 A 
ATOM      4  C3  UNL d   1       1.134  -2.957   1.052  0.00  0.00     0.150 A 
ATOM      5  C4  UNL d   1       1.043  -1.875   0.182  0.00  0.00    -0.007 A 
ATOM      6  C5  UNL d   1       0.271  -0.769   0.534  0.00  0.00     0.039 A 
ENDROOT
BRANCH   4   7
ATOM      7  O   UNL d   1       1.895  -4.019   0.664  0.00  0.00    -0.526 OA
ATOM      8  H5  UNL d   1       1.841  -4.704   1.351  0.00  0.00     0.418 HD
ENDBRANCH   4   7
TORSDOF 1
ENDMDL
