MODEL 1
REMARK minimizedAffinity -3.30675316
REMARK minimizedRMSD -1
REMARK  1 active torsions:
REMARK  status: ('A' for Active; 'I' for Inactive)
REMARK    1  A    between atoms: C3_4  and  O_7 
ROOT
ATOM      1  C   UNL d   1      -1.534  -0.381   1.540  0.00  0.00    -0.033 A 
ATOM      2  C1  UNL d   1      -0.901  -0.783   0.362  0.00  0.00     0.039 A 
ATOM      3  C2  UNL d   1       0.159  -1.690   0.412  0.00  0.00    -0.080 A 
ATOM      4  C3  UNL d   1       0.575  -2.188   1.643  0.00  0.00     0.150 A 
ATOM      5  C4  UNL d   1      -0.054  -1.796   2.820  0.00  0.00    -0.007 A 
ATOM      6  C5  UNL d   1      -1.111  -0.889   2.769  0.00  0.00     0.039 A 
ENDROOT
BRANCH   4   7
ATOM      7  O   UNL d   1       1.608  -3.072   1.742  0.00  0.00    -0.526 OA
ATOM      8  H5  UNL d   1       1.964  -3.230   0.852  0.00  0.00     0.418 HD
ENDBRANCH   4   7
TORSDOF 1
ENDMDL
