MODEL 1
REMARK minimizedAffinity -0.825780034
REMARK minimizedRMSD -1
REMARK  1 active torsions:
REMARK  status: ('A' for Active; 'I' for Inactive)
REMARK    1  A    between atoms: C3_4  and  O_7 
ROOT
ATOM      1  C   UNL d   1       3.189   5.901   4.408  0.00  0.00    -0.033 A 
ATOM      2  C1  UNL d   1       2.267   5.988   3.363  0.00  0.00     0.039 A 
ATOM      3  C2  UNL d   1       0.898   5.963   3.634  0.00  0.00    -0.080 A 
ATOM      4  C3  UNL d   1       0.464   5.853   4.952  0.00  0.00     0.150 A 
ATOM      5  C4  UNL d   1       1.376   5.770   5.999  0.00  0.00    -0.007 A 
ATOM      6  C5  UNL d   1       2.744   5.793   5.726  0.00  0.00     0.039 A 
ENDROOT
BRANCH   4   7
ATOM      7  O   UNL d   1      -0.863   5.820   5.266  0.00  0.00    -0.526 OA
ATOM      8  H5  UNL d   1      -1.375   5.857   4.440  0.00  0.00     0.418 HD
ENDBRANCH   4   7
TORSDOF 1
ENDMDL
