MODEL 1
REMARK minimizedAffinity 0.865830362
REMARK minimizedRMSD -1
REMARK  1 active torsions:
REMARK  status: ('A' for Active; 'I' for Inactive)
REMARK    1  A    between atoms: C3_4  and  O_7 
ROOT
ATOM      1  C   UNL d   1      -0.230  -0.482   0.843  0.00  0.00    -0.033 A 
ATOM      2  C1  UNL d   1      -0.834  -0.613   2.094  0.00  0.00     0.039 A 
ATOM      3  C2  UNL d   1      -2.226  -0.627   2.202  0.00  0.00    -0.080 A 
ATOM      4  C3  UNL d   1      -3.001  -0.509   1.051  0.00  0.00     0.150 A 
ATOM      5  C4  UNL d   1      -2.406  -0.381  -0.199  0.00  0.00    -0.007 A 
ATOM      6  C5  UNL d   1      -1.016  -0.367  -0.304  0.00  0.00     0.039 A 
ENDROOT
BRANCH   4   7
ATOM      7  O   UNL d   1      -4.363  -0.512   1.107  0.00  0.00    -0.526 OA
ATOM      8  H5  UNL d   1      -4.633  -0.578   2.038  0.00  0.00     0.418 HD
ENDBRANCH   4   7
TORSDOF 1
ENDMDL
