MODEL 1
REMARK minimizedAffinity 8.06273651
REMARK minimizedRMSD -1
REMARK  0 active torsions:
REMARK  status: ('A' for Active; 'I' for Inactive)
ROOT
ATOM      1  C4' PXY d   1       4.281  -0.124  -1.095  0.00  0.00     0.077 C 
ATOM      2  C1' PXY d   1      -0.171  -3.810  -0.994  0.00  0.00     0.077 C 
ATOM      3  C1  PXY d   1       1.002  -2.851  -1.030  0.00  0.00    -0.082 A 
ATOM      4  C2  PXY d   1       1.236  -2.064   0.008  0.00  0.00     0.003 A 
ATOM      5  C3  PXY d   1       2.273  -1.168  -0.020  0.00  0.00     0.003 A 
ATOM      6  C4  PXY d   1       3.113  -1.114  -1.100  0.00  0.00    -0.082 A 
ATOM      7  C5  PXY d   1       2.888  -1.921  -2.158  0.00  0.00     0.003 A 
ATOM      8  C6  PXY d   1       1.805  -2.795  -2.127  0.00  0.00     0.003 A 
ENDROOT
TORSDOF 0
ENDMDL
