MODEL 1
REMARK minimizedAffinity -0.953508198
REMARK minimizedRMSD -1
REMARK  0 active torsions:
REMARK  status: ('A' for Active; 'I' for Inactive)
ROOT
ATOM      1  C4' PXY d   1      -1.530  -2.460  -3.519  0.00  0.00     0.077 C 
ATOM      2  C1' PXY d   1       0.386   0.888   0.786  0.00  0.00     0.077 C 
ATOM      3  C1  PXY d   1      -0.106   0.001  -0.341  0.00  0.00    -0.082 A 
ATOM      4  C2  PXY d   1      -0.870   0.515  -1.291  0.00  0.00     0.003 A 
ATOM      5  C3  PXY d   1      -1.351  -0.279  -2.300  0.00  0.00     0.003 A 
ATOM      6  C4  PXY d   1      -1.002  -1.601  -2.367  0.00  0.00    -0.082 A 
ATOM      7  C5  PXY d   1      -0.214  -2.131  -1.407  0.00  0.00     0.003 A 
ATOM      8  C6  PXY d   1       0.230  -1.317  -0.369  0.00  0.00     0.003 A 
ENDROOT
TORSDOF 0
ENDMDL
