MODEL 1
REMARK minimizedAffinity 0.540681243
REMARK minimizedRMSD -1
REMARK  0 active torsions:
REMARK  status: ('A' for Active; 'I' for Inactive)
ROOT
ATOM      1  C4' PXY d   1       4.064   0.497  -1.086  0.00  0.00     0.077 C 
ATOM      2  C1' PXY d   1      -0.998  -2.083  -0.024  0.00  0.00     0.077 C 
ATOM      3  C1  PXY d   1       0.323  -1.396  -0.306  0.00  0.00    -0.082 A 
ATOM      4  C2  PXY d   1       1.392  -2.123  -0.587  0.00  0.00     0.003 A 
ATOM      5  C3  PXY d   1       2.602  -1.519  -0.813  0.00  0.00     0.003 A 
ATOM      6  C4  PXY d   1       2.707  -0.154  -0.803  0.00  0.00    -0.082 A 
ATOM      7  C5  PXY d   1       1.619   0.595  -0.528  0.00  0.00     0.003 A 
ATOM      8  C6  PXY d   1       0.409  -0.039  -0.260  0.00  0.00     0.003 A 
ENDROOT
TORSDOF 0
ENDMDL
