MODEL 1
REMARK minimizedAffinity -0.850161612
REMARK minimizedRMSD -1
REMARK  0 active torsions:
REMARK  status: ('A' for Active; 'I' for Inactive)
ROOT
ATOM      1  C4' PXY d   1       4.986  -0.017  -1.247  0.00  0.00     0.077 C 
ATOM      2  C1' PXY d   1      -0.427  -2.033  -1.026  0.00  0.00     0.077 C 
ATOM      3  C1  PXY d   1       0.997  -1.517  -1.082  0.00  0.00    -0.082 A 
ATOM      4  C2  PXY d   1       1.248  -0.256  -0.770  0.00  0.00     0.003 A 
ATOM      5  C3  PXY d   1       2.526   0.237  -0.847  0.00  0.00     0.003 A 
ATOM      6  C4  PXY d   1       3.565  -0.584  -1.195  0.00  0.00    -0.082 A 
ATOM      7  C5  PXY d   1       3.318  -1.875  -1.505  0.00  0.00     0.003 A 
ATOM      8  C6  PXY d   1       2.009  -2.344  -1.461  0.00  0.00     0.003 A 
ENDROOT
TORSDOF 0
ENDMDL
