MODEL 1
REMARK minimizedAffinity 1.56606269
REMARK minimizedRMSD -1
REMARK  0 active torsions:
REMARK  status: ('A' for Active; 'I' for Inactive)
ROOT
ATOM      1  C4' PXY d   1      -0.068  -0.813  -1.058  0.00  0.00     0.077 C 
ATOM      2  C1' PXY d   1       5.531   0.493  -1.655  0.00  0.00     0.077 C 
ATOM      3  C1  PXY d   1       4.065   0.140  -1.506  0.00  0.00    -0.082 A 
ATOM      4  C2  PXY d   1       3.186   1.093  -1.242  0.00  0.00     0.003 A 
ATOM      5  C3  PXY d   1       1.860   0.787  -1.072  0.00  0.00     0.003 A 
ATOM      6  C4  PXY d   1       1.422  -0.501  -1.227  0.00  0.00    -0.082 A 
ATOM      7  C5  PXY d   1       2.311  -1.478  -1.507  0.00  0.00     0.003 A 
ATOM      8  C6  PXY d   1       3.658  -1.152  -1.635  0.00  0.00     0.003 A 
ENDROOT
TORSDOF 0
ENDMDL
