MODEL 1
REMARK minimizedAffinity 0.462655663
REMARK minimizedRMSD -1
REMARK  0 active torsions:
REMARK  status: ('A' for Active; 'I' for Inactive)
ROOT
ATOM      1  C4' PXY d   1       3.425  -2.684  -3.264  0.00  0.00     0.077 C 
ATOM      2  C1' PXY d   1       5.999   1.888  -0.837  0.00  0.00     0.077 C 
ATOM      3  C1  PXY d   1       5.316   0.688  -1.463  0.00  0.00    -0.082 A 
ATOM      4  C2  PXY d   1       5.949  -0.016  -2.389  0.00  0.00     0.003 A 
ATOM      5  C3  PXY d   1       5.334  -1.085  -2.988  0.00  0.00     0.003 A 
ATOM      6  C4  PXY d   1       4.079  -1.470  -2.598  0.00  0.00    -0.082 A 
ATOM      7  C5  PXY d   1       3.432  -0.764  -1.648  0.00  0.00     0.003 A 
ATOM      8  C6  PXY d   1       4.057   0.343  -1.081  0.00  0.00     0.003 A 
ENDROOT
TORSDOF 0
ENDMDL
