MODEL 1
REMARK minimizedAffinity 4.99363518
REMARK minimizedRMSD -1
REMARK  0 active torsions:
REMARK  status: ('A' for Active; 'I' for Inactive)
ROOT
ATOM      1  C4' PXY d   1       3.957   0.458  -1.401  0.00  0.00     0.077 C 
ATOM      2  C1' PXY d   1      -1.362  -1.505  -0.271  0.00  0.00     0.077 C 
ATOM      3  C1  PXY d   1       0.038  -1.001  -0.564  0.00  0.00    -0.082 A 
ATOM      4  C2  PXY d   1       0.281   0.299  -0.557  0.00  0.00     0.003 A 
ATOM      5  C3  PXY d   1       1.533   0.773  -0.851  0.00  0.00     0.003 A 
ATOM      6  C4  PXY d   1       2.561  -0.096  -1.102  0.00  0.00    -0.082 A 
ATOM      7  C5  PXY d   1       2.324  -1.425  -1.101  0.00  0.00     0.003 A 
ATOM      8  C6  PXY d   1       1.036  -1.884  -0.840  0.00  0.00     0.003 A 
ENDROOT
TORSDOF 0
ENDMDL
