MODEL 1
REMARK minimizedAffinity -0.739081919
REMARK minimizedRMSD -1
REMARK  0 active torsions:
REMARK  status: ('A' for Active; 'I' for Inactive)
ROOT
ATOM      1  C4' PXY d   1      -0.253   5.856   2.680  0.00  0.00     0.077 C 
ATOM      2  C1' PXY d   1      -4.304   1.751   2.290  0.00  0.00     0.077 C 
ATOM      3  C1  PXY d   1      -3.246   2.833   2.381  0.00  0.00    -0.082 A 
ATOM      4  C2  PXY d   1      -2.155   2.621   3.098  0.00  0.00     0.003 A 
ATOM      5  C3  PXY d   1      -1.202   3.600   3.217  0.00  0.00     0.003 A 
ATOM      6  C4  PXY d   1      -1.343   4.789   2.552  0.00  0.00    -0.082 A 
ATOM      7  C5  PXY d   1      -2.449   5.008   1.809  0.00  0.00     0.003 A 
ATOM      8  C6  PXY d   1      -3.423   4.017   1.735  0.00  0.00     0.003 A 
ENDROOT
TORSDOF 0
ENDMDL
