MODEL 1
REMARK minimizedAffinity 3.70173073
REMARK minimizedRMSD -1
REMARK  0 active torsions:
REMARK  status: ('A' for Active; 'I' for Inactive)
ROOT
ATOM      1  C4' PXY d   1       4.401   0.380  -1.366  0.00  0.00     0.077 C 
ATOM      2  C1' PXY d   1      -0.942  -1.614  -0.423  0.00  0.00     0.077 C 
ATOM      3  C1  PXY d   1       0.463  -1.103  -0.669  0.00  0.00    -0.082 A 
ATOM      4  C2  PXY d   1       0.751   0.165  -0.424  0.00  0.00     0.003 A 
ATOM      5  C3  PXY d   1       2.009   0.651  -0.671  0.00  0.00     0.003 A 
ATOM      6  C4  PXY d   1       2.997  -0.181  -1.123  0.00  0.00    -0.082 A 
ATOM      7  C5  PXY d   1       2.715  -1.479  -1.366  0.00  0.00     0.003 A 
ATOM      8  C6  PXY d   1       1.421  -1.943  -1.147  0.00  0.00     0.003 A 
ENDROOT
TORSDOF 0
ENDMDL
