MODEL 1
REMARK minimizedAffinity -1.1158973
REMARK minimizedRMSD -1
REMARK  0 active torsions:
REMARK  status: ('A' for Active; 'I' for Inactive)
ROOT
ATOM      1  C4' PXY d   1       4.448   0.866  -1.692  0.00  0.00     0.077 C 
ATOM      2  C1' PXY d   1      -0.793  -0.925  -0.035  0.00  0.00     0.077 C 
ATOM      3  C1  PXY d   1       0.587  -0.466  -0.465  0.00  0.00    -0.082 A 
ATOM      4  C2  PXY d   1       0.844   0.828  -0.569  0.00  0.00     0.003 A 
ATOM      5  C3  PXY d   1       2.076   1.259  -0.987  0.00  0.00     0.003 A 
ATOM      6  C4  PXY d   1       3.072   0.358  -1.252  0.00  0.00    -0.082 A 
ATOM      7  C5  PXY d   1       2.821  -0.964  -1.138  0.00  0.00     0.003 A 
ATOM      8  C6  PXY d   1       1.552  -1.382  -0.752  0.00  0.00     0.003 A 
ENDROOT
TORSDOF 0
ENDMDL
