MODEL 1
REMARK minimizedAffinity 0.649764299
REMARK minimizedRMSD -1
REMARK  0 active torsions:
REMARK  status: ('A' for Active; 'I' for Inactive)
ROOT
ATOM      1  C4' PXY d   1       4.560   0.712  -0.910  0.00  0.00     0.077 C 
ATOM      2  C1' PXY d   1      -0.760  -1.543  -0.754  0.00  0.00     0.077 C 
ATOM      3  C1  PXY d   1       0.640  -0.964  -0.793  0.00  0.00    -0.082 A 
ATOM      4  C2  PXY d   1       0.827   0.316  -0.513  0.00  0.00     0.003 A 
ATOM      5  C3  PXY d   1       2.082   0.864  -0.574  0.00  0.00     0.003 A 
ATOM      6  C4  PXY d   1       3.165   0.082  -0.874  0.00  0.00    -0.082 A 
ATOM      7  C5  PXY d   1       2.985  -1.227  -1.151  0.00  0.00     0.003 A 
ATOM      8  C6  PXY d   1       1.697  -1.755  -1.123  0.00  0.00     0.003 A 
ENDROOT
TORSDOF 0
ENDMDL
