MODEL 1
REMARK minimizedAffinity -2.49983573
REMARK minimizedRMSD -1
REMARK  0 active torsions:
REMARK  status: ('A' for Active; 'I' for Inactive)
ROOT
ATOM      1  C4' PXY d   1      -0.713   3.038   0.198  0.00  0.00     0.077 C 
ATOM      2  C1' PXY d   1       0.816  -2.510  -0.344  0.00  0.00     0.077 C 
ATOM      3  C1  PXY d   1       0.408  -1.056  -0.213  0.00  0.00    -0.082 A 
ATOM      4  C2  PXY d   1       1.160  -0.227   0.492  0.00  0.00     0.003 A 
ATOM      5  C3  PXY d   1       0.789   1.084   0.648  0.00  0.00     0.003 A 
ATOM      6  C4  PXY d   1      -0.335   1.564   0.031  0.00  0.00    -0.082 A 
ATOM      7  C5  PXY d   1      -1.102   0.726  -0.699  0.00  0.00     0.003 A 
ATOM      8  C6  PXY d   1      -0.730  -0.610  -0.811  0.00  0.00     0.003 A 
ENDROOT
TORSDOF 0
ENDMDL
