MODEL 1
REMARK minimizedAffinity 3.11239839
REMARK minimizedRMSD -1
REMARK  1 active torsions:
REMARK  status: ('A' for Active; 'I' for Inactive)
REMARK    1  A    between atoms: C1_2  and  C2_3 
ROOT
ATOM      1  C2  UNL d   1      -1.942   2.685   1.910  0.00  0.00    -0.077 A 
ATOM      2  C3  UNL d   1      -1.283   3.430   0.923  0.00  0.00     0.002 A 
ATOM      3  C4  UNL d   1       0.093   3.290   0.733  0.00  0.00     0.002 A 
ATOM      4  C5  UNL d   1       0.820   2.402   1.522  0.00  0.00    -0.004 A 
ATOM      5  C6  UNL d   1       0.174   1.657   2.509  0.00  0.00     0.002 A 
ATOM      6  C7  UNL d   1      -1.201   1.798   2.701  0.00  0.00     0.002 A 
ENDROOT
BRANCH   1   7
ATOM      7  C1  UNL d   1      -3.434   2.799   2.084  0.00  0.00     0.055 C 
ATOM      8  C   UNL d   1      -4.158   1.626   1.440  0.00  0.00     0.019 C 
ENDBRANCH   1   7
TORSDOF 1
ENDMDL
