MODEL 1
REMARK minimizedAffinity -0.86003685
REMARK minimizedRMSD -1
REMARK  1 active torsions:
REMARK  status: ('A' for Active; 'I' for Inactive)
REMARK    1  A    between atoms: C1_2  and  C2_3 
ROOT
ATOM      1  C2  UNL d   1      -4.978   0.689  -2.091  0.00  0.00    -0.077 A 
ATOM      2  C3  UNL d   1      -4.148   0.248  -3.132  0.00  0.00     0.002 A 
ATOM      3  C4  UNL d   1      -4.124   0.927  -4.352  0.00  0.00     0.002 A 
ATOM      4  C5  UNL d   1      -4.923   2.052  -4.541  0.00  0.00    -0.004 A 
ATOM      5  C6  UNL d   1      -5.753   2.498  -3.513  0.00  0.00     0.002 A 
ATOM      6  C7  UNL d   1      -5.780   1.820  -2.294  0.00  0.00     0.002 A 
ENDROOT
BRANCH   1   7
ATOM      7  C1  UNL d   1      -4.970  -0.013  -0.758  0.00  0.00     0.055 C 
ATOM      8  C   UNL d   1      -5.009   0.983   0.392  0.00  0.00     0.019 C 
ENDBRANCH   1   7
TORSDOF 1
ENDMDL
