MODEL 1
REMARK minimizedAffinity 1.93919873
REMARK minimizedRMSD -1
REMARK  1 active torsions:
REMARK  status: ('A' for Active; 'I' for Inactive)
REMARK    1  A    between atoms: C1_2  and  C2_3 
ROOT
ATOM      1  C2  UNL d   1       2.041   0.349  -0.120  0.00  0.00    -0.077 A 
ATOM      2  C3  UNL d   1       0.829  -0.356  -0.086  0.00  0.00     0.002 A 
ATOM      3  C4  UNL d   1       0.825  -1.752  -0.056  0.00  0.00     0.002 A 
ATOM      4  C5  UNL d   1       2.028  -2.454  -0.056  0.00  0.00    -0.004 A 
ATOM      5  C6  UNL d   1       3.238  -1.763  -0.092  0.00  0.00     0.002 A 
ATOM      6  C7  UNL d   1       3.245  -0.367  -0.123  0.00  0.00     0.002 A 
ENDROOT
BRANCH   1   7
ATOM      7  C1  UNL d   1       2.049   1.855  -0.102  0.00  0.00     0.055 C 
ATOM      8  C   UNL d   1       0.642   2.414   0.050  0.00  0.00     0.019 C 
ENDBRANCH   1   7
TORSDOF 1
ENDMDL
