MODEL 1
REMARK minimizedAffinity 2.37299943
REMARK minimizedRMSD -1
REMARK  1 active torsions:
REMARK  status: ('A' for Active; 'I' for Inactive)
REMARK    1  A    between atoms: C1_2  and  C2_3 
ROOT
ATOM      1  C2  UNL d   1       3.767   0.274  -0.911  0.00  0.00    -0.077 A 
ATOM      2  C3  UNL d   1       4.503   0.499   0.260  0.00  0.00     0.002 A 
ATOM      3  C4  UNL d   1       5.614   1.345   0.245  0.00  0.00     0.002 A 
ATOM      4  C5  UNL d   1       5.996   1.976  -0.937  0.00  0.00    -0.004 A 
ATOM      5  C6  UNL d   1       5.272   1.756  -2.108  0.00  0.00     0.002 A 
ATOM      6  C7  UNL d   1       4.162   0.910  -2.095  0.00  0.00     0.002 A 
ENDROOT
BRANCH   1   7
ATOM      7  C1  UNL d   1       2.540  -0.599  -0.886  0.00  0.00     0.055 C 
ATOM      8  C   UNL d   1       2.825  -1.935  -0.216  0.00  0.00     0.019 C 
ENDBRANCH   1   7
TORSDOF 1
ENDMDL
