MODEL 1
REMARK minimizedAffinity -2.77343321
REMARK minimizedRMSD -1
REMARK  0 active torsions:
REMARK  status: ('A' for Active; 'I' for Inactive)
ROOT
ATOM      1  N1  IND d   1      -0.278   1.011   1.076  0.00  0.00    -0.196 N 
ATOM      2  C2  IND d   1       0.182   0.667  -0.164  0.00  0.00     0.054 A 
ATOM      3  C3  IND d   1      -0.852   0.503  -1.020  0.00  0.00    -0.031 A 
ATOM      4  C4  IND d   1      -3.373   0.846  -0.626  0.00  0.00     0.051 A 
ATOM      5  C5  IND d   1      -4.281   1.125   0.356  0.00  0.00    -0.031 A 
ATOM      6  C6  IND d   1      -3.894   1.388   1.654  0.00  0.00     0.015 A 
ATOM      7  C7  IND d   1      -2.577   1.394   2.017  0.00  0.00    -0.016 A 
ATOM      8  C8  IND d   1      -1.652   1.104   1.024  0.00  0.00    -0.047 A 
ATOM      9  C9  IND d   1      -2.042   0.794  -0.285  0.00  0.00    -0.096 A 
ATOM     10  HN1 IND d   1       0.208   1.147   1.772  0.00  0.00     0.298 HD
ENDROOT
TORSDOF 0
ENDMDL
