MODEL 1
REMARK minimizedAffinity 3.13301969
REMARK minimizedRMSD -1
REMARK  0 active torsions:
REMARK  status: ('A' for Active; 'I' for Inactive)
ROOT
ATOM      1  N1  IND d   1       1.250   1.493  -0.432  0.00  0.00    -0.196 N 
ATOM      2  C2  IND d   1       1.714   2.548   0.303  0.00  0.00     0.054 A 
ATOM      3  C3  IND d   1       2.578   2.118   1.250  0.00  0.00    -0.031 A 
ATOM      4  C4  IND d   1       3.452  -0.260   1.707  0.00  0.00     0.051 A 
ATOM      5  C5  IND d   1       3.289  -1.560   1.320  0.00  0.00    -0.031 A 
ATOM      6  C6  IND d   1       2.423  -1.917   0.307  0.00  0.00     0.015 A 
ATOM      7  C7  IND d   1       1.693  -0.980  -0.368  0.00  0.00    -0.016 A 
ATOM      8  C8  IND d   1       1.850   0.341   0.027  0.00  0.00    -0.047 A 
ATOM      9  C9  IND d   1       2.696   0.704   1.083  0.00  0.00    -0.096 A 
ATOM     10  HN1 IND d   1       0.680   1.541  -1.074  0.00  0.00     0.298 HD
ENDROOT
TORSDOF 0
ENDMDL
