MODEL 1
REMARK minimizedAffinity -1.3721199
REMARK minimizedRMSD -1
REMARK  0 active torsions:
REMARK  status: ('A' for Active; 'I' for Inactive)
ROOT
ATOM      1  N1  IND d   1       2.269  -0.371   1.127  0.00  0.00    -0.196 N 
ATOM      2  C2  IND d   1       2.619  -1.679   0.937  0.00  0.00     0.054 A 
ATOM      3  C3  IND d   1       1.662  -2.323   0.231  0.00  0.00    -0.031 A 
ATOM      4  C4  IND d   1      -0.509  -1.402  -0.800  0.00  0.00     0.051 A 
ATOM      5  C5  IND d   1      -1.278  -0.274  -0.863  0.00  0.00    -0.031 A 
ATOM      6  C6  IND d   1      -0.894   0.904  -0.256  0.00  0.00     0.015 A 
ATOM      7  C7  IND d   1       0.283   1.002   0.430  0.00  0.00    -0.016 A 
ATOM      8  C8  IND d   1       1.063  -0.144   0.503  0.00  0.00    -0.047 A 
ATOM      9  C9  IND d   1       0.658  -1.355  -0.075  0.00  0.00    -0.096 A 
ATOM     10  HN1 IND d   1       2.726   0.212   1.564  0.00  0.00     0.298 HD
ENDROOT
TORSDOF 0
ENDMDL
