MODEL 1
REMARK minimizedAffinity -2.23725963
REMARK minimizedRMSD -1
REMARK  0 active torsions:
REMARK  status: ('A' for Active; 'I' for Inactive)
ROOT
ATOM      1  N1  IND d   1      -0.278   1.971  -1.123  0.00  0.00    -0.196 N 
ATOM      2  C2  IND d   1       0.753   2.638  -0.523  0.00  0.00     0.054 A 
ATOM      3  C3  IND d   1       1.533   1.775   0.167  0.00  0.00    -0.031 A 
ATOM      4  C4  IND d   1       1.361  -0.786   0.364  0.00  0.00     0.051 A 
ATOM      5  C5  IND d   1       0.565  -1.842   0.020  0.00  0.00    -0.031 A 
ATOM      6  C6  IND d   1      -0.575  -1.678  -0.740  0.00  0.00     0.015 A 
ATOM      7  C7  IND d   1      -0.956  -0.448  -1.196  0.00  0.00    -0.016 A 
ATOM      8  C8  IND d   1      -0.153   0.628  -0.843  0.00  0.00    -0.047 A 
ATOM      9  C9  IND d   1       0.981   0.473  -0.036  0.00  0.00    -0.096 A 
ATOM     10  HN1 IND d   1      -0.900   2.330  -1.596  0.00  0.00     0.298 HD
ENDROOT
TORSDOF 0
ENDMDL
