MODEL 1
REMARK minimizedAffinity -1.26818025
REMARK minimizedRMSD -1
REMARK  0 active torsions:
REMARK  status: ('A' for Active; 'I' for Inactive)
ROOT
ATOM      1  N1  IND d   1       3.257   0.231   0.003  0.00  0.00    -0.196 N 
ATOM      2  C2  IND d   1       3.379  -1.128  -0.072  0.00  0.00     0.054 A 
ATOM      3  C3  IND d   1       2.162  -1.704  -0.189  0.00  0.00    -0.031 A 
ATOM      4  C4  IND d   1      -0.157  -0.603  -0.380  0.00  0.00     0.051 A 
ATOM      5  C5  IND d   1      -0.780   0.612  -0.326  0.00  0.00    -0.031 A 
ATOM      6  C6  IND d   1      -0.075   1.786  -0.158  0.00  0.00     0.015 A 
ATOM      7  C7  IND d   1       1.287   1.790  -0.049  0.00  0.00    -0.016 A 
ATOM      8  C8  IND d   1       1.922   0.557  -0.098  0.00  0.00    -0.047 A 
ATOM      9  C9  IND d   1       1.208  -0.641  -0.225  0.00  0.00    -0.096 A 
ATOM     10  HN1 IND d   1       3.905   0.789   0.097  0.00  0.00     0.298 HD
ENDROOT
TORSDOF 0
ENDMDL
