MODEL 1
REMARK minimizedAffinity -3.14265943
REMARK minimizedRMSD -1
REMARK  0 active torsions:
REMARK  status: ('A' for Active; 'I' for Inactive)
ROOT
ATOM      1  N1  IND d   1      -1.272   1.767   0.426  0.00  0.00    -0.196 N 
ATOM      2  C2  IND d   1      -2.411   1.401  -0.235  0.00  0.00     0.054 A 
ATOM      3  C3  IND d   1      -2.224   0.228  -0.881  0.00  0.00    -0.031 A 
ATOM      4  C4  IND d   1      -0.163  -1.314  -0.908  0.00  0.00     0.051 A 
ATOM      5  C5  IND d   1       1.134  -1.386  -0.482  0.00  0.00    -0.031 A 
ATOM      6  C6  IND d   1       1.705  -0.392   0.286  0.00  0.00     0.015 A 
ATOM      7  C7  IND d   1       0.995   0.710   0.668  0.00  0.00    -0.016 A 
ATOM      8  C8  IND d   1      -0.320   0.790   0.232  0.00  0.00    -0.047 A 
ATOM      9  C9  IND d   1      -0.892  -0.194  -0.584  0.00  0.00    -0.096 A 
ATOM     10  HN1 IND d   1      -1.168   2.486   0.886  0.00  0.00     0.298 HD
ENDROOT
TORSDOF 0
ENDMDL
