MODEL 1
REMARK minimizedAffinity -3.72922325
REMARK minimizedRMSD -1
REMARK  0 active torsions:
REMARK  status: ('A' for Active; 'I' for Inactive)
ROOT
ATOM      1  N1  IND d   1       2.357  -1.490   0.700  0.00  0.00    -0.196 N 
ATOM      2  C2  IND d   1       2.896  -0.489   1.459  0.00  0.00     0.054 A 
ATOM      3  C3  IND d   1       2.158   0.638   1.342  0.00  0.00    -0.031 A 
ATOM      4  C4  IND d   1      -0.028   1.035   0.042  0.00  0.00     0.051 A 
ATOM      5  C5  IND d   1      -0.887   0.428  -0.831  0.00  0.00    -0.031 A 
ATOM      6  C6  IND d   1      -0.707  -0.876  -1.244  0.00  0.00     0.015 A 
ATOM      7  C7  IND d   1       0.338  -1.630  -0.789  0.00  0.00    -0.016 A 
ATOM      8  C8  IND d   1       1.216  -1.015   0.092  0.00  0.00    -0.047 A 
ATOM      9  C9  IND d   1       1.062   0.322   0.482  0.00  0.00    -0.096 A 
ATOM     10  HN1 IND d   1       2.677  -2.284   0.617  0.00  0.00     0.298 HD
ENDROOT
TORSDOF 0
ENDMDL
