MODEL 1
REMARK minimizedAffinity -1.37335944
REMARK minimizedRMSD -1
REMARK  0 active torsions:
REMARK  status: ('A' for Active; 'I' for Inactive)
ROOT
ATOM      1  N1  IND d   1      -0.972   0.326   1.030  0.00  0.00    -0.196 N 
ATOM      2  C2  IND d   1      -1.469   0.831  -0.139  0.00  0.00     0.054 A 
ATOM      3  C3  IND d   1      -0.621   0.576  -1.160  0.00  0.00    -0.031 A 
ATOM      4  C4  IND d   1       1.590  -0.743  -1.159  0.00  0.00     0.051 A 
ATOM      5  C5  IND d   1       2.473  -1.365  -0.321  0.00  0.00    -0.031 A 
ATOM      6  C6  IND d   1       2.246  -1.460   1.037  0.00  0.00     0.015 A 
ATOM      7  C7  IND d   1       1.118  -0.943   1.608  0.00  0.00    -0.016 A 
ATOM      8  C8  IND d   1       0.223  -0.304   0.762  0.00  0.00    -0.047 A 
ATOM      9  C9  IND d   1       0.468  -0.168  -0.611  0.00  0.00    -0.096 A 
ATOM     10  HN1 IND d   1      -1.343   0.392   1.803  0.00  0.00     0.298 HD
ENDROOT
TORSDOF 0
ENDMDL
