MODEL 1
REMARK minimizedAffinity -1.98217046
REMARK minimizedRMSD -1
REMARK  0 active torsions:
REMARK  status: ('A' for Active; 'I' for Inactive)
ROOT
ATOM      1  N1  IND d   1       2.660  -1.729   0.919  0.00  0.00    -0.196 N 
ATOM      2  C2  IND d   1       2.995  -0.730   1.790  0.00  0.00     0.054 A 
ATOM      3  C3  IND d   1       2.174   0.331   1.628  0.00  0.00    -0.031 A 
ATOM      4  C4  IND d   1       0.147   0.607   0.064  0.00  0.00     0.051 A 
ATOM      5  C5  IND d   1      -0.528  -0.021  -0.945  0.00  0.00    -0.031 A 
ATOM      6  C6  IND d   1      -0.170  -1.276  -1.391  0.00  0.00     0.015 A 
ATOM      7  C7  IND d   1       0.874  -1.959  -0.835  0.00  0.00    -0.016 A 
ATOM      8  C8  IND d   1       1.567  -1.322   0.185  0.00  0.00    -0.047 A 
ATOM      9  C9  IND d   1       1.235  -0.030   0.613  0.00  0.00    -0.096 A 
ATOM     10  HN1 IND d   1       3.063  -2.484   0.842  0.00  0.00     0.298 HD
ENDROOT
TORSDOF 0
ENDMDL
