MODEL 1
REMARK minimizedAffinity -1.9955653
REMARK minimizedRMSD -1
REMARK  0 active torsions:
REMARK  status: ('A' for Active; 'I' for Inactive)
ROOT
ATOM      1  N1  IND d   1      -1.646  -0.070  -0.110  0.00  0.00    -0.196 N 
ATOM      2  C2  IND d   1      -1.537   1.275   0.111  0.00  0.00     0.054 A 
ATOM      3  C3  IND d   1      -0.238   1.626   0.246  0.00  0.00    -0.031 A 
ATOM      4  C4  IND d   1       1.878   0.174   0.040  0.00  0.00     0.051 A 
ATOM      5  C5  IND d   1       2.284  -1.121  -0.120  0.00  0.00    -0.031 A 
ATOM      6  C6  IND d   1       1.383  -2.152  -0.290  0.00  0.00     0.015 A 
ATOM      7  C7  IND d   1       0.037  -1.924  -0.319  0.00  0.00    -0.016 A 
ATOM      8  C8  IND d   1      -0.380  -0.611  -0.151  0.00  0.00    -0.047 A 
ATOM      9  C9  IND d   1       0.528   0.434   0.065  0.00  0.00    -0.096 A 
ATOM     10  HN1 IND d   1      -2.382  -0.504  -0.207  0.00  0.00     0.298 HD
ENDROOT
TORSDOF 0
ENDMDL
