MODEL 1
REMARK minimizedAffinity -1.92929518
REMARK minimizedRMSD -1
REMARK  0 active torsions:
REMARK  status: ('A' for Active; 'I' for Inactive)
ROOT
ATOM      1  C   UNL d   1       3.001   1.104   0.098  0.00  0.00     0.172 C 
ATOM      2  N   UNL d   1       1.709   1.346   0.696  0.00  0.00    -0.070 N 
ATOM      3  C1  UNL d   1       0.546   1.586   0.014  0.00  0.00    -0.004 A 
ATOM      4  C2  UNL d   1      -0.458   1.765   0.942  0.00  0.00    -0.047 A 
ATOM      5  C3  UNL d   1       0.122   1.628   2.225  0.00  0.00    -0.047 A 
ATOM      6  C4  UNL d   1       1.464   1.369   2.044  0.00  0.00    -0.004 A 
ENDROOT
TORSDOF 0
ENDMDL
