MODEL 1
REMARK minimizedAffinity -0.441804886
REMARK minimizedRMSD -1
REMARK  0 active torsions:
REMARK  status: ('A' for Active; 'I' for Inactive)
ROOT
ATOM      1  C   UNL d   1       1.139   1.285   0.460  0.00  0.00     0.172 C 
ATOM      2  N   UNL d   1       2.471   1.535  -0.037  0.00  0.00    -0.070 N 
ATOM      3  C1  UNL d   1       3.215   0.672  -0.796  0.00  0.00    -0.004 A 
ATOM      4  C2  UNL d   1       4.423   1.279  -1.065  0.00  0.00    -0.047 A 
ATOM      5  C3  UNL d   1       4.404   2.552  -0.445  0.00  0.00    -0.047 A 
ATOM      6  C4  UNL d   1       3.184   2.684   0.184  0.00  0.00    -0.004 A 
ENDROOT
TORSDOF 0
ENDMDL
