MODEL 1
REMARK minimizedAffinity 0.819163859
REMARK minimizedRMSD -1
REMARK  0 active torsions:
REMARK  status: ('A' for Active; 'I' for Inactive)
ROOT
ATOM      1  C   UNL d   1      -0.846  -0.246  -1.112  0.00  0.00     0.172 C 
ATOM      2  N   UNL d   1       0.243  -1.142  -0.800  0.00  0.00    -0.070 N 
ATOM      3  C1  UNL d   1       0.194  -2.509  -0.858  0.00  0.00    -0.004 A 
ATOM      4  C2  UNL d   1       1.430  -2.992  -0.488  0.00  0.00    -0.047 A 
ATOM      5  C3  UNL d   1       2.250  -1.876  -0.195  0.00  0.00    -0.047 A 
ATOM      6  C4  UNL d   1       1.490  -0.743  -0.397  0.00  0.00    -0.004 A 
ENDROOT
TORSDOF 0
ENDMDL
