MODEL 1
REMARK minimizedAffinity -1.71887457
REMARK minimizedRMSD -1
REMARK  0 active torsions:
REMARK  status: ('A' for Active; 'I' for Inactive)
ROOT
ATOM      1  C   UNL d   1       1.112   1.485  -0.007  0.00  0.00     0.172 C 
ATOM      2  N   UNL d   1       1.344   0.077  -0.225  0.00  0.00    -0.070 N 
ATOM      3  C1  UNL d   1       2.571  -0.528  -0.297  0.00  0.00    -0.004 A 
ATOM      4  C2  UNL d   1       2.366  -1.874  -0.513  0.00  0.00    -0.047 A 
ATOM      5  C3  UNL d   1       0.968  -2.085  -0.574  0.00  0.00    -0.047 A 
ATOM      6  C4  UNL d   1       0.360  -0.861  -0.393  0.00  0.00    -0.004 A 
ENDROOT
TORSDOF 0
ENDMDL
