MODEL 1
REMARK minimizedAffinity 0.953969836
REMARK minimizedRMSD -1
REMARK  0 active torsions:
REMARK  status: ('A' for Active; 'I' for Inactive)
ROOT
ATOM      1  C   UNL d   1       0.705   1.629   0.229  0.00  0.00     0.172 C 
ATOM      2  N   UNL d   1       0.297   0.409  -0.426  0.00  0.00    -0.070 N 
ATOM      3  C1  UNL d   1      -0.605   0.316  -1.452  0.00  0.00    -0.004 A 
ATOM      4  C2  UNL d   1      -0.719  -1.013  -1.796  0.00  0.00    -0.047 A 
ATOM      5  C3  UNL d   1       0.145  -1.746  -0.947  0.00  0.00    -0.047 A 
ATOM      6  C4  UNL d   1       0.761  -0.841  -0.109  0.00  0.00    -0.004 A 
ENDROOT
TORSDOF 0
ENDMDL
