MODEL 1
REMARK minimizedAffinity 1.63218677
REMARK minimizedRMSD -1
REMARK  3 active torsions:
REMARK  status: ('A' for Active; 'I' for Inactive)
REMARK    1  A    between atoms: C3'_2  and  C2'_3 
REMARK    2  A    between atoms: C2'_3  and  C1'_4 
REMARK    3  A    between atoms: C1'_4  and  C1_5 
ROOT
ATOM      1  C1  N4B d   1       3.048  -1.015   0.436  0.00  0.00    -0.075 A 
ATOM      2  C2  N4B d   1       2.862   0.372   0.246  0.00  0.00     0.002 A 
ATOM      3  C3  N4B d   1       3.943   1.219   0.265  0.00  0.00     0.002 A 
ATOM      4  C4  N4B d   1       5.212   0.706   0.490  0.00  0.00    -0.004 A 
ATOM      5  C5  N4B d   1       5.386  -0.638   0.647  0.00  0.00     0.002 A 
ATOM      6  C6  N4B d   1       4.309  -1.501   0.626  0.00  0.00     0.002 A 
ENDROOT
BRANCH   1   7
ATOM      7  C1' N4B d   1       1.887  -1.969   0.508  0.00  0.00     0.057 C 
BRANCH   7   8
ATOM      8  C2' N4B d   1       1.861  -2.621   1.887  0.00  0.00     0.009 C 
BRANCH   8   9
ATOM      9  C3' N4B d   1       0.450  -2.731   2.438  0.00  0.00     0.004 C 
ATOM     10  C4' N4B d   1      -0.084  -1.419   2.931  0.00  0.00     0.003 C 
ENDBRANCH   8   9
ENDBRANCH   7   8
ENDBRANCH   1   7
TORSDOF 3
ENDMDL
