MODEL 1
REMARK minimizedAffinity 5.87858677
REMARK minimizedRMSD -1
REMARK  3 active torsions:
REMARK  status: ('A' for Active; 'I' for Inactive)
REMARK    1  A    between atoms: C3'_2  and  C2'_3 
REMARK    2  A    between atoms: C2'_3  and  C1'_4 
REMARK    3  A    between atoms: C1'_4  and  C1_5 
ROOT
ATOM      1  C1  N4B d   1      -1.129   3.652  -4.086  0.00  0.00    -0.075 A 
ATOM      2  C2  N4B d   1      -1.466   2.502  -3.339  0.00  0.00     0.002 A 
ATOM      3  C3  N4B d   1      -2.777   2.257  -3.011  0.00  0.00     0.002 A 
ATOM      4  C4  N4B d   1      -3.761   3.152  -3.401  0.00  0.00    -0.004 A 
ATOM      5  C5  N4B d   1      -3.430   4.247  -4.145  0.00  0.00     0.002 A 
ATOM      6  C6  N4B d   1      -2.117   4.505  -4.485  0.00  0.00     0.002 A 
ENDROOT
BRANCH   1   7
ATOM      7  C1' N4B d   1       0.300   4.007  -4.395  0.00  0.00     0.057 C 
BRANCH   7   8
ATOM      8  C2' N4B d   1       0.388   4.530  -5.826  0.00  0.00     0.009 C 
BRANCH   8   9
ATOM      9  C3' N4B d   1       1.526   5.521  -6.000  0.00  0.00     0.004 C 
ATOM     10  C4' N4B d   1       2.874   4.865  -5.989  0.00  0.00     0.003 C 
ENDBRANCH   8   9
ENDBRANCH   7   8
ENDBRANCH   1   7
TORSDOF 3
ENDMDL
