MODEL 1
REMARK minimizedAffinity 12.9654436
REMARK minimizedRMSD -1
REMARK  3 active torsions:
REMARK  status: ('A' for Active; 'I' for Inactive)
REMARK    1  A    between atoms: C3'_2  and  C2'_3 
REMARK    2  A    between atoms: C2'_3  and  C1'_4 
REMARK    3  A    between atoms: C1'_4  and  C1_5 
ROOT
ATOM      1  C1  N4B d   1       1.248  -2.536   0.582  0.00  0.00    -0.075 A 
ATOM      2  C2  N4B d   1       2.187  -2.971  -0.379  0.00  0.00     0.002 A 
ATOM      3  C3  N4B d   1       2.227  -4.293  -0.750  0.00  0.00     0.002 A 
ATOM      4  C4  N4B d   1       1.354  -5.197  -0.163  0.00  0.00    -0.004 A 
ATOM      5  C5  N4B d   1       0.432  -4.763   0.745  0.00  0.00     0.002 A 
ATOM      6  C6  N4B d   1       0.378  -3.437   1.124  0.00  0.00     0.002 A 
ENDROOT
BRANCH   1   7
ATOM      7  C1' N4B d   1       1.224  -1.117   1.082  0.00  0.00     0.057 C 
BRANCH   7   8
ATOM      8  C2' N4B d   1       1.565  -1.105   2.569  0.00  0.00     0.009 C 
BRANCH   8   9
ATOM      9  C3' N4B d   1       2.859  -1.846   2.861  0.00  0.00     0.004 C 
ATOM     10  C4' N4B d   1       3.252  -1.782   4.307  0.00  0.00     0.003 C 
ENDBRANCH   8   9
ENDBRANCH   7   8
ENDBRANCH   1   7
TORSDOF 3
ENDMDL
