MODEL 1
REMARK minimizedAffinity 12.8077831
REMARK minimizedRMSD -1
REMARK  0 active torsions:
REMARK  status: ('A' for Active; 'I' for Inactive)
ROOT
ATOM      1  C4' PXY d   1       0.719  -0.749   3.928  0.00  0.00     0.077 C 
ATOM      2  C1' PXY d   1       1.880   2.942  -0.367  0.00  0.00     0.077 C 
ATOM      3  C1  PXY d   1       1.581   1.964   0.752  0.00  0.00    -0.082 A 
ATOM      4  C2  PXY d   1       0.585   2.211   1.587  0.00  0.00     0.003 A 
ATOM      5  C3  PXY d   1       0.321   1.354   2.625  0.00  0.00     0.003 A 
ATOM      6  C4  PXY d   1       1.051   0.205   2.777  0.00  0.00    -0.082 A 
ATOM      7  C5  PXY d   1       2.062  -0.059   1.923  0.00  0.00     0.003 A 
ATOM      8  C6  PXY d   1       2.340   0.845   0.901  0.00  0.00     0.003 A 
ENDROOT
TORSDOF 0
ENDMDL
