MODEL 1
REMARK minimizedAffinity 13.4578362
REMARK minimizedRMSD -1
REMARK  0 active torsions:
REMARK  status: ('A' for Active; 'I' for Inactive)
ROOT
ATOM      1  C4' PXY d   1      -1.226  -3.128   0.690  0.00  0.00     0.077 C 
ATOM      2  C1' PXY d   1      -5.034  -3.810  -3.606  0.00  0.00     0.077 C 
ATOM      3  C1  PXY d   1      -4.028  -3.623  -2.487  0.00  0.00    -0.082 A 
ATOM      4  C2  PXY d   1      -3.895  -4.561  -1.564  0.00  0.00     0.003 A 
ATOM      5  C3  PXY d   1      -3.013  -4.394  -0.527  0.00  0.00     0.003 A 
ATOM      6  C4  PXY d   1      -2.222  -3.278  -0.464  0.00  0.00    -0.082 A 
ATOM      7  C5  PXY d   1      -2.345  -2.321  -1.407  0.00  0.00     0.003 A 
ATOM      8  C6  PXY d   1      -3.275  -2.491  -2.429  0.00  0.00     0.003 A 
ENDROOT
TORSDOF 0
ENDMDL
