MODEL 1
REMARK minimizedAffinity 19.8232193
REMARK minimizedRMSD -1
REMARK  0 active torsions:
REMARK  status: ('A' for Active; 'I' for Inactive)
ROOT
ATOM      1  C4' PXY d   1       3.346   1.396  -2.083  0.00  0.00     0.077 C 
ATOM      2  C1' PXY d   1       0.364   1.201   2.865  0.00  0.00     0.077 C 
ATOM      3  C1  PXY d   1       1.154   1.242   1.572  0.00  0.00    -0.082 A 
ATOM      4  C2  PXY d   1       1.194   2.360   0.865  0.00  0.00     0.003 A 
ATOM      5  C3  PXY d   1       1.877   2.406  -0.323  0.00  0.00     0.003 A 
ATOM      6  C4  PXY d   1       2.569   1.311  -0.766  0.00  0.00    -0.082 A 
ATOM      7  C5  PXY d   1       2.542   0.170  -0.046  0.00  0.00     0.003 A 
ATOM      8  C6  PXY d   1       1.809   0.132   1.137  0.00  0.00     0.003 A 
ENDROOT
TORSDOF 0
ENDMDL
