MODEL 1
REMARK minimizedAffinity 4.96792889
REMARK minimizedRMSD -1
REMARK  0 active torsions:
REMARK  status: ('A' for Active; 'I' for Inactive)
ROOT
ATOM      1  C4' PXY d   1       4.201   0.230   2.308  0.00  0.00     0.077 C 
ATOM      2  C1' PXY d   1       0.630   1.396  -2.086  0.00  0.00     0.077 C 
ATOM      3  C1  PXY d   1       1.557   1.087  -0.926  0.00  0.00    -0.082 A 
ATOM      4  C2  PXY d   1       2.732   1.689  -0.849  0.00  0.00     0.003 A 
ATOM      5  C3  PXY d   1       3.595   1.398   0.175  0.00  0.00     0.003 A 
ATOM      6  C4  PXY d   1       3.230   0.519   1.160  0.00  0.00    -0.082 A 
ATOM      7  C5  PXY d   1       2.028  -0.092   1.094  0.00  0.00     0.003 A 
ATOM      8  C6  PXY d   1       1.183   0.187   0.024  0.00  0.00     0.003 A 
ENDROOT
TORSDOF 0
ENDMDL
