MODEL 1
REMARK minimizedAffinity 7.02379656
REMARK minimizedRMSD -1
REMARK  0 active torsions:
REMARK  status: ('A' for Active; 'I' for Inactive)
ROOT
ATOM      1  C4' PXY d   1      -1.863  -2.420  -1.503  0.00  0.00     0.077 C 
ATOM      2  C1' PXY d   1      -6.000  -5.999  -3.371  0.00  0.00     0.077 C 
ATOM      3  C1  PXY d   1      -4.916  -5.054  -2.892  0.00  0.00    -0.082 A 
ATOM      4  C2  PXY d   1      -4.036  -5.468  -1.996  0.00  0.00     0.003 A 
ATOM      5  C3  PXY d   1      -3.068  -4.616  -1.528  0.00  0.00     0.003 A 
ATOM      6  C4  PXY d   1      -2.968  -3.343  -2.022  0.00  0.00    -0.082 A 
ATOM      7  C5  PXY d   1      -3.856  -2.916  -2.945  0.00  0.00     0.003 A 
ATOM      8  C6  PXY d   1      -4.856  -3.783  -3.377  0.00  0.00     0.003 A 
ENDROOT
TORSDOF 0
ENDMDL
