MODEL 1
REMARK minimizedAffinity 17.7517452
REMARK minimizedRMSD -1
REMARK  0 active torsions:
REMARK  status: ('A' for Active; 'I' for Inactive)
ROOT
ATOM      1  C4' PXY d   1      -2.266  -1.628  -1.772  0.00  0.00     0.077 C 
ATOM      2  C1' PXY d   1      -5.998  -5.986  -2.472  0.00  0.00     0.077 C 
ATOM      3  C1  PXY d   1      -5.016  -4.848  -2.277  0.00  0.00    -0.082 A 
ATOM      4  C2  PXY d   1      -5.200  -3.707  -2.921  0.00  0.00     0.003 A 
ATOM      5  C3  PXY d   1      -4.304  -2.679  -2.781  0.00  0.00     0.003 A 
ATOM      6  C4  PXY d   1      -3.238  -2.801  -1.931  0.00  0.00    -0.082 A 
ATOM      7  C5  PXY d   1      -3.049  -3.958  -1.262  0.00  0.00     0.003 A 
ATOM      8  C6  PXY d   1      -3.947  -5.004  -1.450  0.00  0.00     0.003 A 
ENDROOT
TORSDOF 0
ENDMDL
