MODEL 1
REMARK minimizedAffinity 10.1962328
REMARK minimizedRMSD -1
REMARK  0 active torsions:
REMARK  status: ('A' for Active; 'I' for Inactive)
ROOT
ATOM      1  C4' PXY d   1       2.903  -0.206   2.010  0.00  0.00     0.077 C 
ATOM      2  C1' PXY d   1       0.142   4.740   0.856  0.00  0.00     0.077 C 
ATOM      3  C1  PXY d   1       0.861   3.443   1.171  0.00  0.00    -0.082 A 
ATOM      4  C2  PXY d   1       1.937   3.107   0.478  0.00  0.00     0.003 A 
ATOM      5  C3  PXY d   1       2.581   1.922   0.727  0.00  0.00     0.003 A 
ATOM      6  C4  PXY d   1       2.150   1.098   1.733  0.00  0.00    -0.082 A 
ATOM      7  C5  PXY d   1       1.060   1.439   2.452  0.00  0.00     0.003 A 
ATOM      8  C6  PXY d   1       0.396   2.626   2.155  0.00  0.00     0.003 A 
ENDROOT
TORSDOF 0
ENDMDL
