MODEL 1
REMARK minimizedAffinity 10.9577389
REMARK minimizedRMSD -1
REMARK  0 active torsions:
REMARK  status: ('A' for Active; 'I' for Inactive)
ROOT
ATOM      1  C4' PXY d   1       3.256   1.660   0.190  0.00  0.00     0.077 C 
ATOM      2  C1' PXY d   1       0.670   0.784   5.285  0.00  0.00     0.077 C 
ATOM      3  C1  PXY d   1       1.360   1.011   3.954  0.00  0.00    -0.082 A 
ATOM      4  C2  PXY d   1       0.793   1.791   3.049  0.00  0.00     0.003 A 
ATOM      5  C3  PXY d   1       1.387   1.982   1.828  0.00  0.00     0.003 A 
ATOM      6  C4  PXY d   1       2.600   1.410   1.551  0.00  0.00    -0.082 A 
ATOM      7  C5  PXY d   1       3.190   0.621   2.474  0.00  0.00     0.003 A 
ATOM      8  C6  PXY d   1       2.550   0.407   3.691  0.00  0.00     0.003 A 
ENDROOT
TORSDOF 0
ENDMDL
