MODEL 1
REMARK minimizedAffinity 8.88243103
REMARK minimizedRMSD -1
REMARK  0 active torsions:
REMARK  status: ('A' for Active; 'I' for Inactive)
ROOT
ATOM      1  C4' PXY d   1       1.953   0.360   0.336  0.00  0.00     0.077 C 
ATOM      2  C1' PXY d   1       2.747   2.803  -4.843  0.00  0.00     0.077 C 
ATOM      3  C1  PXY d   1       2.530   2.171  -3.482  0.00  0.00    -0.082 A 
ATOM      4  C2  PXY d   1       3.480   1.418  -2.951  0.00  0.00     0.003 A 
ATOM      5  C3  PXY d   1       3.288   0.814  -1.735  0.00  0.00     0.003 A 
ATOM      6  C4  PXY d   1       2.133   1.025  -1.032  0.00  0.00    -0.082 A 
ATOM      7  C5  PXY d   1       1.163   1.800  -1.561  0.00  0.00     0.003 A 
ATOM      8  C6  PXY d   1       1.361   2.372  -2.815  0.00  0.00     0.003 A 
ENDROOT
TORSDOF 0
ENDMDL
