MODEL 1
REMARK minimizedAffinity 1.34183514
REMARK minimizedRMSD -1
REMARK  0 active torsions:
REMARK  status: ('A' for Active; 'I' for Inactive)
ROOT
ATOM      1  C4' PXY d   1       4.092   5.982  -6.000  0.00  0.00     0.077 C 
ATOM      2  C1' PXY d   1       0.654   2.856  -2.561  0.00  0.00     0.077 C 
ATOM      3  C1  PXY d   1       1.564   3.666  -3.463  0.00  0.00    -0.082 A 
ATOM      4  C2  PXY d   1       1.506   4.988  -3.434  0.00  0.00     0.003 A 
ATOM      5  C3  PXY d   1       2.299   5.735  -4.266  0.00  0.00     0.003 A 
ATOM      6  C4  PXY d   1       3.199   5.124  -5.099  0.00  0.00    -0.082 A 
ATOM      7  C5  PXY d   1       3.271   3.776  -5.127  0.00  0.00     0.003 A 
ATOM      8  C6  PXY d   1       2.428   3.035  -4.304  0.00  0.00     0.003 A 
ENDROOT
TORSDOF 0
ENDMDL
