MODEL 1
REMARK minimizedAffinity 12.7297163
REMARK minimizedRMSD -1
REMARK  0 active torsions:
REMARK  status: ('A' for Active; 'I' for Inactive)
ROOT
ATOM      1  C4' PXY d   1       4.117   1.170  -0.624  0.00  0.00     0.077 C 
ATOM      2  C1' PXY d   1      -0.249   1.407   3.158  0.00  0.00     0.077 C 
ATOM      3  C1  PXY d   1       0.895   1.332   2.166  0.00  0.00    -0.082 A 
ATOM      4  C2  PXY d   1       1.779   2.315   2.111  0.00  0.00     0.003 A 
ATOM      5  C3  PXY d   1       2.801   2.278   1.198  0.00  0.00     0.003 A 
ATOM      6  C4  PXY d   1       2.951   1.199   0.369  0.00  0.00    -0.082 A 
ATOM      7  C5  PXY d   1       2.060   0.187   0.426  0.00  0.00     0.003 A 
ATOM      8  C6  PXY d   1       1.005   0.262   1.332  0.00  0.00     0.003 A 
ENDROOT
TORSDOF 0
ENDMDL
