MODEL 1
REMARK minimizedAffinity 9.40937805
REMARK minimizedRMSD -1
REMARK  0 active torsions:
REMARK  status: ('A' for Active; 'I' for Inactive)
ROOT
ATOM      1  C4' PXY d   1      -4.081  -0.392   2.386  0.00  0.00     0.077 C 
ATOM      2  C1' PXY d   1      -6.000   3.691   5.999  0.00  0.00     0.077 C 
ATOM      3  C1  PXY d   1      -5.493   2.630   5.043  0.00  0.00    -0.082 A 
ATOM      4  C2  PXY d   1      -5.991   1.405   5.102  0.00  0.00     0.003 A 
ATOM      5  C3  PXY d   1      -5.521   0.425   4.266  0.00  0.00     0.003 A 
ATOM      6  C4  PXY d   1      -4.569   0.714   3.325  0.00  0.00    -0.082 A 
ATOM      7  C5  PXY d   1      -4.064   1.963   3.252  0.00  0.00     0.003 A 
ATOM      8  C6  PXY d   1      -4.525   2.934   4.137  0.00  0.00     0.003 A 
ENDROOT
TORSDOF 0
ENDMDL
