MODEL 1
REMARK minimizedAffinity 5.29431343
REMARK minimizedRMSD -1
REMARK  0 active torsions:
REMARK  status: ('A' for Active; 'I' for Inactive)
ROOT
ATOM      1  C4' PXY d   1      -5.673   4.930   4.830  0.00  0.00     0.077 C 
ATOM      2  C1' PXY d   1      -5.976  -0.842   4.903  0.00  0.00     0.077 C 
ATOM      3  C1  PXY d   1      -5.890   0.672   4.873  0.00  0.00    -0.082 A 
ATOM      4  C2  PXY d   1      -5.999   1.356   6.000  0.00  0.00     0.003 A 
ATOM      5  C3  PXY d   1      -5.955   2.726   5.986  0.00  0.00     0.003 A 
ATOM      6  C4  PXY d   1      -5.744   3.401   4.814  0.00  0.00    -0.082 A 
ATOM      7  C5  PXY d   1      -5.621   2.710   3.661  0.00  0.00     0.003 A 
ATOM      8  C6  PXY d   1      -5.710   1.321   3.691  0.00  0.00     0.003 A 
ENDROOT
TORSDOF 0
ENDMDL
