MODEL 1
REMARK minimizedAffinity 2.42780638
REMARK minimizedRMSD -1
REMARK  0 active torsions:
REMARK  status: ('A' for Active; 'I' for Inactive)
ROOT
ATOM      1  C4' PXY d   1      -5.070   0.213   5.159  0.00  0.00     0.077 C 
ATOM      2  C1' PXY d   1      -5.418   5.979   4.942  0.00  0.00     0.077 C 
ATOM      3  C1  PXY d   1      -5.315   4.468   5.005  0.00  0.00    -0.082 A 
ATOM      4  C2  PXY d   1      -6.000   3.730   4.147  0.00  0.00     0.003 A 
ATOM      5  C3  PXY d   1      -5.943   2.361   4.210  0.00  0.00     0.003 A 
ATOM      6  C4  PXY d   1      -5.136   1.742   5.126  0.00  0.00    -0.082 A 
ATOM      7  C5  PXY d   1      -4.426   2.489   5.999  0.00  0.00     0.003 A 
ATOM      8  C6  PXY d   1      -4.529   3.876   5.945  0.00  0.00     0.003 A 
ENDROOT
TORSDOF 0
ENDMDL
