MODEL 1
REMARK minimizedAffinity 7.48558903
REMARK minimizedRMSD -1
REMARK  0 active torsions:
REMARK  status: ('A' for Active; 'I' for Inactive)
ROOT
ATOM      1  C4' PXY d   1      -1.214  -1.659   2.444  0.00  0.00     0.077 C 
ATOM      2  C1' PXY d   1      -3.140  -4.064  -2.447  0.00  0.00     0.077 C 
ATOM      3  C1  PXY d   1      -2.638  -3.445  -1.158  0.00  0.00    -0.082 A 
ATOM      4  C2  PXY d   1      -2.624  -2.128  -1.027  0.00  0.00     0.003 A 
ATOM      5  C3  PXY d   1      -2.143  -1.550   0.120  0.00  0.00     0.003 A 
ATOM      6  C4  PXY d   1      -1.722  -2.329   1.164  0.00  0.00    -0.082 A 
ATOM      7  C5  PXY d   1      -1.743  -3.673   1.043  0.00  0.00     0.003 A 
ATOM      8  C6  PXY d   1      -2.196  -4.239  -0.145  0.00  0.00     0.003 A 
ENDROOT
TORSDOF 0
ENDMDL
