MODEL 1
REMARK minimizedAffinity 4.43329144
REMARK minimizedRMSD -1
REMARK  0 active torsions:
REMARK  status: ('A' for Active; 'I' for Inactive)
ROOT
ATOM      1  C4' PXY d   1      -2.597   3.110   1.393  0.00  0.00     0.077 C 
ATOM      2  C1' PXY d   1       2.152  -0.180   1.583  0.00  0.00     0.077 C 
ATOM      3  C1  PXY d   1       0.899   0.672   1.533  0.00  0.00    -0.082 A 
ATOM      4  C2  PXY d   1       0.959   1.894   1.030  0.00  0.00     0.003 A 
ATOM      5  C3  PXY d   1      -0.157   2.690   1.006  0.00  0.00     0.003 A 
ATOM      6  C4  PXY d   1      -1.359   2.211   1.454  0.00  0.00    -0.082 A 
ATOM      7  C5  PXY d   1      -1.431   0.961   1.960  0.00  0.00     0.003 A 
ATOM      8  C6  PXY d   1      -0.277   0.184   2.013  0.00  0.00     0.003 A 
ENDROOT
TORSDOF 0
ENDMDL
