MODEL 1
REMARK minimizedAffinity 10.9284363
REMARK minimizedRMSD -1
REMARK  0 active torsions:
REMARK  status: ('A' for Active; 'I' for Inactive)
ROOT
ATOM      1  C4' PXY d   1      -3.820  -2.750  -5.977  0.00  0.00     0.077 C 
ATOM      2  C1' PXY d   1       1.125  -4.273  -3.401  0.00  0.00     0.077 C 
ATOM      3  C1  PXY d   1      -0.178  -3.875  -4.065  0.00  0.00    -0.082 A 
ATOM      4  C2  PXY d   1      -0.311  -4.007  -5.375  0.00  0.00     0.003 A 
ATOM      5  C3  PXY d   1      -1.472  -3.622  -5.996  0.00  0.00     0.003 A 
ATOM      6  C4  PXY d   1      -2.526  -3.147  -5.263  0.00  0.00    -0.082 A 
ATOM      7  C5  PXY d   1      -2.401  -3.020  -3.925  0.00  0.00     0.003 A 
ATOM      8  C6  PXY d   1      -1.201  -3.377  -3.318  0.00  0.00     0.003 A 
ENDROOT
TORSDOF 0
ENDMDL
