MODEL 1
REMARK minimizedAffinity 6.46079159
REMARK minimizedRMSD -1
REMARK  0 active torsions:
REMARK  status: ('A' for Active; 'I' for Inactive)
ROOT
ATOM      1  C4' PXY d   1      -5.124   0.897   3.887  0.00  0.00     0.077 C 
ATOM      2  C1' PXY d   1       0.194   1.553   1.717  0.00  0.00     0.077 C 
ATOM      3  C1  PXY d   1      -1.202   1.369   2.281  0.00  0.00    -0.082 A 
ATOM      4  C2  PXY d   1      -1.924   2.431   2.598  0.00  0.00     0.003 A 
ATOM      5  C3  PXY d   1      -3.176   2.283   3.138  0.00  0.00     0.003 A 
ATOM      6  C4  PXY d   1      -3.714   1.035   3.306  0.00  0.00    -0.082 A 
ATOM      7  C5  PXY d   1      -2.987  -0.053   2.975  0.00  0.00     0.003 A 
ATOM      8  C6  PXY d   1      -1.703   0.118   2.467  0.00  0.00     0.003 A 
ENDROOT
TORSDOF 0
ENDMDL
