MODEL 1
REMARK minimizedAffinity 8.16017342
REMARK minimizedRMSD -1
REMARK  1 active torsions:
REMARK  status: ('A' for Active; 'I' for Inactive)
REMARK    1  A    between atoms: C1_2  and  C2_3 
ROOT
ATOM      1  C2  UNL d   1       0.833   2.656   2.567  0.00  0.00    -0.077 A 
ATOM      2  C3  UNL d   1       2.188   2.964   2.755  0.00  0.00     0.002 A 
ATOM      3  C4  UNL d   1       2.934   3.531   1.720  0.00  0.00     0.002 A 
ATOM      4  C5  UNL d   1       2.333   3.799   0.492  0.00  0.00    -0.004 A 
ATOM      5  C6  UNL d   1       0.987   3.494   0.294  0.00  0.00     0.002 A 
ATOM      6  C7  UNL d   1       0.240   2.926   1.327  0.00  0.00     0.002 A 
ENDROOT
BRANCH   1   7
ATOM      7  C1  UNL d   1       0.015   2.089   3.698  0.00  0.00     0.055 C 
ATOM      8  C   UNL d   1       0.716   0.907   4.351  0.00  0.00     0.019 C 
ENDBRANCH   1   7
TORSDOF 1
ENDMDL
