MODEL 1
REMARK minimizedAffinity 4.51881552
REMARK minimizedRMSD -1
REMARK  1 active torsions:
REMARK  status: ('A' for Active; 'I' for Inactive)
REMARK    1  A    between atoms: C1_2  and  C2_3 
ROOT
ATOM      1  C2  UNL d   1       0.107   3.568  -0.798  0.00  0.00    -0.077 A 
ATOM      2  C3  UNL d   1      -0.746   3.666  -1.906  0.00  0.00     0.002 A 
ATOM      3  C4  UNL d   1      -0.718   4.800  -2.721  0.00  0.00     0.002 A 
ATOM      4  C5  UNL d   1       0.163   5.841  -2.438  0.00  0.00    -0.004 A 
ATOM      5  C6  UNL d   1       1.014   5.754  -1.337  0.00  0.00     0.002 A 
ATOM      6  C7  UNL d   1       0.987   4.622  -0.521  0.00  0.00     0.002 A 
ENDROOT
BRANCH   1   7
ATOM      7  C1  UNL d   1       0.113   2.325   0.053  0.00  0.00     0.055 C 
ATOM      8  C   UNL d   1       0.549   2.633   1.478  0.00  0.00     0.019 C 
ENDBRANCH   1   7
TORSDOF 1
ENDMDL
