MODEL 1
REMARK minimizedAffinity 3.41524386
REMARK minimizedRMSD -1
REMARK  1 active torsions:
REMARK  status: ('A' for Active; 'I' for Inactive)
REMARK    1  A    between atoms: C1_2  and  C2_3 
ROOT
ATOM      1  C2  UNL d   1      -0.013   4.190  -0.768  0.00  0.00    -0.077 A 
ATOM      2  C3  UNL d   1      -1.379   4.290  -1.067  0.00  0.00     0.002 A 
ATOM      3  C4  UNL d   1      -1.811   5.075  -2.138  0.00  0.00     0.002 A 
ATOM      4  C5  UNL d   1      -0.884   5.762  -2.920  0.00  0.00    -0.004 A 
ATOM      5  C6  UNL d   1       0.476   5.669  -2.629  0.00  0.00     0.002 A 
ATOM      6  C7  UNL d   1       0.910   4.886  -1.559  0.00  0.00     0.002 A 
ENDROOT
BRANCH   1   7
ATOM      7  C1  UNL d   1       0.459   3.304   0.356  0.00  0.00     0.055 C 
ATOM      8  C   UNL d   1      -0.563   3.247   1.482  0.00  0.00     0.019 C 
ENDBRANCH   1   7
TORSDOF 1
ENDMDL
