MODEL 1
REMARK minimizedAffinity 0.704210818
REMARK minimizedRMSD -1
REMARK  1 active torsions:
REMARK  status: ('A' for Active; 'I' for Inactive)
REMARK    1  A    between atoms: C1_2  and  C2_3 
ROOT
ATOM      1  C2  UNL d   1      -1.558   4.856   0.256  0.00  0.00    -0.077 A 
ATOM      2  C3  UNL d   1      -1.091   3.686   0.871  0.00  0.00     0.002 A 
ATOM      3  C4  UNL d   1      -0.554   2.650   0.104  0.00  0.00     0.002 A 
ATOM      4  C5  UNL d   1      -0.476   2.775  -1.281  0.00  0.00    -0.004 A 
ATOM      5  C6  UNL d   1      -0.940   3.934  -1.903  0.00  0.00     0.002 A 
ATOM      6  C7  UNL d   1      -1.477   4.970  -1.138  0.00  0.00     0.002 A 
ENDROOT
BRANCH   1   7
ATOM      7  C1  UNL d   1      -2.091   5.994   1.085  0.00  0.00     0.055 C 
ATOM      8  C   UNL d   1      -2.830   5.485   2.315  0.00  0.00     0.019 C 
ENDBRANCH   1   7
TORSDOF 1
ENDMDL
