MODEL 1
REMARK minimizedAffinity 6.01434898
REMARK minimizedRMSD -1
REMARK  1 active torsions:
REMARK  status: ('A' for Active; 'I' for Inactive)
REMARK    1  A    between atoms: C1_2  and  C2_3 
ROOT
ATOM      1  C2  UNL d   1       0.776   2.899   1.541  0.00  0.00    -0.077 A 
ATOM      2  C3  UNL d   1      -0.352   2.433   0.851  0.00  0.00     0.002 A 
ATOM      3  C4  UNL d   1      -0.779   3.070  -0.316  0.00  0.00     0.002 A 
ATOM      4  C5  UNL d   1      -0.083   4.173  -0.805  0.00  0.00    -0.004 A 
ATOM      5  C6  UNL d   1       1.039   4.645  -0.125  0.00  0.00     0.002 A 
ATOM      6  C7  UNL d   1       1.467   4.011   1.042  0.00  0.00     0.002 A 
ENDROOT
BRANCH   1   7
ATOM      7  C1  UNL d   1       1.267   2.184   2.772  0.00  0.00     0.055 C 
ATOM      8  C   UNL d   1       2.338   2.992   3.491  0.00  0.00     0.019 C 
ENDBRANCH   1   7
TORSDOF 1
ENDMDL
