MODEL 1
REMARK minimizedAffinity 2.55795717
REMARK minimizedRMSD -1
REMARK  1 active torsions:
REMARK  status: ('A' for Active; 'I' for Inactive)
REMARK    1  A    between atoms: C1_2  and  C2_3 
ROOT
ATOM      1  C2  UNL d   1       0.829   4.018  -0.148  0.00  0.00    -0.077 A 
ATOM      2  C3  UNL d   1       0.785   3.903  -1.545  0.00  0.00     0.002 A 
ATOM      3  C4  UNL d   1      -0.393   4.182  -2.240  0.00  0.00     0.002 A 
ATOM      4  C5  UNL d   1      -1.534   4.584  -1.549  0.00  0.00    -0.004 A 
ATOM      5  C6  UNL d   1      -1.501   4.700  -0.160  0.00  0.00     0.002 A 
ATOM      6  C7  UNL d   1      -0.325   4.420   0.537  0.00  0.00     0.002 A 
ENDROOT
BRANCH   1   7
ATOM      7  C1  UNL d   1       2.112   3.765   0.599  0.00  0.00     0.055 C 
ATOM      8  C   UNL d   1       1.884   2.854   1.797  0.00  0.00     0.019 C 
ENDBRANCH   1   7
TORSDOF 1
ENDMDL
