MODEL 1
REMARK minimizedAffinity 5.74452066
REMARK minimizedRMSD -1
REMARK  1 active torsions:
REMARK  status: ('A' for Active; 'I' for Inactive)
REMARK    1  A    between atoms: C1_2  and  C2_3 
ROOT
ATOM      1  C2  UNL d   1      -0.183  -3.386  -1.435  0.00  0.00    -0.077 A 
ATOM      2  C3  UNL d   1       0.761  -4.296  -0.938  0.00  0.00     0.002 A 
ATOM      3  C4  UNL d   1       1.803  -3.857  -0.120  0.00  0.00     0.002 A 
ATOM      4  C5  UNL d   1       1.909  -2.508   0.212  0.00  0.00    -0.004 A 
ATOM      5  C6  UNL d   1       0.976  -1.595  -0.278  0.00  0.00     0.002 A 
ATOM      6  C7  UNL d   1      -0.066  -2.032  -1.097  0.00  0.00     0.002 A 
ENDROOT
BRANCH   1   7
ATOM      7  C1  UNL d   1      -1.336  -3.865  -2.277  0.00  0.00     0.055 C 
ATOM      8  C   UNL d   1      -1.163  -3.462  -3.734  0.00  0.00     0.019 C 
ENDBRANCH   1   7
TORSDOF 1
ENDMDL
