MODEL 1
REMARK minimizedAffinity -3.60188723
REMARK minimizedRMSD -1
REMARK  0 active torsions:
REMARK  status: ('A' for Active; 'I' for Inactive)
ROOT
ATOM      1  C   UNL d   1      -1.627   0.967   2.797  0.00  0.00     0.020 A 
ATOM      2  C1  UNL d   1      -0.643   0.614   3.719  0.00  0.00     0.020 A 
ATOM      3  C2  UNL d   1       0.531  -0.005   3.285  0.00  0.00     0.034 A 
ATOM      4  C3  UNL d   1       0.724  -0.274   1.926  0.00  0.00     0.017 A 
ATOM      5  C4  UNL d   1      -0.264   0.081   1.000  0.00  0.00     0.017 A 
ATOM      6  C5  UNL d   1      -1.438   0.701   1.440  0.00  0.00     0.034 A 
ATOM      7 Cl   UNL d   1      -0.098  -0.218  -0.694  0.00  0.00    -0.070 Cl
ATOM      8 Cl1  UNL d   1       2.200  -1.042   1.460  0.00  0.00    -0.070 Cl
ENDROOT
TORSDOF 0
ENDMDL
