MODEL 1
REMARK minimizedAffinity -5.5098896
REMARK minimizedRMSD -1
REMARK  0 active torsions:
REMARK  status: ('A' for Active; 'I' for Inactive)
ROOT
ATOM      1  C   UNL d   1       0.082   1.036   3.121  0.00  0.00     0.020 A 
ATOM      2  C1  UNL d   1      -0.795   1.591   2.190  0.00  0.00     0.020 A 
ATOM      3  C2  UNL d   1      -0.699   1.238   0.843  0.00  0.00     0.034 A 
ATOM      4  C3  UNL d   1       0.276   0.326   0.422  0.00  0.00     0.017 A 
ATOM      5  C4  UNL d   1       1.156  -0.231   1.357  0.00  0.00     0.017 A 
ATOM      6  C5  UNL d   1       1.055   0.127   2.705  0.00  0.00     0.034 A 
ATOM      7 Cl   UNL d   1       2.386  -1.362   0.914  0.00  0.00    -0.070 Cl
ATOM      8 Cl1  UNL d   1       0.338  -0.066  -1.260  0.00  0.00    -0.070 Cl
ENDROOT
TORSDOF 0
ENDMDL
