MODEL 1
REMARK minimizedAffinity -5.14463758
REMARK minimizedRMSD -1
REMARK  0 active torsions:
REMARK  status: ('A' for Active; 'I' for Inactive)
ROOT
ATOM      1  C   UNL d   1       0.471   1.003   2.718  0.00  0.00     0.020 A 
ATOM      2  C1  UNL d   1      -0.879   0.966   3.065  0.00  0.00     0.020 A 
ATOM      3  C2  UNL d   1      -1.837   0.630   2.107  0.00  0.00     0.034 A 
ATOM      4  C3  UNL d   1      -1.447   0.330   0.796  0.00  0.00     0.017 A 
ATOM      5  C4  UNL d   1      -0.092   0.368   0.449  0.00  0.00     0.017 A 
ATOM      6  C5  UNL d   1       0.863   0.705   1.412  0.00  0.00     0.034 A 
ATOM      7 Cl   UNL d   1       0.466   0.011  -1.148  0.00  0.00    -0.070 Cl
ATOM      8 Cl1  UNL d   1      -2.686  -0.077  -0.337  0.00  0.00    -0.070 Cl
ENDROOT
TORSDOF 0
ENDMDL
