MODEL 1
REMARK minimizedAffinity -3.84600425
REMARK minimizedRMSD -1
REMARK  0 active torsions:
REMARK  status: ('A' for Active; 'I' for Inactive)
ROOT
ATOM      1  C   UNL d   1      -1.888   0.127   1.353  0.00  0.00     0.020 A 
ATOM      2  C1  UNL d   1      -2.194   0.904   0.237  0.00  0.00     0.020 A 
ATOM      3  C2  UNL d   1      -1.265   1.034  -0.798  0.00  0.00     0.034 A 
ATOM      4  C3  UNL d   1      -0.027   0.387  -0.719  0.00  0.00     0.017 A 
ATOM      5  C4  UNL d   1       0.279  -0.392   0.403  0.00  0.00     0.017 A 
ATOM      6  C5  UNL d   1      -0.654  -0.519   1.436  0.00  0.00     0.034 A 
ATOM      7 Cl   UNL d   1       1.787  -1.220   0.573  0.00  0.00    -0.070 Cl
ATOM      8 Cl1  UNL d   1       1.073   0.593  -2.035  0.00  0.00    -0.070 Cl
ENDROOT
TORSDOF 0
ENDMDL
