MODEL 1
REMARK minimizedAffinity -2.334548
REMARK minimizedRMSD -1
REMARK  0 active torsions:
REMARK  status: ('A' for Active; 'I' for Inactive)
ROOT
ATOM      1  C   UNL d   1      -1.527   1.408  -0.024  0.00  0.00     0.020 A 
ATOM      2  C1  UNL d   1      -1.464   0.452   0.988  0.00  0.00     0.020 A 
ATOM      3  C2  UNL d   1      -0.579  -0.622   0.881  0.00  0.00     0.034 A 
ATOM      4  C3  UNL d   1       0.248  -0.743  -0.242  0.00  0.00     0.017 A 
ATOM      5  C4  UNL d   1       0.184   0.217  -1.258  0.00  0.00     0.017 A 
ATOM      6  C5  UNL d   1      -0.704   1.291  -1.145  0.00  0.00     0.034 A 
ATOM      7 Cl   UNL d   1       1.173   0.136  -2.674  0.00  0.00    -0.070 Cl
ATOM      8 Cl1  UNL d   1       1.320  -2.097  -0.309  0.00  0.00    -0.070 Cl
ENDROOT
TORSDOF 0
ENDMDL
