MODEL 1
REMARK minimizedAffinity -1.90528429
REMARK minimizedRMSD -1
REMARK  0 active torsions:
REMARK  status: ('A' for Active; 'I' for Inactive)
ROOT
ATOM      1  C   UNL d   1       1.411  -1.063   0.799  0.00  0.00     0.020 A 
ATOM      2  C1  UNL d   1       0.845  -1.224  -0.465  0.00  0.00     0.020 A 
ATOM      3  C2  UNL d   1      -0.449  -0.763  -0.715  0.00  0.00     0.034 A 
ATOM      4  C3  UNL d   1      -1.182  -0.138   0.300  0.00  0.00     0.017 A 
ATOM      5  C4  UNL d   1      -0.613   0.023   1.569  0.00  0.00     0.017 A 
ATOM      6  C5  UNL d   1       0.683  -0.441   1.814  0.00  0.00     0.034 A 
ATOM      7 Cl   UNL d   1      -1.456   0.784   2.872  0.00  0.00    -0.070 Cl
ATOM      8 Cl1  UNL d   1      -2.777   0.408  -0.079  0.00  0.00    -0.070 Cl
ENDROOT
TORSDOF 0
ENDMDL
