MODEL 1
REMARK minimizedAffinity -3.13087916
REMARK minimizedRMSD -1
REMARK  0 active torsions:
REMARK  status: ('A' for Active; 'I' for Inactive)
ROOT
ATOM      1  C   UNL d   1      -0.735   0.241   2.834  0.00  0.00     0.020 A 
ATOM      2  C1  UNL d   1      -1.540   0.716   1.800  0.00  0.00     0.020 A 
ATOM      3  C2  UNL d   1      -1.110   0.611   0.475  0.00  0.00     0.034 A 
ATOM      4  C3  UNL d   1       0.128   0.029   0.181  0.00  0.00     0.017 A 
ATOM      5  C4  UNL d   1       0.936  -0.448   1.220  0.00  0.00     0.017 A 
ATOM      6  C5  UNL d   1       0.500  -0.340   2.545  0.00  0.00     0.034 A 
ATOM      7 Cl   UNL d   1       2.476  -1.179   0.936  0.00  0.00    -0.070 Cl
ATOM      8 Cl1  UNL d   1       0.597  -0.068  -1.479  0.00  0.00    -0.070 Cl
ENDROOT
TORSDOF 0
ENDMDL
