MODEL 1
REMARK minimizedAffinity -4.81723547
REMARK minimizedRMSD -1
REMARK  0 active torsions:
REMARK  status: ('A' for Active; 'I' for Inactive)
ROOT
ATOM      1  C1  DEN d   1      -0.894   1.867  -2.268  0.00  0.00     0.130 A 
ATOM      2  C2  DEN d   1      -2.318   1.854  -2.593  0.00  0.00    -0.031 A 
ATOM      3  C3  DEN d   1      -2.986   0.904  -1.681  0.00  0.00     0.027 A 
ATOM      4  C4  DEN d   1      -1.961  -0.536   0.197  0.00  0.00     0.027 A 
ATOM      5  C5  DEN d   1      -0.791  -0.874   0.840  0.00  0.00    -0.003 A 
ATOM      6  C6  DEN d   1       0.421  -0.352   0.474  0.00  0.00     0.001 A 
ATOM      7  C7  DEN d   1       0.485   0.571  -0.536  0.00  0.00     0.017 A 
ATOM      8  C8  DEN d   1      -0.689   0.912  -1.194  0.00  0.00    -0.094 A 
ATOM      9  C9  DEN d   1      -1.906   0.382  -0.801  0.00  0.00    -0.072 A 
ENDROOT
TORSDOF 0
ENDMDL
