MODEL 1
REMARK minimizedAffinity -6.67007351
REMARK minimizedRMSD -1
REMARK  0 active torsions:
REMARK  status: ('A' for Active; 'I' for Inactive)
ROOT
ATOM      1  C1  DEN d   1       1.693  -0.739  -0.502  0.00  0.00     0.130 A 
ATOM      2  C2  DEN d   1       2.017  -1.929   0.281  0.00  0.00    -0.031 A 
ATOM      3  C3  DEN d   1       0.890  -2.192   1.199  0.00  0.00     0.027 A 
ATOM      4  C4  DEN d   1      -1.314  -0.882   1.480  0.00  0.00     0.027 A 
ATOM      5  C5  DEN d   1      -2.036   0.207   1.044  0.00  0.00    -0.003 A 
ATOM      6  C6  DEN d   1      -1.555   1.069   0.094  0.00  0.00     0.001 A 
ATOM      7  C7  DEN d   1      -0.336   0.831  -0.484  0.00  0.00     0.017 A 
ATOM      8  C8  DEN d   1       0.401  -0.261  -0.044  0.00  0.00    -0.094 A 
ATOM      9  C9  DEN d   1      -0.108  -1.127   0.908  0.00  0.00    -0.072 A 
ENDROOT
TORSDOF 0
ENDMDL
