MODEL 1
REMARK minimizedAffinity -4.92811155
REMARK minimizedRMSD -1
REMARK  0 active torsions:
REMARK  status: ('A' for Active; 'I' for Inactive)
ROOT
ATOM      1  C1  DEN d   1      -1.025   1.430   0.805  0.00  0.00     0.130 A 
ATOM      2  C2  DEN d   1      -1.736   0.700   1.850  0.00  0.00    -0.031 A 
ATOM      3  C3  DEN d   1      -0.952  -0.508   2.177  0.00  0.00     0.027 A 
ATOM      4  C4  DEN d   1       1.284  -1.311   1.175  0.00  0.00     0.027 A 
ATOM      5  C5  DEN d   1       2.266  -1.029   0.250  0.00  0.00    -0.003 A 
ATOM      6  C6  DEN d   1       2.203   0.065  -0.571  0.00  0.00     0.001 A 
ATOM      7  C7  DEN d   1       1.158   0.943  -0.453  0.00  0.00     0.017 A 
ATOM      8  C8  DEN d   1       0.161   0.661   0.472  0.00  0.00    -0.094 A 
ATOM      9  C9  DEN d   1       0.249  -0.444   1.301  0.00  0.00    -0.072 A 
ENDROOT
TORSDOF 0
ENDMDL
