MODEL 1
REMARK minimizedAffinity -0.559755623
REMARK minimizedRMSD -1
REMARK  0 active torsions:
REMARK  status: ('A' for Active; 'I' for Inactive)
ROOT
ATOM      1  C1  DEN d   1      -2.066  -0.198   0.007  0.00  0.00     0.130 A 
ATOM      2  C2  DEN d   1      -0.829   0.023   0.751  0.00  0.00    -0.031 A 
ATOM      3  C3  DEN d   1      -0.045   1.052   0.038  0.00  0.00     0.027 A 
ATOM      4  C4  DEN d   1      -0.628   2.322  -2.130  0.00  0.00     0.027 A 
ATOM      5  C5  DEN d   1      -1.565   2.466  -3.129  0.00  0.00    -0.003 A 
ATOM      6  C6  DEN d   1      -2.710   1.715  -3.171  0.00  0.00     0.001 A 
ATOM      7  C7  DEN d   1      -2.968   0.816  -2.170  0.00  0.00     0.017 A 
ATOM      8  C8  DEN d   1      -2.024   0.659  -1.164  0.00  0.00    -0.094 A 
ATOM      9  C9  DEN d   1      -0.879   1.437  -1.133  0.00  0.00    -0.072 A 
ENDROOT
TORSDOF 0
ENDMDL
