MODEL 1
REMARK minimizedAffinity -3.30654979
REMARK minimizedRMSD -1
REMARK  0 active torsions:
REMARK  status: ('A' for Active; 'I' for Inactive)
ROOT
ATOM      1  C1  DEN d   1       0.835   0.384  -0.311  0.00  0.00     0.130 A 
ATOM      2  C2  DEN d   1       0.386  -0.481   0.777  0.00  0.00    -0.031 A 
ATOM      3  C3  DEN d   1      -1.085  -0.592   0.694  0.00  0.00     0.027 A 
ATOM      4  C4  DEN d   1      -2.699   0.481  -1.007  0.00  0.00     0.027 A 
ATOM      5  C5  DEN d   1      -2.785   1.305  -2.108  0.00  0.00    -0.003 A 
ATOM      6  C6  DEN d   1      -1.684   1.902  -2.661  0.00  0.00     0.001 A 
ATOM      7  C7  DEN d   1      -0.442   1.648  -2.142  0.00  0.00     0.017 A 
ATOM      8  C8  DEN d   1      -0.347   0.824  -1.029  0.00  0.00    -0.094 A 
ATOM      9  C9  DEN d   1      -1.472   0.220  -0.491  0.00  0.00    -0.072 A 
ENDROOT
TORSDOF 0
ENDMDL
