MODEL 1
REMARK minimizedAffinity 1.52444327
REMARK minimizedRMSD -1
REMARK  0 active torsions:
REMARK  status: ('A' for Active; 'I' for Inactive)
ROOT
ATOM      1  C1  DEN d   1       1.760  -1.161   1.135  0.00  0.00     0.130 A 
ATOM      2  C2  DEN d   1       2.918  -0.891   0.288  0.00  0.00    -0.031 A 
ATOM      3  C3  DEN d   1       2.502   0.057  -0.765  0.00  0.00     0.027 A 
ATOM      4  C4  DEN d   1       0.190   1.130  -1.161  0.00  0.00     0.027 A 
ATOM      5  C5  DEN d   1      -1.109   1.196  -0.708  0.00  0.00    -0.003 A 
ATOM      6  C6  DEN d   1      -1.548   0.460   0.361  0.00  0.00     0.001 A 
ATOM      7  C7  DEN d   1      -0.669  -0.339   1.041  0.00  0.00     0.017 A 
ATOM      8  C8  DEN d   1       0.641  -0.416   0.587  0.00  0.00    -0.094 A 
ATOM      9  C9  DEN d   1       1.069   0.345  -0.488  0.00  0.00    -0.072 A 
ENDROOT
TORSDOF 0
ENDMDL
