MODEL 1
REMARK minimizedAffinity 0.818556488
REMARK minimizedRMSD -1
REMARK  0 active torsions:
REMARK  status: ('A' for Active; 'I' for Inactive)
ROOT
ATOM      1  C1  DEN d   1      -0.004  -0.462   0.170  0.00  0.00     0.130 A 
ATOM      2  C2  DEN d   1       1.346   0.093   0.207  0.00  0.00    -0.031 A 
ATOM      3  C3  DEN d   1       1.388   1.254  -0.705  0.00  0.00     0.027 A 
ATOM      4  C4  DEN d   1      -0.498   2.244  -2.159  0.00  0.00     0.027 A 
ATOM      5  C5  DEN d   1      -1.817   2.106  -2.533  0.00  0.00    -0.003 A 
ATOM      6  C6  DEN d   1      -2.608   1.092  -2.063  0.00  0.00     0.001 A 
ATOM      7  C7  DEN d   1      -2.099   0.200  -1.155  0.00  0.00     0.017 A 
ATOM      8  C8  DEN d   1      -0.768   0.328  -0.779  0.00  0.00    -0.094 A 
ATOM      9  C9  DEN d   1       0.011   1.368  -1.257  0.00  0.00    -0.072 A 
ENDROOT
TORSDOF 0
ENDMDL
