MODEL 1
REMARK minimizedAffinity 1.09099686
REMARK minimizedRMSD -1
REMARK  0 active torsions:
REMARK  status: ('A' for Active; 'I' for Inactive)
ROOT
ATOM      1  C1  DEN d   1       1.596   0.390   0.347  0.00  0.00     0.130 A 
ATOM      2  C2  DEN d   1       1.756   0.412  -1.105  0.00  0.00    -0.031 A 
ATOM      3  C3  DEN d   1       0.448   0.094  -1.713  0.00  0.00     0.027 A 
ATOM      4  C4  DEN d   1      -1.797  -0.424  -0.554  0.00  0.00     0.027 A 
ATOM      5  C5  DEN d   1      -2.424  -0.571   0.663  0.00  0.00    -0.003 A 
ATOM      6  C6  DEN d   1      -1.753  -0.443   1.851  0.00  0.00     0.001 A 
ATOM      7  C7  DEN d   1      -0.423  -0.115   1.847  0.00  0.00     0.017 A 
ATOM      8  C8  DEN d   1       0.218   0.028   0.623  0.00  0.00    -0.094 A 
ATOM      9  C9  DEN d   1      -0.481  -0.093  -0.566  0.00  0.00    -0.072 A 
ENDROOT
TORSDOF 0
ENDMDL
