MODEL 1
REMARK minimizedAffinity -2.94978404
REMARK minimizedRMSD -1
REMARK  0 active torsions:
REMARK  status: ('A' for Active; 'I' for Inactive)
ROOT
ATOM      1  C1  DEN d   1      -1.801  -0.244  -0.012  0.00  0.00     0.130 A 
ATOM      2  C2  DEN d   1      -0.580   0.087   0.718  0.00  0.00    -0.031 A 
ATOM      3  C3  DEN d   1       0.120   1.155  -0.025  0.00  0.00     0.027 A 
ATOM      4  C4  DEN d   1      -0.568   2.324  -2.219  0.00  0.00     0.027 A 
ATOM      5  C5  DEN d   1      -1.519   2.373  -3.214  0.00  0.00    -0.003 A 
ATOM      6  C6  DEN d   1      -2.604   1.537  -3.230  0.00  0.00     0.001 A 
ATOM      7  C7  DEN d   1      -2.788   0.645  -2.206  0.00  0.00     0.017 A 
ATOM      8  C8  DEN d   1      -1.830   0.585  -1.203  0.00  0.00    -0.094 A 
ATOM      9  C9  DEN d   1      -0.747   1.447  -1.199  0.00  0.00    -0.072 A 
ENDROOT
TORSDOF 0
ENDMDL
