MODEL 1
REMARK minimizedAffinity -2.89168978
REMARK minimizedRMSD -1
REMARK  0 active torsions:
REMARK  status: ('A' for Active; 'I' for Inactive)
ROOT
ATOM      1  C1  DEN d   1      -0.740   0.466  -1.228  0.00  0.00     0.130 A 
ATOM      2  C2  DEN d   1      -1.849  -0.236  -0.588  0.00  0.00    -0.031 A 
ATOM      3  C3  DEN d   1      -1.285  -1.171   0.406  0.00  0.00     0.027 A 
ATOM      4  C4  DEN d   1       1.185  -1.593   1.017  0.00  0.00     0.027 A 
ATOM      5  C5  DEN d   1       2.487  -1.242   0.735  0.00  0.00    -0.003 A 
ATOM      6  C6  DEN d   1       2.803  -0.330  -0.236  0.00  0.00     0.001 A 
ATOM      7  C7  DEN d   1       1.803   0.297  -0.931  0.00  0.00     0.017 A 
ATOM      8  C8  DEN d   1       0.488  -0.057  -0.657  0.00  0.00    -0.094 A 
ATOM      9  C9  DEN d   1       0.188  -0.973   0.337  0.00  0.00    -0.072 A 
ENDROOT
TORSDOF 0
ENDMDL
