MODEL 1
REMARK minimizedAffinity 2.32696056
REMARK minimizedRMSD -1
REMARK  0 active torsions:
REMARK  status: ('A' for Active; 'I' for Inactive)
ROOT
ATOM      1  C1  DEN d   1      -0.809   2.308  -2.593  0.00  0.00     0.130 A 
ATOM      2  C2  DEN d   1      -1.984   1.533  -2.982  0.00  0.00    -0.031 A 
ATOM      3  C3  DEN d   1      -1.912   0.224  -2.303  0.00  0.00     0.027 A 
ATOM      4  C4  DEN d   1      -0.109  -0.672  -0.691  0.00  0.00     0.027 A 
ATOM      5  C5  DEN d   1       1.085  -0.381  -0.069  0.00  0.00    -0.003 A 
ATOM      6  C6  DEN d   1       1.743   0.804  -0.269  0.00  0.00     0.001 A 
ATOM      7  C7  DEN d   1       1.188   1.760  -1.078  0.00  0.00     0.017 A 
ATOM      8  C8  DEN d   1      -0.012   1.471  -1.714  0.00  0.00    -0.094 A 
ATOM      9  C9  DEN d   1      -0.668   0.273  -1.489  0.00  0.00    -0.072 A 
ENDROOT
TORSDOF 0
ENDMDL
