MODEL 1
REMARK minimizedAffinity -6.80988598
REMARK minimizedRMSD -1
REMARK  0 active torsions:
REMARK  status: ('A' for Active; 'I' for Inactive)
ROOT
ATOM      1  C1  DEN d   1       1.717  -2.267   0.630  0.00  0.00     0.130 A 
ATOM      2  C2  DEN d   1       1.250  -3.264   1.590  0.00  0.00    -0.031 A 
ATOM      3  C3  DEN d   1      -0.094  -2.862   2.049  0.00  0.00     0.027 A 
ATOM      4  C4  DEN d   1      -1.494  -0.806   1.366  0.00  0.00     0.027 A 
ATOM      5  C5  DEN d   1      -1.513   0.332   0.589  0.00  0.00    -0.003 A 
ATOM      6  C6  DEN d   1      -0.452   0.698  -0.196  0.00  0.00     0.001 A 
ATOM      7  C7  DEN d   1       0.656  -0.106  -0.257  0.00  0.00     0.017 A 
ATOM      8  C8  DEN d   1       0.685  -1.250   0.529  0.00  0.00    -0.094 A 
ATOM      9  C9  DEN d   1      -0.402  -1.609   1.307  0.00  0.00    -0.072 A 
ENDROOT
TORSDOF 0
ENDMDL
