MODEL 1
REMARK minimizedAffinity -5.96335506
REMARK minimizedRMSD -1
REMARK  0 active torsions:
REMARK  status: ('A' for Active; 'I' for Inactive)
ROOT
ATOM      1  C1  DEN d   1      -1.557   0.339   0.866  0.00  0.00     0.130 A 
ATOM      2  C2  DEN d   1      -0.982   0.924  -0.342  0.00  0.00    -0.031 A 
ATOM      3  C3  DEN d   1       0.321   0.275  -0.589  0.00  0.00     0.027 A 
ATOM      4  C4  DEN d   1       1.497  -1.573   0.773  0.00  0.00     0.027 A 
ATOM      5  C5  DEN d   1       1.403  -2.379   1.886  0.00  0.00    -0.003 A 
ATOM      6  C6  DEN d   1       0.341  -2.312   2.749  0.00  0.00     0.001 A 
ATOM      7  C7  DEN d   1      -0.692  -1.451   2.488  0.00  0.00     0.017 A 
ATOM      8  C8  DEN d   1      -0.602  -0.631   1.371  0.00  0.00    -0.094 A 
ATOM      9  C9  DEN d   1       0.474  -0.722   0.505  0.00  0.00    -0.072 A 
ENDROOT
TORSDOF 0
ENDMDL
