MODEL 1
REMARK minimizedAffinity -0.385978073
REMARK minimizedRMSD -1
REMARK  0 active torsions:
REMARK  status: ('A' for Active; 'I' for Inactive)
ROOT
ATOM      1  C1  DEN d   1       0.025  -1.365   2.921  0.00  0.00     0.130 A 
ATOM      2  C2  DEN d   1      -1.362  -1.286   3.368  0.00  0.00    -0.031 A 
ATOM      3  C3  DEN d   1      -2.141  -0.596   2.321  0.00  0.00     0.027 A 
ATOM      4  C4  DEN d   1      -1.338   0.349   0.059  0.00  0.00     0.027 A 
ATOM      5  C5  DEN d   1      -0.243   0.530  -0.757  0.00  0.00    -0.003 A 
ATOM      6  C6  DEN d   1       1.014   0.125  -0.392  0.00  0.00     0.001 A 
ATOM      7  C7  DEN d   1       1.199  -0.522   0.801  0.00  0.00     0.017 A 
ATOM      8  C8  DEN d   1       0.102  -0.701   1.632  0.00  0.00    -0.094 A 
ATOM      9  C9  DEN d   1      -1.163  -0.295   1.240  0.00  0.00    -0.072 A 
ENDROOT
TORSDOF 0
ENDMDL
