MODEL 1
REMARK minimizedAffinity -4.83865404
REMARK minimizedRMSD -1
REMARK  0 active torsions:
REMARK  status: ('A' for Active; 'I' for Inactive)
ROOT
ATOM      1  C1  DEN d   1      -0.288   0.601   0.410  0.00  0.00     0.130 A 
ATOM      2  C2  DEN d   1      -0.937  -0.224   1.426  0.00  0.00    -0.031 A 
ATOM      3  C3  DEN d   1      -2.243  -0.661   0.893  0.00  0.00     0.027 A 
ATOM      4  C4  DEN d   1      -3.316  -0.147  -1.395  0.00  0.00     0.027 A 
ATOM      5  C5  DEN d   1      -3.150   0.522  -2.588  0.00  0.00    -0.003 A 
ATOM      6  C6  DEN d   1      -2.043   1.284  -2.850  0.00  0.00     0.001 A 
ATOM      7  C7  DEN d   1      -1.037   1.361  -1.923  0.00  0.00     0.017 A 
ATOM      8  C8  DEN d   1      -1.201   0.696  -0.715  0.00  0.00    -0.094 A 
ATOM      9  C9  DEN d   1      -2.322  -0.080  -0.474  0.00  0.00    -0.072 A 
ENDROOT
TORSDOF 0
ENDMDL
