MODEL 1
REMARK minimizedAffinity -2.8573215
REMARK minimizedRMSD -1
REMARK  0 active torsions:
REMARK  status: ('A' for Active; 'I' for Inactive)
ROOT
ATOM      1  C1  DEN d   1      -0.607   0.791   0.793  0.00  0.00     0.130 A 
ATOM      2  C2  DEN d   1      -1.291  -0.194   1.626  0.00  0.00    -0.031 A 
ATOM      3  C3  DEN d   1      -2.489  -0.656   0.897  0.00  0.00     0.027 A 
ATOM      4  C4  DEN d   1      -3.343   0.050  -1.432  0.00  0.00     0.027 A 
ATOM      5  C5  DEN d   1      -3.103   0.866  -2.516  0.00  0.00    -0.003 A 
ATOM      6  C6  DEN d   1      -2.043   1.732  -2.558  0.00  0.00     0.001 A 
ATOM      7  C7  DEN d   1      -1.156   1.769  -1.515  0.00  0.00     0.017 A 
ATOM      8  C8  DEN d   1      -1.394   0.955  -0.415  0.00  0.00    -0.094 A 
ATOM      9  C9  DEN d   1      -2.465   0.077  -0.397  0.00  0.00    -0.072 A 
ENDROOT
TORSDOF 0
ENDMDL
