MODEL 1
REMARK minimizedAffinity -4.09757137
REMARK minimizedRMSD -1
REMARK  0 active torsions:
REMARK  status: ('A' for Active; 'I' for Inactive)
ROOT
ATOM      1  C1  DEN d   1       1.660  -1.506   1.275  0.00  0.00     0.130 A 
ATOM      2  C2  DEN d   1       2.495  -1.196   0.117  0.00  0.00    -0.031 A 
ATOM      3  C3  DEN d   1       1.753  -0.248  -0.739  0.00  0.00     0.027 A 
ATOM      4  C4  DEN d   1      -0.591   0.767  -0.384  0.00  0.00     0.027 A 
ATOM      5  C5  DEN d   1      -1.689   0.794   0.447  0.00  0.00    -0.003 A 
ATOM      6  C6  DEN d   1      -1.761   0.036   1.586  0.00  0.00     0.001 A 
ATOM      7  C7  DEN d   1      -0.697  -0.747   1.948  0.00  0.00     0.017 A 
ATOM      8  C8  DEN d   1       0.411  -0.784   1.111  0.00  0.00    -0.094 A 
ATOM      9  C9  DEN d   1       0.469  -0.002  -0.029  0.00  0.00    -0.072 A 
ENDROOT
TORSDOF 0
ENDMDL
