MODEL 1
REMARK minimizedAffinity -3.52687836
REMARK minimizedRMSD -1
REMARK  1 active torsions:
REMARK  status: ('A' for Active; 'I' for Inactive)
REMARK    1  A    between atoms: C1_2  and  C2_3 
ROOT
ATOM      1  C2  UNL d   1      -0.326   0.576  -0.512  0.00  0.00    -0.081 A 
ATOM      2  C3  UNL d   1      -1.123   0.443   0.631  0.00  0.00     0.006 A 
ATOM      3  C4  UNL d   1      -0.582  -0.056   1.818  0.00  0.00     0.002 A 
ATOM      4  C5  UNL d   1       0.767  -0.423   1.884  0.00  0.00    -0.080 A 
ATOM      5  C6  UNL d   1       1.368  -0.932   3.160  0.00  0.00     0.076 C 
ATOM      6  C7  UNL d   1       1.559  -0.307   0.737  0.00  0.00     0.002 A 
ATOM      7  C8  UNL d   1       1.018   0.191  -0.450  0.00  0.00     0.006 A 
ENDROOT
BRANCH   1   8
ATOM      8  C1  UNL d   1      -0.890   1.174  -1.775  0.00  0.00     0.054 C 
ATOM      9  C   UNL d   1      -0.233   2.509  -2.097  0.00  0.00     0.018 C 
ENDBRANCH   1   8
TORSDOF 1
ENDMDL
