MODEL 1
REMARK minimizedAffinity -2.34721398
REMARK minimizedRMSD -1
REMARK  1 active torsions:
REMARK  status: ('A' for Active; 'I' for Inactive)
REMARK    1  A    between atoms: C1_2  and  C2_3 
ROOT
ATOM      1  C2  UNL d   1       0.116   0.508   0.520  0.00  0.00    -0.081 A 
ATOM      2  C3  UNL d   1      -0.163   0.094  -0.789  0.00  0.00     0.006 A 
ATOM      3  C4  UNL d   1      -0.294   1.033  -1.815  0.00  0.00     0.002 A 
ATOM      4  C5  UNL d   1      -0.140   2.398  -1.553  0.00  0.00    -0.080 A 
ATOM      5  C6  UNL d   1      -0.248   3.414  -2.651  0.00  0.00     0.076 C 
ATOM      6  C7  UNL d   1       0.121   2.813  -0.242  0.00  0.00     0.002 A 
ATOM      7  C8  UNL d   1       0.251   1.875   0.785  0.00  0.00     0.006 A 
ENDROOT
BRANCH   1   8
ATOM      8  C1  UNL d   1       0.322  -0.506   1.616  0.00  0.00     0.054 C 
ATOM      9  C   UNL d   1       1.644  -0.282   2.336  0.00  0.00     0.018 C 
ENDBRANCH   1   8
TORSDOF 1
ENDMDL
