MODEL 1
REMARK minimizedAffinity -1.43149996
REMARK minimizedRMSD -1
REMARK  1 active torsions:
REMARK  status: ('A' for Active; 'I' for Inactive)
REMARK    1  A    between atoms: C1_2  and  C2_3 
ROOT
ATOM      1  C2  UNL d   1      -0.457  -0.041   0.258  0.00  0.00    -0.081 A 
ATOM      2  C3  UNL d   1      -0.101  -0.458  -1.031  0.00  0.00     0.006 A 
ATOM      3  C4  UNL d   1       1.188  -0.929  -1.292  0.00  0.00     0.002 A 
ATOM      4  C5  UNL d   1       2.139  -0.998  -0.269  0.00  0.00    -0.080 A 
ATOM      5  C6  UNL d   1       3.517  -1.529  -0.529  0.00  0.00     0.076 C 
ATOM      6  C7  UNL d   1       1.789  -0.565   1.015  0.00  0.00     0.002 A 
ATOM      7  C8  UNL d   1       0.501  -0.093   1.276  0.00  0.00     0.006 A 
ENDROOT
BRANCH   1   8
ATOM      8  C1  UNL d   1      -1.865   0.407   0.557  0.00  0.00     0.054 C 
ATOM      9  C   UNL d   1      -2.593  -0.605   1.431  0.00  0.00     0.018 C 
ENDBRANCH   1   8
TORSDOF 1
ENDMDL
