MODEL 1
REMARK minimizedAffinity -4.28210926
REMARK minimizedRMSD -1
REMARK  1 active torsions:
REMARK  status: ('A' for Active; 'I' for Inactive)
REMARK    1  A    between atoms: C1_2  and  C2_3 
ROOT
ATOM      1  C2  UNL d   1      -0.688   1.102  -1.460  0.00  0.00    -0.081 A 
ATOM      2  C3  UNL d   1      -1.583   0.112  -1.037  0.00  0.00     0.006 A 
ATOM      3  C4  UNL d   1      -1.391  -0.543   0.181  0.00  0.00     0.002 A 
ATOM      4  C5  UNL d   1      -0.305  -0.214   1.000  0.00  0.00    -0.080 A 
ATOM      5  C6  UNL d   1      -0.104  -0.889   2.325  0.00  0.00     0.076 C 
ATOM      6  C7  UNL d   1       0.599   0.762   0.569  0.00  0.00     0.002 A 
ATOM      7  C8  UNL d   1       0.408   1.417  -0.649  0.00  0.00     0.006 A 
ENDROOT
BRANCH   1   8
ATOM      8  C1  UNL d   1      -0.928   1.856  -2.743  0.00  0.00     0.054 C 
ATOM      9  C   UNL d   1       0.150   2.903  -2.980  0.00  0.00     0.018 C 
ENDBRANCH   1   8
TORSDOF 1
ENDMDL
