MODEL 1
REMARK minimizedAffinity -3.70678592
REMARK minimizedRMSD -1
REMARK  1 active torsions:
REMARK  status: ('A' for Active; 'I' for Inactive)
REMARK    1  A    between atoms: C1_2  and  C2_3 
ROOT
ATOM      1  C2  UNL d   1       0.622  -0.217   0.919  0.00  0.00    -0.081 A 
ATOM      2  C3  UNL d   1       1.602  -0.159  -0.079  0.00  0.00     0.006 A 
ATOM      3  C4  UNL d   1       1.447   0.692  -1.176  0.00  0.00     0.002 A 
ATOM      4  C5  UNL d   1       0.314   1.504  -1.289  0.00  0.00    -0.080 A 
ATOM      5  C6  UNL d   1       0.149   2.445  -2.446  0.00  0.00     0.076 C 
ATOM      6  C7  UNL d   1      -0.674   1.434  -0.301  0.00  0.00     0.002 A 
ATOM      7  C8  UNL d   1      -0.520   0.583   0.795  0.00  0.00     0.006 A 
ENDROOT
BRANCH   1   8
ATOM      8  C1  UNL d   1       0.816  -1.086   2.135  0.00  0.00     0.054 C 
ATOM      9  C   UNL d   1       1.991  -0.606   2.975  0.00  0.00     0.018 C 
ENDBRANCH   1   8
TORSDOF 1
ENDMDL
