MODEL 1
REMARK minimizedAffinity -3.68701386
REMARK minimizedRMSD -1
REMARK  1 active torsions:
REMARK  status: ('A' for Active; 'I' for Inactive)
REMARK    1  A    between atoms: C1_2  and  C2_3 
ROOT
ATOM      1  C2  UNL d   1      -0.422   1.796  -1.230  0.00  0.00    -0.081 A 
ATOM      2  C3  UNL d   1      -0.309   0.418  -1.457  0.00  0.00     0.006 A 
ATOM      3  C4  UNL d   1      -0.180  -0.468  -0.385  0.00  0.00     0.002 A 
ATOM      4  C5  UNL d   1      -0.169   0.007   0.931  0.00  0.00    -0.080 A 
ATOM      5  C6  UNL d   1      -0.061  -0.936   2.092  0.00  0.00     0.076 C 
ATOM      6  C7  UNL d   1      -0.264   1.385   1.157  0.00  0.00     0.002 A 
ATOM      7  C8  UNL d   1      -0.392   2.271   0.085  0.00  0.00     0.006 A 
ENDROOT
BRANCH   1   8
ATOM      8  C1  UNL d   1      -0.626   2.748  -2.381  0.00  0.00     0.054 C 
ATOM      9  C   UNL d   1      -2.100   3.075  -2.573  0.00  0.00     0.018 C 
ENDBRANCH   1   8
TORSDOF 1
ENDMDL
