MODEL 1
REMARK minimizedAffinity -4.38748789
REMARK minimizedRMSD -1
REMARK  1 active torsions:
REMARK  status: ('A' for Active; 'I' for Inactive)
REMARK    1  A    between atoms: C1_2  and  C2_3 
ROOT
ATOM      1  C2  UNL d   1      -0.353   0.252  -0.485  0.00  0.00    -0.081 A 
ATOM      2  C3  UNL d   1      -1.087   0.161   0.704  0.00  0.00     0.006 A 
ATOM      3  C4  UNL d   1      -0.480  -0.292   1.878  0.00  0.00     0.002 A 
ATOM      4  C5  UNL d   1       0.871  -0.654   1.884  0.00  0.00    -0.080 A 
ATOM      5  C6  UNL d   1       1.543  -1.113   3.144  0.00  0.00     0.076 C 
ATOM      6  C7  UNL d   1       1.600  -0.580   0.692  0.00  0.00     0.002 A 
ATOM      7  C8  UNL d   1       0.993  -0.128  -0.482  0.00  0.00     0.006 A 
ENDROOT
BRANCH   1   8
ATOM      8  C1  UNL d   1      -0.988   0.801  -1.737  0.00  0.00     0.054 C 
ATOM      9  C   UNL d   1      -0.827   2.312  -1.822  0.00  0.00     0.018 C 
ENDBRANCH   1   8
TORSDOF 1
ENDMDL
