MODEL 1
REMARK minimizedAffinity 9.9574604
REMARK minimizedRMSD -1
REMARK  3 active torsions:
REMARK  status: ('A' for Active; 'I' for Inactive)
REMARK    1  A    between atoms: C3'_2  and  C2'_3 
REMARK    2  A    between atoms: C2'_3  and  C1'_4 
REMARK    3  A    between atoms: C1'_4  and  C1_5 
ROOT
ATOM      1  C1  N4B d   1      -1.917  -3.465   0.297  0.00  0.00    -0.075 A 
ATOM      2  C2  N4B d   1      -0.972  -2.881  -0.575  0.00  0.00     0.002 A 
ATOM      3  C3  N4B d   1       0.216  -3.521  -0.830  0.00  0.00     0.002 A 
ATOM      4  C4  N4B d   1       0.488  -4.732  -0.211  0.00  0.00    -0.004 A 
ATOM      5  C5  N4B d   1      -0.440  -5.302   0.610  0.00  0.00     0.002 A 
ATOM      6  C6  N4B d   1      -1.640  -4.672   0.871  0.00  0.00     0.002 A 
ENDROOT
BRANCH   1   7
ATOM      7  C1' N4B d   1      -3.192  -2.762   0.672  0.00  0.00     0.057 C 
BRANCH   7   8
ATOM      8  C2' N4B d   1      -3.751  -2.049  -0.555  0.00  0.00     0.009 C 
BRANCH   8   9
ATOM      9  C3' N4B d   1      -5.259  -2.195  -0.660  0.00  0.00     0.004 C 
ATOM     10  C4' N4B d   1      -6.000  -1.177   0.155  0.00  0.00     0.003 C 
ENDBRANCH   8   9
ENDBRANCH   7   8
ENDBRANCH   1   7
TORSDOF 3
ENDMDL
