MODEL 1
REMARK minimizedAffinity 2.58133936
REMARK minimizedRMSD -1
REMARK  3 active torsions:
REMARK  status: ('A' for Active; 'I' for Inactive)
REMARK    1  A    between atoms: C3'_2  and  C2'_3 
REMARK    2  A    between atoms: C2'_3  and  C1'_4 
REMARK    3  A    between atoms: C1'_4  and  C1_5 
ROOT
ATOM      1  C1  N4B d   1      -3.365   0.389  -1.477  0.00  0.00    -0.075 A 
ATOM      2  C2  N4B d   1      -1.973   0.606  -1.570  0.00  0.00     0.002 A 
ATOM      3  C3  N4B d   1      -1.233  -0.078  -2.503  0.00  0.00     0.002 A 
ATOM      4  C4  N4B d   1      -1.857  -0.993  -3.338  0.00  0.00    -0.004 A 
ATOM      5  C5  N4B d   1      -3.206  -1.178  -3.259  0.00  0.00     0.002 A 
ATOM      6  C6  N4B d   1      -3.964  -0.494  -2.329  0.00  0.00     0.002 A 
ENDROOT
BRANCH   1   7
ATOM      7  C1' N4B d   1      -4.203   1.050  -0.416  0.00  0.00     0.057 C 
BRANCH   7   8
ATOM      8  C2' N4B d   1      -5.448   0.205  -0.163  0.00  0.00     0.009 C 
BRANCH   8   9
ATOM      9  C3' N4B d   1      -5.931   0.322   1.272  0.00  0.00     0.004 C 
ATOM     10  C4' N4B d   1      -5.997  -1.003   1.973  0.00  0.00     0.003 C 
ENDBRANCH   8   9
ENDBRANCH   7   8
ENDBRANCH   1   7
TORSDOF 3
ENDMDL
