MODEL 1
REMARK minimizedAffinity 0.612773895
REMARK minimizedRMSD -1
REMARK  3 active torsions:
REMARK  status: ('A' for Active; 'I' for Inactive)
REMARK    1  A    between atoms: C3'_2  and  C2'_3 
REMARK    2  A    between atoms: C2'_3  and  C1'_4 
REMARK    3  A    between atoms: C1'_4  and  C1_5 
ROOT
ATOM      1  C1  N4B d   1      -5.991  -0.216   3.738  0.00  0.00    -0.075 A 
ATOM      2  C2  N4B d   1      -5.968   1.185   3.561  0.00  0.00     0.002 A 
ATOM      3  C3  N4B d   1      -5.924   1.716   2.295  0.00  0.00     0.002 A 
ATOM      4  C4  N4B d   1      -5.884   0.871   1.197  0.00  0.00    -0.004 A 
ATOM      5  C5  N4B d   1      -5.932  -0.481   1.376  0.00  0.00     0.002 A 
ATOM      6  C6  N4B d   1      -5.980  -1.029   2.642  0.00  0.00     0.002 A 
ENDROOT
BRANCH   1   7
ATOM      7  C1' N4B d   1      -5.953  -0.845   5.104  0.00  0.00     0.057 C 
BRANCH   7   8
ATOM      8  C2' N4B d   1      -4.614  -0.528   5.763  0.00  0.00     0.009 C 
BRANCH   8   9
ATOM      9  C3' N4B d   1      -3.451  -1.169   5.025  0.00  0.00     0.004 C 
ATOM     10  C4' N4B d   1      -2.189  -1.190   5.835  0.00  0.00     0.003 C 
ENDBRANCH   8   9
ENDBRANCH   7   8
ENDBRANCH   1   7
TORSDOF 3
ENDMDL
