MODEL 1
REMARK minimizedAffinity 2.71127605
REMARK minimizedRMSD -1
REMARK  3 active torsions:
REMARK  status: ('A' for Active; 'I' for Inactive)
REMARK    1  A    between atoms: C3'_2  and  C2'_3 
REMARK    2  A    between atoms: C2'_3  and  C1'_4 
REMARK    3  A    between atoms: C1'_4  and  C1_5 
ROOT
ATOM      1  C1  N4B d   1      -2.978  -1.420  -0.772  0.00  0.00    -0.075 A 
ATOM      2  C2  N4B d   1      -4.286  -1.947  -0.859  0.00  0.00     0.002 A 
ATOM      3  C3  N4B d   1      -5.224  -1.330  -1.650  0.00  0.00     0.002 A 
ATOM      4  C4  N4B d   1      -4.884  -0.179  -2.345  0.00  0.00    -0.004 A 
ATOM      5  C5  N4B d   1      -3.612   0.309  -2.277  0.00  0.00     0.002 A 
ATOM      6  C6  N4B d   1      -2.658  -0.304  -1.489  0.00  0.00     0.002 A 
ENDROOT
BRANCH   1   7
ATOM      7  C1' N4B d   1      -1.943  -2.010   0.146  0.00  0.00     0.057 C 
BRANCH   7   8
ATOM      8  C2' N4B d   1      -1.552  -3.394  -0.364  0.00  0.00     0.009 C 
BRANCH   8   9
ATOM      9  C3' N4B d   1      -0.668  -4.135   0.624  0.00  0.00     0.004 C 
ATOM     10  C4' N4B d   1       0.539  -4.747  -0.022  0.00  0.00     0.003 C 
ENDBRANCH   8   9
ENDBRANCH   7   8
ENDBRANCH   1   7
TORSDOF 3
ENDMDL
