MODEL 1
REMARK minimizedAffinity -1.69193172
REMARK minimizedRMSD -1
REMARK  1 active torsions:
REMARK  status: ('A' for Active; 'I' for Inactive)
REMARK    1  A    between atoms: C1_2  and  C2_3 
ROOT
ATOM      1  C2  UNL d   1      -1.094   0.453  -0.229  0.00  0.00    -0.081 A 
ATOM      2  C3  UNL d   1      -0.922  -0.507  -1.234  0.00  0.00     0.006 A 
ATOM      3  C4  UNL d   1       0.261  -1.244  -1.315  0.00  0.00     0.002 A 
ATOM      4  C5  UNL d   1       1.289  -1.040  -0.388  0.00  0.00    -0.080 A 
ATOM      5  C6  UNL d   1       2.553  -1.846  -0.445  0.00  0.00     0.076 C 
ATOM      6  C7  UNL d   1       1.125  -0.069   0.606  0.00  0.00     0.002 A 
ATOM      7  C8  UNL d   1      -0.058   0.669   0.686  0.00  0.00     0.006 A 
ENDROOT
BRANCH   1   8
ATOM      8  C1  UNL d   1      -2.395   1.204  -0.101  0.00  0.00     0.054 C 
ATOM      9  C   UNL d   1      -3.154   0.785   1.150  0.00  0.00     0.018 C 
ENDBRANCH   1   8
TORSDOF 1
ENDMDL
