MODEL 1
REMARK minimizedAffinity -4.48444128
REMARK minimizedRMSD -1
REMARK  1 active torsions:
REMARK  status: ('A' for Active; 'I' for Inactive)
REMARK    1  A    between atoms: C1_2  and  C2_3 
ROOT
ATOM      1  C2  UNL d   1      -1.267   0.233  -0.350  0.00  0.00    -0.081 A 
ATOM      2  C3  UNL d   1      -0.912  -0.876  -1.127  0.00  0.00     0.006 A 
ATOM      3  C4  UNL d   1       0.367  -1.428  -1.031  0.00  0.00     0.002 A 
ATOM      4  C5  UNL d   1       1.310  -0.886  -0.150  0.00  0.00    -0.080 A 
ATOM      5  C6  UNL d   1       2.677  -1.488  -0.015  0.00  0.00     0.076 C 
ATOM      6  C7  UNL d   1       0.961   0.233   0.614  0.00  0.00     0.002 A 
ATOM      7  C8  UNL d   1      -0.318   0.786   0.517  0.00  0.00     0.006 A 
ENDROOT
BRANCH   1   8
ATOM      8  C1  UNL d   1      -2.667   0.791  -0.404  0.00  0.00     0.054 C 
ATOM      9  C   UNL d   1      -3.380   0.627   0.930  0.00  0.00     0.018 C 
ENDBRANCH   1   8
TORSDOF 1
ENDMDL
