MODEL 1
REMARK minimizedAffinity -1.88332641
REMARK minimizedRMSD -1
REMARK  1 active torsions:
REMARK  status: ('A' for Active; 'I' for Inactive)
REMARK    1  A    between atoms: C1_2  and  C2_3 
ROOT
ATOM      1  C2  UNL d   1      -1.672   0.598   0.048  0.00  0.00    -0.081 A 
ATOM      2  C3  UNL d   1      -1.339  -0.762   0.038  0.00  0.00     0.006 A 
ATOM      3  C4  UNL d   1      -0.045  -1.177   0.360  0.00  0.00     0.002 A 
ATOM      4  C5  UNL d   1       0.936  -0.241   0.704  0.00  0.00    -0.080 A 
ATOM      5  C6  UNL d   1       2.321  -0.675   1.080  0.00  0.00     0.076 C 
ATOM      6  C7  UNL d   1       0.609   1.120   0.697  0.00  0.00     0.002 A 
ATOM      7  C8  UNL d   1      -0.685   1.535   0.375  0.00  0.00     0.006 A 
ENDROOT
BRANCH   1   8
ATOM      8  C1  UNL d   1      -3.084   1.044  -0.235  0.00  0.00     0.054 C 
ATOM      9  C   UNL d   1      -4.099   0.088   0.375  0.00  0.00     0.018 C 
ENDBRANCH   1   8
TORSDOF 1
ENDMDL
