MODEL 1
REMARK minimizedAffinity -4.13090944
REMARK minimizedRMSD -1
REMARK  1 active torsions:
REMARK  status: ('A' for Active; 'I' for Inactive)
REMARK    1  A    between atoms: C1_2  and  C2_3 
ROOT
ATOM      1  C2  UNL d   1      -1.171   0.414  -0.089  0.00  0.00    -0.081 A 
ATOM      2  C3  UNL d   1      -1.065  -0.935   0.273  0.00  0.00     0.006 A 
ATOM      3  C4  UNL d   1       0.171  -1.585   0.225  0.00  0.00     0.002 A 
ATOM      4  C5  UNL d   1       1.321  -0.896  -0.176  0.00  0.00    -0.080 A 
ATOM      5  C6  UNL d   1       2.658  -1.574  -0.202  0.00  0.00     0.076 C 
ATOM      6  C7  UNL d   1       1.211   0.446  -0.553  0.00  0.00     0.002 A 
ATOM      7  C8  UNL d   1      -0.024   1.097  -0.507  0.00  0.00     0.006 A 
ENDROOT
BRANCH   1   8
ATOM      8  C1  UNL d   1      -2.490   1.135   0.023  0.00  0.00     0.054 C 
ATOM      9  C   UNL d   1      -3.018   1.106   1.450  0.00  0.00     0.018 C 
ENDBRANCH   1   8
TORSDOF 1
ENDMDL
