MODEL 1
REMARK minimizedAffinity -5.26884031
REMARK minimizedRMSD -1
REMARK  1 active torsions:
REMARK  status: ('A' for Active; 'I' for Inactive)
REMARK    1  A    between atoms: C1_2  and  C2_3 
ROOT
ATOM      1  C2  UNL d   1      -1.378   0.485  -0.003  0.00  0.00    -0.081 A 
ATOM      2  C3  UNL d   1      -1.324  -0.768  -0.626  0.00  0.00     0.006 A 
ATOM      3  C4  UNL d   1      -0.152  -1.528  -0.588  0.00  0.00     0.002 A 
ATOM      4  C5  UNL d   1       0.982  -1.051   0.080  0.00  0.00    -0.080 A 
ATOM      5  C6  UNL d   1       2.236  -1.870   0.154  0.00  0.00     0.076 C 
ATOM      6  C7  UNL d   1       0.933   0.208   0.687  0.00  0.00     0.002 A 
ATOM      7  C8  UNL d   1      -0.238   0.968   0.649  0.00  0.00     0.006 A 
ENDROOT
BRANCH   1   8
ATOM      8  C1  UNL d   1      -2.659   1.278   0.014  0.00  0.00     0.054 C 
ATOM      9  C   UNL d   1      -3.129   1.541   1.437  0.00  0.00     0.018 C 
ENDBRANCH   1   8
TORSDOF 1
ENDMDL
