MODEL 1
REMARK minimizedAffinity -3.65646362
REMARK minimizedRMSD -1
REMARK  1 active torsions:
REMARK  status: ('A' for Active; 'I' for Inactive)
REMARK    1  A    between atoms: C1_2  and  C2_3 
ROOT
ATOM      1  C2  UNL d   1      -1.079   0.362  -0.025  0.00  0.00    -0.081 A 
ATOM      2  C3  UNL d   1      -0.877  -0.715   0.846  0.00  0.00     0.006 A 
ATOM      3  C4  UNL d   1       0.395  -1.272   1.002  0.00  0.00     0.002 A 
ATOM      4  C5  UNL d   1       1.487  -0.756   0.295  0.00  0.00    -0.080 A 
ATOM      5  C6  UNL d   1       2.863  -1.324   0.475  0.00  0.00     0.076 C 
ATOM      6  C7  UNL d   1       1.282   0.309  -0.589  0.00  0.00     0.002 A 
ATOM      7  C8  UNL d   1       0.010   0.865  -0.745  0.00  0.00     0.006 A 
ENDROOT
BRANCH   1   8
ATOM      8  C1  UNL d   1      -2.436   1.006  -0.146  0.00  0.00     0.054 C 
ATOM      9  C   UNL d   1      -3.091   1.177   1.217  0.00  0.00     0.018 C 
ENDBRANCH   1   8
TORSDOF 1
ENDMDL
