MODEL 1
REMARK minimizedAffinity -3.29597235
REMARK minimizedRMSD -1
REMARK  0 active torsions:
REMARK  status: ('A' for Active; 'I' for Inactive)
ROOT
ATOM      1  C1  BNZ d   1      -2.627  -4.028  -5.749  0.00  0.00     0.000 A 
ATOM      2  C2  BNZ d   1      -3.566  -3.177  -5.231  0.00  0.00     0.000 A 
ATOM      3  C3  BNZ d   1      -4.518  -3.631  -4.361  0.00  0.00     0.000 A 
ATOM      4  C4  BNZ d   1      -4.554  -4.940  -4.042  0.00  0.00     0.000 A 
ATOM      5  C5  BNZ d   1      -3.620  -5.813  -4.563  0.00  0.00     0.000 A 
ATOM      6  C6  BNZ d   1      -2.639  -5.346  -5.408  0.00  0.00     0.000 A 
ENDROOT
TORSDOF 0
ENDMDL
