MODEL 1
REMARK minimizedAffinity -2.92600989
REMARK minimizedRMSD -1
REMARK  0 active torsions:
REMARK  status: ('A' for Active; 'I' for Inactive)
ROOT
ATOM      1  C1  BNZ d   1      -2.822  -4.895  -4.893  0.00  0.00     0.000 A 
ATOM      2  C2  BNZ d   1      -3.213  -4.187  -3.788  0.00  0.00     0.000 A 
ATOM      3  C3  BNZ d   1      -4.402  -3.514  -3.773  0.00  0.00     0.000 A 
ATOM      4  C4  BNZ d   1      -5.180  -3.516  -4.875  0.00  0.00     0.000 A 
ATOM      5  C5  BNZ d   1      -4.795  -4.217  -6.000  0.00  0.00     0.000 A 
ATOM      6  C6  BNZ d   1      -3.616  -4.926  -5.998  0.00  0.00     0.000 A 
ENDROOT
TORSDOF 0
ENDMDL
