MODEL 1
REMARK minimizedAffinity -3.23128176
REMARK minimizedRMSD -1
REMARK  0 active torsions:
REMARK  status: ('A' for Active; 'I' for Inactive)
ROOT
ATOM      1  C1  BNZ d   1      -3.697  -2.562  -5.309  0.00  0.00     0.000 A 
ATOM      2  C2  BNZ d   1      -2.854  -3.571  -5.691  0.00  0.00     0.000 A 
ATOM      3  C3  BNZ d   1      -3.129  -4.871  -5.372  0.00  0.00     0.000 A 
ATOM      4  C4  BNZ d   1      -4.224  -5.157  -4.638  0.00  0.00     0.000 A 
ATOM      5  C5  BNZ d   1      -5.079  -4.150  -4.238  0.00  0.00     0.000 A 
ATOM      6  C6  BNZ d   1      -4.820  -2.846  -4.594  0.00  0.00     0.000 A 
ENDROOT
TORSDOF 0
ENDMDL
