MODEL 1
REMARK minimizedAffinity -3.08563161
REMARK minimizedRMSD -1
REMARK  0 active torsions:
REMARK  status: ('A' for Active; 'I' for Inactive)
ROOT
ATOM      1  C1  BNZ d   1      -3.000  -3.728  -5.997  0.00  0.00     0.000 A 
ATOM      2  C2  BNZ d   1      -4.134  -2.960  -5.996  0.00  0.00     0.000 A 
ATOM      3  C3  BNZ d   1      -5.165  -3.235  -5.143  0.00  0.00     0.000 A 
ATOM      4  C4  BNZ d   1      -5.079  -4.301  -4.320  0.00  0.00     0.000 A 
ATOM      5  C5  BNZ d   1      -3.947  -5.090  -4.316  0.00  0.00     0.000 A 
ATOM      6  C6  BNZ d   1      -2.894  -4.787  -5.149  0.00  0.00     0.000 A 
ENDROOT
TORSDOF 0
ENDMDL
