MODEL 1
REMARK minimizedAffinity -2.79654503
REMARK minimizedRMSD -1
REMARK  0 active torsions:
REMARK  status: ('A' for Active; 'I' for Inactive)
ROOT
ATOM      1  C1  BNZ d   1      -2.619  -4.917  -5.993  0.00  0.00     0.000 A 
ATOM      2  C2  BNZ d   1      -3.052  -5.997  -5.272  0.00  0.00     0.000 A 
ATOM      3  C3  BNZ d   1      -4.116  -5.890  -4.420  0.00  0.00     0.000 A 
ATOM      4  C4  BNZ d   1      -4.720  -4.695  -4.262  0.00  0.00     0.000 A 
ATOM      5  C5  BNZ d   1      -4.290  -3.593  -4.975  0.00  0.00     0.000 A 
ATOM      6  C6  BNZ d   1      -3.243  -3.714  -5.860  0.00  0.00     0.000 A 
ENDROOT
TORSDOF 0
ENDMDL
