MODEL 1
REMARK minimizedAffinity -3.14292908
REMARK minimizedRMSD -1
REMARK  0 active torsions:
REMARK  status: ('A' for Active; 'I' for Inactive)
ROOT
ATOM      1  C1  BNZ d   1      -5.602  -3.714  -3.910  0.00  0.00     0.000 A 
ATOM      2  C2  BNZ d   1      -5.999  -2.673  -4.706  0.00  0.00     0.000 A 
ATOM      3  C3  BNZ d   1      -5.225  -2.256  -5.752  0.00  0.00     0.000 A 
ATOM      4  C4  BNZ d   1      -4.036  -2.853  -5.977  0.00  0.00     0.000 A 
ATOM      5  C5  BNZ d   1      -3.617  -3.898  -5.178  0.00  0.00     0.000 A 
ATOM      6  C6  BNZ d   1      -4.417  -4.340  -4.149  0.00  0.00     0.000 A 
ENDROOT
TORSDOF 0
ENDMDL
