MODEL 1
REMARK minimizedAffinity -2.75911236
REMARK minimizedRMSD -1
REMARK  0 active torsions:
REMARK  status: ('A' for Active; 'I' for Inactive)
ROOT
ATOM      1  C1  BNZ d   1      -4.315  -5.505  -4.157  0.00  0.00     0.000 A 
ATOM      2  C2  BNZ d   1      -3.303  -5.395  -5.073  0.00  0.00     0.000 A 
ATOM      3  C3  BNZ d   1      -3.040  -4.202  -5.686  0.00  0.00     0.000 A 
ATOM      4  C4  BNZ d   1      -3.814  -3.132  -5.414  0.00  0.00     0.000 A 
ATOM      5  C5  BNZ d   1      -4.845  -3.229  -4.500  0.00  0.00     0.000 A 
ATOM      6  C6  BNZ d   1      -5.081  -4.421  -3.856  0.00  0.00     0.000 A 
ENDROOT
TORSDOF 0
ENDMDL
