MODEL 1
REMARK minimizedAffinity -3.02329707
REMARK minimizedRMSD -1
REMARK  0 active torsions:
REMARK  status: ('A' for Active; 'I' for Inactive)
ROOT
ATOM      1  C1  BNZ d   1      -1.766  -5.002  -5.623  0.00  0.00     0.000 A 
ATOM      2  C2  BNZ d   1      -2.208  -3.932  -4.892  0.00  0.00     0.000 A 
ATOM      3  C3  BNZ d   1      -3.512  -3.853  -4.486  0.00  0.00     0.000 A 
ATOM      4  C4  BNZ d   1      -4.378  -4.821  -4.846  0.00  0.00     0.000 A 
ATOM      5  C5  BNZ d   1      -3.949  -5.902  -5.592  0.00  0.00     0.000 A 
ATOM      6  C6  BNZ d   1      -2.628  -5.998  -5.964  0.00  0.00     0.000 A 
ENDROOT
TORSDOF 0
ENDMDL
