MODEL 1
REMARK minimizedAffinity -3.09613943
REMARK minimizedRMSD -1
REMARK  0 active torsions:
REMARK  status: ('A' for Active; 'I' for Inactive)
ROOT
ATOM      1  C1  BNZ d   1      -2.537  -4.242  -5.530  0.00  0.00     0.000 A 
ATOM      2  C2  BNZ d   1      -3.225  -3.070  -5.695  0.00  0.00     0.000 A 
ATOM      3  C3  BNZ d   1      -4.455  -2.893  -5.124  0.00  0.00     0.000 A 
ATOM      4  C4  BNZ d   1      -5.011  -3.902  -4.423  0.00  0.00     0.000 A 
ATOM      5  C5  BNZ d   1      -4.333  -5.093  -4.255  0.00  0.00     0.000 A 
ATOM      6  C6  BNZ d   1      -3.079  -5.253  -4.798  0.00  0.00     0.000 A 
ENDROOT
TORSDOF 0
ENDMDL
