MODEL 1
REMARK minimizedAffinity 0.0432768501
REMARK minimizedRMSD -1
REMARK  0 active torsions:
REMARK  status: ('A' for Active; 'I' for Inactive)
ROOT
ATOM      1  C1  BNZ d   1       0.897  -2.131   1.199  0.00  0.00     0.000 A 
ATOM      2  C2  BNZ d   1       0.148  -2.353   2.323  0.00  0.00     0.000 A 
ATOM      3  C3  BNZ d   1      -0.906  -1.540   2.635  0.00  0.00     0.000 A 
ATOM      4  C4  BNZ d   1      -1.184  -0.484   1.844  0.00  0.00     0.000 A 
ATOM      5  C5  BNZ d   1      -0.433  -0.241   0.712  0.00  0.00     0.000 A 
ATOM      6  C6  BNZ d   1       0.603  -1.084   0.380  0.00  0.00     0.000 A 
ENDROOT
TORSDOF 0
ENDMDL
