MODEL 1
REMARK minimizedAffinity -3.06130123
REMARK minimizedRMSD -1
REMARK  0 active torsions:
REMARK  status: ('A' for Active; 'I' for Inactive)
ROOT
ATOM      1  C1  BNZ d   1      -3.006  -4.837  -5.504  0.00  0.00     0.000 A 
ATOM      2  C2  BNZ d   1      -2.988  -5.804  -4.535  0.00  0.00     0.000 A 
ATOM      3  C3  BNZ d   1      -4.069  -6.000  -3.721  0.00  0.00     0.000 A 
ATOM      4  C4  BNZ d   1      -5.149  -5.203  -3.851  0.00  0.00     0.000 A 
ATOM      5  C5  BNZ d   1      -5.179  -4.218  -4.817  0.00  0.00     0.000 A 
ATOM      6  C6  BNZ d   1      -4.104  -4.049  -5.660  0.00  0.00     0.000 A 
ENDROOT
TORSDOF 0
ENDMDL
