MODEL 1
REMARK minimizedAffinity -3.6340313
REMARK minimizedRMSD -1
REMARK  0 active torsions:
REMARK  status: ('A' for Active; 'I' for Inactive)
ROOT
ATOM      1  C1  BNZ d   1      -3.025  -5.253  -3.229  0.00  0.00     0.000 A 
ATOM      2  C2  BNZ d   1      -4.007  -4.604  -3.927  0.00  0.00     0.000 A 
ATOM      3  C3  BNZ d   1      -3.837  -4.290  -5.247  0.00  0.00     0.000 A 
ATOM      4  C4  BNZ d   1      -2.671  -4.589  -5.854  0.00  0.00     0.000 A 
ATOM      5  C5  BNZ d   1      -1.667  -5.235  -5.161  0.00  0.00     0.000 A 
ATOM      6  C6  BNZ d   1      -1.857  -5.584  -3.844  0.00  0.00     0.000 A 
ENDROOT
TORSDOF 0
ENDMDL
