MODEL 1
REMARK minimizedAffinity -3.09674454
REMARK minimizedRMSD -1
REMARK  0 active torsions:
REMARK  status: ('A' for Active; 'I' for Inactive)
ROOT
ATOM      1  C1  BNZ d   1      -4.559  -5.494  -6.000  0.00  0.00     0.000 A 
ATOM      2  C2  BNZ d   1      -5.746  -4.812  -5.991  0.00  0.00     0.000 A 
ATOM      3  C3  BNZ d   1      -5.984  -3.833  -5.066  0.00  0.00     0.000 A 
ATOM      4  C4  BNZ d   1      -5.052  -3.566  -4.129  0.00  0.00     0.000 A 
ATOM      5  C5  BNZ d   1      -3.854  -4.252  -4.119  0.00  0.00     0.000 A 
ATOM      6  C6  BNZ d   1      -3.602  -5.209  -5.075  0.00  0.00     0.000 A 
ENDROOT
TORSDOF 0
ENDMDL
