MODEL 1
REMARK minimizedAffinity -2.54623222
REMARK minimizedRMSD -1
REMARK  0 active torsions:
REMARK  status: ('A' for Active; 'I' for Inactive)
ROOT
ATOM      1  C1  BNZ d   1      -5.472  -4.622  -4.882  0.00  0.00     0.000 A 
ATOM      2  C2  BNZ d   1      -4.913  -5.182  -6.000  0.00  0.00     0.000 A 
ATOM      3  C3  BNZ d   1      -3.609  -5.591  -6.000  0.00  0.00     0.000 A 
ATOM      4  C4  BNZ d   1      -2.855  -5.405  -4.897  0.00  0.00     0.000 A 
ATOM      5  C5  BNZ d   1      -3.402  -4.833  -3.766  0.00  0.00     0.000 A 
ATOM      6  C6  BNZ d   1      -4.725  -4.457  -3.756  0.00  0.00     0.000 A 
ENDROOT
TORSDOF 0
ENDMDL
