MODEL 1
REMARK minimizedAffinity -3.58692598
REMARK minimizedRMSD -1
REMARK  0 active torsions:
REMARK  status: ('A' for Active; 'I' for Inactive)
ROOT
ATOM      1  C1  BNZ d   1      -1.598  -5.498  -3.790  0.00  0.00     0.000 A 
ATOM      2  C2  BNZ d   1      -1.282  -5.269  -5.103  0.00  0.00     0.000 A 
ATOM      3  C3  BNZ d   1      -2.241  -4.877  -5.995  0.00  0.00     0.000 A 
ATOM      4  C4  BNZ d   1      -3.519  -4.754  -5.584  0.00  0.00     0.000 A 
ATOM      5  C5  BNZ d   1      -3.855  -4.991  -4.266  0.00  0.00     0.000 A 
ATOM      6  C6  BNZ d   1      -2.881  -5.347  -3.362  0.00  0.00     0.000 A 
ENDROOT
TORSDOF 0
ENDMDL
