MODEL 1
REMARK minimizedAffinity -2.68983388
REMARK minimizedRMSD -1
REMARK  0 active torsions:
REMARK  status: ('A' for Active; 'I' for Inactive)
ROOT
ATOM      1  C1  BNZ d   1      -4.255  -5.304  -6.000  0.00  0.00     0.000 A 
ATOM      2  C2  BNZ d   1      -5.553  -4.866  -5.999  0.00  0.00     0.000 A 
ATOM      3  C3  BNZ d   1      -5.999  -3.999  -5.041  0.00  0.00     0.000 A 
ATOM      4  C4  BNZ d   1      -5.159  -3.602  -4.064  0.00  0.00     0.000 A 
ATOM      5  C5  BNZ d   1      -3.850  -4.041  -4.046  0.00  0.00     0.000 A 
ATOM      6  C6  BNZ d   1      -3.394  -4.884  -5.034  0.00  0.00     0.000 A 
ENDROOT
TORSDOF 0
ENDMDL
