MODEL 1
REMARK minimizedAffinity -3.78571773
REMARK minimizedRMSD -1
REMARK  0 active torsions:
REMARK  status: ('A' for Active; 'I' for Inactive)
ROOT
ATOM      1  C1  BNZ d   1      -6.000  -4.385  -4.122  0.00  0.00     0.000 A 
ATOM      2  C2  BNZ d   1      -4.861  -5.010  -4.556  0.00  0.00     0.000 A 
ATOM      3  C3  BNZ d   1      -3.711  -4.302  -4.766  0.00  0.00     0.000 A 
ATOM      4  C4  BNZ d   1      -3.711  -2.966  -4.581  0.00  0.00     0.000 A 
ATOM      5  C5  BNZ d   1      -4.854  -2.320  -4.153  0.00  0.00     0.000 A 
ATOM      6  C6  BNZ d   1      -5.999  -3.041  -3.905  0.00  0.00     0.000 A 
ENDROOT
TORSDOF 0
ENDMDL
