MODEL 1
REMARK minimizedAffinity -5.24242401
REMARK minimizedRMSD -1
REMARK  0 active torsions:
REMARK  status: ('A' for Active; 'I' for Inactive)
ROOT
ATOM      1  C1  BNZ d   1      -0.900  -3.189  -0.583  0.00  0.00     0.000 A 
ATOM      2  C2  BNZ d   1      -0.425  -2.673  -1.760  0.00  0.00     0.000 A 
ATOM      3  C3  BNZ d   1       0.057  -1.396  -1.820  0.00  0.00     0.000 A 
ATOM      4  C4  BNZ d   1       0.028  -0.623  -0.715  0.00  0.00     0.000 A 
ATOM      5  C5  BNZ d   1      -0.456  -1.126   0.476  0.00  0.00     0.000 A 
ATOM      6  C6  BNZ d   1      -0.905  -2.425   0.543  0.00  0.00     0.000 A 
ENDROOT
TORSDOF 0
ENDMDL
