MODEL 1
REMARK minimizedAffinity -3.20714521
REMARK minimizedRMSD -1
REMARK  0 active torsions:
REMARK  status: ('A' for Active; 'I' for Inactive)
ROOT
ATOM      1  C1  BNZ d   1      -0.344  -0.963  -1.111  0.00  0.00     0.000 A 
ATOM      2  C2  BNZ d   1      -0.188  -1.558  -2.335  0.00  0.00     0.000 A 
ATOM      3  C3  BNZ d   1      -0.673  -2.814  -2.569  0.00  0.00     0.000 A 
ATOM      4  C4  BNZ d   1      -1.277  -3.489  -1.569  0.00  0.00     0.000 A 
ATOM      5  C5  BNZ d   1      -1.434  -2.906  -0.327  0.00  0.00     0.000 A 
ATOM      6  C6  BNZ d   1      -0.979  -1.627  -0.107  0.00  0.00     0.000 A 
ENDROOT
TORSDOF 0
ENDMDL
