MODEL 1
REMARK minimizedAffinity -2.24212122
REMARK minimizedRMSD -1
REMARK  0 active torsions:
REMARK  status: ('A' for Active; 'I' for Inactive)
ROOT
ATOM      1  C1  BNZ d   1      -0.463   0.238   2.233  0.00  0.00     0.000 A 
ATOM      2  C2  BNZ d   1       0.050   1.392   1.704  0.00  0.00     0.000 A 
ATOM      3  C3  BNZ d   1       0.253   1.515   0.358  0.00  0.00     0.000 A 
ATOM      4  C4  BNZ d   1      -0.018   0.471  -0.451  0.00  0.00     0.000 A 
ATOM      5  C5  BNZ d   1      -0.526  -0.703   0.068  0.00  0.00     0.000 A 
ATOM      6  C6  BNZ d   1      -0.767  -0.809   1.419  0.00  0.00     0.000 A 
ENDROOT
TORSDOF 0
ENDMDL
