MODEL 1
REMARK minimizedAffinity -2.61485147
REMARK minimizedRMSD -1
REMARK  0 active torsions:
REMARK  status: ('A' for Active; 'I' for Inactive)
ROOT
ATOM      1  C1  BNZ d   1      -0.079  -1.397  -0.326  0.00  0.00     0.000 A 
ATOM      2  C2  BNZ d   1       0.066  -0.096  -0.727  0.00  0.00     0.000 A 
ATOM      3  C3  BNZ d   1      -0.425   0.929   0.033  0.00  0.00     0.000 A 
ATOM      4  C4  BNZ d   1      -1.095   0.650   1.169  0.00  0.00     0.000 A 
ATOM      5  C5  BNZ d   1      -1.258  -0.657   1.582  0.00  0.00     0.000 A 
ATOM      6  C6  BNZ d   1      -0.729  -1.684   0.835  0.00  0.00     0.000 A 
ENDROOT
TORSDOF 0
ENDMDL
