MODEL 1
REMARK minimizedAffinity -3.29587388
REMARK minimizedRMSD -1
REMARK  0 active torsions:
REMARK  status: ('A' for Active; 'I' for Inactive)
ROOT
ATOM      1  C1  BNZ d   1      -0.128   1.225  -0.033  0.00  0.00     0.000 A 
ATOM      2  C2  BNZ d   1      -0.851   0.835   1.062  0.00  0.00     0.000 A 
ATOM      3  C3  BNZ d   1      -0.904  -0.479   1.434  0.00  0.00     0.000 A 
ATOM      4  C4  BNZ d   1      -0.267  -1.405   0.689  0.00  0.00     0.000 A 
ATOM      5  C5  BNZ d   1       0.459  -1.029  -0.423  0.00  0.00     0.000 A 
ATOM      6  C6  BNZ d   1       0.542   0.300  -0.772  0.00  0.00     0.000 A 
ENDROOT
TORSDOF 0
ENDMDL
