MODEL 1
REMARK minimizedAffinity -3.24784803
REMARK minimizedRMSD -1
REMARK  0 active torsions:
REMARK  status: ('A' for Active; 'I' for Inactive)
ROOT
ATOM      1  C1  BNZ d   1      -0.786  -1.472   0.713  0.00  0.00     0.000 A 
ATOM      2  C2  BNZ d   1      -0.685  -0.135   0.993  0.00  0.00     0.000 A 
ATOM      3  C3  BNZ d   1      -0.349   0.761   0.018  0.00  0.00     0.000 A 
ATOM      4  C4  BNZ d   1      -0.075   0.316  -1.226  0.00  0.00     0.000 A 
ATOM      5  C5  BNZ d   1      -0.163  -1.029  -1.522  0.00  0.00     0.000 A 
ATOM      6  C6  BNZ d   1      -0.540  -1.924  -0.547  0.00  0.00     0.000 A 
ENDROOT
TORSDOF 0
ENDMDL
