MODEL 1
REMARK minimizedAffinity -3.26962495
REMARK minimizedRMSD -1
REMARK  0 active torsions:
REMARK  status: ('A' for Active; 'I' for Inactive)
ROOT
ATOM      1  C1  BNZ d   1       0.414  -0.349  -0.518  0.00  0.00     0.000 A 
ATOM      2  C2  BNZ d   1       0.268  -1.668  -0.856  0.00  0.00     0.000 A 
ATOM      3  C3  BNZ d   1      -0.372  -2.539  -0.020  0.00  0.00     0.000 A 
ATOM      4  C4  BNZ d   1      -0.830  -2.099   1.170  0.00  0.00     0.000 A 
ATOM      5  C5  BNZ d   1      -0.682  -0.775   1.530  0.00  0.00     0.000 A 
ATOM      6  C6  BNZ d   1      -0.071   0.107   0.668  0.00  0.00     0.000 A 
ENDROOT
TORSDOF 0
ENDMDL
