MODEL 1
REMARK minimizedAffinity -3.55746269
REMARK minimizedRMSD -1
REMARK  0 active torsions:
REMARK  status: ('A' for Active; 'I' for Inactive)
ROOT
ATOM      1  C1  BNZ d   1      -0.076  -0.501  -0.212  0.00  0.00     0.000 A 
ATOM      2  C2  BNZ d   1       0.136  -1.091  -1.430  0.00  0.00     0.000 A 
ATOM      3  C3  BNZ d   1      -0.214  -2.395  -1.646  0.00  0.00     0.000 A 
ATOM      4  C4  BNZ d   1      -0.736  -3.118  -0.634  0.00  0.00     0.000 A 
ATOM      5  C5  BNZ d   1      -0.947  -2.540   0.602  0.00  0.00     0.000 A 
ATOM      6  C6  BNZ d   1      -0.630  -1.216   0.805  0.00  0.00     0.000 A 
ENDROOT
TORSDOF 0
ENDMDL
