MODEL 1
REMARK minimizedAffinity -3.13833165
REMARK minimizedRMSD -1
REMARK  0 active torsions:
REMARK  status: ('A' for Active; 'I' for Inactive)
ROOT
ATOM      1  C1  BNZ d   1      -0.340   0.303   0.625  0.00  0.00     0.000 A 
ATOM      2  C2  BNZ d   1      -1.046  -0.601   1.374  0.00  0.00     0.000 A 
ATOM      3  C3  BNZ d   1      -1.171  -1.900   0.968  0.00  0.00     0.000 A 
ATOM      4  C4  BNZ d   1      -0.626  -2.284  -0.204  0.00  0.00     0.000 A 
ATOM      5  C5  BNZ d   1       0.081  -1.383  -0.975  0.00  0.00     0.000 A 
ATOM      6  C6  BNZ d   1       0.238  -0.086  -0.544  0.00  0.00     0.000 A 
ENDROOT
TORSDOF 0
ENDMDL
