MODEL 1
REMARK minimizedAffinity -1.03505087
REMARK minimizedRMSD -1
REMARK  0 active torsions:
REMARK  status: ('A' for Active; 'I' for Inactive)
ROOT
ATOM      1  C1  BNZ d   1      -0.437   2.244   0.609  0.00  0.00     0.000 A 
ATOM      2  C2  BNZ d   1       0.162   3.379   1.086  0.00  0.00     0.000 A 
ATOM      3  C3  BNZ d   1       1.502   3.589   0.914  0.00  0.00     0.000 A 
ATOM      4  C4  BNZ d   1       2.247   2.646   0.302  0.00  0.00     0.000 A 
ATOM      5  C5  BNZ d   1       1.660   1.492  -0.176  0.00  0.00     0.000 A 
ATOM      6  C6  BNZ d   1       0.304   1.302  -0.036  0.00  0.00     0.000 A 
ENDROOT
TORSDOF 0
ENDMDL
