MODEL 1
REMARK minimizedAffinity -1.69112575
REMARK minimizedRMSD -1
REMARK  0 active torsions:
REMARK  status: ('A' for Active; 'I' for Inactive)
ROOT
ATOM      1  C1  BNZ d   1      -0.524  -1.858   0.247  0.00  0.00     0.000 A 
ATOM      2  C2  BNZ d   1       0.371  -1.028  -0.376  0.00  0.00     0.000 A 
ATOM      3  C3  BNZ d   1       0.392   0.311  -0.101  0.00  0.00     0.000 A 
ATOM      4  C4  BNZ d   1      -0.507   0.824   0.765  0.00  0.00     0.000 A 
ATOM      5  C5  BNZ d   1      -1.420   0.002   1.393  0.00  0.00     0.000 A 
ATOM      6  C6  BNZ d   1      -1.413  -1.351   1.143  0.00  0.00     0.000 A 
ENDROOT
TORSDOF 0
ENDMDL
