MODEL 1
REMARK minimizedAffinity -2.59330773
REMARK minimizedRMSD -1
REMARK  0 active torsions:
REMARK  status: ('A' for Active; 'I' for Inactive)
ROOT
ATOM      1  C1  BNZ d   1      -1.091  -1.763   1.190  0.00  0.00     0.000 A 
ATOM      2  C2  BNZ d   1      -1.082  -0.409   1.396  0.00  0.00     0.000 A 
ATOM      3  C3  BNZ d   1      -0.565   0.439   0.457  0.00  0.00     0.000 A 
ATOM      4  C4  BNZ d   1      -0.023  -0.070  -0.668  0.00  0.00     0.000 A 
ATOM      5  C5  BNZ d   1      -0.016  -1.433  -0.887  0.00  0.00     0.000 A 
ATOM      6  C6  BNZ d   1      -0.573  -2.281   0.044  0.00  0.00     0.000 A 
ENDROOT
TORSDOF 0
ENDMDL
