MODEL 1
REMARK minimizedAffinity -2.69613719
REMARK minimizedRMSD -1
REMARK  0 active torsions:
REMARK  status: ('A' for Active; 'I' for Inactive)
ROOT
ATOM      1  C1  BNZ d   1       0.383  -1.163  -1.957  0.00  0.00     0.000 A 
ATOM      2  C2  BNZ d   1      -0.037  -2.442  -2.208  0.00  0.00     0.000 A 
ATOM      3  C3  BNZ d   1      -0.656  -3.178  -1.237  0.00  0.00     0.000 A 
ATOM      4  C4  BNZ d   1      -0.817  -2.651  -0.006  0.00  0.00     0.000 A 
ATOM      5  C5  BNZ d   1      -0.390  -1.366   0.265  0.00  0.00     0.000 A 
ATOM      6  C6  BNZ d   1       0.197  -0.614  -0.726  0.00  0.00     0.000 A 
ENDROOT
TORSDOF 0
ENDMDL
