MODEL 1
REMARK minimizedAffinity -3.26226234
REMARK minimizedRMSD -1
REMARK  0 active torsions:
REMARK  status: ('A' for Active; 'I' for Inactive)
ROOT
ATOM      1  C1  BNZ d   1      -0.604  -2.154   1.225  0.00  0.00     0.000 A 
ATOM      2  C2  BNZ d   1      -0.423  -0.797   1.268  0.00  0.00     0.000 A 
ATOM      3  C3  BNZ d   1      -0.219  -0.081   0.122  0.00  0.00     0.000 A 
ATOM      4  C4  BNZ d   1      -0.155  -0.727  -1.061  0.00  0.00     0.000 A 
ATOM      5  C5  BNZ d   1      -0.326  -2.096  -1.120  0.00  0.00     0.000 A 
ATOM      6  C6  BNZ d   1      -0.570  -2.808   0.032  0.00  0.00     0.000 A 
ENDROOT
TORSDOF 0
ENDMDL
