MODEL 1
REMARK minimizedAffinity -1.34130526
REMARK minimizedRMSD -1
REMARK  0 active torsions:
REMARK  status: ('A' for Active; 'I' for Inactive)
ROOT
ATOM      1  C1  BNZ d   1      -0.690   0.313   0.621  0.00  0.00     0.000 A 
ATOM      2  C2  BNZ d   1      -1.158  -0.521   1.602  0.00  0.00     0.000 A 
ATOM      3  C3  BNZ d   1      -1.264  -1.866   1.384  0.00  0.00     0.000 A 
ATOM      4  C4  BNZ d   1      -0.941  -2.370   0.176  0.00  0.00     0.000 A 
ATOM      5  C5  BNZ d   1      -0.477  -1.540  -0.826  0.00  0.00     0.000 A 
ATOM      6  C6  BNZ d   1      -0.335  -0.192  -0.591  0.00  0.00     0.000 A 
ENDROOT
TORSDOF 0
ENDMDL
