MODEL 1
REMARK minimizedAffinity -3.91551495
REMARK minimizedRMSD -1
REMARK  0 active torsions:
REMARK  status: ('A' for Active; 'I' for Inactive)
ROOT
ATOM      1  C1  BNZ d   1      -0.990  -2.175   0.339  0.00  0.00     0.000 A 
ATOM      2  C2  BNZ d   1      -0.676  -1.309  -0.674  0.00  0.00     0.000 A 
ATOM      3  C3  BNZ d   1      -0.441   0.013  -0.418  0.00  0.00     0.000 A 
ATOM      4  C4  BNZ d   1      -0.560   0.475   0.844  0.00  0.00     0.000 A 
ATOM      5  C5  BNZ d   1      -0.886  -0.383   1.875  0.00  0.00     0.000 A 
ATOM      6  C6  BNZ d   1      -1.083  -1.721   1.619  0.00  0.00     0.000 A 
ENDROOT
TORSDOF 0
ENDMDL
