MODEL 1
REMARK minimizedAffinity -5.47030306
REMARK minimizedRMSD -1
REMARK  0 active torsions:
REMARK  status: ('A' for Active; 'I' for Inactive)
ROOT
ATOM      1  C1  DEN d   1       0.163  -1.092  -0.177  0.00  0.00     0.130 A 
ATOM      2  C2  DEN d   1      -0.707   0.045   0.109  0.00  0.00    -0.031 A 
ATOM      3  C3  DEN d   1       0.116   1.108   0.720  0.00  0.00     0.027 A 
ATOM      4  C4  DEN d   1       2.641   1.106   1.243  0.00  0.00     0.027 A 
ATOM      5  C5  DEN d   1       3.798   0.360   1.190  0.00  0.00    -0.003 A 
ATOM      6  C6  DEN d   1       3.818  -0.924   0.713  0.00  0.00     0.001 A 
ATOM      7  C7  DEN d   1       2.666  -1.485   0.228  0.00  0.00     0.017 A 
ATOM      8  C8  DEN d   1       1.495  -0.742   0.285  0.00  0.00    -0.094 A 
ATOM      9  C9  DEN d   1       1.498   0.559   0.760  0.00  0.00    -0.072 A 
ENDROOT
TORSDOF 0
ENDMDL
