MODEL 1
REMARK minimizedAffinity -0.21991466
REMARK minimizedRMSD -1
REMARK  0 active torsions:
REMARK  status: ('A' for Active; 'I' for Inactive)
ROOT
ATOM      1  C1  DEN d   1      -0.611   0.774   0.049  0.00  0.00     0.130 A 
ATOM      2  C2  DEN d   1      -1.442  -0.390  -0.244  0.00  0.00    -0.031 A 
ATOM      3  C3  DEN d   1      -0.549  -1.542  -0.479  0.00  0.00     0.027 A 
ATOM      4  C4  DEN d   1       2.028  -1.637  -0.413  0.00  0.00     0.027 A 
ATOM      5  C5  DEN d   1       3.174  -0.898  -0.218  0.00  0.00    -0.003 A 
ATOM      6  C6  DEN d   1       3.140   0.446   0.044  0.00  0.00     0.001 A 
ATOM      7  C7  DEN d   1       1.934   1.084   0.163  0.00  0.00     0.017 A 
ATOM      8  C8  DEN d   1       0.774   0.348  -0.040  0.00  0.00    -0.094 A 
ATOM      9  C9  DEN d   1       0.829  -1.013  -0.292  0.00  0.00    -0.072 A 
ENDROOT
TORSDOF 0
ENDMDL
