MODEL 1
REMARK minimizedAffinity -5.63503456
REMARK minimizedRMSD -1
REMARK  0 active torsions:
REMARK  status: ('A' for Active; 'I' for Inactive)
ROOT
ATOM      1  C1  DEN d   1       3.324  -0.371   0.806  0.00  0.00     0.130 A 
ATOM      2  C2  DEN d   1       3.319   1.088   0.856  0.00  0.00    -0.031 A 
ATOM      3  C3  DEN d   1       1.950   1.551   0.552  0.00  0.00     0.027 A 
ATOM      4  C4  DEN d   1      -0.152   0.157   0.016  0.00  0.00     0.027 A 
ATOM      5  C5  DEN d   1      -0.639  -1.121  -0.154  0.00  0.00    -0.003 A 
ATOM      6  C6  DEN d   1       0.162  -2.227  -0.050  0.00  0.00     0.001 A 
ATOM      7  C7  DEN d   1       1.484  -2.079   0.277  0.00  0.00     0.017 A 
ATOM      8  C8  DEN d   1       1.984  -0.794   0.442  0.00  0.00    -0.094 A 
ATOM      9  C9  DEN d   1       1.155   0.311   0.345  0.00  0.00    -0.072 A 
ENDROOT
TORSDOF 0
ENDMDL
