MODEL 1
REMARK minimizedAffinity -4.97631645
REMARK minimizedRMSD -1
REMARK  0 active torsions:
REMARK  status: ('A' for Active; 'I' for Inactive)
ROOT
ATOM      1  C1  DEN d   1      -0.107   1.037  -0.610  0.00  0.00     0.130 A 
ATOM      2  C2  DEN d   1      -0.902  -0.052  -1.171  0.00  0.00    -0.031 A 
ATOM      3  C3  DEN d   1      -0.156  -1.311  -0.973  0.00  0.00     0.027 A 
ATOM      4  C4  DEN d   1       2.139  -1.679   0.145  0.00  0.00     0.027 A 
ATOM      5  C5  DEN d   1       3.200  -1.053   0.762  0.00  0.00    -0.003 A 
ATOM      6  C6  DEN d   1       3.249   0.305   0.932  0.00  0.00     0.001 A 
ATOM      7  C7  DEN d   1       2.196   1.079   0.521  0.00  0.00     0.017 A 
ATOM      8  C8  DEN d   1       1.125   0.456  -0.108  0.00  0.00    -0.094 A 
ATOM      9  C9  DEN d   1       1.089  -0.919  -0.260  0.00  0.00    -0.072 A 
ENDROOT
TORSDOF 0
ENDMDL
