MODEL 1
REMARK minimizedAffinity -4.26164246
REMARK minimizedRMSD -1
REMARK  0 active torsions:
REMARK  status: ('A' for Active; 'I' for Inactive)
ROOT
ATOM      1  C1  DEN d   1       3.112   0.264   0.003  0.00  0.00     0.130 A 
ATOM      2  C2  DEN d   1       2.836   1.696   0.073  0.00  0.00    -0.031 A 
ATOM      3  C3  DEN d   1       1.371   1.880   0.054  0.00  0.00     0.027 A 
ATOM      4  C4  DEN d   1      -0.487   0.096  -0.072  0.00  0.00     0.027 A 
ATOM      5  C5  DEN d   1      -0.742  -1.255  -0.159  0.00  0.00    -0.003 A 
ATOM      6  C6  DEN d   1       0.261  -2.184  -0.232  0.00  0.00     0.001 A 
ATOM      7  C7  DEN d   1       1.568  -1.778  -0.174  0.00  0.00     0.017 A 
ATOM      8  C8  DEN d   1       1.833  -0.417  -0.093  0.00  0.00    -0.094 A 
ATOM      9  C9  DEN d   1       0.805   0.506  -0.008  0.00  0.00    -0.072 A 
ENDROOT
TORSDOF 0
ENDMDL
