MODEL 1
REMARK minimizedAffinity 3.11757612
REMARK minimizedRMSD -1
REMARK  0 active torsions:
REMARK  status: ('A' for Active; 'I' for Inactive)
ROOT
ATOM      1  C2' OXE d   1      -2.255   1.808   5.631  0.00  0.00     0.078 C 
ATOM      2  C1' OXE d   1      -5.010   1.407   5.988  0.00  0.00     0.078 C 
ATOM      3  C1  OXE d   1      -4.511   2.828   5.912  0.00  0.00    -0.078 A 
ATOM      4  C2  OXE d   1      -3.155   3.015   5.784  0.00  0.00    -0.078 A 
ATOM      5  C3  OXE d   1      -2.647   4.304   5.654  0.00  0.00     0.003 A 
ATOM      6  C4  OXE d   1      -3.485   5.416   5.806  0.00  0.00    -0.002 A 
ATOM      7  C5  OXE d   1      -4.864   5.247   5.977  0.00  0.00    -0.002 A 
ATOM      8  C6  OXE d   1      -5.397   3.963   5.989  0.00  0.00     0.003 A 
ENDROOT
TORSDOF 0
ENDMDL
