MODEL 1
REMARK minimizedAffinity -2.90287185
REMARK minimizedRMSD -1
REMARK  0 active torsions:
REMARK  status: ('A' for Active; 'I' for Inactive)
ROOT
ATOM      1  C2' OXE d   1      -2.731   4.164  -5.343  0.00  0.00     0.078 C 
ATOM      2  C1' OXE d   1      -5.463   4.141  -5.989  0.00  0.00     0.078 C 
ATOM      3  C1  OXE d   1      -5.050   4.812  -4.703  0.00  0.00    -0.078 A 
ATOM      4  C2  OXE d   1      -3.717   4.778  -4.372  0.00  0.00    -0.078 A 
ATOM      5  C3  OXE d   1      -3.275   5.429  -3.224  0.00  0.00     0.003 A 
ATOM      6  C4  OXE d   1      -4.194   5.986  -2.326  0.00  0.00    -0.002 A 
ATOM      7  C5  OXE d   1      -5.560   5.997  -2.625  0.00  0.00    -0.002 A 
ATOM      8  C6  OXE d   1      -5.999   5.453  -3.827  0.00  0.00     0.003 A 
ENDROOT
TORSDOF 0
ENDMDL
