MODEL 1
REMARK minimizedAffinity 20.7787514
REMARK minimizedRMSD -1
REMARK  0 active torsions:
REMARK  status: ('A' for Active; 'I' for Inactive)
ROOT
ATOM      1  C2' OXE d   1      -1.184   0.783   4.726  0.00  0.00     0.078 C 
ATOM      2  C1' OXE d   1      -2.037   2.880   3.066  0.00  0.00     0.078 C 
ATOM      3  C1  OXE d   1      -2.217   1.468   2.565  0.00  0.00    -0.078 A 
ATOM      4  C2  OXE d   1      -1.755   0.450   3.364  0.00  0.00    -0.078 A 
ATOM      5  C3  OXE d   1      -1.945  -0.872   2.975  0.00  0.00     0.003 A 
ATOM      6  C4  OXE d   1      -2.465  -1.171   1.709  0.00  0.00    -0.002 A 
ATOM      7  C5  OXE d   1      -2.906  -0.148   0.863  0.00  0.00    -0.002 A 
ATOM      8  C6  OXE d   1      -2.828   1.172   1.293  0.00  0.00     0.003 A 
ENDROOT
TORSDOF 0
ENDMDL
