MODEL 1
REMARK minimizedAffinity 1.63338363
REMARK minimizedRMSD -1
REMARK  0 active torsions:
REMARK  status: ('A' for Active; 'I' for Inactive)
ROOT
ATOM      1  C2' OXE d   1       4.125   1.467   4.135  0.00  0.00     0.078 C 
ATOM      2  C1' OXE d   1       3.764   3.630   2.383  0.00  0.00     0.078 C 
ATOM      3  C1  OXE d   1       4.569   3.867   3.636  0.00  0.00    -0.078 A 
ATOM      4  C2  OXE d   1       4.701   2.815   4.511  0.00  0.00    -0.078 A 
ATOM      5  C3  OXE d   1       5.479   2.964   5.655  0.00  0.00     0.003 A 
ATOM      6  C4  OXE d   1       6.000   4.218   6.000  0.00  0.00    -0.002 A 
ATOM      7  C5  OXE d   1       5.843   5.312   5.143  0.00  0.00    -0.002 A 
ATOM      8  C6  OXE d   1       5.168   5.143   3.939  0.00  0.00     0.003 A 
ENDROOT
TORSDOF 0
ENDMDL
