MODEL 1
REMARK minimizedAffinity -3.77153349
REMARK minimizedRMSD -1
REMARK  0 active torsions:
REMARK  status: ('A' for Active; 'I' for Inactive)
ROOT
ATOM      1  C2' OXE d   1       2.675   0.615   2.225  0.00  0.00     0.078 C 
ATOM      2  C1' OXE d   1       0.427   1.261   3.777  0.00  0.00     0.078 C 
ATOM      3  C1  OXE d   1       0.193   0.611   2.436  0.00  0.00    -0.078 A 
ATOM      4  C2  OXE d   1       1.297   0.341   1.663  0.00  0.00    -0.078 A 
ATOM      5  C3  OXE d   1       1.141  -0.308   0.442  0.00  0.00     0.003 A 
ATOM      6  C4  OXE d   1      -0.138  -0.549  -0.075  0.00  0.00    -0.002 A 
ATOM      7  C5  OXE d   1      -1.277  -0.245   0.679  0.00  0.00    -0.002 A 
ATOM      8  C6  OXE d   1      -1.128   0.295   1.951  0.00  0.00     0.003 A 
ENDROOT
TORSDOF 0
ENDMDL
