MODEL 1
REMARK minimizedAffinity 10.8992319
REMARK minimizedRMSD -1
REMARK  0 active torsions:
REMARK  status: ('A' for Active; 'I' for Inactive)
ROOT
ATOM      1  C2' OXE d   1       1.256   4.177  -0.417  0.00  0.00     0.078 C 
ATOM      2  C1' OXE d   1       3.472   4.176   1.306  0.00  0.00     0.078 C 
ATOM      3  C1  OXE d   1       3.640   3.552  -0.056  0.00  0.00    -0.078 A 
ATOM      4  C2  OXE d   1       2.538   3.515  -0.876  0.00  0.00    -0.078 A 
ATOM      5  C3  OXE d   1       2.653   3.000  -2.164  0.00  0.00     0.003 A 
ATOM      6  C4  OXE d   1       3.839   2.381  -2.576  0.00  0.00    -0.002 A 
ATOM      7  C5  OXE d   1       4.962   2.372  -1.742  0.00  0.00    -0.002 A 
ATOM      8  C6  OXE d   1       4.893   2.990  -0.498  0.00  0.00     0.003 A 
ENDROOT
TORSDOF 0
ENDMDL
