MODEL 1
REMARK minimizedAffinity 5.5758729
REMARK minimizedRMSD -1
REMARK  0 active torsions:
REMARK  status: ('A' for Active; 'I' for Inactive)
ROOT
ATOM      1  C2' OXE d   1      -0.880  -2.110   1.775  0.00  0.00     0.078 C 
ATOM      2  C1' OXE d   1      -0.928  -0.384   3.988  0.00  0.00     0.078 C 
ATOM      3  C1  OXE d   1      -1.628  -1.714   4.118  0.00  0.00    -0.078 A 
ATOM      4  C2  OXE d   1      -1.639  -2.532   3.014  0.00  0.00    -0.078 A 
ATOM      5  C3  OXE d   1      -2.224  -3.792   3.096  0.00  0.00     0.003 A 
ATOM      6  C4  OXE d   1      -2.934  -4.171   4.243  0.00  0.00    -0.002 A 
ATOM      7  C5  OXE d   1      -2.968  -3.336   5.364  0.00  0.00    -0.002 A 
ATOM      8  C6  OXE d   1      -2.286  -2.125   5.333  0.00  0.00     0.003 A 
ENDROOT
TORSDOF 0
ENDMDL
