MODEL 1
REMARK minimizedAffinity 10.0592518
REMARK minimizedRMSD -1
REMARK  0 active torsions:
REMARK  status: ('A' for Active; 'I' for Inactive)
ROOT
ATOM      1  C2' OXE d   1       4.628   3.738  -3.109  0.00  0.00     0.078 C 
ATOM      2  C1' OXE d   1       5.998   1.835  -1.564  0.00  0.00     0.078 C 
ATOM      3  C1  OXE d   1       4.994   2.717  -0.866  0.00  0.00    -0.078 A 
ATOM      4  C2  OXE d   1       4.362   3.677  -1.620  0.00  0.00    -0.078 A 
ATOM      5  C3  OXE d   1       3.387   4.480  -1.037  0.00  0.00     0.003 A 
ATOM      6  C4  OXE d   1       3.154   4.424   0.343  0.00  0.00    -0.002 A 
ATOM      7  C5  OXE d   1       3.815   3.481   1.137  0.00  0.00    -0.002 A 
ATOM      8  C6  OXE d   1       4.705   2.594   0.542  0.00  0.00     0.003 A 
ENDROOT
TORSDOF 0
ENDMDL
