MODEL 1
REMARK minimizedAffinity 1.61804664
REMARK minimizedRMSD -1
REMARK  0 active torsions:
REMARK  status: ('A' for Active; 'I' for Inactive)
ROOT
ATOM      1  C2' OXE d   1      -2.247   4.121   3.300  0.00  0.00     0.078 C 
ATOM      2  C1' OXE d   1      -4.462   2.755   2.246  0.00  0.00     0.078 C 
ATOM      3  C1  OXE d   1      -4.647   3.498   3.545  0.00  0.00    -0.078 A 
ATOM      4  C2  OXE d   1      -3.546   4.125   4.078  0.00  0.00    -0.078 A 
ATOM      5  C3  OXE d   1      -3.675   4.870   5.246  0.00  0.00     0.003 A 
ATOM      6  C4  OXE d   1      -4.877   4.861   5.964  0.00  0.00    -0.002 A 
ATOM      7  C5  OXE d   1      -6.000   4.196   5.460  0.00  0.00    -0.002 A 
ATOM      8  C6  OXE d   1      -5.914   3.547   4.233  0.00  0.00     0.003 A 
ENDROOT
TORSDOF 0
ENDMDL
