MODEL 1
REMARK minimizedAffinity 0.377912015
REMARK minimizedRMSD -1
REMARK  0 active torsions:
REMARK  status: ('A' for Active; 'I' for Inactive)
ROOT
ATOM      1  C2' OXE d   1      -5.997   5.838  -3.139  0.00  0.00     0.078 C 
ATOM      2  C1' OXE d   1      -5.993   5.939  -5.944  0.00  0.00     0.078 C 
ATOM      3  C1  OXE d   1      -4.823   5.275  -5.262  0.00  0.00    -0.078 A 
ATOM      4  C2  OXE d   1      -4.811   5.272  -3.888  0.00  0.00    -0.078 A 
ATOM      5  C3  OXE d   1      -3.782   4.624  -3.210  0.00  0.00     0.003 A 
ATOM      6  C4  OXE d   1      -2.684   4.112  -3.910  0.00  0.00    -0.002 A 
ATOM      7  C5  OXE d   1      -2.657   4.140  -5.308  0.00  0.00    -0.002 A 
ATOM      8  C6  OXE d   1      -3.737   4.679  -6.000  0.00  0.00     0.003 A 
ENDROOT
TORSDOF 0
ENDMDL
