MODEL 1
REMARK minimizedAffinity 10.8680182
REMARK minimizedRMSD -1
REMARK  0 active torsions:
REMARK  status: ('A' for Active; 'I' for Inactive)
ROOT
ATOM      1  C2' OXE d   1      -4.753   4.551   1.221  0.00  0.00     0.078 C 
ATOM      2  C1' OXE d   1      -4.717   2.262   2.846  0.00  0.00     0.078 C 
ATOM      3  C1  OXE d   1      -5.189   3.555   3.463  0.00  0.00    -0.078 A 
ATOM      4  C2  OXE d   1      -5.159   4.680   2.674  0.00  0.00    -0.078 A 
ATOM      5  C3  OXE d   1      -5.635   5.887   3.176  0.00  0.00     0.003 A 
ATOM      6  C4  OXE d   1      -6.000   6.000   4.524  0.00  0.00    -0.002 A 
ATOM      7  C5  OXE d   1      -6.000   4.875   5.355  0.00  0.00    -0.002 A 
ATOM      8  C6  OXE d   1      -5.638   3.639   4.830  0.00  0.00     0.003 A 
ENDROOT
TORSDOF 0
ENDMDL
