MODEL 1
REMARK minimizedAffinity 9.27371883
REMARK minimizedRMSD -1
REMARK  0 active torsions:
REMARK  status: ('A' for Active; 'I' for Inactive)
ROOT
ATOM      1  C2' OXE d   1      -3.031  -2.604   3.161  0.00  0.00     0.078 C 
ATOM      2  C1' OXE d   1      -1.281  -4.105   1.559  0.00  0.00     0.078 C 
ATOM      3  C1  OXE d   1      -1.582  -2.688   1.137  0.00  0.00    -0.078 A 
ATOM      4  C2  OXE d   1      -2.475  -1.977   1.901  0.00  0.00    -0.078 A 
ATOM      5  C3  OXE d   1      -2.746  -0.648   1.586  0.00  0.00     0.003 A 
ATOM      6  C4  OXE d   1      -2.236  -0.079   0.413  0.00  0.00    -0.002 A 
ATOM      7  C5  OXE d   1      -1.355  -0.800  -0.400  0.00  0.00    -0.002 A 
ATOM      8  C6  OXE d   1      -0.985  -2.088  -0.031  0.00  0.00     0.003 A 
ENDROOT
TORSDOF 0
ENDMDL
