MODEL 1
REMARK minimizedAffinity -0.0130499657
REMARK minimizedRMSD -1
REMARK  0 active torsions:
REMARK  status: ('A' for Active; 'I' for Inactive)
ROOT
ATOM      1  C2' OXE d   1      -2.417   1.817   5.466  0.00  0.00     0.078 C 
ATOM      2  C1' OXE d   1      -4.937   0.692   5.977  0.00  0.00     0.078 C 
ATOM      3  C1  OXE d   1      -4.845   2.194   5.873  0.00  0.00    -0.078 A 
ATOM      4  C2  OXE d   1      -3.600   2.738   5.669  0.00  0.00    -0.078 A 
ATOM      5  C3  OXE d   1      -3.467   4.115   5.510  0.00  0.00     0.003 A 
ATOM      6  C4  OXE d   1      -4.565   4.960   5.709  0.00  0.00    -0.002 A 
ATOM      7  C5  OXE d   1      -5.835   4.429   5.957  0.00  0.00    -0.002 A 
ATOM      8  C6  OXE d   1      -6.000   3.049   5.999  0.00  0.00     0.003 A 
ENDROOT
TORSDOF 0
ENDMDL
