MODEL 1
REMARK minimizedAffinity 4.32170868
REMARK minimizedRMSD -1
REMARK  0 active torsions:
REMARK  status: ('A' for Active; 'I' for Inactive)
ROOT
ATOM      1  C2' OXE d   1      -3.742   2.572   2.951  0.00  0.00     0.078 C 
ATOM      2  C1' OXE d   1      -4.879   2.519   5.517  0.00  0.00     0.078 C 
ATOM      3  C1  OXE d   1      -5.101   3.750   4.675  0.00  0.00    -0.078 A 
ATOM      4  C2  OXE d   1      -4.502   3.787   3.438  0.00  0.00    -0.078 A 
ATOM      5  C3  OXE d   1      -4.719   4.876   2.599  0.00  0.00     0.003 A 
ATOM      6  C4  OXE d   1      -5.415   6.000   3.062  0.00  0.00    -0.002 A 
ATOM      7  C5  OXE d   1      -6.000   5.999   4.332  0.00  0.00    -0.002 A 
ATOM      8  C6  OXE d   1      -5.888   4.868   5.133  0.00  0.00     0.003 A 
ENDROOT
TORSDOF 0
ENDMDL
