MODEL 1
REMARK minimizedAffinity -0.18089366
REMARK minimizedRMSD -1
REMARK  0 active torsions:
REMARK  status: ('A' for Active; 'I' for Inactive)
ROOT
ATOM      1  C2' OXE d   1      -4.279   6.000  -3.168  0.00  0.00     0.078 C 
ATOM      2  C1' OXE d   1      -4.406   5.911  -5.970  0.00  0.00     0.078 C 
ATOM      3  C1  OXE d   1      -3.490   4.934  -5.276  0.00  0.00    -0.078 A 
ATOM      4  C2  OXE d   1      -3.399   5.015  -3.908  0.00  0.00    -0.078 A 
ATOM      5  C3  OXE d   1      -2.611   4.102  -3.213  0.00  0.00     0.003 A 
ATOM      6  C4  OXE d   1      -1.793   3.201  -3.906  0.00  0.00    -0.002 A 
ATOM      7  C5  OXE d   1      -1.841   3.128  -5.302  0.00  0.00    -0.002 A 
ATOM      8  C6  OXE d   1      -2.714   3.956  -5.998  0.00  0.00     0.003 A 
ENDROOT
TORSDOF 0
ENDMDL
