MODEL 1
REMARK minimizedAffinity 6.53256559
REMARK minimizedRMSD -1
REMARK  0 active torsions:
REMARK  status: ('A' for Active; 'I' for Inactive)
ROOT
ATOM      1  C2' OXE d   1      -1.097  -0.276  -2.239  0.00  0.00     0.078 C 
ATOM      2  C1' OXE d   1       1.557   0.638  -2.231  0.00  0.00     0.078 C 
ATOM      3  C1  OXE d   1       0.603   1.257  -3.222  0.00  0.00    -0.078 A 
ATOM      4  C2  OXE d   1      -0.682   0.771  -3.251  0.00  0.00    -0.078 A 
ATOM      5  C3  OXE d   1      -1.617   1.344  -4.108  0.00  0.00     0.003 A 
ATOM      6  C4  OXE d   1      -1.222   2.305  -5.047  0.00  0.00    -0.002 A 
ATOM      7  C5  OXE d   1       0.091   2.786  -5.061  0.00  0.00    -0.002 A 
ATOM      8  C6  OXE d   1       1.004   2.304  -4.129  0.00  0.00     0.003 A 
ENDROOT
TORSDOF 0
ENDMDL
