MODEL 1
REMARK minimizedAffinity 13.1270475
REMARK minimizedRMSD -1
REMARK  0 active torsions:
REMARK  status: ('A' for Active; 'I' for Inactive)
ROOT
ATOM      1  C2' OXE d   1      -0.790  -1.888   2.224  0.00  0.00     0.078 C 
ATOM      2  C1' OXE d   1      -2.615   0.144   1.573  0.00  0.00     0.078 C 
ATOM      3  C1  OXE d   1      -1.664  -0.319   0.498  0.00  0.00    -0.078 A 
ATOM      4  C2  OXE d   1      -0.744  -1.281   0.839  0.00  0.00    -0.078 A 
ATOM      5  C3  OXE d   1       0.120  -1.782  -0.131  0.00  0.00     0.003 A 
ATOM      6  C4  OXE d   1       0.164  -1.208  -1.407  0.00  0.00    -0.002 A 
ATOM      7  C5  OXE d   1      -0.739  -0.200  -1.763  0.00  0.00    -0.002 A 
ATOM      8  C6  OXE d   1      -1.685   0.225  -0.837  0.00  0.00     0.003 A 
ENDROOT
TORSDOF 0
ENDMDL
