MODEL 1
REMARK minimizedAffinity 8.61979389
REMARK minimizedRMSD -1
REMARK  0 active torsions:
REMARK  status: ('A' for Active; 'I' for Inactive)
ROOT
ATOM      1  C2' OXE d   1       5.981   5.885   5.901  0.00  0.00     0.078 C 
ATOM      2  C1' OXE d   1       4.383   3.577   5.844  0.00  0.00     0.078 C 
ATOM      3  C1  OXE d   1       4.800   4.178   4.524  0.00  0.00    -0.078 A 
ATOM      4  C2  OXE d   1       5.542   5.333   4.562  0.00  0.00    -0.078 A 
ATOM      5  C3  OXE d   1       5.999   5.898   3.374  0.00  0.00     0.003 A 
ATOM      6  C4  OXE d   1       5.581   5.388   2.140  0.00  0.00    -0.002 A 
ATOM      7  C5  OXE d   1       4.791   4.234   2.079  0.00  0.00    -0.002 A 
ATOM      8  C6  OXE d   1       4.429   3.594   3.259  0.00  0.00     0.003 A 
ENDROOT
TORSDOF 0
ENDMDL
