MODEL 1
REMARK minimizedAffinity 0.15206562
REMARK minimizedRMSD -1
REMARK  0 active torsions:
REMARK  status: ('A' for Active; 'I' for Inactive)
ROOT
ATOM      1  C2' OXE d   1       0.106   1.775   0.065  0.00  0.00     0.078 C 
ATOM      2  C1' OXE d   1       0.359  -0.159   2.084  0.00  0.00     0.078 C 
ATOM      3  C1  OXE d   1      -0.176  -0.605   0.746  0.00  0.00    -0.078 A 
ATOM      4  C2  OXE d   1      -0.341   0.357  -0.221  0.00  0.00    -0.078 A 
ATOM      5  C3  OXE d   1      -0.780  -0.010  -1.490  0.00  0.00     0.003 A 
ATOM      6  C4  OXE d   1      -1.200  -1.321  -1.743  0.00  0.00    -0.002 A 
ATOM      7  C5  OXE d   1      -1.079  -2.308  -0.759  0.00  0.00    -0.002 A 
ATOM      8  C6  OXE d   1      -0.530  -1.976   0.474  0.00  0.00     0.003 A 
ENDROOT
TORSDOF 0
ENDMDL
