MODEL 1
REMARK minimizedAffinity 14.773757
REMARK minimizedRMSD -1
REMARK  1 active torsions:
REMARK  status: ('A' for Active; 'I' for Inactive)
REMARK    1  A    between atoms: C1_2  and  C2_3 
ROOT
ATOM      1  C2  UNL d   1       2.637   4.698  -0.208  0.00  0.00    -0.073 A 
ATOM      2  C3  UNL d   1       3.072   4.620  -1.536  0.00  0.00    -0.002 A 
ATOM      3  C4  UNL d   1       3.537   3.411  -2.055  0.00  0.00     0.004 A 
ATOM      4  C5  UNL d   1       3.566   2.268  -1.257  0.00  0.00    -0.004 A 
ATOM      5  C6  UNL d   1       3.125   2.323   0.069  0.00  0.00    -0.075 A 
ATOM      6  C7  UNL d   1       3.151   1.103   0.943  0.00  0.00     0.076 C 
ATOM      7  C8  UNL d   1       2.661   3.541   0.585  0.00  0.00     0.001 A 
ENDROOT
BRANCH   1   8
ATOM      8  C1  UNL d   1       2.128   5.999   0.356  0.00  0.00     0.053 C 
ATOM      9  C   UNL d   1       0.630   5.961   0.614  0.00  0.00     0.018 C 
ENDBRANCH   1   8
TORSDOF 1
ENDMDL
