MODEL 1
REMARK minimizedAffinity 18.0617943
REMARK minimizedRMSD -1
REMARK  1 active torsions:
REMARK  status: ('A' for Active; 'I' for Inactive)
REMARK    1  A    between atoms: C1_2  and  C2_3 
ROOT
ATOM      1  C2  UNL d   1       1.411   0.732   1.228  0.00  0.00    -0.073 A 
ATOM      2  C3  UNL d   1       0.871  -0.268   0.411  0.00  0.00    -0.002 A 
ATOM      3  C4  UNL d   1       1.487  -0.602  -0.795  0.00  0.00     0.004 A 
ATOM      4  C5  UNL d   1       2.651   0.053  -1.194  0.00  0.00    -0.004 A 
ATOM      5  C6  UNL d   1       3.213   1.047  -0.386  0.00  0.00    -0.075 A 
ATOM      6  C7  UNL d   1       4.465   1.763  -0.802  0.00  0.00     0.076 C 
ATOM      7  C8  UNL d   1       2.587   1.379   0.823  0.00  0.00     0.001 A 
ENDROOT
BRANCH   1   8
ATOM      8  C1  UNL d   1       0.753   1.092   2.535  0.00  0.00     0.053 C 
ATOM      9  C   UNL d   1      -0.708   1.472   2.351  0.00  0.00     0.018 C 
ENDBRANCH   1   8
TORSDOF 1
ENDMDL
