MODEL 1
REMARK minimizedAffinity -0.389929175
REMARK minimizedRMSD -1
REMARK  1 active torsions:
REMARK  status: ('A' for Active; 'I' for Inactive)
REMARK    1  A    between atoms: C1_2  and  C2_3 
ROOT
ATOM      1  C2  UNL d   1       2.940  -2.660  -0.517  0.00  0.00    -0.073 A 
ATOM      2  C3  UNL d   1       2.502  -2.864  -1.830  0.00  0.00    -0.002 A 
ATOM      3  C4  UNL d   1       1.992  -1.800  -2.576  0.00  0.00     0.004 A 
ATOM      4  C5  UNL d   1       1.923  -0.523  -2.020  0.00  0.00    -0.004 A 
ATOM      5  C6  UNL d   1       2.367  -0.297  -0.713  0.00  0.00    -0.075 A 
ATOM      6  C7  UNL d   1       2.297   1.071  -0.100  0.00  0.00     0.076 C 
ATOM      7  C8  UNL d   1       2.875  -1.371   0.030  0.00  0.00     0.001 A 
ENDROOT
BRANCH   1   8
ATOM      8  C1  UNL d   1       3.497  -3.804   0.290  0.00  0.00     0.053 C 
ATOM      9  C   UNL d   1       5.017  -3.793   0.321  0.00  0.00     0.018 C 
ENDBRANCH   1   8
TORSDOF 1
ENDMDL
