MODEL 1
REMARK minimizedAffinity 24.6576328
REMARK minimizedRMSD -1
REMARK  1 active torsions:
REMARK  status: ('A' for Active; 'I' for Inactive)
REMARK    1  A    between atoms: C1_2  and  C2_3 
ROOT
ATOM      1  C2  UNL d   1       2.115   0.060   0.113  0.00  0.00    -0.073 A 
ATOM      2  C3  UNL d   1       1.779   0.206  -1.237  0.00  0.00    -0.002 A 
ATOM      3  C4  UNL d   1       1.784  -0.901  -2.088  0.00  0.00     0.004 A 
ATOM      4  C5  UNL d   1       2.117  -2.163  -1.597  0.00  0.00    -0.004 A 
ATOM      5  C6  UNL d   1       2.444  -2.331  -0.248  0.00  0.00    -0.075 A 
ATOM      6  C7  UNL d   1       2.806  -3.681   0.296  0.00  0.00     0.076 C 
ATOM      7  C8  UNL d   1       2.439  -1.215   0.600  0.00  0.00     0.001 A 
ENDROOT
BRANCH   1   8
ATOM      8  C1  UNL d   1       2.105   1.250   1.037  0.00  0.00     0.053 C 
ATOM      9  C   UNL d   1       0.991   1.162   2.069  0.00  0.00     0.018 C 
ENDBRANCH   1   8
TORSDOF 1
ENDMDL
