MODEL 1
REMARK minimizedAffinity 17.6055889
REMARK minimizedRMSD -1
REMARK  1 active torsions:
REMARK  status: ('A' for Active; 'I' for Inactive)
REMARK    1  A    between atoms: C1_2  and  C2_3 
ROOT
ATOM      1  C2  UNL d   1       2.642   2.315  -1.808  0.00  0.00    -0.073 A 
ATOM      2  C3  UNL d   1       2.107   2.021  -3.067  0.00  0.00    -0.002 A 
ATOM      3  C4  UNL d   1       1.776   0.708  -3.403  0.00  0.00     0.004 A 
ATOM      4  C5  UNL d   1       1.969  -0.322  -2.483  0.00  0.00    -0.004 A 
ATOM      5  C6  UNL d   1       2.491  -0.046  -1.215  0.00  0.00    -0.075 A 
ATOM      6  C7  UNL d   1       2.707  -1.144  -0.214  0.00  0.00     0.076 C 
ATOM      7  C8  UNL d   1       2.824   1.275  -0.886  0.00  0.00     0.001 A 
ENDROOT
BRANCH   1   8
ATOM      8  C1  UNL d   1       2.995   3.733  -1.438  0.00  0.00     0.053 C 
ATOM      9  C   UNL d   1       2.253   4.199  -0.195  0.00  0.00     0.018 C 
ENDBRANCH   1   8
TORSDOF 1
ENDMDL
