MODEL 1
REMARK minimizedAffinity 18.3771877
REMARK minimizedRMSD -1
REMARK  1 active torsions:
REMARK  status: ('A' for Active; 'I' for Inactive)
REMARK    1  A    between atoms: C1_2  and  C2_3 
ROOT
ATOM      1  C2  UNL d   1       2.829   2.657  -2.263  0.00  0.00    -0.073 A 
ATOM      2  C3  UNL d   1       2.250   2.090  -3.404  0.00  0.00    -0.002 A 
ATOM      3  C4  UNL d   1       2.067   0.710  -3.490  0.00  0.00     0.004 A 
ATOM      4  C5  UNL d   1       2.453  -0.116  -2.434  0.00  0.00    -0.004 A 
ATOM      5  C6  UNL d   1       3.022   0.433  -1.280  0.00  0.00    -0.075 A 
ATOM      6  C7  UNL d   1       3.444  -0.442  -0.137  0.00  0.00     0.076 C 
ATOM      7  C8  UNL d   1       3.205   1.820  -1.203  0.00  0.00     0.001 A 
ENDROOT
BRANCH   1   8
ATOM      8  C1  UNL d   1       3.023   4.148  -2.164  0.00  0.00     0.053 C 
ATOM      9  C   UNL d   1       2.384   4.724  -0.910  0.00  0.00     0.018 C 
ENDBRANCH   1   8
TORSDOF 1
ENDMDL
