MODEL 1
REMARK minimizedAffinity 14.2794991
REMARK minimizedRMSD -1
REMARK  1 active torsions:
REMARK  status: ('A' for Active; 'I' for Inactive)
REMARK    1  A    between atoms: C1_2  and  C2_3 
ROOT
ATOM      1  C2  UNL d   1      -2.019   1.620   2.616  0.00  0.00    -0.073 A 
ATOM      2  C3  UNL d   1      -2.184   0.231   2.575  0.00  0.00    -0.002 A 
ATOM      3  C4  UNL d   1      -3.407  -0.344   2.922  0.00  0.00     0.004 A 
ATOM      4  C5  UNL d   1      -4.478   0.463   3.306  0.00  0.00    -0.004 A 
ATOM      5  C6  UNL d   1      -4.336   1.854   3.342  0.00  0.00    -0.075 A 
ATOM      6  C7  UNL d   1      -5.478   2.736   3.755  0.00  0.00     0.076 C 
ATOM      7  C8  UNL d   1      -3.104   2.424   2.995  0.00  0.00     0.001 A 
ENDROOT
BRANCH   1   8
ATOM      8  C1  UNL d   1      -0.701   2.246   2.236  0.00  0.00     0.053 C 
ATOM      9  C   UNL d   1       0.476   1.345   2.573  0.00  0.00     0.018 C 
ENDBRANCH   1   8
TORSDOF 1
ENDMDL
