MODEL 1
REMARK minimizedAffinity 9.83384514
REMARK minimizedRMSD -1
REMARK  1 active torsions:
REMARK  status: ('A' for Active; 'I' for Inactive)
REMARK    1  A    between atoms: C1_2  and  C2_3 
ROOT
ATOM      1  C2  UNL d   1      -0.233   2.334   2.485  0.00  0.00    -0.073 A 
ATOM      2  C3  UNL d   1       0.872   1.597   2.927  0.00  0.00    -0.002 A 
ATOM      3  C4  UNL d   1       2.165   2.091   2.751  0.00  0.00     0.004 A 
ATOM      4  C5  UNL d   1       2.366   3.328   2.138  0.00  0.00    -0.004 A 
ATOM      5  C6  UNL d   1       1.274   4.084   1.700  0.00  0.00    -0.075 A 
ATOM      6  C7  UNL d   1       1.474   5.415   1.036  0.00  0.00     0.076 C 
ATOM      7  C8  UNL d   1      -0.021   3.580   1.878  0.00  0.00     0.001 A 
ENDROOT
BRANCH   1   8
ATOM      8  C1  UNL d   1      -1.632   1.807   2.679  0.00  0.00     0.053 C 
ATOM      9  C   UNL d   1      -2.032   0.835   1.581  0.00  0.00     0.018 C 
ENDBRANCH   1   8
TORSDOF 1
ENDMDL
