MODEL 1
REMARK minimizedAffinity 14.0096149
REMARK minimizedRMSD -1
REMARK  1 active torsions:
REMARK  status: ('A' for Active; 'I' for Inactive)
REMARK    1  A    between atoms: C1_2  and  C2_3 
ROOT
ATOM      1  C2  UNL d   1       1.359   1.052   1.788  0.00  0.00    -0.073 A 
ATOM      2  C3  UNL d   1       2.663   1.487   2.048  0.00  0.00    -0.002 A 
ATOM      3  C4  UNL d   1       3.658   1.351   1.079  0.00  0.00     0.004 A 
ATOM      4  C5  UNL d   1       3.358   0.786  -0.160  0.00  0.00    -0.004 A 
ATOM      5  C6  UNL d   1       2.058   0.356  -0.443  0.00  0.00    -0.075 A 
ATOM      6  C7  UNL d   1       1.719  -0.256  -1.771  0.00  0.00     0.076 C 
ATOM      7  C8  UNL d   1       1.065   0.494   0.536  0.00  0.00     0.001 A 
ENDROOT
BRANCH   1   8
ATOM      8  C1  UNL d   1       0.280   1.202   2.829  0.00  0.00     0.053 C 
ATOM      9  C   UNL d   1      -1.033   1.676   2.225  0.00  0.00     0.018 C 
ENDBRANCH   1   8
TORSDOF 1
ENDMDL
