MODEL 1
REMARK minimizedAffinity 13.9450979
REMARK minimizedRMSD -1
REMARK  1 active torsions:
REMARK  status: ('A' for Active; 'I' for Inactive)
REMARK    1  A    between atoms: C1_2  and  C2_3 
ROOT
ATOM      1  C2  UNL d   1      -0.022   5.880  -2.351  0.00  0.00    -0.073 A 
ATOM      2  C3  UNL d   1       1.282   5.907  -2.858  0.00  0.00    -0.002 A 
ATOM      3  C4  UNL d   1       2.374   5.969  -1.991  0.00  0.00     0.004 A 
ATOM      4  C5  UNL d   1       2.174   5.999  -0.611  0.00  0.00    -0.004 A 
ATOM      5  C6  UNL d   1       0.878   5.962  -0.085  0.00  0.00    -0.075 A 
ATOM      6  C7  UNL d   1       0.646   5.996   1.397  0.00  0.00     0.076 C 
ATOM      7  C8  UNL d   1      -0.213   5.902  -0.962  0.00  0.00     0.001 A 
ENDROOT
BRANCH   1   8
ATOM      8  C1  UNL d   1      -1.204   5.806  -3.283  0.00  0.00     0.053 C 
ATOM      9  C   UNL d   1      -1.437   4.394  -3.796  0.00  0.00     0.018 C 
ENDBRANCH   1   8
TORSDOF 1
ENDMDL
