MODEL 1
REMARK minimizedAffinity 16.9886627
REMARK minimizedRMSD -1
REMARK  1 active torsions:
REMARK  status: ('A' for Active; 'I' for Inactive)
REMARK    1  A    between atoms: C1_2  and  C2_3 
ROOT
ATOM      1  C2  UNL d   1       3.037   0.487  -0.921  0.00  0.00    -0.073 A 
ATOM      2  C3  UNL d   1       2.787   1.376  -1.972  0.00  0.00    -0.002 A 
ATOM      3  C4  UNL d   1       1.740   1.139  -2.862  0.00  0.00     0.004 A 
ATOM      4  C5  UNL d   1       0.927   0.016  -2.707  0.00  0.00    -0.004 A 
ATOM      5  C6  UNL d   1       1.153  -0.878  -1.656  0.00  0.00    -0.075 A 
ATOM      6  C7  UNL d   1       0.289  -2.092  -1.476  0.00  0.00     0.076 C 
ATOM      7  C8  UNL d   1       2.209  -0.634  -0.767  0.00  0.00     0.001 A 
ENDROOT
BRANCH   1   8
ATOM      8  C1  UNL d   1       4.163   0.742   0.047  0.00  0.00     0.053 C 
ATOM      9  C   UNL d   1       5.517   0.757  -0.644  0.00  0.00     0.018 C 
ENDBRANCH   1   8
TORSDOF 1
ENDMDL
