MODEL 1
REMARK minimizedAffinity -0.496448547
REMARK minimizedRMSD -1
REMARK  0 active torsions:
REMARK  status: ('A' for Active; 'I' for Inactive)
ROOT
ATOM      1  C   UNL d   1       2.211   2.185  -0.117  0.00  0.00    -0.002 A 
ATOM      2  C1  UNL d   1       0.914   2.156  -0.608  0.00  0.00     0.010 A 
ATOM      3  C2  UNL d   1       0.023   1.161  -0.202  0.00  0.00     0.041 A 
ATOM      4  C3  UNL d   1       0.461   0.187   0.716  0.00  0.00    -0.075 A 
ATOM      5  S   UNL d   1      -0.456  -1.125   1.356  0.00  0.00     0.015 SA
ATOM      6  C4  UNL d   1       0.853  -1.678   2.298  0.00  0.00     0.022 A 
ATOM      7  C5  UNL d   1       1.970  -0.893   2.139  0.00  0.00     0.026 A 
ATOM      8  C6  UNL d   1       1.762   0.196   1.226  0.00  0.00    -0.082 A 
ATOM      9  C7  UNL d   1       2.643   1.217   0.794  0.00  0.00     0.045 A 
ENDROOT
TORSDOF 0
ENDMDL
