MODEL 1
REMARK minimizedAffinity 3.29491615
REMARK minimizedRMSD -1
REMARK  0 active torsions:
REMARK  status: ('A' for Active; 'I' for Inactive)
ROOT
ATOM      1  C   UNL d   1       1.404  -0.056   1.721  0.00  0.00    -0.002 A 
ATOM      2  C1  UNL d   1       0.358  -0.890   1.351  0.00  0.00     0.010 A 
ATOM      3  C2  UNL d   1       0.022  -1.997   2.132  0.00  0.00     0.041 A 
ATOM      4  C3  UNL d   1       0.761  -2.254   3.304  0.00  0.00    -0.075 A 
ATOM      5  S   UNL d   1       0.529  -3.550   4.416  0.00  0.00     0.015 SA
ATOM      6  C4  UNL d   1       1.812  -3.027   5.409  0.00  0.00     0.022 A 
ATOM      7  C5  UNL d   1       2.414  -1.893   4.919  0.00  0.00     0.026 A 
ATOM      8  C6  UNL d   1       1.818  -1.428   3.698  0.00  0.00    -0.082 A 
ATOM      9  C7  UNL d   1       2.134  -0.313   2.884  0.00  0.00     0.045 A 
ENDROOT
TORSDOF 0
ENDMDL
