MODEL 1
REMARK minimizedAffinity 3.14024043
REMARK minimizedRMSD -1
REMARK  0 active torsions:
REMARK  status: ('A' for Active; 'I' for Inactive)
ROOT
ATOM      1  C   UNL d   1       3.170  -4.184   4.385  0.00  0.00    -0.002 A 
ATOM      2  C1  UNL d   1       4.310  -3.399   4.276  0.00  0.00     0.010 A 
ATOM      3  C2  UNL d   1       4.265  -2.171   3.612  0.00  0.00     0.041 A 
ATOM      4  C3  UNL d   1       3.044  -1.741   3.056  0.00  0.00    -0.075 A 
ATOM      5  S   UNL d   1       2.752  -0.273   2.199  0.00  0.00     0.015 SA
ATOM      6  C4  UNL d   1       1.109  -0.653   1.959  0.00  0.00     0.022 A 
ATOM      7  C5  UNL d   1       0.774  -1.867   2.512  0.00  0.00     0.026 A 
ATOM      8  C6  UNL d   1       1.884  -2.513   3.154  0.00  0.00    -0.082 A 
ATOM      9  C7  UNL d   1       1.961  -3.753   3.832  0.00  0.00     0.045 A 
ENDROOT
TORSDOF 0
ENDMDL
