MODEL 1
REMARK minimizedAffinity 2.37364507
REMARK minimizedRMSD -1
REMARK  0 active torsions:
REMARK  status: ('A' for Active; 'I' for Inactive)
ROOT
ATOM      1  C   UNL d   1       0.819  -1.238   1.833  0.00  0.00    -0.002 A 
ATOM      2  C1  UNL d   1       0.673  -2.205   0.850  0.00  0.00     0.010 A 
ATOM      3  C2  UNL d   1       1.097  -3.516   1.075  0.00  0.00     0.041 A 
ATOM      4  C3  UNL d   1       1.674  -3.842   2.319  0.00  0.00    -0.075 A 
ATOM      5  S   UNL d   1       2.264  -5.383   2.819  0.00  0.00     0.015 SA
ATOM      6  C4  UNL d   1       2.723  -4.792   4.351  0.00  0.00     0.022 A 
ATOM      7  C5  UNL d   1       2.440  -3.455   4.494  0.00  0.00     0.026 A 
ATOM      8  C6  UNL d   1       1.830  -2.885   3.325  0.00  0.00    -0.082 A 
ATOM      9  C7  UNL d   1       1.391  -1.564   3.066  0.00  0.00     0.045 A 
ENDROOT
TORSDOF 0
ENDMDL
