MODEL 1
REMARK minimizedAffinity 1.58702898
REMARK minimizedRMSD -1
REMARK  0 active torsions:
REMARK  status: ('A' for Active; 'I' for Inactive)
ROOT
ATOM      1  C   UNL d   1      -3.576   2.379  -2.874  0.00  0.00    -0.002 A 
ATOM      2  C1  UNL d   1      -4.955   2.292  -2.999  0.00  0.00     0.010 A 
ATOM      3  C2  UNL d   1      -5.779   2.427  -1.881  0.00  0.00     0.041 A 
ATOM      4  C3  UNL d   1      -5.189   2.656  -0.622  0.00  0.00    -0.075 A 
ATOM      5  S   UNL d   1      -6.000   2.855   0.886  0.00  0.00     0.015 SA
ATOM      6  C4  UNL d   1      -4.534   3.061   1.732  0.00  0.00     0.022 A 
ATOM      7  C5  UNL d   1      -3.443   2.983   0.899  0.00  0.00     0.026 A 
ATOM      8  C6  UNL d   1      -3.802   2.749  -0.471  0.00  0.00    -0.082 A 
ATOM      9  C7  UNL d   1      -2.993   2.606  -1.624  0.00  0.00     0.045 A 
ENDROOT
TORSDOF 0
ENDMDL
