MODEL 1
REMARK minimizedAffinity 4.61966324
REMARK minimizedRMSD -1
REMARK  0 active torsions:
REMARK  status: ('A' for Active; 'I' for Inactive)
ROOT
ATOM      1  C   UNL d   1      -6.000   2.938  -1.424  0.00  0.00    -0.002 A 
ATOM      2  C1  UNL d   1      -4.815   2.503  -2.000  0.00  0.00     0.010 A 
ATOM      3  C2  UNL d   1      -3.607   2.606  -1.306  0.00  0.00     0.041 A 
ATOM      4  C3  UNL d   1      -3.612   3.158  -0.009  0.00  0.00    -0.075 A 
ATOM      5  S   UNL d   1      -2.254   3.383   1.029  0.00  0.00     0.015 SA
ATOM      6  C4  UNL d   1      -3.215   4.061   2.262  0.00  0.00     0.022 A 
ATOM      7  C5  UNL d   1      -4.542   4.122   1.907  0.00  0.00     0.026 A 
ATOM      8  C6  UNL d   1      -4.793   3.602   0.592  0.00  0.00    -0.082 A 
ATOM      9  C7  UNL d   1      -6.000   3.485  -0.138  0.00  0.00     0.045 A 
ENDROOT
TORSDOF 0
ENDMDL
