MODEL 1
REMARK minimizedAffinity 0.547475755
REMARK minimizedRMSD -1
REMARK  2 active torsions:
REMARK  status: ('A' for Active; 'I' for Inactive)
REMARK    1  A    between atoms: C2'_3  and  C1'_4 
REMARK    2  A    between atoms: C1'_4  and  C1_5 
ROOT
ATOM      1  C1  I4B d   1       5.828   1.729   4.212  0.00  0.00    -0.075 A 
ATOM      2  C2  I4B d   1       5.548   1.363   5.505  0.00  0.00     0.003 A 
ATOM      3  C3  I4B d   1       5.359  -0.001   5.834  0.00  0.00     0.002 A 
ATOM      4  C4  I4B d   1       5.409  -0.954   4.837  0.00  0.00    -0.004 A 
ATOM      5  C5  I4B d   1       5.715  -0.583   3.531  0.00  0.00     0.002 A 
ATOM      6  C6  I4B d   1       5.938   0.765   3.218  0.00  0.00     0.003 A 
ENDROOT
BRANCH   1   7
ATOM      7  C1' I4B d   1       5.989   3.182   3.893  0.00  0.00     0.060 C 
BRANCH   7   8
ATOM      8  C2' I4B d   1       5.144   3.489   2.673  0.00  0.00    -0.013 C 
ATOM      9  C4' I4B d   1       3.809   4.065   3.065  0.00  0.00     0.013 C 
ATOM     10  C3' I4B d   1       5.912   4.441   1.807  0.00  0.00     0.013 C 
ENDBRANCH   7   8
ENDBRANCH   1   7
TORSDOF 2
ENDMDL
