MODEL 1
REMARK minimizedAffinity -0.263916165
REMARK minimizedRMSD -1
REMARK  2 active torsions:
REMARK  status: ('A' for Active; 'I' for Inactive)
REMARK    1  A    between atoms: C2'_3  and  C1'_4 
REMARK    2  A    between atoms: C1'_4  and  C1_5 
ROOT
ATOM      1  C1  I4B d   1       5.987   2.527   4.110  0.00  0.00    -0.075 A 
ATOM      2  C2  I4B d   1       5.991   1.851   5.304  0.00  0.00     0.003 A 
ATOM      3  C3  I4B d   1       5.950   0.435   5.322  0.00  0.00     0.002 A 
ATOM      4  C4  I4B d   1       5.854  -0.257   4.132  0.00  0.00    -0.004 A 
ATOM      5  C5  I4B d   1       5.872   0.429   2.922  0.00  0.00     0.002 A 
ATOM      6  C6  I4B d   1       5.952   1.829   2.909  0.00  0.00     0.003 A 
ENDROOT
BRANCH   1   7
ATOM      7  C1' I4B d   1       5.999   4.023   4.128  0.00  0.00     0.060 C 
BRANCH   7   8
ATOM      8  C2' I4B d   1       4.838   4.509   3.284  0.00  0.00    -0.013 C 
ATOM      9  C4' I4B d   1       4.434   5.908   3.667  0.00  0.00     0.013 C 
ATOM     10  C3' I4B d   1       5.253   4.440   1.844  0.00  0.00     0.013 C 
ENDBRANCH   7   8
ENDBRANCH   1   7
TORSDOF 2
ENDMDL
