MODEL 1
REMARK minimizedAffinity 16.648653
REMARK minimizedRMSD -1
REMARK  2 active torsions:
REMARK  status: ('A' for Active; 'I' for Inactive)
REMARK    1  A    between atoms: C2'_3  and  C1'_4 
REMARK    2  A    between atoms: C1'_4  and  C1_5 
ROOT
ATOM      1  C1  I4B d   1      -1.838   1.954   2.700  0.00  0.00    -0.075 A 
ATOM      2  C2  I4B d   1      -1.165   3.081   3.100  0.00  0.00     0.003 A 
ATOM      3  C3  I4B d   1      -0.619   3.965   2.139  0.00  0.00     0.002 A 
ATOM      4  C4  I4B d   1      -0.724   3.659   0.797  0.00  0.00    -0.004 A 
ATOM      5  C5  I4B d   1      -1.426   2.528   0.392  0.00  0.00     0.002 A 
ATOM      6  C6  I4B d   1      -1.997   1.676   1.348  0.00  0.00     0.003 A 
ENDROOT
BRANCH   1   7
ATOM      7  C1' I4B d   1      -2.373   1.025   3.743  0.00  0.00     0.060 C 
BRANCH   7   8
ATOM      8  C2' I4B d   1      -3.041  -0.136   3.035  0.00  0.00    -0.013 C 
ATOM      9  C4' I4B d   1      -2.022  -1.058   2.419  0.00  0.00     0.013 C 
ATOM     10  C3' I4B d   1      -3.892  -0.860   4.035  0.00  0.00     0.013 C 
ENDBRANCH   7   8
ENDBRANCH   1   7
TORSDOF 2
ENDMDL
