MODEL 1
REMARK minimizedAffinity 2.51298714
REMARK minimizedRMSD -1
REMARK  2 active torsions:
REMARK  status: ('A' for Active; 'I' for Inactive)
REMARK    1  A    between atoms: C2'_3  and  C1'_4 
REMARK    2  A    between atoms: C1'_4  and  C1_5 
ROOT
ATOM      1  C1  I4B d   1       5.989   0.692   3.932  0.00  0.00    -0.075 A 
ATOM      2  C2  I4B d   1       5.958   0.671   5.304  0.00  0.00     0.003 A 
ATOM      3  C3  I4B d   1       5.916  -0.562   5.998  0.00  0.00     0.002 A 
ATOM      4  C4  I4B d   1       5.856  -1.742   5.285  0.00  0.00    -0.004 A 
ATOM      5  C5  I4B d   1       5.911  -1.720   3.894  0.00  0.00     0.002 A 
ATOM      6  C6  I4B d   1       5.990  -0.497   3.213  0.00  0.00     0.003 A 
ENDROOT
BRANCH   1   7
ATOM      7  C1' I4B d   1       6.000   2.013   3.231  0.00  0.00     0.060 C 
BRANCH   7   8
ATOM      8  C2' I4B d   1       5.334   3.028   4.137  0.00  0.00    -0.013 C 
ATOM      9  C4' I4B d   1       5.999   4.375   4.028  0.00  0.00     0.013 C 
ATOM     10  C3' I4B d   1       3.885   3.107   3.758  0.00  0.00     0.013 C 
ENDBRANCH   7   8
ENDBRANCH   1   7
TORSDOF 2
ENDMDL
