MODEL 1
REMARK minimizedAffinity 9.1994133
REMARK minimizedRMSD -1
REMARK  2 active torsions:
REMARK  status: ('A' for Active; 'I' for Inactive)
REMARK    1  A    between atoms: C2'_3  and  C1'_4 
REMARK    2  A    between atoms: C1'_4  and  C1_5 
ROOT
ATOM      1  C1  I4B d   1       5.957   1.874   3.020  0.00  0.00    -0.075 A 
ATOM      2  C2  I4B d   1       5.999   2.153   4.363  0.00  0.00     0.003 A 
ATOM      3  C3  I4B d   1       5.995   3.495   4.814  0.00  0.00     0.002 A 
ATOM      4  C4  I4B d   1       5.998   4.521   3.891  0.00  0.00    -0.004 A 
ATOM      5  C5  I4B d   1       5.932   4.238   2.530  0.00  0.00     0.002 A 
ATOM      6  C6  I4B d   1       5.899   2.906   2.091  0.00  0.00     0.003 A 
ENDROOT
BRANCH   1   7
ATOM      7  C1' I4B d   1       5.996   0.446   2.578  0.00  0.00     0.060 C 
BRANCH   7   8
ATOM      8  C2' I4B d   1       4.985  -0.325   3.401  0.00  0.00    -0.013 C 
ATOM      9  C4' I4B d   1       4.834  -1.736   2.897  0.00  0.00     0.013 C 
ATOM     10  C3' I4B d   1       5.440  -0.307   4.830  0.00  0.00     0.013 C 
ENDBRANCH   7   8
ENDBRANCH   1   7
TORSDOF 2
ENDMDL
