MODEL 1
REMARK minimizedAffinity -2.39806604
REMARK minimizedRMSD -1
REMARK  2 active torsions:
REMARK  status: ('A' for Active; 'I' for Inactive)
REMARK    1  A    between atoms: C2'_3  and  C1'_4 
REMARK    2  A    between atoms: C1'_4  and  C1_5 
ROOT
ATOM      1  C1  I4B d   1       5.940   1.087   4.716  0.00  0.00    -0.075 A 
ATOM      2  C2  I4B d   1       5.859   2.119   5.617  0.00  0.00     0.003 A 
ATOM      3  C3  I4B d   1       5.832   3.460   5.165  0.00  0.00     0.002 A 
ATOM      4  C4  I4B d   1       5.940   3.724   3.814  0.00  0.00    -0.004 A 
ATOM      5  C5  I4B d   1       5.999   2.676   2.900  0.00  0.00     0.002 A 
ATOM      6  C6  I4B d   1       5.987   1.348   3.352  0.00  0.00     0.003 A 
ENDROOT
BRANCH   1   7
ATOM      7  C1' I4B d   1       5.999  -0.317   5.230  0.00  0.00     0.060 C 
BRANCH   7   8
ATOM      8  C2' I4B d   1       5.302  -1.212   4.225  0.00  0.00    -0.013 C 
ATOM      9  C4' I4B d   1       6.000  -1.180   2.891  0.00  0.00     0.013 C 
ATOM     10  C3' I4B d   1       5.270  -2.602   4.787  0.00  0.00     0.013 C 
ENDBRANCH   7   8
ENDBRANCH   1   7
TORSDOF 2
ENDMDL
