MODEL 1
REMARK minimizedAffinity 0.866300702
REMARK minimizedRMSD -1
REMARK  2 active torsions:
REMARK  status: ('A' for Active; 'I' for Inactive)
REMARK    1  A    between atoms: C2'_3  and  C1'_4 
REMARK    2  A    between atoms: C1'_4  and  C1_5 
ROOT
ATOM      1  C1  I4B d   1       5.952   2.133   4.242  0.00  0.00    -0.075 A 
ATOM      2  C2  I4B d   1       5.932   1.825   5.579  0.00  0.00     0.003 A 
ATOM      3  C3  I4B d   1       5.856   0.474   5.998  0.00  0.00     0.002 A 
ATOM      4  C4  I4B d   1       5.750  -0.526   5.053  0.00  0.00    -0.004 A 
ATOM      5  C5  I4B d   1       5.793  -0.212   3.697  0.00  0.00     0.002 A 
ATOM      6  C6  I4B d   1       5.907   1.124   3.289  0.00  0.00     0.003 A 
ENDROOT
BRANCH   1   7
ATOM      7  C1' I4B d   1       6.000   3.572   3.835  0.00  0.00     0.060 C 
BRANCH   7   8
ATOM      8  C2' I4B d   1       5.598   4.409   5.032  0.00  0.00    -0.013 C 
ATOM      9  C4' I4B d   1       5.991   5.851   4.845  0.00  0.00     0.013 C 
ATOM     10  C3' I4B d   1       4.116   4.272   5.217  0.00  0.00     0.013 C 
ENDBRANCH   7   8
ENDBRANCH   1   7
TORSDOF 2
ENDMDL
