MODEL 1
REMARK minimizedAffinity 1.71003199
REMARK minimizedRMSD -1
REMARK  2 active torsions:
REMARK  status: ('A' for Active; 'I' for Inactive)
REMARK    1  A    between atoms: C2'_3  and  C1'_4 
REMARK    2  A    between atoms: C1'_4  and  C1_5 
ROOT
ATOM      1  C1  I4B d   1       5.884  -0.256   4.807  0.00  0.00    -0.075 A 
ATOM      2  C2  I4B d   1       5.867   1.015   5.325  0.00  0.00     0.003 A 
ATOM      3  C3  I4B d   1       5.896   2.137   4.461  0.00  0.00     0.002 A 
ATOM      4  C4  I4B d   1       5.990   1.943   3.098  0.00  0.00    -0.004 A 
ATOM      5  C5  I4B d   1       5.984   0.654   2.574  0.00  0.00     0.002 A 
ATOM      6  C6  I4B d   1       5.918  -0.453   3.433  0.00  0.00     0.003 A 
ENDROOT
BRANCH   1   7
ATOM      7  C1' I4B d   1       5.887  -1.418   5.749  0.00  0.00     0.060 C 
BRANCH   7   8
ATOM      8  C2' I4B d   1       5.999  -2.685   4.926  0.00  0.00    -0.013 C 
ATOM      9  C4' I4B d   1       5.775  -3.909   5.776  0.00  0.00     0.013 C 
ATOM     10  C3' I4B d   1       4.995  -2.607   3.815  0.00  0.00     0.013 C 
ENDBRANCH   7   8
ENDBRANCH   1   7
TORSDOF 2
ENDMDL
