MODEL 1
REMARK minimizedAffinity -0.357326329
REMARK minimizedRMSD -1
REMARK  2 active torsions:
REMARK  status: ('A' for Active; 'I' for Inactive)
REMARK    1  A    between atoms: C2'_3  and  C1'_4 
REMARK    2  A    between atoms: C1'_4  and  C1_5 
ROOT
ATOM      1  C1  I4B d   1       5.828   0.690   4.002  0.00  0.00    -0.075 A 
ATOM      2  C2  I4B d   1       5.994  -0.459   3.269  0.00  0.00     0.003 A 
ATOM      3  C3  I4B d   1       5.911  -1.724   3.899  0.00  0.00     0.002 A 
ATOM      4  C4  I4B d   1       5.712  -1.793   5.262  0.00  0.00    -0.004 A 
ATOM      5  C5  I4B d   1       5.520  -0.628   6.000  0.00  0.00     0.002 A 
ATOM      6  C6  I4B d   1       5.566   0.621   5.364  0.00  0.00     0.003 A 
ENDROOT
BRANCH   1   7
ATOM      7  C1' I4B d   1       5.954   2.010   3.311  0.00  0.00     0.060 C 
BRANCH   7   8
ATOM      8  C2' I4B d   1       5.417   3.078   4.242  0.00  0.00    -0.013 C 
ATOM      9  C4' I4B d   1       5.993   4.430   3.911  0.00  0.00     0.013 C 
ATOM     10  C3' I4B d   1       3.922   3.083   4.126  0.00  0.00     0.013 C 
ENDBRANCH   7   8
ENDBRANCH   1   7
TORSDOF 2
ENDMDL
