MODEL 1
REMARK minimizedAffinity -1.82414186
REMARK minimizedRMSD -1
REMARK  2 active torsions:
REMARK  status: ('A' for Active; 'I' for Inactive)
REMARK    1  A    between atoms: C2'_3  and  C1'_4 
REMARK    2  A    between atoms: C1'_4  and  C1_5 
ROOT
ATOM      1  C1  I4B d   1       5.785   1.328   3.887  0.00  0.00    -0.075 A 
ATOM      2  C2  I4B d   1       5.999   1.338   5.243  0.00  0.00     0.003 A 
ATOM      3  C3  I4B d   1       5.837   0.151   5.999  0.00  0.00     0.002 A 
ATOM      4  C4  I4B d   1       5.415  -1.002   5.371  0.00  0.00    -0.004 A 
ATOM      5  C5  I4B d   1       5.221  -1.017   3.993  0.00  0.00     0.002 A 
ATOM      6  C6  I4B d   1       5.419   0.152   3.244  0.00  0.00     0.003 A 
ENDROOT
BRANCH   1   7
ATOM      7  C1' I4B d   1       5.933   2.606   3.125  0.00  0.00     0.060 C 
BRANCH   7   8
ATOM      8  C2' I4B d   1       5.517   3.743   4.035  0.00  0.00    -0.013 C 
ATOM      9  C4' I4B d   1       5.940   5.075   3.473  0.00  0.00     0.013 C 
ATOM     10  C3' I4B d   1       4.029   3.677   4.209  0.00  0.00     0.013 C 
ENDBRANCH   7   8
ENDBRANCH   1   7
TORSDOF 2
ENDMDL
