MODEL 1
REMARK minimizedAffinity 4.9498415
REMARK minimizedRMSD -1
REMARK  2 active torsions:
REMARK  status: ('A' for Active; 'I' for Inactive)
REMARK    1  A    between atoms: C2'_3  and  C1'_4 
REMARK    2  A    between atoms: C1'_4  and  C1_5 
ROOT
ATOM      1  C1  I4B d   1       3.962   4.091   0.572  0.00  0.00    -0.075 A 
ATOM      2  C2  I4B d   1       4.275   4.101   1.908  0.00  0.00     0.003 A 
ATOM      3  C3  I4B d   1       5.154   5.082   2.428  0.00  0.00     0.002 A 
ATOM      4  C4  I4B d   1       5.733   5.997   1.572  0.00  0.00    -0.004 A 
ATOM      5  C5  I4B d   1       5.397   6.000   0.222  0.00  0.00     0.002 A 
ATOM      6  C6  I4B d   1       4.497   5.049  -0.280  0.00  0.00     0.003 A 
ENDROOT
BRANCH   1   7
ATOM      7  C1' I4B d   1       3.056   3.021   0.051  0.00  0.00     0.060 C 
BRANCH   7   8
ATOM      8  C2' I4B d   1       3.908   2.006  -0.684  0.00  0.00    -0.013 C 
ATOM      9  C4' I4B d   1       3.498   0.598  -0.339  0.00  0.00     0.013 C 
ATOM     10  C3' I4B d   1       3.770   2.265  -2.155  0.00  0.00     0.013 C 
ENDBRANCH   7   8
ENDBRANCH   1   7
TORSDOF 2
ENDMDL
