MODEL 1
REMARK minimizedAffinity 3.27249479
REMARK minimizedRMSD -1
REMARK  2 active torsions:
REMARK  status: ('A' for Active; 'I' for Inactive)
REMARK    1  A    between atoms: C2'_3  and  C1'_4 
REMARK    2  A    between atoms: C1'_4  and  C1_5 
ROOT
ATOM      1  C1  I4B d   1       5.771   0.640   3.553  0.00  0.00    -0.075 A 
ATOM      2  C2  I4B d   1       5.769   1.209   4.803  0.00  0.00     0.003 A 
ATOM      3  C3  I4B d   1       5.843   0.393   5.957  0.00  0.00     0.002 A 
ATOM      4  C4  I4B d   1       5.866  -0.980   5.819  0.00  0.00    -0.004 A 
ATOM      5  C5  I4B d   1       5.891  -1.554   4.552  0.00  0.00     0.002 A 
ATOM      6  C6  I4B d   1       5.856  -0.738   3.411  0.00  0.00     0.003 A 
ENDROOT
BRANCH   1   7
ATOM      7  C1' I4B d   1       5.659   1.530   2.356  0.00  0.00     0.060 C 
BRANCH   7   8
ATOM      8  C2' I4B d   1       5.068   2.850   2.809  0.00  0.00    -0.013 C 
ATOM      9  C4' I4B d   1       5.969   4.002   2.451  0.00  0.00     0.013 C 
ATOM     10  C3' I4B d   1       3.720   2.998   2.168  0.00  0.00     0.013 C 
ENDBRANCH   7   8
ENDBRANCH   1   7
TORSDOF 2
ENDMDL
