MODEL 1
REMARK minimizedAffinity -1.82911658
REMARK minimizedRMSD -1
REMARK  2 active torsions:
REMARK  status: ('A' for Active; 'I' for Inactive)
REMARK    1  A    between atoms: C2'_3  and  C1'_4 
REMARK    2  A    between atoms: C1'_4  and  C1_5 
ROOT
ATOM      1  C1  I4B d   1       5.212   1.646   4.429  0.00  0.00    -0.075 A 
ATOM      2  C2  I4B d   1       5.503   1.048   5.630  0.00  0.00     0.003 A 
ATOM      3  C3  I4B d   1       5.829  -0.328   5.681  0.00  0.00     0.002 A 
ATOM      4  C4  I4B d   1       5.804  -1.076   4.521  0.00  0.00    -0.004 A 
ATOM      5  C5  I4B d   1       5.531  -0.463   3.301  0.00  0.00     0.002 A 
ATOM      6  C6  I4B d   1       5.245   0.909   3.253  0.00  0.00     0.003 A 
ENDROOT
BRANCH   1   7
ATOM      7  C1' I4B d   1       4.840   3.095   4.417  0.00  0.00     0.060 C 
BRANCH   7   8
ATOM      8  C2' I4B d   1       5.998   3.870   3.821  0.00  0.00    -0.013 C 
ATOM      9  C4' I4B d   1       5.972   3.817   2.316  0.00  0.00     0.013 C 
ATOM     10  C3' I4B d   1       5.912   5.283   4.315  0.00  0.00     0.013 C 
ENDBRANCH   7   8
ENDBRANCH   1   7
TORSDOF 2
ENDMDL
