MODEL 1
REMARK minimizedAffinity -0.890823364
REMARK minimizedRMSD -1
REMARK  2 active torsions:
REMARK  status: ('A' for Active; 'I' for Inactive)
REMARK    1  A    between atoms: C2'_3  and  C1'_4 
REMARK    2  A    between atoms: C1'_4  and  C1_5 
ROOT
ATOM      1  C1  I4B d   1       5.334   1.437   4.596  0.00  0.00    -0.075 A 
ATOM      2  C2  I4B d   1       5.453   1.961   3.333  0.00  0.00     0.003 A 
ATOM      3  C3  I4B d   1       5.816   3.318   3.155  0.00  0.00     0.002 A 
ATOM      4  C4  I4B d   1       6.000   4.122   4.261  0.00  0.00    -0.004 A 
ATOM      5  C5  I4B d   1       5.901   3.584   5.541  0.00  0.00     0.002 A 
ATOM      6  C6  I4B d   1       5.578   2.230   5.710  0.00  0.00     0.003 A 
ENDROOT
BRANCH   1   7
ATOM      7  C1' I4B d   1       4.917   0.008   4.748  0.00  0.00     0.060 C 
BRANCH   7   8
ATOM      8  C2' I4B d   1       6.000  -0.861   4.140  0.00  0.00    -0.013 C 
ATOM      9  C4' I4B d   1       5.798  -2.310   4.495  0.00  0.00     0.013 C 
ATOM     10  C3' I4B d   1       5.976  -0.659   2.654  0.00  0.00     0.013 C 
ENDBRANCH   7   8
ENDBRANCH   1   7
TORSDOF 2
ENDMDL
