MODEL 1
REMARK minimizedAffinity 0.921505511
REMARK minimizedRMSD -1
REMARK  2 active torsions:
REMARK  status: ('A' for Active; 'I' for Inactive)
REMARK    1  A    between atoms: C2'_3  and  C1'_4 
REMARK    2  A    between atoms: C1'_4  and  C1_5 
ROOT
ATOM      1  C1  I4B d   1       5.845   1.951   3.997  0.00  0.00    -0.075 A 
ATOM      2  C2  I4B d   1       5.927   1.045   2.969  0.00  0.00     0.003 A 
ATOM      3  C3  I4B d   1       5.826  -0.342   3.232  0.00  0.00     0.002 A 
ATOM      4  C4  I4B d   1       5.693  -0.779   4.534  0.00  0.00    -0.004 A 
ATOM      5  C5  I4B d   1       5.587   0.141   5.572  0.00  0.00     0.002 A 
ATOM      6  C6  I4B d   1       5.650   1.516   5.301  0.00  0.00     0.003 A 
ENDROOT
BRANCH   1   7
ATOM      7  C1' I4B d   1       5.989   3.408   3.687  0.00  0.00     0.060 C 
BRANCH   7   8
ATOM      8  C2' I4B d   1       5.550   4.190   4.908  0.00  0.00    -0.013 C 
ATOM      9  C4' I4B d   1       6.000   5.625   4.827  0.00  0.00     0.013 C 
ATOM     10  C3' I4B d   1       4.056   4.096   5.005  0.00  0.00     0.013 C 
ENDBRANCH   7   8
ENDBRANCH   1   7
TORSDOF 2
ENDMDL
