MODEL 1
REMARK minimizedAffinity 0.682179451
REMARK minimizedRMSD -1
REMARK  2 active torsions:
REMARK  status: ('A' for Active; 'I' for Inactive)
REMARK    1  A    between atoms: C2'_3  and  C1'_4 
REMARK    2  A    between atoms: C1'_4  and  C1_5 
ROOT
ATOM      1  C1  I4B d   1       5.950   2.156   4.862  0.00  0.00    -0.075 A 
ATOM      2  C2  I4B d   1       5.903   3.420   5.394  0.00  0.00     0.003 A 
ATOM      3  C3  I4B d   1       5.889   4.552   4.544  0.00  0.00     0.002 A 
ATOM      4  C4  I4B d   1       5.975   4.376   3.178  0.00  0.00    -0.004 A 
ATOM      5  C5  I4B d   1       6.000   3.093   2.638  0.00  0.00     0.002 A 
ATOM      6  C6  I4B d   1       5.974   1.975   3.485  0.00  0.00     0.003 A 
ENDROOT
BRANCH   1   7
ATOM      7  C1' I4B d   1       5.996   0.984   5.790  0.00  0.00     0.060 C 
BRANCH   7   8
ATOM      8  C2' I4B d   1       5.942  -0.278   4.952  0.00  0.00    -0.013 C 
ATOM      9  C4' I4B d   1       6.000  -1.509   5.817  0.00  0.00     0.013 C 
ATOM     10  C3' I4B d   1       4.680  -0.243   4.143  0.00  0.00     0.013 C 
ENDBRANCH   7   8
ENDBRANCH   1   7
TORSDOF 2
ENDMDL
