MODEL 1
REMARK minimizedAffinity -5.61688662
REMARK minimizedRMSD -1
REMARK  3 active torsions:
REMARK  status: ('A' for Active; 'I' for Inactive)
REMARK    1  A    between atoms: C3'_2  and  C2'_3 
REMARK    2  A    between atoms: C2'_3  and  C1'_4 
REMARK    3  A    between atoms: C1'_4  and  C1_5 
ROOT
ATOM      1  C1  N4B d   1       0.585   0.360   0.264  0.00  0.00    -0.075 A 
ATOM      2  C2  N4B d   1       0.594  -1.020   0.560  0.00  0.00     0.002 A 
ATOM      3  C3  N4B d   1       1.714  -1.599   1.104  0.00  0.00     0.002 A 
ATOM      4  C4  N4B d   1       2.839  -0.824   1.342  0.00  0.00    -0.004 A 
ATOM      5  C5  N4B d   1       2.814   0.514   1.077  0.00  0.00     0.002 A 
ATOM      6  C6  N4B d   1       1.693   1.110   0.534  0.00  0.00     0.002 A 
ENDROOT
BRANCH   1   7
ATOM      7  C1' N4B d   1      -0.586   1.020  -0.411  0.00  0.00     0.057 C 
BRANCH   7   8
ATOM      8  C2' N4B d   1      -1.659  -0.028  -0.691  0.00  0.00     0.009 C 
BRANCH   8   9
ATOM      9  C3' N4B d   1      -2.359   0.215  -2.017  0.00  0.00     0.004 C 
ATOM     10  C4' N4B d   1      -2.391  -1.004  -2.889  0.00  0.00     0.003 C 
ENDBRANCH   8   9
ENDBRANCH   7   8
ENDBRANCH   1   7
TORSDOF 3
ENDMDL
