MODEL 1
REMARK minimizedAffinity -6.46020985
REMARK minimizedRMSD -1
REMARK  3 active torsions:
REMARK  status: ('A' for Active; 'I' for Inactive)
REMARK    1  A    between atoms: C3'_2  and  C2'_3 
REMARK    2  A    between atoms: C2'_3  and  C1'_4 
REMARK    3  A    between atoms: C1'_4  and  C1_5 
ROOT
ATOM      1  C1  N4B d   1       0.986  -0.074   0.285  0.00  0.00    -0.075 A 
ATOM      2  C2  N4B d   1       2.344   0.312   0.313  0.00  0.00     0.002 A 
ATOM      3  C3  N4B d   1       3.258  -0.439   1.010  0.00  0.00     0.002 A 
ATOM      4  C4  N4B d   1       2.836  -1.565   1.701  0.00  0.00    -0.004 A 
ATOM      5  C5  N4B d   1       1.527  -1.946   1.649  0.00  0.00     0.002 A 
ATOM      6  C6  N4B d   1       0.598  -1.203   0.948  0.00  0.00     0.002 A 
ENDROOT
BRANCH   1   7
ATOM      7  C1' N4B d   1      -0.065   0.762  -0.393  0.00  0.00     0.057 C 
BRANCH   7   8
ATOM      8  C2' N4B d   1      -1.440   0.161  -0.115  0.00  0.00     0.009 C 
BRANCH   8   9
ATOM      9  C3' N4B d   1      -2.420   0.441  -1.241  0.00  0.00     0.004 C 
ATOM     10  C4' N4B d   1      -1.957  -0.099  -2.561  0.00  0.00     0.003 C 
ENDBRANCH   8   9
ENDBRANCH   7   8
ENDBRANCH   1   7
TORSDOF 3
ENDMDL
