MODEL 1
REMARK minimizedAffinity -6.04991913
REMARK minimizedRMSD -1
REMARK  3 active torsions:
REMARK  status: ('A' for Active; 'I' for Inactive)
REMARK    1  A    between atoms: C3'_2  and  C2'_3 
REMARK    2  A    between atoms: C2'_3  and  C1'_4 
REMARK    3  A    between atoms: C1'_4  and  C1_5 
ROOT
ATOM      1  C1  N4B d   1       0.635  -0.032   0.369  0.00  0.00    -0.075 A 
ATOM      2  C2  N4B d   1       0.347  -1.307   0.904  0.00  0.00     0.002 A 
ATOM      3  C3  N4B d   1       1.318  -2.004   1.580  0.00  0.00     0.002 A 
ATOM      4  C4  N4B d   1       2.585  -1.456   1.716  0.00  0.00    -0.004 A 
ATOM      5  C5  N4B d   1       2.848  -0.214   1.219  0.00  0.00     0.002 A 
ATOM      6  C6  N4B d   1       1.880   0.500   0.541  0.00  0.00     0.002 A 
ENDROOT
BRANCH   1   7
ATOM      7  C1' N4B d   1      -0.369   0.731  -0.451  0.00  0.00     0.057 C 
BRANCH   7   8
ATOM      8  C2' N4B d   1      -1.492  -0.212  -0.872  0.00  0.00     0.009 C 
BRANCH   8   9
ATOM      9  C3' N4B d   1      -2.256   0.315  -2.074  0.00  0.00     0.004 C 
ATOM     10  C4' N4B d   1      -2.389  -0.701  -3.169  0.00  0.00     0.003 C 
ENDBRANCH   8   9
ENDBRANCH   7   8
ENDBRANCH   1   7
TORSDOF 3
ENDMDL
