MODEL 1
REMARK minimizedAffinity -4.80025244
REMARK minimizedRMSD -1
REMARK  3 active torsions:
REMARK  status: ('A' for Active; 'I' for Inactive)
REMARK    1  A    between atoms: C3'_2  and  C2'_3 
REMARK    2  A    between atoms: C2'_3  and  C1'_4 
REMARK    3  A    between atoms: C1'_4  and  C1_5 
ROOT
ATOM      1  C1  N4B d   1       0.879  -1.425   0.783  0.00  0.00    -0.075 A 
ATOM      2  C2  N4B d   1       2.018  -0.667   0.434  0.00  0.00     0.002 A 
ATOM      3  C3  N4B d   1       3.165  -0.768   1.182  0.00  0.00     0.002 A 
ATOM      4  C4  N4B d   1       3.191  -1.602   2.290  0.00  0.00    -0.004 A 
ATOM      5  C5  N4B d   1       2.094  -2.350   2.606  0.00  0.00     0.002 A 
ATOM      6  C6  N4B d   1       0.936  -2.262   1.860  0.00  0.00     0.002 A 
ENDROOT
BRANCH   1   7
ATOM      7  C1' N4B d   1      -0.425  -1.284   0.047  0.00  0.00     0.057 C 
BRANCH   7   8
ATOM      8  C2' N4B d   1      -0.597   0.167  -0.393  0.00  0.00     0.009 C 
BRANCH   8   9
ATOM      9  C3' N4B d   1      -1.095   1.049   0.739  0.00  0.00     0.004 C 
ATOM     10  C4' N4B d   1      -0.137   2.150   1.081  0.00  0.00     0.003 C 
ENDBRANCH   8   9
ENDBRANCH   7   8
ENDBRANCH   1   7
TORSDOF 3
ENDMDL
