MODEL 1
REMARK minimizedAffinity -5.20666504
REMARK minimizedRMSD -1
REMARK  3 active torsions:
REMARK  status: ('A' for Active; 'I' for Inactive)
REMARK    1  A    between atoms: C3'_2  and  C2'_3 
REMARK    2  A    between atoms: C2'_3  and  C1'_4 
REMARK    3  A    between atoms: C1'_4  and  C1_5 
ROOT
ATOM      1  C1  N4B d   1      -2.077  -0.256  -1.306  0.00  0.00    -0.075 A 
ATOM      2  C2  N4B d   1      -2.143  -1.393  -2.141  0.00  0.00     0.002 A 
ATOM      3  C3  N4B d   1      -2.885  -1.355  -3.296  0.00  0.00     0.002 A 
ATOM      4  C4  N4B d   1      -3.581  -0.202  -3.626  0.00  0.00    -0.004 A 
ATOM      5  C5  N4B d   1      -3.492   0.900  -2.827  0.00  0.00     0.002 A 
ATOM      6  C6  N4B d   1      -2.747   0.877  -1.665  0.00  0.00     0.002 A 
ENDROOT
BRANCH   1   7
ATOM      7  C1' N4B d   1      -1.348  -0.279   0.010  0.00  0.00     0.057 C 
BRANCH   7   8
ATOM      8  C2' N4B d   1      -0.264   0.795   0.000  0.00  0.00     0.009 C 
BRANCH   8   9
ATOM      9  C3' N4B d   1       1.080   0.248   0.451  0.00  0.00     0.004 C 
ATOM     10  C4' N4B d   1       1.172  -1.243   0.325  0.00  0.00     0.003 C 
ENDBRANCH   8   9
ENDBRANCH   7   8
ENDBRANCH   1   7
TORSDOF 3
ENDMDL
