MODEL 1
REMARK minimizedAffinity 1.47027969
REMARK minimizedRMSD -1
REMARK  0 active torsions:
REMARK  status: ('A' for Active; 'I' for Inactive)
ROOT
ATOM      1  C   UNL d   1      -1.082   0.029   1.221  0.00  0.00     0.124 A 
ATOM      2  C1  UNL d   1      -0.555   1.283   0.943  0.00  0.00     0.062 A 
ATOM      3  C2  UNL d   1       0.175   1.493  -0.223  0.00  0.00     0.162 A 
ATOM      4  C3  UNL d   1       0.383   0.446  -1.121  0.00  0.00    -0.034 A 
ATOM      5  C4  UNL d   1      -0.148  -0.813  -0.834  0.00  0.00     0.162 A 
ATOM      6  C5  UNL d   1      -0.878  -1.017   0.333  0.00  0.00     0.062 A 
ATOM      7  F   UNL d   1      -1.385  -2.230   0.599  0.00  0.00    -0.097 F 
ATOM      8  F1  UNL d   1       0.033  -1.841  -1.676  0.00  0.00    -0.096 F 
ATOM      9  I   UNL d   1       1.474   0.756  -2.866  0.00  0.00    -0.060 I 
ATOM     10  F2  UNL d   1       0.671   2.715  -0.466  0.00  0.00    -0.096 F 
ATOM     11  F3  UNL d   1      -0.750   2.295   1.801  0.00  0.00    -0.097 F 
ATOM     12  F4  UNL d   1      -1.783  -0.171   2.344  0.00  0.00    -0.092 F 
ENDROOT
TORSDOF 0
ENDMDL
