MODEL 1
REMARK minimizedAffinity -1.55125177
REMARK minimizedRMSD -1
REMARK  0 active torsions:
REMARK  status: ('A' for Active; 'I' for Inactive)
ROOT
ATOM      1  C   UNL d   1      -0.442   0.296   2.087  0.00  0.00     0.124 A 
ATOM      2  C1  UNL d   1      -1.559   0.278   1.263  0.00  0.00     0.062 A 
ATOM      3  C2  UNL d   1      -1.475  -0.259  -0.019  0.00  0.00     0.162 A 
ATOM      4  C3  UNL d   1      -0.269  -0.784  -0.484  0.00  0.00    -0.034 A 
ATOM      5  C4  UNL d   1       0.850  -0.762   0.350  0.00  0.00     0.162 A 
ATOM      6  C5  UNL d   1       0.761  -0.224   1.630  0.00  0.00     0.062 A 
ATOM      7  F   UNL d   1       1.841  -0.207   2.424  0.00  0.00    -0.097 F 
ATOM      8  F1  UNL d   1       2.025  -1.258  -0.066  0.00  0.00    -0.096 F 
ATOM      9  I   UNL d   1      -0.140  -1.588  -2.399  0.00  0.00    -0.060 I 
ATOM     10  F2  UNL d   1      -2.570  -0.262  -0.793  0.00  0.00    -0.096 F 
ATOM     11  F3  UNL d   1      -2.722   0.781   1.701  0.00  0.00    -0.097 F 
ATOM     12  F4  UNL d   1      -0.525   0.814   3.319  0.00  0.00    -0.092 F 
ENDROOT
TORSDOF 0
ENDMDL
