MODEL 1
REMARK minimizedAffinity -1.87985659
REMARK minimizedRMSD -1
REMARK  0 active torsions:
REMARK  status: ('A' for Active; 'I' for Inactive)
ROOT
ATOM      1  C   UNL d   1      -0.430  -1.645  -0.433  0.00  0.00     0.124 A 
ATOM      2  C1  UNL d   1      -1.627  -0.980  -0.203  0.00  0.00     0.062 A 
ATOM      3  C2  UNL d   1      -1.724  -0.051   0.828  0.00  0.00     0.162 A 
ATOM      4  C3  UNL d   1      -0.621   0.221   1.637  0.00  0.00    -0.034 A 
ATOM      5  C4  UNL d   1       0.579  -0.453   1.400  0.00  0.00     0.162 A 
ATOM      6  C5  UNL d   1       0.671  -1.381   0.368  0.00  0.00     0.062 A 
ATOM      7  F   UNL d   1       1.828  -2.023   0.148  0.00  0.00    -0.097 F 
ATOM      8  F1  UNL d   1       1.659  -0.216   2.159  0.00  0.00    -0.096 F 
ATOM      9  I   UNL d   1      -0.762   1.610   3.180  0.00  0.00    -0.060 I 
ATOM     10  F2  UNL d   1      -2.893   0.577   1.027  0.00  0.00    -0.096 F 
ATOM     11  F3  UNL d   1      -2.693  -1.235  -0.976  0.00  0.00    -0.097 F 
ATOM     12  F4  UNL d   1      -0.340  -2.540  -1.426  0.00  0.00    -0.092 F 
ENDROOT
TORSDOF 0
ENDMDL
