MODEL 1
REMARK minimizedAffinity -2.37011886
REMARK minimizedRMSD -1
REMARK  0 active torsions:
REMARK  status: ('A' for Active; 'I' for Inactive)
ROOT
ATOM      1  C   UNL d   1      -0.108  -0.371   2.856  0.00  0.00     0.124 A 
ATOM      2  C1  UNL d   1       1.105  -0.754   2.300  0.00  0.00     0.062 A 
ATOM      3  C2  UNL d   1       1.311  -0.645   0.928  0.00  0.00     0.162 A 
ATOM      4  C3  UNL d   1       0.302  -0.151   0.101  0.00  0.00    -0.034 A 
ATOM      5  C4  UNL d   1      -0.915   0.231   0.667  0.00  0.00     0.162 A 
ATOM      6  C5  UNL d   1      -1.117   0.120   2.039  0.00  0.00     0.062 A 
ATOM      7  F   UNL d   1      -2.290   0.490   2.574  0.00  0.00    -0.097 F 
ATOM      8  F1  UNL d   1      -1.907   0.710  -0.098  0.00  0.00    -0.096 F 
ATOM      9  I   UNL d   1       0.607   0.013  -1.951  0.00  0.00    -0.060 I 
ATOM     10  F2  UNL d   1       2.494  -1.022   0.419  0.00  0.00    -0.096 F 
ATOM     11  F3  UNL d   1       2.081  -1.230   3.087  0.00  0.00    -0.097 F 
ATOM     12  F4  UNL d   1      -0.305  -0.478   4.176  0.00  0.00    -0.092 F 
ENDROOT
TORSDOF 0
ENDMDL
