MODEL 1
REMARK minimizedAffinity 2.61008883
REMARK minimizedRMSD -1
REMARK  0 active torsions:
REMARK  status: ('A' for Active; 'I' for Inactive)
ROOT
ATOM      1  C   UNL d   1      -0.285   0.215   2.214  0.00  0.00     0.124 A 
ATOM      2  C1  UNL d   1       0.792  -0.538   1.767  0.00  0.00     0.062 A 
ATOM      3  C2  UNL d   1       1.001  -0.720   0.403  0.00  0.00     0.162 A 
ATOM      4  C3  UNL d   1       0.132  -0.146  -0.525  0.00  0.00    -0.034 A 
ATOM      5  C4  UNL d   1      -0.949   0.609  -0.068  0.00  0.00     0.162 A 
ATOM      6  C5  UNL d   1      -1.154   0.788   1.296  0.00  0.00     0.062 A 
ATOM      7  F   UNL d   1      -2.196   1.515   1.726  0.00  0.00    -0.097 F 
ATOM      8  F1  UNL d   1      -1.805   1.174  -0.933  0.00  0.00    -0.096 F 
ATOM      9  I   UNL d   1       0.442  -0.416  -2.565  0.00  0.00    -0.060 I 
ATOM     10  F2  UNL d   1       2.050  -1.452  -0.000  0.00  0.00    -0.096 F 
ATOM     11  F3  UNL d   1       1.633  -1.093   2.652  0.00  0.00    -0.097 F 
ATOM     12  F4  UNL d   1      -0.485   0.387   3.527  0.00  0.00    -0.092 F 
ENDROOT
TORSDOF 0
ENDMDL
