MODEL 1
REMARK minimizedAffinity -4.9454751
REMARK minimizedRMSD -1
REMARK  0 active torsions:
REMARK  status: ('A' for Active; 'I' for Inactive)
ROOT
ATOM      1  C   UNL d   1      -0.286   0.409   3.284  0.00  0.00     0.124 A 
ATOM      2  C1  UNL d   1       0.819  -0.367   2.959  0.00  0.00     0.062 A 
ATOM      3  C2  UNL d   1       1.056  -0.729   1.637  0.00  0.00     0.162 A 
ATOM      4  C3  UNL d   1       0.187  -0.314   0.627  0.00  0.00    -0.034 A 
ATOM      5  C4  UNL d   1      -0.922   0.465   0.961  0.00  0.00     0.162 A 
ATOM      6  C5  UNL d   1      -1.155   0.824   2.285  0.00  0.00     0.062 A 
ATOM      7  F   UNL d   1      -2.222   1.573   2.597  0.00  0.00    -0.097 F 
ATOM      8  F1  UNL d   1      -1.778   0.880   0.016  0.00  0.00    -0.096 F 
ATOM      9  I   UNL d   1       0.537  -0.854  -1.352  0.00  0.00    -0.060 I 
ATOM     10  F2  UNL d   1       2.131  -1.479   1.352  0.00  0.00    -0.096 F 
ATOM     11  F3  UNL d   1       1.660  -0.770   3.923  0.00  0.00    -0.097 F 
ATOM     12  F4  UNL d   1      -0.512   0.755   4.558  0.00  0.00    -0.092 F 
ENDROOT
TORSDOF 0
ENDMDL
