MODEL 1
REMARK minimizedAffinity -2.93083382
REMARK minimizedRMSD -1
REMARK  0 active torsions:
REMARK  status: ('A' for Active; 'I' for Inactive)
ROOT
ATOM      1  C   UNL d   1      -0.109  -0.600   0.095  0.00  0.00     0.124 A 
ATOM      2  C1  UNL d   1       1.063  -0.629   0.837  0.00  0.00     0.062 A 
ATOM      3  C2  UNL d   1       1.090  -0.097   2.123  0.00  0.00     0.162 A 
ATOM      4  C3  UNL d   1      -0.059   0.467   2.676  0.00  0.00    -0.034 A 
ATOM      5  C4  UNL d   1      -1.234   0.493   1.923  0.00  0.00     0.162 A 
ATOM      6  C5  UNL d   1      -1.257  -0.039   0.638  0.00  0.00     0.062 A 
ATOM      7  F   UNL d   1      -2.390  -0.010  -0.077  0.00  0.00    -0.097 F 
ATOM      8  F1  UNL d   1      -2.358   1.028   2.424  0.00  0.00    -0.096 F 
ATOM      9  I   UNL d   1      -0.022   1.263   4.599  0.00  0.00    -0.060 I 
ATOM     10  F2  UNL d   1       2.237  -0.139   2.818  0.00  0.00    -0.096 F 
ATOM     11  F3  UNL d   1       2.173  -1.169   0.314  0.00  0.00    -0.097 F 
ATOM     12  F4  UNL d   1      -0.133  -1.111  -1.143  0.00  0.00    -0.092 F 
ENDROOT
TORSDOF 0
ENDMDL
