MODEL 1
REMARK minimizedAffinity 1.75910318
REMARK minimizedRMSD -1
REMARK  0 active torsions:
REMARK  status: ('A' for Active; 'I' for Inactive)
ROOT
ATOM      1  N1  IND d   1       5.464  -3.745   1.957  0.00  0.00    -0.196 N 
ATOM      2  C2  IND d   1       4.877  -4.915   1.564  0.00  0.00     0.054 A 
ATOM      3  C3  IND d   1       4.525  -5.650   2.643  0.00  0.00    -0.031 A 
ATOM      4  C4  IND d   1       4.726  -5.080   5.146  0.00  0.00     0.051 A 
ATOM      5  C5  IND d   1       5.230  -4.140   6.000  0.00  0.00    -0.031 A 
ATOM      6  C6  IND d   1       5.848  -2.994   5.540  0.00  0.00     0.015 A 
ATOM      7  C7  IND d   1       5.975  -2.741   4.203  0.00  0.00    -0.016 A 
ATOM      8  C8  IND d   1       5.471  -3.698   3.334  0.00  0.00    -0.047 A 
ATOM      9  C9  IND d   1       4.881  -4.882   3.794  0.00  0.00    -0.096 A 
ATOM     10  HN1 IND d   1       5.777  -3.140   1.432  0.00  0.00     0.298 HD
ENDROOT
TORSDOF 0
ENDMDL
