MODEL 1
REMARK minimizedAffinity 2.30112815
REMARK minimizedRMSD -1
REMARK  0 active torsions:
REMARK  status: ('A' for Active; 'I' for Inactive)
ROOT
ATOM      1  N1  IND d   1      -2.641  -1.421  -3.754  0.00  0.00    -0.196 N 
ATOM      2  C2  IND d   1      -1.686  -1.124  -4.686  0.00  0.00     0.054 A 
ATOM      3  C3  IND d   1      -2.186  -0.287  -5.622  0.00  0.00    -0.031 A 
ATOM      4  C4  IND d   1      -4.513   0.804  -5.765  0.00  0.00     0.051 A 
ATOM      5  C5  IND d   1      -5.740   0.809  -5.161  0.00  0.00    -0.031 A 
ATOM      6  C6  IND d   1      -6.000   0.058  -4.034  0.00  0.00     0.015 A 
ATOM      7  C7  IND d   1      -5.036  -0.721  -3.458  0.00  0.00    -0.016 A 
ATOM      8  C8  IND d   1      -3.792  -0.734  -4.072  0.00  0.00    -0.047 A 
ATOM      9  C9  IND d   1      -3.534  -0.007  -5.242  0.00  0.00    -0.096 A 
ATOM     10  HN1 IND d   1      -2.540  -1.947  -3.082  0.00  0.00     0.298 HD
ENDROOT
TORSDOF 0
ENDMDL
