MODEL 1
REMARK minimizedAffinity 0.692136645
REMARK minimizedRMSD -1
REMARK  0 active torsions:
REMARK  status: ('A' for Active; 'I' for Inactive)
ROOT
ATOM      1  N1  IND d   1      -3.098   0.957  -5.101  0.00  0.00    -0.196 N 
ATOM      2  C2  IND d   1      -4.117   1.109  -6.000  0.00  0.00     0.054 A 
ATOM      3  C3  IND d   1      -5.099   0.214  -5.753  0.00  0.00    -0.031 A 
ATOM      4  C4  IND d   1      -5.291  -1.525  -3.864  0.00  0.00     0.051 A 
ATOM      5  C5  IND d   1      -4.592  -2.062  -2.820  0.00  0.00    -0.031 A 
ATOM      6  C6  IND d   1      -3.335  -1.610  -2.474  0.00  0.00     0.015 A 
ATOM      7  C7  IND d   1      -2.732  -0.591  -3.156  0.00  0.00    -0.016 A 
ATOM      8  C8  IND d   1      -3.436  -0.047  -4.221  0.00  0.00    -0.047 A 
ATOM      9  C9  IND d   1      -4.694  -0.531  -4.603  0.00  0.00    -0.096 A 
ATOM     10  HN1 IND d   1      -2.369   1.412  -5.088  0.00  0.00     0.298 HD
ENDROOT
TORSDOF 0
ENDMDL
