MODEL 1
REMARK minimizedAffinity 5.0736866
REMARK minimizedRMSD -1
REMARK  0 active torsions:
REMARK  status: ('A' for Active; 'I' for Inactive)
ROOT
ATOM      1  N1  IND d   1      -3.263  -1.704  -4.043  0.00  0.00    -0.196 N 
ATOM      2  C2  IND d   1      -2.011  -1.589  -4.581  0.00  0.00     0.054 A 
ATOM      3  C3  IND d   1      -1.948  -0.514  -5.399  0.00  0.00    -0.031 A 
ATOM      4  C4  IND d   1      -3.746   1.252  -5.921  0.00  0.00     0.051 A 
ATOM      5  C5  IND d   1      -5.060   1.551  -5.694  0.00  0.00    -0.031 A 
ATOM      6  C6  IND d   1      -5.858   0.766  -4.887  0.00  0.00     0.015 A 
ATOM      7  C7  IND d   1      -5.365  -0.347  -4.265  0.00  0.00    -0.016 A 
ATOM      8  C8  IND d   1      -4.033  -0.657  -4.498  0.00  0.00    -0.047 A 
ATOM      9  C9  IND d   1      -3.230   0.112  -5.350  0.00  0.00    -0.096 A 
ATOM     10  HN1 IND d   1      -3.524  -2.326  -3.510  0.00  0.00     0.298 HD
ENDROOT
TORSDOF 0
ENDMDL
