MODEL 1
REMARK minimizedAffinity 7.78133631
REMARK minimizedRMSD -1
REMARK  0 active torsions:
REMARK  status: ('A' for Active; 'I' for Inactive)
ROOT
ATOM      1  N1  IND d   1      -1.328   5.751  -5.967  0.00  0.00    -0.196 N 
ATOM      2  C2  IND d   1      -0.434   4.717  -5.964  0.00  0.00     0.054 A 
ATOM      3  C3  IND d   1      -1.067   3.548  -5.717  0.00  0.00    -0.031 A 
ATOM      4  C4  IND d   1      -3.579   3.087  -5.388  0.00  0.00     0.051 A 
ATOM      5  C5  IND d   1      -4.784   3.721  -5.270  0.00  0.00    -0.031 A 
ATOM      6  C6  IND d   1      -4.901   5.091  -5.383  0.00  0.00     0.015 A 
ATOM      7  C7  IND d   1      -3.815   5.881  -5.630  0.00  0.00    -0.016 A 
ATOM      8  C8  IND d   1      -2.588   5.242  -5.744  0.00  0.00    -0.047 A 
ATOM      9  C9  IND d   1      -2.457   3.856  -5.588  0.00  0.00    -0.096 A 
ATOM     10  HN1 IND d   1      -1.135   6.580  -6.087  0.00  0.00     0.298 HD
ENDROOT
TORSDOF 0
ENDMDL
