MODEL 1
REMARK minimizedAffinity 0.120374039
REMARK minimizedRMSD -1
REMARK  0 active torsions:
REMARK  status: ('A' for Active; 'I' for Inactive)
ROOT
ATOM      1  N1  IND d   1      -3.731   3.160  -3.314  0.00  0.00    -0.196 N 
ATOM      2  C2  IND d   1      -3.529   3.825  -4.491  0.00  0.00     0.054 A 
ATOM      3  C3  IND d   1      -3.319   2.947  -5.497  0.00  0.00    -0.031 A 
ATOM      4  C4  IND d   1      -3.364   0.374  -5.458  0.00  0.00     0.051 A 
ATOM      5  C5  IND d   1      -3.473  -0.689  -4.605  0.00  0.00    -0.031 A 
ATOM      6  C6  IND d   1      -3.681  -0.520  -3.252  0.00  0.00     0.015 A 
ATOM      7  C7  IND d   1      -3.799   0.724  -2.700  0.00  0.00    -0.016 A 
ATOM      8  C8  IND d   1      -3.682   1.806  -3.561  0.00  0.00    -0.047 A 
ATOM      9  C9  IND d   1      -3.429   1.641  -4.929  0.00  0.00    -0.096 A 
ATOM     10  HN1 IND d   1      -3.867   3.526  -2.547  0.00  0.00     0.298 HD
ENDROOT
TORSDOF 0
ENDMDL
