MODEL 1
REMARK minimizedAffinity 3.11721969
REMARK minimizedRMSD -1
REMARK  0 active torsions:
REMARK  status: ('A' for Active; 'I' for Inactive)
ROOT
ATOM      1  N1  IND d   1      -3.438  -0.290  -1.604  0.00  0.00    -0.196 N 
ATOM      2  C2  IND d   1      -3.724  -1.517  -2.133  0.00  0.00     0.054 A 
ATOM      3  C3  IND d   1      -4.033  -1.403  -3.444  0.00  0.00    -0.031 A 
ATOM      4  C4  IND d   1      -4.034   0.685  -4.949  0.00  0.00     0.051 A 
ATOM      5  C5  IND d   1      -3.875   2.042  -4.909  0.00  0.00    -0.031 A 
ATOM      6  C6  IND d   1      -3.553   2.704  -3.742  0.00  0.00     0.015 A 
ATOM      7  C7  IND d   1      -3.366   2.029  -2.568  0.00  0.00    -0.016 A 
ATOM      8  C8  IND d   1      -3.534   0.652  -2.604  0.00  0.00    -0.047 A 
ATOM      9  C9  IND d   1      -3.902  -0.020  -3.777  0.00  0.00    -0.096 A 
ATOM     10  HN1 IND d   1      -3.233  -0.133  -0.784  0.00  0.00     0.298 HD
ENDROOT
TORSDOF 0
ENDMDL
