MODEL 1
REMARK minimizedAffinity -4.18722248
REMARK minimizedRMSD -1
REMARK  0 active torsions:
REMARK  status: ('A' for Active; 'I' for Inactive)
ROOT
ATOM      1  C   UNL d   1      -3.961   3.184  -3.068  0.00  0.00     0.078 C 
ATOM      2  C1  UNL d   1      -3.462   1.795  -2.802  0.00  0.00    -0.077 A 
ATOM      3  C2  UNL d   1      -2.915   1.451  -1.559  0.00  0.00    -0.001 A 
ATOM      4  C3  UNL d   1      -2.446   0.157  -1.328  0.00  0.00     0.003 A 
ATOM      5  C4  UNL d   1      -2.519  -0.804  -2.335  0.00  0.00    -0.005 A 
ATOM      6  C5  UNL d   1      -3.060  -0.470  -3.575  0.00  0.00     0.003 A 
ATOM      7  C6  UNL d   1      -3.529   0.823  -3.808  0.00  0.00    -0.001 A 
ENDROOT
TORSDOF 0
ENDMDL
