MODEL 1
REMARK minimizedAffinity -5.84983158
REMARK minimizedRMSD -1
REMARK  0 active torsions:
REMARK  status: ('A' for Active; 'I' for Inactive)
ROOT
ATOM      1  C   UNL d   1       3.519  -1.105   1.622  0.00  0.00     0.078 C 
ATOM      2  C1  UNL d   1       2.130  -0.858   1.115  0.00  0.00    -0.077 A 
ATOM      3  C2  UNL d   1       1.124  -1.820   1.269  0.00  0.00    -0.001 A 
ATOM      4  C3  UNL d   1      -0.163  -1.580   0.784  0.00  0.00     0.003 A 
ATOM      5  C4  UNL d   1      -0.455  -0.379   0.139  0.00  0.00    -0.005 A 
ATOM      6  C5  UNL d   1       0.540   0.583  -0.021  0.00  0.00     0.003 A 
ATOM      7  C6  UNL d   1       1.827   0.345   0.464  0.00  0.00    -0.001 A 
ENDROOT
TORSDOF 0
ENDMDL
