MODEL 1
REMARK minimizedAffinity -5.30911255
REMARK minimizedRMSD -1
REMARK  0 active torsions:
REMARK  status: ('A' for Active; 'I' for Inactive)
ROOT
ATOM      1  C   UNL d   1      -1.353  -0.199  -0.093  0.00  0.00     0.078 C 
ATOM      2  C1  UNL d   1       0.051  -0.404   0.392  0.00  0.00    -0.077 A 
ATOM      3  C2  UNL d   1       0.984   0.641   0.363  0.00  0.00    -0.001 A 
ATOM      4  C3  UNL d   1       2.290   0.433   0.808  0.00  0.00     0.003 A 
ATOM      5  C4  UNL d   1       2.676  -0.819   1.284  0.00  0.00    -0.005 A 
ATOM      6  C5  UNL d   1       1.756  -1.864   1.314  0.00  0.00     0.003 A 
ATOM      7  C6  UNL d   1       0.449  -1.658   0.870  0.00  0.00    -0.001 A 
ENDROOT
TORSDOF 0
ENDMDL
