MODEL 1
REMARK minimizedAffinity -3.20742941
REMARK minimizedRMSD -1
REMARK  0 active torsions:
REMARK  status: ('A' for Active; 'I' for Inactive)
ROOT
ATOM      1  C   UNL d   1      -0.117   0.126   0.092  0.00  0.00     0.078 C 
ATOM      2  C1  UNL d   1      -1.124   0.084  -1.017  0.00  0.00    -0.077 A 
ATOM      3  C2  UNL d   1      -1.134  -0.966  -1.944  0.00  0.00    -0.001 A 
ATOM      4  C3  UNL d   1      -2.071  -0.987  -2.977  0.00  0.00     0.003 A 
ATOM      5  C4  UNL d   1      -3.005   0.040  -3.096  0.00  0.00    -0.005 A 
ATOM      6  C5  UNL d   1      -3.002   1.090  -2.180  0.00  0.00     0.003 A 
ATOM      7  C6  UNL d   1      -2.066   1.113  -1.146  0.00  0.00    -0.001 A 
ENDROOT
TORSDOF 0
ENDMDL
