MODEL 1
REMARK minimizedAffinity -5.74413586
REMARK minimizedRMSD -1
REMARK  0 active torsions:
REMARK  status: ('A' for Active; 'I' for Inactive)
ROOT
ATOM      1  C   UNL d   1       2.911  -1.801   1.826  0.00  0.00     0.078 C 
ATOM      2  C1  UNL d   1       1.870  -0.889   1.251  0.00  0.00    -0.077 A 
ATOM      3  C2  UNL d   1       0.663  -1.395   0.752  0.00  0.00    -0.001 A 
ATOM      4  C3  UNL d   1      -0.293  -0.534   0.210  0.00  0.00     0.003 A 
ATOM      5  C4  UNL d   1      -0.052   0.838   0.161  0.00  0.00    -0.005 A 
ATOM      6  C5  UNL d   1       1.147   1.350   0.653  0.00  0.00     0.003 A 
ATOM      7  C6  UNL d   1       2.104   0.491   1.195  0.00  0.00    -0.001 A 
ENDROOT
TORSDOF 0
ENDMDL
