MODEL 1
REMARK minimizedAffinity -5.55318451
REMARK minimizedRMSD -1
REMARK  0 active torsions:
REMARK  status: ('A' for Active; 'I' for Inactive)
ROOT
ATOM      1  C   UNL d   1       0.534   0.828   0.080  0.00  0.00     0.078 C 
ATOM      2  C1  UNL d   1       1.372  -0.099   0.909  0.00  0.00    -0.077 A 
ATOM      3  C2  UNL d   1       0.847  -1.303   1.397  0.00  0.00    -0.001 A 
ATOM      4  C3  UNL d   1       1.635  -2.152   2.176  0.00  0.00     0.003 A 
ATOM      5  C4  UNL d   1       2.951  -1.807   2.475  0.00  0.00    -0.005 A 
ATOM      6  C5  UNL d   1       3.481  -0.610   1.996  0.00  0.00     0.003 A 
ATOM      7  C6  UNL d   1       2.695   0.240   1.217  0.00  0.00    -0.001 A 
ENDROOT
TORSDOF 0
ENDMDL
