MODEL 1
REMARK minimizedAffinity -1.75440872
REMARK minimizedRMSD -1
REMARK  0 active torsions:
REMARK  status: ('A' for Active; 'I' for Inactive)
ROOT
ATOM      1  C   UNL d   1      -0.395  -0.903  -0.926  0.00  0.00     0.172 C 
ATOM      2  N   UNL d   1       0.439   0.201  -0.514  0.00  0.00    -0.070 N 
ATOM      3  C1  UNL d   1       1.737   0.409  -0.900  0.00  0.00    -0.004 A 
ATOM      4  C2  UNL d   1       2.177   1.565  -0.293  0.00  0.00    -0.047 A 
ATOM      5  C3  UNL d   1       1.108   2.069   0.485  0.00  0.00    -0.047 A 
ATOM      6  C4  UNL d   1       0.044   1.205   0.330  0.00  0.00    -0.004 A 
ENDROOT
TORSDOF 0
ENDMDL
