MODEL 1
REMARK minimizedAffinity -2.99981189
REMARK minimizedRMSD -1
REMARK  0 active torsions:
REMARK  status: ('A' for Active; 'I' for Inactive)
ROOT
ATOM      1  C   UNL d   1      -0.003  -0.756  -0.058  0.00  0.00     0.172 C 
ATOM      2  N   UNL d   1       0.322   0.469   0.635  0.00  0.00    -0.070 N 
ATOM      3  C1  UNL d   1       0.024   0.750   1.941  0.00  0.00    -0.004 A 
ATOM      4  C2  UNL d   1       0.501   2.013   2.221  0.00  0.00    -0.047 A 
ATOM      5  C3  UNL d   1       1.105   2.508   1.041  0.00  0.00    -0.047 A 
ATOM      6  C4  UNL d   1       0.980   1.532   0.075  0.00  0.00    -0.004 A 
ENDROOT
TORSDOF 0
ENDMDL
