MODEL 1
REMARK minimizedAffinity -2.97102857
REMARK minimizedRMSD -1
REMARK  0 active torsions:
REMARK  status: ('A' for Active; 'I' for Inactive)
ROOT
ATOM      1  C   UNL d   1       1.058   2.184   1.326  0.00  0.00     0.172 C 
ATOM      2  N   UNL d   1       0.819   0.880   0.754  0.00  0.00    -0.070 N 
ATOM      3  C1  UNL d   1       1.741   0.120   0.086  0.00  0.00    -0.004 A 
ATOM      4  C2  UNL d   1       1.124  -1.050  -0.300  0.00  0.00    -0.047 A 
ATOM      5  C3  UNL d   1      -0.216  -0.991   0.150  0.00  0.00    -0.047 A 
ATOM      6  C4  UNL d   1      -0.378   0.215   0.799  0.00  0.00    -0.004 A 
ENDROOT
TORSDOF 0
ENDMDL
