MODEL 1
REMARK minimizedAffinity -3.45208573
REMARK minimizedRMSD -1
REMARK  0 active torsions:
REMARK  status: ('A' for Active; 'I' for Inactive)
ROOT
ATOM      1  C   UNL d   1       0.010  -0.731  -0.189  0.00  0.00     0.172 C 
ATOM      2  N   UNL d   1       0.319   0.572   0.354  0.00  0.00    -0.070 N 
ATOM      3  C1  UNL d   1       1.282   1.424  -0.116  0.00  0.00    -0.004 A 
ATOM      4  C2  UNL d   1       1.261   2.557   0.669  0.00  0.00    -0.047 A 
ATOM      5  C3  UNL d   1       0.251   2.379   1.644  0.00  0.00    -0.047 A 
ATOM      6  C4  UNL d   1      -0.316   1.141   1.426  0.00  0.00    -0.004 A 
ENDROOT
TORSDOF 0
ENDMDL
