MODEL 1
REMARK minimizedAffinity -3.45918131
REMARK minimizedRMSD -1
REMARK  0 active torsions:
REMARK  status: ('A' for Active; 'I' for Inactive)
ROOT
ATOM      1  C   UNL d   1      -0.034  -0.947  -0.567  0.00  0.00     0.172 C 
ATOM      2  N   UNL d   1       0.362   0.274   0.094  0.00  0.00    -0.070 N 
ATOM      3  C1  UNL d   1       1.370   1.109  -0.306  0.00  0.00    -0.004 A 
ATOM      4  C2  UNL d   1       1.429   2.158   0.585  0.00  0.00    -0.047 A 
ATOM      5  C3  UNL d   1       0.422   1.946   1.556  0.00  0.00    -0.047 A 
ATOM      6  C4  UNL d   1      -0.224   0.772   1.228  0.00  0.00    -0.004 A 
ENDROOT
TORSDOF 0
ENDMDL
