MODEL 1
REMARK minimizedAffinity -3.9404397
REMARK minimizedRMSD -1
REMARK  0 active torsions:
REMARK  status: ('A' for Active; 'I' for Inactive)
ROOT
ATOM      1  C   UNL d   1      -0.063  -1.123  -0.359  0.00  0.00     0.172 C 
ATOM      2  N   UNL d   1       0.231   0.147   0.262  0.00  0.00    -0.070 N 
ATOM      3  C1  UNL d   1       1.283   0.965  -0.052  0.00  0.00    -0.004 A 
ATOM      4  C2  UNL d   1       1.213   2.075   0.762  0.00  0.00    -0.047 A 
ATOM      5  C3  UNL d   1       0.080   1.918   1.595  0.00  0.00    -0.047 A 
ATOM      6  C4  UNL d   1      -0.509   0.716   1.265  0.00  0.00    -0.004 A 
ENDROOT
TORSDOF 0
ENDMDL
