MODEL 1
REMARK minimizedAffinity -2.42232299
REMARK minimizedRMSD -1
REMARK  0 active torsions:
REMARK  status: ('A' for Active; 'I' for Inactive)
ROOT
ATOM      1  C   UNL d   1      -0.610   0.785   1.901  0.00  0.00     0.172 C 
ATOM      2  N   UNL d   1       0.373   1.370   1.020  0.00  0.00    -0.070 N 
ATOM      3  C1  UNL d   1       0.836   2.657   1.083  0.00  0.00    -0.004 A 
ATOM      4  C2  UNL d   1       1.760   2.823   0.074  0.00  0.00    -0.047 A 
ATOM      5  C3  UNL d   1       1.854   1.594  -0.621  0.00  0.00    -0.047 A 
ATOM      6  C4  UNL d   1       0.984   0.712  -0.014  0.00  0.00    -0.004 A 
ENDROOT
TORSDOF 0
ENDMDL
