MODEL 1
REMARK minimizedAffinity -3.70523977
REMARK minimizedRMSD -1
REMARK  0 active torsions:
REMARK  status: ('A' for Active; 'I' for Inactive)
ROOT
ATOM      1  C   UNL d   1       0.170  -0.824  -0.313  0.00  0.00     0.172 C 
ATOM      2  N   UNL d   1       0.420   0.432   0.356  0.00  0.00    -0.070 N 
ATOM      3  C1  UNL d   1      -0.354   0.978   1.345  0.00  0.00    -0.004 A 
ATOM      4  C2  UNL d   1       0.220   2.174   1.717  0.00  0.00    -0.047 A 
ATOM      5  C3  UNL d   1       1.377   2.354   0.924  0.00  0.00    -0.047 A 
ATOM      6  C4  UNL d   1       1.478   1.261   0.089  0.00  0.00    -0.004 A 
ENDROOT
TORSDOF 0
ENDMDL
