MODEL 1
REMARK minimizedAffinity -1.36746275
REMARK minimizedRMSD -1
REMARK  0 active torsions:
REMARK  status: ('A' for Active; 'I' for Inactive)
ROOT
ATOM      1  C   UNL d   1      -0.692  -1.068  -1.202  0.00  0.00     0.172 C 
ATOM      2  N   UNL d   1       0.344  -0.110  -0.898  0.00  0.00    -0.070 N 
ATOM      3  C1  UNL d   1       1.691  -0.328  -1.013  0.00  0.00    -0.004 A 
ATOM      4  C2  UNL d   1       2.340   0.827  -0.630  0.00  0.00    -0.047 A 
ATOM      5  C3  UNL d   1       1.348   1.771  -0.273  0.00  0.00    -0.047 A 
ATOM      6  C4  UNL d   1       0.122   1.165  -0.449  0.00  0.00    -0.004 A 
ENDROOT
TORSDOF 0
ENDMDL
