MODEL 1
REMARK minimizedAffinity -1.63482523
REMARK minimizedRMSD -1
REMARK  0 active torsions:
REMARK  status: ('A' for Active; 'I' for Inactive)
ROOT
ATOM      1  C   UNL d   1      -0.069  -0.636  -0.614  0.00  0.00     0.172 C 
ATOM      2  N   UNL d   1       0.180   0.554   0.167  0.00  0.00    -0.070 N 
ATOM      3  C1  UNL d   1       0.607   1.758  -0.327  0.00  0.00    -0.004 A 
ATOM      4  C2  UNL d   1       0.722   2.631   0.733  0.00  0.00    -0.047 A 
ATOM      5  C3  UNL d   1       0.353   1.928   1.904  0.00  0.00    -0.047 A 
ATOM      6  C4  UNL d   1       0.022   0.644   1.525  0.00  0.00    -0.004 A 
ENDROOT
TORSDOF 0
ENDMDL
