MODEL 1
REMARK minimizedAffinity -3.76139569
REMARK minimizedRMSD -1
REMARK  0 active torsions:
REMARK  status: ('A' for Active; 'I' for Inactive)
ROOT
ATOM      1  C   UNL d   1       0.341  -0.751  -0.419  0.00  0.00     0.172 C 
ATOM      2  N   UNL d   1       0.550   0.525   0.223  0.00  0.00    -0.070 N 
ATOM      3  C1  UNL d   1      -0.108   0.976   1.336  0.00  0.00    -0.004 A 
ATOM      4  C2  UNL d   1       0.376   2.232   1.633  0.00  0.00    -0.047 A 
ATOM      5  C3  UNL d   1       1.358   2.547   0.665  0.00  0.00    -0.047 A 
ATOM      6  C4  UNL d   1       1.446   1.473  -0.196  0.00  0.00    -0.004 A 
ENDROOT
TORSDOF 0
ENDMDL
