MODEL 1
REMARK minimizedAffinity -4.12324095
REMARK minimizedRMSD -1
REMARK  0 active torsions:
REMARK  status: ('A' for Active; 'I' for Inactive)
ROOT
ATOM      1  C   UNL d   1       0.320  -0.599  -0.461  0.00  0.00     0.172 C 
ATOM      2  N   UNL d   1       1.059   0.556  -0.006  0.00  0.00    -0.070 N 
ATOM      3  C1  UNL d   1       2.394   0.781  -0.210  0.00  0.00    -0.004 A 
ATOM      4  C2  UNL d   1       2.713   1.987   0.375  0.00  0.00    -0.047 A 
ATOM      5  C3  UNL d   1       1.528   2.505   0.952  0.00  0.00    -0.047 A 
ATOM      6  C4  UNL d   1       0.520   1.599   0.701  0.00  0.00    -0.004 A 
ENDROOT
TORSDOF 0
ENDMDL
