MODEL 1
REMARK minimizedAffinity -2.8723228
REMARK minimizedRMSD -1
REMARK  0 active torsions:
REMARK  status: ('A' for Active; 'I' for Inactive)
ROOT
ATOM      1  C   UNL d   1       0.476  -1.201  -0.960  0.00  0.00     0.172 C 
ATOM      2  N   UNL d   1      -0.663  -1.431  -1.817  0.00  0.00    -0.070 N 
ATOM      3  C1  UNL d   1      -0.710  -1.187  -3.164  0.00  0.00    -0.004 A 
ATOM      4  C2  UNL d   1      -1.965  -1.537  -3.612  0.00  0.00    -0.047 A 
ATOM      5  C3  UNL d   1      -2.698  -2.008  -2.496  0.00  0.00    -0.047 A 
ATOM      6  C4  UNL d   1      -1.867  -1.931  -1.398  0.00  0.00    -0.004 A 
ENDROOT
TORSDOF 0
ENDMDL
