MODEL 1
REMARK minimizedAffinity -2.91120791
REMARK minimizedRMSD -1
REMARK  0 active torsions:
REMARK  status: ('A' for Active; 'I' for Inactive)
ROOT
ATOM      1  C   UNL d   1       0.112  -0.764  -0.172  0.00  0.00     0.172 C 
ATOM      2  N   UNL d   1       0.132   0.535   0.458  0.00  0.00    -0.070 N 
ATOM      3  C1  UNL d   1      -0.285   0.810   1.733  0.00  0.00    -0.004 A 
ATOM      4  C2  UNL d   1      -0.104   2.158   1.955  0.00  0.00    -0.047 A 
ATOM      5  C3  UNL d   1       0.440   2.713   0.772  0.00  0.00    -0.047 A 
ATOM      6  C4  UNL d   1       0.576   1.686  -0.138  0.00  0.00    -0.004 A 
ENDROOT
TORSDOF 0
ENDMDL
