MODEL 1
REMARK minimizedAffinity -3.02708983
REMARK minimizedRMSD -1
REMARK  0 active torsions:
REMARK  status: ('A' for Active; 'I' for Inactive)
ROOT
ATOM      1  C   UNL d   1       1.024   2.493   0.831  0.00  0.00     0.172 C 
ATOM      2  N   UNL d   1       0.865   1.169   0.276  0.00  0.00    -0.070 N 
ATOM      3  C1  UNL d   1      -0.242   0.374   0.412  0.00  0.00    -0.004 A 
ATOM      4  C2  UNL d   1      -0.001  -0.804  -0.261  0.00  0.00    -0.047 A 
ATOM      5  C3  UNL d   1       1.296  -0.715  -0.820  0.00  0.00    -0.047 A 
ATOM      6  C4  UNL d   1       1.810   0.517  -0.472  0.00  0.00    -0.004 A 
ENDROOT
TORSDOF 0
ENDMDL
