MODEL 1
REMARK minimizedAffinity -2.30322123
REMARK minimizedRMSD -1
REMARK  0 active torsions:
REMARK  status: ('A' for Active; 'I' for Inactive)
ROOT
ATOM      1  C   UNL d   1       0.145  -1.154  -0.998  0.00  0.00     0.172 C 
ATOM      2  N   UNL d   1      -0.989  -1.584  -1.782  0.00  0.00    -0.070 N 
ATOM      3  C1  UNL d   1      -1.968  -2.446  -1.365  0.00  0.00    -0.004 A 
ATOM      4  C2  UNL d   1      -2.865  -2.599  -2.400  0.00  0.00    -0.047 A 
ATOM      5  C3  UNL d   1      -2.409  -1.802  -3.477  0.00  0.00    -0.047 A 
ATOM      6  C4  UNL d   1      -1.246  -1.184  -3.067  0.00  0.00    -0.004 A 
ENDROOT
TORSDOF 0
ENDMDL
