MODEL 1
REMARK minimizedAffinity 4.13320303
REMARK minimizedRMSD -1
REMARK  3 active torsions:
REMARK  status: ('A' for Active; 'I' for Inactive)
REMARK    1  A    between atoms: C3'_2  and  C2'_3 
REMARK    2  A    between atoms: C2'_3  and  C1'_4 
REMARK    3  A    between atoms: C1'_4  and  C1_5 
ROOT
ATOM      1  C1  N4B d   1       1.172   1.600   1.068  0.00  0.00    -0.075 A 
ATOM      2  C2  N4B d   1       1.671   1.873   2.361  0.00  0.00     0.002 A 
ATOM      3  C3  N4B d   1       0.833   2.363   3.332  0.00  0.00     0.002 A 
ATOM      4  C4  N4B d   1      -0.499   2.604   3.030  0.00  0.00    -0.004 A 
ATOM      5  C5  N4B d   1      -0.980   2.313   1.786  0.00  0.00     0.002 A 
ATOM      6  C6  N4B d   1      -0.149   1.817   0.802  0.00  0.00     0.002 A 
ENDROOT
BRANCH   1   7
ATOM      7  C1' N4B d   1       2.069   1.146  -0.050  0.00  0.00     0.057 C 
BRANCH   7   8
ATOM      8  C2' N4B d   1       1.844  -0.342  -0.300  0.00  0.00     0.009 C 
BRANCH   8   9
ATOM      9  C3' N4B d   1       2.623  -0.841  -1.505  0.00  0.00     0.004 C 
ATOM     10  C4' N4B d   1       2.332  -0.057  -2.749  0.00  0.00     0.003 C 
ENDBRANCH   8   9
ENDBRANCH   7   8
ENDBRANCH   1   7
TORSDOF 3
ENDMDL
