MODEL 1
REMARK minimizedAffinity 13.2268438
REMARK minimizedRMSD -1
REMARK  3 active torsions:
REMARK  status: ('A' for Active; 'I' for Inactive)
REMARK    1  A    between atoms: C3'_2  and  C2'_3 
REMARK    2  A    between atoms: C2'_3  and  C1'_4 
REMARK    3  A    between atoms: C1'_4  and  C1_5 
ROOT
ATOM      1  C1  N4B d   1       0.974   2.053   1.436  0.00  0.00    -0.075 A 
ATOM      2  C2  N4B d   1       0.404   2.009   2.727  0.00  0.00     0.002 A 
ATOM      3  C3  N4B d   1      -0.938   2.251   2.893  0.00  0.00     0.002 A 
ATOM      4  C4  N4B d   1      -1.722   2.555   1.790  0.00  0.00    -0.004 A 
ATOM      5  C5  N4B d   1      -1.168   2.571   0.544  0.00  0.00     0.002 A 
ATOM      6  C6  N4B d   1       0.178   2.326   0.361  0.00  0.00     0.002 A 
ENDROOT
BRANCH   1   7
ATOM      7  C1' N4B d   1       2.452   1.880   1.215  0.00  0.00     0.057 C 
BRANCH   7   8
ATOM      8  C2' N4B d   1       3.181   3.127   1.707  0.00  0.00     0.009 C 
BRANCH   8   9
ATOM      9  C3' N4B d   1       3.687   2.965   3.130  0.00  0.00     0.004 C 
ATOM     10  C4' N4B d   1       5.131   2.565   3.191  0.00  0.00     0.003 C 
ENDBRANCH   8   9
ENDBRANCH   7   8
ENDBRANCH   1   7
TORSDOF 3
ENDMDL
