MODEL 1
REMARK minimizedAffinity 10.6284914
REMARK minimizedRMSD -1
REMARK  3 active torsions:
REMARK  status: ('A' for Active; 'I' for Inactive)
REMARK    1  A    between atoms: C3'_2  and  C2'_3 
REMARK    2  A    between atoms: C2'_3  and  C1'_4 
REMARK    3  A    between atoms: C1'_4  and  C1_5 
ROOT
ATOM      1  C1  N4B d   1       1.959   0.264  -0.926  0.00  0.00    -0.075 A 
ATOM      2  C2  N4B d   1       3.098  -0.403  -1.428  0.00  0.00     0.002 A 
ATOM      3  C3  N4B d   1       3.334  -0.435  -2.781  0.00  0.00     0.002 A 
ATOM      4  C4  N4B d   1       2.439   0.174  -3.648  0.00  0.00    -0.004 A 
ATOM      5  C5  N4B d   1       1.355   0.837  -3.153  0.00  0.00     0.002 A 
ATOM      6  C6  N4B d   1       1.107   0.881  -1.795  0.00  0.00     0.002 A 
ENDROOT
BRANCH   1   7
ATOM      7  C1' N4B d   1       1.613   0.252   0.538  0.00  0.00     0.057 C 
BRANCH   7   8
ATOM      8  C2' N4B d   1       1.632   1.683   1.069  0.00  0.00     0.009 C 
BRANCH   8   9
ATOM      9  C3' N4B d   1       3.045   2.228   1.182  0.00  0.00     0.004 C 
ATOM     10  C4' N4B d   1       3.437   2.535   2.597  0.00  0.00     0.003 C 
ENDBRANCH   8   9
ENDBRANCH   7   8
ENDBRANCH   1   7
TORSDOF 3
ENDMDL
