MODEL 1
REMARK minimizedAffinity 5.60911274
REMARK minimizedRMSD -1
REMARK  3 active torsions:
REMARK  status: ('A' for Active; 'I' for Inactive)
REMARK    1  A    between atoms: C3'_2  and  C2'_3 
REMARK    2  A    between atoms: C2'_3  and  C1'_4 
REMARK    3  A    between atoms: C1'_4  and  C1_5 
ROOT
ATOM      1  C1  N4B d   1       3.023   1.553   0.287  0.00  0.00    -0.075 A 
ATOM      2  C2  N4B d   1       3.810   2.259   1.223  0.00  0.00     0.002 A 
ATOM      3  C3  N4B d   1       3.327   2.495   2.487  0.00  0.00     0.002 A 
ATOM      4  C4  N4B d   1       2.057   2.053   2.829  0.00  0.00    -0.004 A 
ATOM      5  C5  N4B d   1       1.314   1.350   1.927  0.00  0.00     0.002 A 
ATOM      6  C6  N4B d   1       1.789   1.102   0.655  0.00  0.00     0.002 A 
ENDROOT
BRANCH   1   7
ATOM      7  C1' N4B d   1       3.474   1.346  -1.133  0.00  0.00     0.057 C 
BRANCH   7   8
ATOM      8  C2' N4B d   1       3.071  -0.054  -1.588  0.00  0.00     0.009 C 
BRANCH   8   9
ATOM      9  C3' N4B d   1       2.690  -0.086  -3.058  0.00  0.00     0.004 C 
ATOM     10  C4' N4B d   1       1.809   1.061  -3.455  0.00  0.00     0.003 C 
ENDBRANCH   8   9
ENDBRANCH   7   8
ENDBRANCH   1   7
TORSDOF 3
ENDMDL
