MODEL 1
REMARK minimizedAffinity 7.52426243
REMARK minimizedRMSD -1
REMARK  3 active torsions:
REMARK  status: ('A' for Active; 'I' for Inactive)
REMARK    1  A    between atoms: C3'_2  and  C2'_3 
REMARK    2  A    between atoms: C2'_3  and  C1'_4 
REMARK    3  A    between atoms: C1'_4  and  C1_5 
ROOT
ATOM      1  C1  N4B d   1       2.327   0.626  -1.026  0.00  0.00    -0.075 A 
ATOM      2  C2  N4B d   1       2.428   1.921  -0.472  0.00  0.00     0.002 A 
ATOM      3  C3  N4B d   1       1.779   2.218   0.702  0.00  0.00     0.002 A 
ATOM      4  C4  N4B d   1       1.013   1.246   1.326  0.00  0.00    -0.004 A 
ATOM      5  C5  N4B d   1       0.941  -0.010   0.798  0.00  0.00     0.002 A 
ATOM      6  C6  N4B d   1       1.591  -0.324  -0.379  0.00  0.00     0.002 A 
ENDROOT
BRANCH   1   7
ATOM      7  C1' N4B d   1       2.948   0.279  -2.352  0.00  0.00     0.057 C 
BRANCH   7   8
ATOM      8  C2' N4B d   1       1.844  -0.060  -3.348  0.00  0.00     0.009 C 
BRANCH   8   9
ATOM      9  C3' N4B d   1       0.757   1.000  -3.375  0.00  0.00     0.004 C 
ATOM     10  C4' N4B d   1       1.156   2.221  -4.149  0.00  0.00     0.003 C 
ENDBRANCH   8   9
ENDBRANCH   7   8
ENDBRANCH   1   7
TORSDOF 3
ENDMDL
