MODEL 1
REMARK minimizedAffinity 5.10930395
REMARK minimizedRMSD -1
REMARK  3 active torsions:
REMARK  status: ('A' for Active; 'I' for Inactive)
REMARK    1  A    between atoms: C3'_2  and  C2'_3 
REMARK    2  A    between atoms: C2'_3  and  C1'_4 
REMARK    3  A    between atoms: C1'_4  and  C1_5 
ROOT
ATOM      1  C1  N4B d   1       2.240   0.002  -1.647  0.00  0.00    -0.075 A 
ATOM      2  C2  N4B d   1       2.032   0.936  -0.608  0.00  0.00     0.002 A 
ATOM      3  C3  N4B d   1       1.521   0.520   0.597  0.00  0.00     0.002 A 
ATOM      4  C4  N4B d   1       1.196  -0.816   0.779  0.00  0.00    -0.004 A 
ATOM      5  C5  N4B d   1       1.424  -1.716  -0.220  0.00  0.00     0.002 A 
ATOM      6  C6  N4B d   1       1.940  -1.312  -1.435  0.00  0.00     0.002 A 
ENDROOT
BRANCH   1   7
ATOM      7  C1' N4B d   1       2.716   0.424  -3.010  0.00  0.00     0.057 C 
BRANCH   7   8
ATOM      8  C2' N4B d   1       1.520   0.507  -3.954  0.00  0.00     0.009 C 
BRANCH   8   9
ATOM      9  C3' N4B d   1       1.285   1.923  -4.450  0.00  0.00     0.004 C 
ATOM     10  C4' N4B d   1      -0.094   2.425  -4.141  0.00  0.00     0.003 C 
ENDBRANCH   8   9
ENDBRANCH   7   8
ENDBRANCH   1   7
TORSDOF 3
ENDMDL
