MODEL 1
REMARK minimizedAffinity 5.47687101
REMARK minimizedRMSD -1
REMARK  3 active torsions:
REMARK  status: ('A' for Active; 'I' for Inactive)
REMARK    1  A    between atoms: C3'_2  and  C2'_3 
REMARK    2  A    between atoms: C2'_3  and  C1'_4 
REMARK    3  A    between atoms: C1'_4  and  C1_5 
ROOT
ATOM      1  C1  N4B d   1       1.493   0.831   0.283  0.00  0.00    -0.075 A 
ATOM      2  C2  N4B d   1       2.023   1.000  -1.015  0.00  0.00     0.002 A 
ATOM      3  C3  N4B d   1       2.333  -0.098  -1.779  0.00  0.00     0.002 A 
ATOM      4  C4  N4B d   1       2.141  -1.370  -1.261  0.00  0.00    -0.004 A 
ATOM      5  C5  N4B d   1       1.604  -1.525  -0.016  0.00  0.00     0.002 A 
ATOM      6  C6  N4B d   1       1.284  -0.431   0.761  0.00  0.00     0.002 A 
ENDROOT
BRANCH   1   7
ATOM      7  C1' N4B d   1       1.218   2.001   1.188  0.00  0.00     0.057 C 
BRANCH   7   8
ATOM      8  C2' N4B d   1      -0.158   1.829   1.825  0.00  0.00     0.009 C 
BRANCH   8   9
ATOM      9  C3' N4B d   1      -1.263   2.394   0.949  0.00  0.00     0.004 C 
ATOM     10  C4' N4B d   1      -0.738   3.107  -0.262  0.00  0.00     0.003 C 
ENDBRANCH   8   9
ENDBRANCH   7   8
ENDBRANCH   1   7
TORSDOF 3
ENDMDL
