MODEL 1
REMARK minimizedAffinity 5.63623571
REMARK minimizedRMSD -1
REMARK  3 active torsions:
REMARK  status: ('A' for Active; 'I' for Inactive)
REMARK    1  A    between atoms: C3'_2  and  C2'_3 
REMARK    2  A    between atoms: C2'_3  and  C1'_4 
REMARK    3  A    between atoms: C1'_4  and  C1_5 
ROOT
ATOM      1  C1  N4B d   1       0.523   1.770   1.491  0.00  0.00    -0.075 A 
ATOM      2  C2  N4B d   1      -0.631   2.068   0.734  0.00  0.00     0.002 A 
ATOM      3  C3  N4B d   1      -1.805   2.389   1.370  0.00  0.00     0.002 A 
ATOM      4  C4  N4B d   1      -1.854   2.400   2.756  0.00  0.00    -0.004 A 
ATOM      5  C5  N4B d   1      -0.728   2.135   3.479  0.00  0.00     0.002 A 
ATOM      6  C6  N4B d   1       0.460   1.815   2.853  0.00  0.00     0.002 A 
ENDROOT
BRANCH   1   7
ATOM      7  C1' N4B d   1       1.807   1.330   0.842  0.00  0.00     0.057 C 
BRANCH   7   8
ATOM      8  C2' N4B d   1       1.852  -0.195   0.804  0.00  0.00     0.009 C 
BRANCH   8   9
ATOM      9  C3' N4B d   1       2.171  -0.720  -0.585  0.00  0.00     0.004 C 
ATOM     10  C4' N4B d   1       2.804   0.316  -1.466  0.00  0.00     0.003 C 
ENDBRANCH   8   9
ENDBRANCH   7   8
ENDBRANCH   1   7
TORSDOF 3
ENDMDL
