MODEL 1
REMARK minimizedAffinity 10.0221319
REMARK minimizedRMSD -1
REMARK  3 active torsions:
REMARK  status: ('A' for Active; 'I' for Inactive)
REMARK    1  A    between atoms: C3'_2  and  C2'_3 
REMARK    2  A    between atoms: C2'_3  and  C1'_4 
REMARK    3  A    between atoms: C1'_4  and  C1_5 
ROOT
ATOM      1  C1  N4B d   1       2.216   0.231  -0.043  0.00  0.00    -0.075 A 
ATOM      2  C2  N4B d   1       2.953   1.166   0.716  0.00  0.00     0.002 A 
ATOM      3  C3  N4B d   1       2.298   2.073   1.512  0.00  0.00     0.002 A 
ATOM      4  C4  N4B d   1       0.911   2.077   1.549  0.00  0.00    -0.004 A 
ATOM      5  C5  N4B d   1       0.207   1.155   0.833  0.00  0.00     0.002 A 
ATOM      6  C6  N4B d   1       0.853   0.234   0.032  0.00  0.00     0.002 A 
ENDROOT
BRANCH   1   7
ATOM      7  C1' N4B d   1       2.885  -0.724  -0.993  0.00  0.00     0.057 C 
BRANCH   7   8
ATOM      8  C2' N4B d   1       3.174  -0.004  -2.307  0.00  0.00     0.009 C 
BRANCH   8   9
ATOM      9  C3' N4B d   1       2.133  -0.316  -3.368  0.00  0.00     0.004 C 
ATOM     10  C4' N4B d   1       1.292   0.873  -3.725  0.00  0.00     0.003 C 
ENDBRANCH   8   9
ENDBRANCH   7   8
ENDBRANCH   1   7
TORSDOF 3
ENDMDL
