MODEL 1
REMARK minimizedAffinity -0.504458249
REMARK minimizedRMSD -1
REMARK  0 active torsions:
REMARK  status: ('A' for Active; 'I' for Inactive)
ROOT
ATOM      1  C   UNL d   1      -2.024  -1.209  -0.974  0.00  0.00     0.023 A 
ATOM      2  C1  UNL d   1      -1.051  -0.949  -1.939  0.00  0.00     0.003 A 
ATOM      3  C2  UNL d   1       0.131  -0.297  -1.583  0.00  0.00     0.048 A 
ATOM      4  C3  UNL d   1       0.335   0.092  -0.260  0.00  0.00     0.023 A 
ATOM      5  C4  UNL d   1      -0.634  -0.167   0.710  0.00  0.00     0.048 A 
ATOM      6  C5  UNL d   1      -1.816  -0.818   0.349  0.00  0.00     0.003 A 
ATOM      7  I   UNL d   1       2.095   1.062   0.272  0.00  0.00    -0.146 I 
ENDROOT
TORSDOF 0
ENDMDL
