MODEL 1
REMARK minimizedAffinity -3.1999805
REMARK minimizedRMSD -1
REMARK  0 active torsions:
REMARK  status: ('A' for Active; 'I' for Inactive)
ROOT
ATOM      1  C   UNL d   1      -2.736  -0.559   0.976  0.00  0.00     0.023 A 
ATOM      2  C1  UNL d   1      -3.132  -0.843  -0.331  0.00  0.00     0.003 A 
ATOM      3  C2  UNL d   1      -2.223  -0.706  -1.382  0.00  0.00     0.048 A 
ATOM      4  C3  UNL d   1      -0.919  -0.286  -1.119  0.00  0.00     0.023 A 
ATOM      5  C4  UNL d   1      -0.519  -0.002   0.187  0.00  0.00     0.048 A 
ATOM      6  C5  UNL d   1      -1.431  -0.139   1.235  0.00  0.00     0.003 A 
ATOM      7  I   UNL d   1       0.436  -0.082  -2.682  0.00  0.00    -0.146 I 
ENDROOT
TORSDOF 0
ENDMDL
