MODEL 1
REMARK minimizedAffinity -2.54058957
REMARK minimizedRMSD -1
REMARK  0 active torsions:
REMARK  status: ('A' for Active; 'I' for Inactive)
ROOT
ATOM      1  C   UNL d   1       3.240   3.478   0.435  0.00  0.00     0.023 A 
ATOM      2  C1  UNL d   1       2.849   3.042   1.701  0.00  0.00     0.003 A 
ATOM      3  C2  UNL d   1       2.140   1.847   1.841  0.00  0.00     0.048 A 
ATOM      4  C3  UNL d   1       1.826   1.093   0.711  0.00  0.00     0.023 A 
ATOM      5  C4  UNL d   1       2.216   1.525  -0.558  0.00  0.00     0.048 A 
ATOM      6  C5  UNL d   1       2.924   2.720  -0.693  0.00  0.00     0.003 A 
ATOM      7  I   UNL d   1       0.771  -0.686   0.917  0.00  0.00    -0.146 I 
ENDROOT
TORSDOF 0
ENDMDL
