MODEL 1
REMARK minimizedAffinity -1.058442
REMARK minimizedRMSD -1
REMARK  0 active torsions:
REMARK  status: ('A' for Active; 'I' for Inactive)
ROOT
ATOM      1  C   UNL d   1      -3.018  -1.062  -0.556  0.00  0.00     0.023 A 
ATOM      2  C1  UNL d   1      -2.271  -0.736  -1.688  0.00  0.00     0.003 A 
ATOM      3  C2  UNL d   1      -0.989  -0.200  -1.549  0.00  0.00     0.048 A 
ATOM      4  C3  UNL d   1      -0.460   0.006  -0.275  0.00  0.00     0.023 A 
ATOM      5  C4  UNL d   1      -1.204  -0.319   0.860  0.00  0.00     0.048 A 
ATOM      6  C5  UNL d   1      -2.486  -0.854   0.717  0.00  0.00     0.003 A 
ATOM      7  I   UNL d   1       1.448   0.803  -0.066  0.00  0.00    -0.146 I 
ENDROOT
TORSDOF 0
ENDMDL
