MODEL 1
REMARK minimizedAffinity -3.20353723
REMARK minimizedRMSD -1
REMARK  0 active torsions:
REMARK  status: ('A' for Active; 'I' for Inactive)
ROOT
ATOM      1  C   UNL d   1      -2.538  -0.862  -0.036  0.00  0.00     0.023 A 
ATOM      2  C1  UNL d   1      -1.790  -0.168  -0.987  0.00  0.00     0.003 A 
ATOM      3  C2  UNL d   1      -0.509   0.289  -0.672  0.00  0.00     0.048 A 
ATOM      4  C3  UNL d   1       0.018   0.047   0.596  0.00  0.00     0.023 A 
ATOM      5  C4  UNL d   1      -0.726  -0.648   1.551  0.00  0.00     0.048 A 
ATOM      6  C5  UNL d   1      -2.007  -1.102   1.231  0.00  0.00     0.003 A 
ATOM      7  I   UNL d   1       1.925   0.726   1.068  0.00  0.00    -0.146 I 
ENDROOT
TORSDOF 0
ENDMDL
