MODEL 1
REMARK minimizedAffinity -3.97086668
REMARK minimizedRMSD -1
REMARK  0 active torsions:
REMARK  status: ('A' for Active; 'I' for Inactive)
ROOT
ATOM      1  C   UNL d   1      -1.436  -0.703   1.250  0.00  0.00     0.023 A 
ATOM      2  C1  UNL d   1      -1.526   0.050   0.079  0.00  0.00     0.003 A 
ATOM      3  C2  UNL d   1      -0.397   0.234  -0.722  0.00  0.00     0.048 A 
ATOM      4  C3  UNL d   1       0.818  -0.337  -0.347  0.00  0.00     0.023 A 
ATOM      5  C4  UNL d   1       0.913  -1.092   0.823  0.00  0.00     0.048 A 
ATOM      6  C5  UNL d   1      -0.218  -1.273   1.622  0.00  0.00     0.003 A 
ATOM      7  I   UNL d   1       2.499  -0.064  -1.539  0.00  0.00    -0.146 I 
ENDROOT
TORSDOF 0
ENDMDL
