MODEL 1
REMARK minimizedAffinity -2.36617303
REMARK minimizedRMSD -1
REMARK  0 active torsions:
REMARK  status: ('A' for Active; 'I' for Inactive)
ROOT
ATOM      1  C   UNL d   1       3.689   3.580   0.372  0.00  0.00     0.023 A 
ATOM      2  C1  UNL d   1       3.514   2.710  -0.705  0.00  0.00     0.003 A 
ATOM      3  C2  UNL d   1       2.759   1.546  -0.548  0.00  0.00     0.048 A 
ATOM      4  C3  UNL d   1       2.180   1.258   0.687  0.00  0.00     0.023 A 
ATOM      5  C4  UNL d   1       2.352   2.126   1.767  0.00  0.00     0.048 A 
ATOM      6  C5  UNL d   1       3.108   3.288   1.607  0.00  0.00     0.003 A 
ATOM      7  I   UNL d   1       1.056  -0.474   0.923  0.00  0.00    -0.146 I 
ENDROOT
TORSDOF 0
ENDMDL
