MODEL 1
REMARK minimizedAffinity -2.89851332
REMARK minimizedRMSD -1
REMARK  0 active torsions:
REMARK  status: ('A' for Active; 'I' for Inactive)
ROOT
ATOM      1  C   UNL d   1       3.706   3.531   0.333  0.00  0.00     0.023 A 
ATOM      2  C1  UNL d   1       2.943   3.429   1.497  0.00  0.00     0.003 A 
ATOM      3  C2  UNL d   1       2.199   2.274   1.746  0.00  0.00     0.048 A 
ATOM      4  C3  UNL d   1       2.222   1.225   0.828  0.00  0.00     0.023 A 
ATOM      5  C4  UNL d   1       2.985   1.322  -0.337  0.00  0.00     0.048 A 
ATOM      6  C5  UNL d   1       3.727   2.479  -0.583  0.00  0.00     0.003 A 
ATOM      7  I   UNL d   1       1.115  -0.495   1.197  0.00  0.00    -0.146 I 
ENDROOT
TORSDOF 0
ENDMDL
