MODEL 1
REMARK minimizedAffinity -0.19575569
REMARK minimizedRMSD -1
REMARK  0 active torsions:
REMARK  status: ('A' for Active; 'I' for Inactive)
ROOT
ATOM      1  C   UNL d   1       3.394   2.310   0.522  0.00  0.00     0.023 A 
ATOM      2  C1  UNL d   1       3.044   1.344  -0.422  0.00  0.00     0.003 A 
ATOM      3  C2  UNL d   1       2.030   0.427  -0.140  0.00  0.00     0.048 A 
ATOM      4  C3  UNL d   1       1.368   0.482   1.086  0.00  0.00     0.023 A 
ATOM      5  C4  UNL d   1       1.713   1.448   2.032  0.00  0.00     0.048 A 
ATOM      6  C5  UNL d   1       2.729   2.362   1.747  0.00  0.00     0.003 A 
ATOM      7  I   UNL d   1      -0.143  -0.882   1.506  0.00  0.00    -0.146 I 
ENDROOT
TORSDOF 0
ENDMDL
