MODEL 1
REMARK minimizedAffinity 0.947104394
REMARK minimizedRMSD -1
REMARK  0 active torsions:
REMARK  status: ('A' for Active; 'I' for Inactive)
ROOT
ATOM      1  C   UNL d   1      -1.106  -1.362   0.850  0.00  0.00     0.023 A 
ATOM      2  C1  UNL d   1       0.119  -1.628   1.463  0.00  0.00     0.003 A 
ATOM      3  C2  UNL d   1       1.114  -0.648   1.490  0.00  0.00     0.048 A 
ATOM      4  C3  UNL d   1       0.877   0.595   0.904  0.00  0.00     0.023 A 
ATOM      5  C4  UNL d   1      -0.347   0.865   0.290  0.00  0.00     0.048 A 
ATOM      6  C5  UNL d   1      -1.339  -0.118   0.264  0.00  0.00     0.003 A 
ATOM      7  I   UNL d   1       2.357   2.054   0.944  0.00  0.00    -0.146 I 
ENDROOT
TORSDOF 0
ENDMDL
