MODEL 1
REMARK minimizedAffinity 2.64938688
REMARK minimizedRMSD -1
REMARK  0 active torsions:
REMARK  status: ('A' for Active; 'I' for Inactive)
ROOT
ATOM      1  C   UNL d   1       2.493  -0.781  -3.841  0.00  0.00     0.023 A 
ATOM      2  C1  UNL d   1       1.112  -0.603  -3.757  0.00  0.00     0.003 A 
ATOM      3  C2  UNL d   1       0.503  -0.430  -2.513  0.00  0.00     0.048 A 
ATOM      4  C3  UNL d   1       1.281  -0.435  -1.355  0.00  0.00     0.023 A 
ATOM      5  C4  UNL d   1       2.664  -0.612  -1.434  0.00  0.00     0.048 A 
ATOM      6  C5  UNL d   1       3.268  -0.786  -2.680  0.00  0.00     0.003 A 
ATOM      7  I   UNL d   1       0.377  -0.177   0.498  0.00  0.00    -0.146 I 
ENDROOT
TORSDOF 0
ENDMDL
