MODEL 1
REMARK minimizedAffinity -3.86726522
REMARK minimizedRMSD -1
REMARK  0 active torsions:
REMARK  status: ('A' for Active; 'I' for Inactive)
ROOT
ATOM      1  C   UNL d   1      -3.493  -0.769  -0.651  0.00  0.00     0.023 A 
ATOM      2  C1  UNL d   1      -3.031  -0.924   0.656  0.00  0.00     0.003 A 
ATOM      3  C2  UNL d   1      -1.688  -0.685   0.956  0.00  0.00     0.048 A 
ATOM      4  C3  UNL d   1      -0.813  -0.290  -0.055  0.00  0.00     0.023 A 
ATOM      5  C4  UNL d   1      -1.271  -0.133  -1.364  0.00  0.00     0.048 A 
ATOM      6  C5  UNL d   1      -2.614  -0.374  -1.660  0.00  0.00     0.003 A 
ATOM      7  I   UNL d   1       1.185   0.067   0.390  0.00  0.00    -0.146 I 
ENDROOT
TORSDOF 0
ENDMDL
