MODEL 1
REMARK minimizedAffinity -1.30519772
REMARK minimizedRMSD -1
REMARK  0 active torsions:
REMARK  status: ('A' for Active; 'I' for Inactive)
ROOT
ATOM      1  C   UNL d   1       4.575   3.875  -1.773  0.00  0.00     0.023 A 
ATOM      2  C1  UNL d   1       4.108   4.800  -0.840  0.00  0.00     0.003 A 
ATOM      3  C2  UNL d   1       3.531   4.361   0.354  0.00  0.00     0.048 A 
ATOM      4  C3  UNL d   1       3.426   2.994   0.608  0.00  0.00     0.023 A 
ATOM      5  C4  UNL d   1       3.893   2.064  -0.322  0.00  0.00     0.048 A 
ATOM      6  C5  UNL d   1       4.468   2.508  -1.514  0.00  0.00     0.003 A 
ATOM      7  I   UNL d   1       2.568   2.337   2.384  0.00  0.00    -0.146 I 
ENDROOT
TORSDOF 0
ENDMDL
