MODEL 1
REMARK minimizedAffinity -1.23352635
REMARK minimizedRMSD -1
REMARK  0 active torsions:
REMARK  status: ('A' for Active; 'I' for Inactive)
ROOT
ATOM      1  C   UNL d   1      -2.082  -0.906  -1.558  0.00  0.00     0.023 A 
ATOM      2  C1  UNL d   1      -1.863  -0.980  -0.182  0.00  0.00     0.003 A 
ATOM      3  C2  UNL d   1      -0.695  -0.451   0.370  0.00  0.00     0.048 A 
ATOM      4  C3  UNL d   1       0.250   0.153  -0.459  0.00  0.00     0.023 A 
ATOM      5  C4  UNL d   1       0.035   0.231  -1.836  0.00  0.00     0.048 A 
ATOM      6  C5  UNL d   1      -1.134  -0.301  -2.384  0.00  0.00     0.003 A 
ATOM      7  I   UNL d   1       1.989   0.942   0.361  0.00  0.00    -0.146 I 
ENDROOT
TORSDOF 0
ENDMDL
