MODEL 1
REMARK minimizedAffinity -3.04387617
REMARK minimizedRMSD -1
REMARK  0 active torsions:
REMARK  status: ('A' for Active; 'I' for Inactive)
ROOT
ATOM      1  C   UNL d   1      -1.411  -0.736   0.650  0.00  0.00     0.023 A 
ATOM      2  C1  UNL d   1      -0.061  -0.693   0.999  0.00  0.00     0.003 A 
ATOM      3  C2  UNL d   1       0.914  -0.577   0.007  0.00  0.00     0.048 A 
ATOM      4  C3  UNL d   1       0.533  -0.503  -1.332  0.00  0.00     0.023 A 
ATOM      5  C4  UNL d   1      -0.816  -0.545  -1.686  0.00  0.00     0.048 A 
ATOM      6  C5  UNL d   1      -1.788  -0.662  -0.691  0.00  0.00     0.003 A 
ATOM      7  I   UNL d   1       1.984  -0.330  -2.811  0.00  0.00    -0.146 I 
ENDROOT
TORSDOF 0
ENDMDL
