MODEL 1
REMARK minimizedAffinity 0.878446043
REMARK minimizedRMSD -1
REMARK  0 active torsions:
REMARK  status: ('A' for Active; 'I' for Inactive)
ROOT
ATOM      1  C   UNL d   1       0.060   0.311   0.317  0.00  0.00     0.023 A 
ATOM      2  C1  UNL d   1       1.442   0.139   0.232  0.00  0.00     0.003 A 
ATOM      3  C2  UNL d   1       2.038  -0.131  -1.001  0.00  0.00     0.048 A 
ATOM      4  C3  UNL d   1       1.247  -0.226  -2.146  0.00  0.00     0.023 A 
ATOM      5  C4  UNL d   1      -0.136  -0.054  -2.065  0.00  0.00     0.048 A 
ATOM      6  C5  UNL d   1      -0.728   0.214  -0.830  0.00  0.00     0.003 A 
ATOM      7  I   UNL d   1       2.133  -0.627  -3.983  0.00  0.00    -0.146 I 
ENDROOT
TORSDOF 0
ENDMDL
