MODEL 1
REMARK minimizedAffinity -4.75391102
REMARK minimizedRMSD -1
REMARK  0 active torsions:
REMARK  status: ('A' for Active; 'I' for Inactive)
ROOT
ATOM      1  C   UNL d   1      -2.796  -1.426  -0.614  0.00  0.00     0.023 A 
ATOM      2  C1  UNL d   1      -2.106  -0.866  -1.689  0.00  0.00     0.003 A 
ATOM      3  C2  UNL d   1      -0.884  -0.226  -1.479  0.00  0.00     0.048 A 
ATOM      4  C3  UNL d   1      -0.356  -0.149  -0.190  0.00  0.00     0.023 A 
ATOM      5  C4  UNL d   1      -1.043  -0.709   0.889  0.00  0.00     0.048 A 
ATOM      6  C5  UNL d   1      -2.265  -1.347   0.673  0.00  0.00     0.003 A 
ATOM      7  I   UNL d   1       1.464   0.803   0.126  0.00  0.00    -0.146 I 
ENDROOT
TORSDOF 0
ENDMDL
