MODEL 1
REMARK minimizedAffinity 9.35266685
REMARK minimizedRMSD -1
REMARK  0 active torsions:
REMARK  status: ('A' for Active; 'I' for Inactive)
ROOT
ATOM      1  C1  DEN d   1      -5.084  -4.883   2.203  0.00  0.00     0.130 A 
ATOM      2  C2  DEN d   1      -4.321  -6.000   1.651  0.00  0.00    -0.031 A 
ATOM      3  C3  DEN d   1      -4.037  -5.703   0.233  0.00  0.00     0.027 A 
ATOM      4  C4  DEN d   1      -4.697  -3.631  -1.154  0.00  0.00     0.027 A 
ATOM      5  C5  DEN d   1      -5.359  -2.423  -1.123  0.00  0.00    -0.003 A 
ATOM      6  C6  DEN d   1      -5.999  -1.971  -0.000  0.00  0.00     0.001 A 
ATOM      7  C7  DEN d   1      -5.953  -2.710   1.152  0.00  0.00     0.017 A 
ATOM      8  C8  DEN d   1      -5.294  -3.932   1.126  0.00  0.00    -0.094 A 
ATOM      9  C9  DEN d   1      -4.642  -4.366  -0.015  0.00  0.00    -0.072 A 
ENDROOT
TORSDOF 0
ENDMDL
