MODEL 1
REMARK minimizedAffinity 2.83657146
REMARK minimizedRMSD -1
REMARK  0 active torsions:
REMARK  status: ('A' for Active; 'I' for Inactive)
ROOT
ATOM      1  C1  DEN d   1      -2.146  -0.983   1.075  0.00  0.00     0.130 A 
ATOM      2  C2  DEN d   1      -1.263  -0.467   0.033  0.00  0.00    -0.031 A 
ATOM      3  C3  DEN d   1      -1.265   1.007   0.121  0.00  0.00     0.027 A 
ATOM      4  C4  DEN d   1      -2.538   2.532   1.766  0.00  0.00     0.027 A 
ATOM      5  C5  DEN d   1      -3.421   2.553   2.822  0.00  0.00    -0.003 A 
ATOM      6  C6  DEN d   1      -3.963   1.409   3.344  0.00  0.00     0.001 A 
ATOM      7  C7  DEN d   1      -3.592   0.191   2.840  0.00  0.00     0.017 A 
ATOM      8  C8  DEN d   1      -2.708   0.161   1.769  0.00  0.00    -0.094 A 
ATOM      9  C9  DEN d   1      -2.162   1.329   1.264  0.00  0.00    -0.072 A 
ENDROOT
TORSDOF 0
ENDMDL
