MODEL 1
REMARK minimizedAffinity -2.80639172
REMARK minimizedRMSD -1
REMARK  0 active torsions:
REMARK  status: ('A' for Active; 'I' for Inactive)
ROOT
ATOM      1  C1  DEN d   1      -5.999  -4.787   2.729  0.00  0.00     0.130 A 
ATOM      2  C2  DEN d   1      -5.193  -6.000   2.621  0.00  0.00    -0.031 A 
ATOM      3  C3  DEN d   1      -4.220  -5.805   1.528  0.00  0.00     0.027 A 
ATOM      4  C4  DEN d   1      -3.881  -3.753   0.003  0.00  0.00     0.027 A 
ATOM      5  C5  DEN d   1      -4.335  -2.486  -0.292  0.00  0.00    -0.003 A 
ATOM      6  C6  DEN d   1      -5.389  -1.916   0.372  0.00  0.00     0.001 A 
ATOM      7  C7  DEN d   1      -5.996  -2.596   1.395  0.00  0.00     0.017 A 
ATOM      8  C8  DEN d   1      -5.548  -3.876   1.693  0.00  0.00    -0.094 A 
ATOM      9  C9  DEN d   1      -4.474  -4.431   1.018  0.00  0.00    -0.072 A 
ENDROOT
TORSDOF 0
ENDMDL
