MODEL 1
REMARK minimizedAffinity 11.1092463
REMARK minimizedRMSD -1
REMARK  0 active torsions:
REMARK  status: ('A' for Active; 'I' for Inactive)
ROOT
ATOM      1  C1  DEN d   1       5.726   4.124  -4.387  0.00  0.00     0.130 A 
ATOM      2  C2  DEN d   1       5.909   2.936  -5.216  0.00  0.00    -0.031 A 
ATOM      3  C3  DEN d   1       4.672   2.727  -5.994  0.00  0.00     0.027 A 
ATOM      4  C4  DEN d   1       2.503   4.123  -5.999  0.00  0.00     0.027 A 
ATOM      5  C5  DEN d   1       1.871   5.217  -5.450  0.00  0.00    -0.003 A 
ATOM      6  C6  DEN d   1       2.461   5.997  -4.492  0.00  0.00     0.001 A 
ATOM      7  C7  DEN d   1       3.740   5.721  -4.085  0.00  0.00     0.017 A 
ATOM      8  C8  DEN d   1       4.381   4.615  -4.628  0.00  0.00    -0.094 A 
ATOM      9  C9  DEN d   1       3.771   3.846  -5.605  0.00  0.00    -0.072 A 
ENDROOT
TORSDOF 0
ENDMDL
