MODEL 1
REMARK minimizedAffinity 18.0846863
REMARK minimizedRMSD -1
REMARK  0 active torsions:
REMARK  status: ('A' for Active; 'I' for Inactive)
ROOT
ATOM      1  C1  DEN d   1       4.757   2.949  -5.999  0.00  0.00     0.130 A 
ATOM      2  C2  DEN d   1       6.000   3.082  -5.244  0.00  0.00    -0.031 A 
ATOM      3  C3  DEN d   1       5.810   4.144  -4.235  0.00  0.00     0.027 A 
ATOM      4  C4  DEN d   1       3.722   5.585  -3.770  0.00  0.00     0.027 A 
ATOM      5  C5  DEN d   1       2.427   5.844  -4.162  0.00  0.00    -0.003 A 
ATOM      6  C6  DEN d   1       1.834   5.186  -5.207  0.00  0.00     0.001 A 
ATOM      7  C7  DEN d   1       2.522   4.203  -5.868  0.00  0.00     0.017 A 
ATOM      8  C8  DEN d   1       3.831   3.941  -5.484  0.00  0.00    -0.094 A 
ATOM      9  C9  DEN d   1       4.408   4.609  -4.417  0.00  0.00    -0.072 A 
ENDROOT
TORSDOF 0
ENDMDL
