MODEL 1
REMARK minimizedAffinity 13.2574472
REMARK minimizedRMSD -1
REMARK  0 active torsions:
REMARK  status: ('A' for Active; 'I' for Inactive)
ROOT
ATOM      1  C1  DEN d   1       4.493   1.342  -5.998  0.00  0.00     0.130 A 
ATOM      2  C2  DEN d   1       3.041   1.182  -6.000  0.00  0.00    -0.031 A 
ATOM      3  C3  DEN d   1       2.434   2.527  -5.937  0.00  0.00     0.027 A 
ATOM      4  C4  DEN d   1       3.594   4.828  -5.842  0.00  0.00     0.027 A 
ATOM      5  C5  DEN d   1       4.811   5.471  -5.807  0.00  0.00    -0.003 A 
ATOM      6  C6  DEN d   1       5.998   4.787  -5.799  0.00  0.00     0.001 A 
ATOM      7  C7  DEN d   1       5.994   3.419  -5.872  0.00  0.00     0.017 A 
ATOM      8  C8  DEN d   1       4.770   2.764  -5.900  0.00  0.00    -0.094 A 
ATOM      9  C9  DEN d   1       3.581   3.474  -5.920  0.00  0.00    -0.072 A 
ENDROOT
TORSDOF 0
ENDMDL
