MODEL 1
REMARK minimizedAffinity 9.28095531
REMARK minimizedRMSD -1
REMARK  0 active torsions:
REMARK  status: ('A' for Active; 'I' for Inactive)
ROOT
ATOM      1  C1  DEN d   1       2.181  -5.992   5.359  0.00  0.00     0.130 A 
ATOM      2  C2  DEN d   1       1.305  -5.927   4.192  0.00  0.00    -0.031 A 
ATOM      3  C3  DEN d   1       2.155  -5.867   2.986  0.00  0.00     0.027 A 
ATOM      4  C4  DEN d   1       4.728  -5.876   2.811  0.00  0.00     0.027 A 
ATOM      5  C5  DEN d   1       5.902  -5.908   3.531  0.00  0.00    -0.003 A 
ATOM      6  C6  DEN d   1       5.918  -5.936   4.901  0.00  0.00     0.001 A 
ATOM      7  C7  DEN d   1       4.736  -5.978   5.593  0.00  0.00     0.017 A 
ATOM      8  C8  DEN d   1       3.549  -5.938   4.874  0.00  0.00    -0.094 A 
ATOM      9  C9  DEN d   1       3.553  -5.922   3.490  0.00  0.00    -0.072 A 
ENDROOT
TORSDOF 0
ENDMDL
