MODEL 1
REMARK minimizedAffinity 6.84221888
REMARK minimizedRMSD -1
REMARK  0 active torsions:
REMARK  status: ('A' for Active; 'I' for Inactive)
ROOT
ATOM      1  C1  DEN d   1      -4.482   2.679   2.333  0.00  0.00     0.130 A 
ATOM      2  C2  DEN d   1      -3.767   3.845   2.845  0.00  0.00    -0.031 A 
ATOM      3  C3  DEN d   1      -2.319   3.570   2.751  0.00  0.00     0.027 A 
ATOM      4  C4  DEN d   1      -1.122   1.465   1.863  0.00  0.00     0.027 A 
ATOM      5  C5  DEN d   1      -1.308   0.207   1.332  0.00  0.00    -0.003 A 
ATOM      6  C6  DEN d   1      -2.555  -0.324   1.132  0.00  0.00     0.001 A 
ATOM      7  C7  DEN d   1      -3.666   0.424   1.421  0.00  0.00     0.017 A 
ATOM      8  C8  DEN d   1      -3.486   1.690   1.964  0.00  0.00    -0.094 A 
ATOM      9  C9  DEN d   1      -2.217   2.213   2.147  0.00  0.00    -0.072 A 
ENDROOT
TORSDOF 0
ENDMDL
