MODEL 1
REMARK minimizedAffinity 17.2723484
REMARK minimizedRMSD -1
REMARK  0 active torsions:
REMARK  status: ('A' for Active; 'I' for Inactive)
ROOT
ATOM      1  C1  DEN d   1      -1.158  -0.384   1.369  0.00  0.00     0.130 A 
ATOM      2  C2  DEN d   1      -2.058   0.740   1.614  0.00  0.00    -0.031 A 
ATOM      3  C3  DEN d   1      -3.445   0.249   1.496  0.00  0.00     0.027 A 
ATOM      4  C4  DEN d   1      -4.283  -2.132   0.964  0.00  0.00     0.027 A 
ATOM      5  C5  DEN d   1      -3.893  -3.419   0.667  0.00  0.00    -0.003 A 
ATOM      6  C6  DEN d   1      -2.575  -3.774   0.552  0.00  0.00     0.001 A 
ATOM      7  C7  DEN d   1      -1.598  -2.841   0.778  0.00  0.00     0.017 A 
ATOM      8  C8  DEN d   1      -1.984  -1.539   1.070  0.00  0.00    -0.094 A 
ATOM      9  C9  DEN d   1      -3.321  -1.203   1.194  0.00  0.00    -0.072 A 
ENDROOT
TORSDOF 0
ENDMDL
