MODEL 1
REMARK minimizedAffinity 12.9328737
REMARK minimizedRMSD -1
REMARK  0 active torsions:
REMARK  status: ('A' for Active; 'I' for Inactive)
ROOT
ATOM      1  C1  DEN d   1       1.322  -1.795  -4.223  0.00  0.00     0.130 A 
ATOM      2  C2  DEN d   1       1.718  -0.438  -3.857  0.00  0.00    -0.031 A 
ATOM      3  C3  DEN d   1       0.645   0.481  -4.286  0.00  0.00     0.027 A 
ATOM      4  C4  DEN d   1      -1.581  -0.062  -5.469  0.00  0.00     0.027 A 
ATOM      5  C5  DEN d   1      -2.355  -1.073  -5.996  0.00  0.00    -0.003 A 
ATOM      6  C6  DEN d   1      -1.946  -2.380  -5.999  0.00  0.00     0.001 A 
ATOM      7  C7  DEN d   1      -0.749  -2.718  -5.424  0.00  0.00     0.017 A 
ATOM      8  C8  DEN d   1       0.040  -1.704  -4.897  0.00  0.00    -0.094 A 
ATOM      9  C9  DEN d   1      -0.397  -0.390  -4.893  0.00  0.00    -0.072 A 
ENDROOT
TORSDOF 0
ENDMDL
