MODEL 1
REMARK minimizedAffinity 11.8718987
REMARK minimizedRMSD -1
REMARK  0 active torsions:
REMARK  status: ('A' for Active; 'I' for Inactive)
ROOT
ATOM      1  C1  DEN d   1       1.898   4.151  -2.130  0.00  0.00     0.130 A 
ATOM      2  C2  DEN d   1       2.914   3.362  -1.438  0.00  0.00    -0.031 A 
ATOM      3  C3  DEN d   1       4.051   3.171  -2.361  0.00  0.00     0.027 A 
ATOM      4  C4  DEN d   1       4.338   4.020  -4.779  0.00  0.00     0.027 A 
ATOM      5  C5  DEN d   1       3.738   4.723  -5.800  0.00  0.00    -0.003 A 
ATOM      6  C6  DEN d   1       2.480   5.252  -5.683  0.00  0.00     0.001 A 
ATOM      7  C7  DEN d   1       1.798   5.124  -4.502  0.00  0.00     0.017 A 
ATOM      8  C8  DEN d   1       2.393   4.410  -3.470  0.00  0.00    -0.094 A 
ATOM      9  C9  DEN d   1       3.671   3.894  -3.604  0.00  0.00    -0.072 A 
ENDROOT
TORSDOF 0
ENDMDL
