MODEL 1
REMARK minimizedAffinity 8.99980545
REMARK minimizedRMSD -1
REMARK  0 active torsions:
REMARK  status: ('A' for Active; 'I' for Inactive)
ROOT
ATOM      1  C1  DEN d   1       4.775   0.884   1.435  0.00  0.00     0.130 A 
ATOM      2  C2  DEN d   1       5.197  -0.318   2.148  0.00  0.00    -0.031 A 
ATOM      3  C3  DEN d   1       4.104  -0.717   3.057  0.00  0.00     0.027 A 
ATOM      4  C4  DEN d   1       1.809   0.400   3.424  0.00  0.00     0.027 A 
ATOM      5  C5  DEN d   1       1.001   1.452   3.053  0.00  0.00    -0.003 A 
ATOM      6  C6  DEN d   1       1.404   2.400   2.150  0.00  0.00     0.001 A 
ATOM      7  C7  DEN d   1       2.631   2.289   1.552  0.00  0.00     0.017 A 
ATOM      8  C8  DEN d   1       3.455   1.236   1.926  0.00  0.00    -0.094 A 
ATOM      9  C9  DEN d   1       3.024   0.281   2.832  0.00  0.00    -0.072 A 
ENDROOT
TORSDOF 0
ENDMDL
