MODEL 1
REMARK minimizedAffinity 1.58570981
REMARK minimizedRMSD -1
REMARK  0 active torsions:
REMARK  status: ('A' for Active; 'I' for Inactive)
ROOT
ATOM      1  C1  DEN d   1      -3.499   0.364   5.141  0.00  0.00     0.130 A 
ATOM      2  C2  DEN d   1      -4.259   1.267   6.000  0.00  0.00    -0.031 A 
ATOM      3  C3  DEN d   1      -3.636   2.604   5.921  0.00  0.00     0.027 A 
ATOM      4  C4  DEN d   1      -1.582   3.359   4.557  0.00  0.00     0.027 A 
ATOM      5  C5  DEN d   1      -0.598   2.945   3.686  0.00  0.00    -0.003 A 
ATOM      6  C6  DEN d   1      -0.493   1.644   3.270  0.00  0.00     0.001 A 
ATOM      7  C7  DEN d   1      -1.414   0.720   3.688  0.00  0.00     0.017 A 
ATOM      8  C8  DEN d   1      -2.404   1.129   4.571  0.00  0.00    -0.094 A 
ATOM      9  C9  DEN d   1      -2.502   2.451   4.971  0.00  0.00    -0.072 A 
ENDROOT
TORSDOF 0
ENDMDL
