MODEL 1
REMARK minimizedAffinity -2.65548348
REMARK minimizedRMSD -1
REMARK  1 active torsions:
REMARK  status: ('A' for Active; 'I' for Inactive)
REMARK    1  A    between atoms: C3_4  and  O_7 
ROOT
ATOM      1  C   UNL d   1       5.445   1.777   0.256  0.00  0.00    -0.033 A 
ATOM      2  C1  UNL d   1       4.905   2.906  -0.364  0.00  0.00     0.039 A 
ATOM      3  C2  UNL d   1       4.909   4.136   0.296  0.00  0.00    -0.080 A 
ATOM      4  C3  UNL d   1       5.457   4.225   1.573  0.00  0.00     0.150 A 
ATOM      5  C4  UNL d   1       6.000   3.105   2.195  0.00  0.00    -0.007 A 
ATOM      6  C5  UNL d   1       5.994   1.877   1.535  0.00  0.00     0.039 A 
ENDROOT
BRANCH   4   7
ATOM      7  O   UNL d   1       5.479   5.403   2.259  0.00  0.00    -0.526 OA
ATOM      8  H5  UNL d   1       5.044   6.082   1.717  0.00  0.00     0.418 HD
ENDBRANCH   4   7
TORSDOF 1
ENDMDL
