MODEL 1
REMARK minimizedAffinity -1.90842593
REMARK minimizedRMSD -1
REMARK  1 active torsions:
REMARK  status: ('A' for Active; 'I' for Inactive)
REMARK    1  A    between atoms: C3_4  and  O_7 
ROOT
ATOM      1  C   UNL d   1       2.766   5.605   5.985  0.00  0.00    -0.033 A 
ATOM      2  C1  UNL d   1       1.504   5.209   5.536  0.00  0.00     0.039 A 
ATOM      3  C2  UNL d   1       1.216   5.210   4.170  0.00  0.00    -0.080 A 
ATOM      4  C3  UNL d   1       2.196   5.608   3.265  0.00  0.00     0.150 A 
ATOM      5  C4  UNL d   1       3.456   6.000   3.705  0.00  0.00    -0.007 A 
ATOM      6  C5  UNL d   1       3.742   5.999   5.070  0.00  0.00     0.039 A 
ENDROOT
BRANCH   4   7
ATOM      7  O   UNL d   1       1.960   5.630   1.922  0.00  0.00    -0.526 OA
ATOM      8  H5  UNL d   1       1.038   5.362   1.768  0.00  0.00     0.418 HD
ENDBRANCH   4   7
TORSDOF 1
ENDMDL
