MODEL 1
REMARK minimizedAffinity 0.141924784
REMARK minimizedRMSD -1
REMARK  1 active torsions:
REMARK  status: ('A' for Active; 'I' for Inactive)
REMARK    1  A    between atoms: C3_4  and  O_7 
ROOT
ATOM      1  C   UNL d   1      -5.007   1.524   6.000  0.00  0.00    -0.033 A 
ATOM      2  C1  UNL d   1      -4.055   2.352   5.401  0.00  0.00     0.039 A 
ATOM      3  C2  UNL d   1      -4.073   2.554   4.020  0.00  0.00    -0.080 A 
ATOM      4  C3  UNL d   1      -5.047   1.924   3.250  0.00  0.00     0.150 A 
ATOM      5  C4  UNL d   1      -6.000   1.101   3.840  0.00  0.00    -0.007 A 
ATOM      6  C5  UNL d   1      -5.980   0.900   5.220  0.00  0.00     0.039 A 
ENDROOT
BRANCH   4   7
ATOM      7  O   UNL d   1      -5.101   2.086   1.897  0.00  0.00    -0.526 OA
ATOM      8  H5  UNL d   1      -4.363   2.658   1.626  0.00  0.00     0.418 HD
ENDBRANCH   4   7
TORSDOF 1
ENDMDL
