MODEL 1
REMARK minimizedAffinity 5.38068485
REMARK minimizedRMSD -1
REMARK  1 active torsions:
REMARK  status: ('A' for Active; 'I' for Inactive)
REMARK    1  A    between atoms: C3_4  and  O_7 
ROOT
ATOM      1  C   UNL d   1       2.130  -1.182   1.298  0.00  0.00    -0.033 A 
ATOM      2  C1  UNL d   1       3.360  -1.501   0.720  0.00  0.00     0.039 A 
ATOM      3  C2  UNL d   1       3.491  -2.654  -0.056  0.00  0.00    -0.080 A 
ATOM      4  C3  UNL d   1       2.385  -3.479  -0.247  0.00  0.00     0.150 A 
ATOM      5  C4  UNL d   1       1.156  -3.165   0.323  0.00  0.00    -0.007 A 
ATOM      6  C5  UNL d   1       1.027  -2.014   1.099  0.00  0.00     0.039 A 
ENDROOT
BRANCH   4   7
ATOM      7  O   UNL d   1       2.466  -4.617  -0.992  0.00  0.00    -0.526 OA
ATOM      8  H5  UNL d   1       3.382  -4.720  -1.299  0.00  0.00     0.418 HD
ENDBRANCH   4   7
TORSDOF 1
ENDMDL
