MODEL 1
REMARK minimizedAffinity 7.38986444
REMARK minimizedRMSD -1
REMARK  1 active torsions:
REMARK  status: ('A' for Active; 'I' for Inactive)
REMARK    1  A    between atoms: C3_4  and  O_7 
ROOT
ATOM      1  C   UNL d   1       3.005  -4.210   0.506  0.00  0.00    -0.033 A 
ATOM      2  C1  UNL d   1       1.814  -4.706   1.040  0.00  0.00     0.039 A 
ATOM      3  C2  UNL d   1       0.787  -3.829   1.394  0.00  0.00    -0.080 A 
ATOM      4  C3  UNL d   1       0.963  -2.461   1.209  0.00  0.00     0.150 A 
ATOM      5  C4  UNL d   1       2.145  -1.960   0.674  0.00  0.00    -0.007 A 
ATOM      6  C5  UNL d   1       3.170  -2.837   0.321  0.00  0.00     0.039 A 
ENDROOT
BRANCH   4   7
ATOM      7  O   UNL d   1      -0.010  -1.566   1.544  0.00  0.00    -0.526 OA
ATOM      8  H5  UNL d   1      -0.757  -2.053   1.928  0.00  0.00     0.418 HD
ENDBRANCH   4   7
TORSDOF 1
ENDMDL
