MODEL 1
REMARK minimizedAffinity -2.46265531
REMARK minimizedRMSD -1
REMARK  0 active torsions:
REMARK  status: ('A' for Active; 'I' for Inactive)
ROOT
ATOM      1  C   UNL d   1       4.855   5.439   0.115  0.00  0.00     0.077 C 
ATOM      2  C1  UNL d   1       5.258   5.037   1.503  0.00  0.00    -0.074 A 
ATOM      3  C2  UNL d   1       5.442   5.995   2.505  0.00  0.00    -0.005 A 
ATOM      4  C3  UNL d   1       5.808   5.605   3.793  0.00  0.00     0.006 A 
ATOM      5  C4  UNL d   1       5.993   4.255   4.092  0.00  0.00    -0.005 A 
ATOM      6  C5  UNL d   1       5.814   3.282   3.103  0.00  0.00    -0.074 A 
ATOM      7  C6  UNL d   1       6.000   1.826   3.411  0.00  0.00     0.077 C 
ATOM      8  C7  UNL d   1       5.439   3.682   1.813  0.00  0.00    -0.001 A 
ENDROOT
TORSDOF 0
ENDMDL
