MODEL 1
REMARK minimizedAffinity -1.80859888
REMARK minimizedRMSD -1
REMARK  0 active torsions:
REMARK  status: ('A' for Active; 'I' for Inactive)
ROOT
ATOM      1  C   UNL d   1       5.990   1.726   2.910  0.00  0.00     0.077 C 
ATOM      2  C1  UNL d   1       5.881   3.216   2.785  0.00  0.00    -0.074 A 
ATOM      3  C2  UNL d   1       5.997   4.043   3.907  0.00  0.00    -0.005 A 
ATOM      4  C3  UNL d   1       5.903   5.428   3.773  0.00  0.00     0.006 A 
ATOM      5  C4  UNL d   1       5.692   6.000   2.518  0.00  0.00    -0.005 A 
ATOM      6  C5  UNL d   1       5.574   5.190   1.384  0.00  0.00    -0.074 A 
ATOM      7  C6  UNL d   1       5.358   5.789   0.026  0.00  0.00     0.077 C 
ATOM      8  C7  UNL d   1       5.677   3.799   1.526  0.00  0.00    -0.001 A 
ENDROOT
TORSDOF 0
ENDMDL
