MODEL 1
REMARK minimizedAffinity 15.7468042
REMARK minimizedRMSD -1
REMARK  0 active torsions:
REMARK  status: ('A' for Active; 'I' for Inactive)
ROOT
ATOM      1  C   UNL d   1      -1.612   1.188  -0.628  0.00  0.00     0.077 C 
ATOM      2  C1  UNL d   1      -1.370   2.130   0.513  0.00  0.00    -0.074 A 
ATOM      3  C2  UNL d   1      -0.650   3.314   0.327  0.00  0.00    -0.005 A 
ATOM      4  C3  UNL d   1      -0.440   4.186   1.396  0.00  0.00     0.006 A 
ATOM      5  C4  UNL d   1      -0.948   3.882   2.660  0.00  0.00    -0.005 A 
ATOM      6  C5  UNL d   1      -1.671   2.703   2.865  0.00  0.00    -0.074 A 
ATOM      7  C6  UNL d   1      -2.232   2.366   4.215  0.00  0.00     0.077 C 
ATOM      8  C7  UNL d   1      -1.883   1.836   1.784  0.00  0.00    -0.001 A 
ENDROOT
TORSDOF 0
ENDMDL
