MODEL 1
REMARK minimizedAffinity 1.17183268
REMARK minimizedRMSD -1
REMARK  0 active torsions:
REMARK  status: ('A' for Active; 'I' for Inactive)
ROOT
ATOM      1  C   UNL d   1       6.000  -1.050   5.998  0.00  0.00     0.077 C 
ATOM      2  C1  UNL d   1       5.531  -0.085   4.950  0.00  0.00    -0.074 A 
ATOM      3  C2  UNL d   1       4.658  -0.492   3.937  0.00  0.00    -0.005 A 
ATOM      4  C3  UNL d   1       4.223   0.420   2.974  0.00  0.00     0.006 A 
ATOM      5  C4  UNL d   1       4.658   1.745   3.016  0.00  0.00    -0.005 A 
ATOM      6  C5  UNL d   1       5.531   2.171   4.022  0.00  0.00    -0.074 A 
ATOM      7  C6  UNL d   1       5.999   3.594   4.086  0.00  0.00     0.077 C 
ATOM      8  C7  UNL d   1       5.957   1.250   4.989  0.00  0.00    -0.001 A 
ENDROOT
TORSDOF 0
ENDMDL
