MODEL 1
REMARK minimizedAffinity -3.5150094
REMARK minimizedRMSD -1
REMARK  0 active torsions:
REMARK  status: ('A' for Active; 'I' for Inactive)
ROOT
ATOM      1  C   UNL d   1       5.992   3.295   2.329  0.00  0.00     0.077 C 
ATOM      2  C1  UNL d   1       5.953   2.474   3.583  0.00  0.00    -0.074 A 
ATOM      3  C2  UNL d   1       5.999   3.082   4.842  0.00  0.00    -0.005 A 
ATOM      4  C3  UNL d   1       5.951   2.305   6.000  0.00  0.00     0.006 A 
ATOM      5  C4  UNL d   1       5.858   0.916   5.911  0.00  0.00    -0.005 A 
ATOM      6  C5  UNL d   1       5.811   0.290   4.661  0.00  0.00    -0.074 A 
ATOM      7  C6  UNL d   1       5.701  -1.201   4.548  0.00  0.00     0.077 C 
ATOM      8  C7  UNL d   1       5.851   1.078   3.502  0.00  0.00    -0.001 A 
ENDROOT
TORSDOF 0
ENDMDL
