MODEL 1
REMARK minimizedAffinity -2.07137084
REMARK minimizedRMSD -1
REMARK  0 active torsions:
REMARK  status: ('A' for Active; 'I' for Inactive)
ROOT
ATOM      1  C   UNL d   1       6.000   4.408   4.576  0.00  0.00     0.077 C 
ATOM      2  C1  UNL d   1       5.947   2.954   4.211  0.00  0.00    -0.074 A 
ATOM      3  C2  UNL d   1       6.000   2.546   2.874  0.00  0.00    -0.005 A 
ATOM      4  C3  UNL d   1       5.960   1.190   2.551  0.00  0.00     0.006 A 
ATOM      5  C4  UNL d   1       5.867   0.230   3.558  0.00  0.00    -0.005 A 
ATOM      6  C5  UNL d   1       5.815   0.618   4.901  0.00  0.00    -0.074 A 
ATOM      7  C6  UNL d   1       5.725  -0.402   5.997  0.00  0.00     0.077 C 
ATOM      8  C7  UNL d   1       5.863   1.983   5.218  0.00  0.00    -0.001 A 
ENDROOT
TORSDOF 0
ENDMDL
