MODEL 1
REMARK minimizedAffinity -3.48418021
REMARK minimizedRMSD -1
REMARK  0 active torsions:
REMARK  status: ('A' for Active; 'I' for Inactive)
ROOT
ATOM      1  C   UNL d   1       5.999  -0.851   2.375  0.00  0.00     0.077 C 
ATOM      2  C1  UNL d   1       5.853   0.051   3.564  0.00  0.00    -0.074 A 
ATOM      3  C2  UNL d   1       5.604  -0.471   4.837  0.00  0.00    -0.005 A 
ATOM      4  C3  UNL d   1       5.481   0.380   5.935  0.00  0.00     0.006 A 
ATOM      5  C4  UNL d   1       5.604   1.760   5.771  0.00  0.00    -0.005 A 
ATOM      6  C5  UNL d   1       5.854   2.301   4.506  0.00  0.00    -0.074 A 
ATOM      7  C6  UNL d   1       6.000   3.781   4.315  0.00  0.00     0.077 C 
ATOM      8  C7  UNL d   1       5.984   1.439   3.409  0.00  0.00    -0.001 A 
ENDROOT
TORSDOF 0
ENDMDL
