MODEL 1
REMARK minimizedAffinity -0.824958682
REMARK minimizedRMSD -1
REMARK  0 active torsions:
REMARK  status: ('A' for Active; 'I' for Inactive)
ROOT
ATOM      1  C   UNL d   1       6.000   4.550   3.184  0.00  0.00     0.077 C 
ATOM      2  C1  UNL d   1       5.845   3.221   3.862  0.00  0.00    -0.074 A 
ATOM      3  C2  UNL d   1       5.543   3.140   5.225  0.00  0.00    -0.005 A 
ATOM      4  C3  UNL d   1       5.393   1.897   5.839  0.00  0.00     0.006 A 
ATOM      5  C4  UNL d   1       5.543   0.724   5.098  0.00  0.00    -0.005 A 
ATOM      6  C5  UNL d   1       5.844   0.786   3.734  0.00  0.00    -0.074 A 
ATOM      7  C6  UNL d   1       5.999  -0.465   2.920  0.00  0.00     0.077 C 
ATOM      8  C7  UNL d   1       5.987   2.039   3.122  0.00  0.00    -0.001 A 
ENDROOT
TORSDOF 0
ENDMDL
