MODEL 1
REMARK minimizedAffinity -3.99389911
REMARK minimizedRMSD -1
REMARK  0 active torsions:
REMARK  status: ('A' for Active; 'I' for Inactive)
ROOT
ATOM      1  C   UNL d   1       5.749   3.762   3.929  0.00  0.00     0.077 C 
ATOM      2  C1  UNL d   1       5.764   2.313   4.318  0.00  0.00    -0.074 A 
ATOM      3  C2  UNL d   1       5.998   1.927   5.642  0.00  0.00    -0.005 A 
ATOM      4  C3  UNL d   1       6.000   0.576   5.991  0.00  0.00     0.006 A 
ATOM      5  C4  UNL d   1       5.768  -0.400   5.021  0.00  0.00    -0.005 A 
ATOM      6  C5  UNL d   1       5.531  -0.033   3.692  0.00  0.00    -0.074 A 
ATOM      7  C6  UNL d   1       5.271  -1.069   2.640  0.00  0.00     0.077 C 
ATOM      8  C7  UNL d   1       5.524   1.327   3.351  0.00  0.00    -0.001 A 
ENDROOT
TORSDOF 0
ENDMDL
