MODEL 1
REMARK minimizedAffinity -0.999896705
REMARK minimizedRMSD -1
REMARK  0 active torsions:
REMARK  status: ('A' for Active; 'I' for Inactive)
ROOT
ATOM      1  C   UNL d   1       6.000   5.331   5.850  0.00  0.00     0.077 C 
ATOM      2  C1  UNL d   1       5.992   4.017   5.127  0.00  0.00    -0.074 A 
ATOM      3  C2  UNL d   1       5.996   3.966   3.729  0.00  0.00    -0.005 A 
ATOM      4  C3  UNL d   1       5.998   2.736   3.071  0.00  0.00     0.006 A 
ATOM      5  C4  UNL d   1       5.996   1.547   3.801  0.00  0.00    -0.005 A 
ATOM      6  C5  UNL d   1       5.992   1.579   5.199  0.00  0.00    -0.074 A 
ATOM      7  C6  UNL d   1       6.000   0.310   6.000  0.00  0.00     0.077 C 
ATOM      8  C7  UNL d   1       5.998   2.818   5.854  0.00  0.00    -0.001 A 
ENDROOT
TORSDOF 0
ENDMDL
