MODEL 1
REMARK minimizedAffinity 0.0815851092
REMARK minimizedRMSD -1
REMARK  0 active torsions:
REMARK  status: ('A' for Active; 'I' for Inactive)
ROOT
ATOM      1  C   UNL d   1       5.989  -2.484   4.225  0.00  0.00     0.077 C 
ATOM      2  C1  UNL d   1       5.984  -1.005   4.475  0.00  0.00    -0.074 A 
ATOM      3  C2  UNL d   1       5.995  -0.496   5.777  0.00  0.00    -0.005 A 
ATOM      4  C3  UNL d   1       6.000   0.882   5.994  0.00  0.00     0.006 A 
ATOM      5  C4  UNL d   1       5.995   1.763   4.912  0.00  0.00    -0.005 A 
ATOM      6  C5  UNL d   1       5.985   1.272   3.602  0.00  0.00    -0.074 A 
ATOM      7  C6  UNL d   1       5.990   2.205   2.428  0.00  0.00     0.077 C 
ATOM      8  C7  UNL d   1       5.987  -0.114   3.393  0.00  0.00    -0.001 A 
ENDROOT
TORSDOF 0
ENDMDL
