MODEL 1
REMARK minimizedAffinity 10.7801619
REMARK minimizedRMSD -1
REMARK  0 active torsions:
REMARK  status: ('A' for Active; 'I' for Inactive)
ROOT
ATOM      1  C   UNL d   1       5.643   2.144  -4.003  0.00  0.00     0.077 C 
ATOM      2  C1  UNL d   1       4.337   2.373  -4.704  0.00  0.00    -0.074 A 
ATOM      3  C2  UNL d   1       3.501   1.301  -5.035  0.00  0.00    -0.005 A 
ATOM      4  C3  UNL d   1       2.285   1.530  -5.679  0.00  0.00     0.006 A 
ATOM      5  C4  UNL d   1       1.893   2.831  -5.997  0.00  0.00    -0.005 A 
ATOM      6  C5  UNL d   1       2.715   3.915  -5.673  0.00  0.00    -0.074 A 
ATOM      7  C6  UNL d   1       2.304   5.320  -6.000  0.00  0.00     0.077 C 
ATOM      8  C7  UNL d   1       3.932   3.677  -5.020  0.00  0.00    -0.001 A 
ENDROOT
TORSDOF 0
ENDMDL
