MODEL 1
REMARK minimizedAffinity 7.47204208
REMARK minimizedRMSD -1
REMARK  0 active torsions:
REMARK  status: ('A' for Active; 'I' for Inactive)
ROOT
ATOM      1  C   UNL d   1      -2.375   0.594   3.933  0.00  0.00     0.077 C 
ATOM      2  C1  UNL d   1      -1.876   1.977   3.638  0.00  0.00    -0.074 A 
ATOM      3  C2  UNL d   1      -2.096   3.027   4.535  0.00  0.00    -0.005 A 
ATOM      4  C3  UNL d   1      -1.618   4.306   4.251  0.00  0.00     0.006 A 
ATOM      5  C4  UNL d   1      -0.916   4.548   3.070  0.00  0.00    -0.005 A 
ATOM      6  C5  UNL d   1      -0.685   3.510   2.161  0.00  0.00    -0.074 A 
ATOM      7  C6  UNL d   1       0.076   3.751   0.891  0.00  0.00     0.077 C 
ATOM      8  C7  UNL d   1      -1.163   2.226   2.457  0.00  0.00    -0.001 A 
ENDROOT
TORSDOF 0
ENDMDL
