MODEL 1
REMARK minimizedAffinity -1.96465206
REMARK minimizedRMSD -1
REMARK  0 active torsions:
REMARK  status: ('A' for Active; 'I' for Inactive)
ROOT
ATOM      1  C   UNL d   1       5.992  -1.096   2.224  0.00  0.00     0.077 C 
ATOM      2  C1  UNL d   1       5.816  -0.265   3.461  0.00  0.00    -0.074 A 
ATOM      3  C2  UNL d   1       6.000  -0.820   4.731  0.00  0.00    -0.005 A 
ATOM      4  C3  UNL d   1       5.842  -0.033   5.872  0.00  0.00     0.006 A 
ATOM      5  C4  UNL d   1       5.499   1.314   5.754  0.00  0.00    -0.005 A 
ATOM      6  C5  UNL d   1       5.312   1.887   4.492  0.00  0.00    -0.074 A 
ATOM      7  C6  UNL d   1       4.953   3.336   4.346  0.00  0.00     0.077 C 
ATOM      8  C7  UNL d   1       5.479   1.091   3.350  0.00  0.00    -0.001 A 
ENDROOT
TORSDOF 0
ENDMDL
