MODEL 1
REMARK minimizedAffinity 3.98477459
REMARK minimizedRMSD -1
REMARK  0 active torsions:
REMARK  status: ('A' for Active; 'I' for Inactive)
ROOT
ATOM      1  C   UNL d   1       6.000   5.069   3.853  0.00  0.00     0.077 C 
ATOM      2  C1  UNL d   1       5.472   5.094   2.450  0.00  0.00    -0.074 A 
ATOM      3  C2  UNL d   1       5.979   5.995   1.507  0.00  0.00    -0.005 A 
ATOM      4  C3  UNL d   1       5.485   5.999   0.203  0.00  0.00     0.006 A 
ATOM      5  C4  UNL d   1       4.481   5.105  -0.172  0.00  0.00    -0.005 A 
ATOM      6  C5  UNL d   1       3.963   4.197   0.757  0.00  0.00    -0.074 A 
ATOM      7  C6  UNL d   1       2.890   3.223   0.368  0.00  0.00     0.077 C 
ATOM      8  C7  UNL d   1       4.469   4.194   2.064  0.00  0.00    -0.001 A 
ENDROOT
TORSDOF 0
ENDMDL
