MODEL 1
REMARK minimizedAffinity 2.15249014
REMARK minimizedRMSD -1
REMARK  0 active torsions:
REMARK  status: ('A' for Active; 'I' for Inactive)
ROOT
ATOM      1  C   UNL d   1      -0.002   4.169  -0.100  0.00  0.00     0.077 C 
ATOM      2  C1  UNL d   1      -0.262   3.788   1.327  0.00  0.00    -0.074 A 
ATOM      3  C2  UNL d   1       0.132   4.624   2.378  0.00  0.00    -0.005 A 
ATOM      4  C3  UNL d   1      -0.124   4.260   3.700  0.00  0.00     0.006 A 
ATOM      5  C4  UNL d   1      -0.777   3.060   3.984  0.00  0.00    -0.005 A 
ATOM      6  C5  UNL d   1      -1.180   2.213   2.947  0.00  0.00    -0.074 A 
ATOM      7  C6  UNL d   1      -1.891   0.924   3.236  0.00  0.00     0.077 C 
ATOM      8  C7  UNL d   1      -0.924   2.588   1.621  0.00  0.00    -0.001 A 
ENDROOT
TORSDOF 0
ENDMDL
