MODEL 1
REMARK minimizedAffinity -1.1340338
REMARK minimizedRMSD -1
REMARK  0 active torsions:
REMARK  status: ('A' for Active; 'I' for Inactive)
ROOT
ATOM      1  C   UNL d   1       5.956   0.071   5.993  0.00  0.00     0.077 C 
ATOM      2  C1  UNL d   1       5.977   1.224   5.034  0.00  0.00    -0.074 A 
ATOM      3  C2  UNL d   1       5.980   1.010   3.652  0.00  0.00    -0.005 A 
ATOM      4  C3  UNL d   1       5.990   2.093   2.773  0.00  0.00     0.006 A 
ATOM      5  C4  UNL d   1       5.998   3.398   3.266  0.00  0.00    -0.005 A 
ATOM      6  C5  UNL d   1       5.994   3.632   4.645  0.00  0.00    -0.074 A 
ATOM      7  C6  UNL d   1       5.992   5.029   5.191  0.00  0.00     0.077 C 
ATOM      8  C7  UNL d   1       5.977   2.539   5.522  0.00  0.00    -0.001 A 
ENDROOT
TORSDOF 0
ENDMDL
