MODEL 1
REMARK minimizedAffinity -2.15617943
REMARK minimizedRMSD -1
REMARK  0 active torsions:
REMARK  status: ('A' for Active; 'I' for Inactive)
ROOT
ATOM      1  C   UNL d   1       5.992   3.603   2.423  0.00  0.00     0.077 C 
ATOM      2  C1  UNL d   1       6.000   2.664   3.593  0.00  0.00    -0.074 A 
ATOM      3  C2  UNL d   1       5.996   3.150   4.905  0.00  0.00    -0.005 A 
ATOM      4  C3  UNL d   1       5.994   2.265   5.983  0.00  0.00     0.006 A 
ATOM      5  C4  UNL d   1       5.996   0.887   5.760  0.00  0.00    -0.005 A 
ATOM      6  C5  UNL d   1       5.999   0.383   4.456  0.00  0.00    -0.074 A 
ATOM      7  C6  UNL d   1       5.991  -1.095   4.200  0.00  0.00     0.077 C 
ATOM      8  C7  UNL d   1       5.994   1.279   3.378  0.00  0.00    -0.001 A 
ENDROOT
TORSDOF 0
ENDMDL
