MODEL 1
REMARK minimizedAffinity -0.341117829
REMARK minimizedRMSD -1
REMARK  0 active torsions:
REMARK  status: ('A' for Active; 'I' for Inactive)
ROOT
ATOM      1  C   UNL d   1       5.997   4.235   4.165  0.00  0.00     0.077 C 
ATOM      2  C1  UNL d   1       5.885   2.763   4.424  0.00  0.00    -0.074 A 
ATOM      3  C2  UNL d   1       5.660   2.275   5.716  0.00  0.00    -0.005 A 
ATOM      4  C3  UNL d   1       5.549   0.903   5.941  0.00  0.00     0.006 A 
ATOM      5  C4  UNL d   1       5.662   0.006   4.878  0.00  0.00    -0.005 A 
ATOM      6  C5  UNL d   1       5.886   0.474   3.580  0.00  0.00    -0.074 A 
ATOM      7  C6  UNL d   1       6.000  -0.476   2.425  0.00  0.00     0.077 C 
ATOM      8  C7  UNL d   1       5.989   1.855   3.361  0.00  0.00    -0.001 A 
ENDROOT
TORSDOF 0
ENDMDL
