MODEL 1
REMARK minimizedAffinity -3.03502703
REMARK minimizedRMSD -1
REMARK  0 active torsions:
REMARK  status: ('A' for Active; 'I' for Inactive)
ROOT
ATOM      1  N1  IND d   1       2.433  -1.585   0.406  0.00  0.00    -0.196 N 
ATOM      2  C2  IND d   1       2.151  -2.628   1.243  0.00  0.00     0.054 A 
ATOM      3  C3  IND d   1       0.936  -2.460   1.812  0.00  0.00    -0.031 A 
ATOM      4  C4  IND d   1      -0.801  -0.598   1.436  0.00  0.00     0.051 A 
ATOM      5  C5  IND d   1      -0.982   0.593   0.791  0.00  0.00    -0.031 A 
ATOM      6  C6  IND d   1      -0.014   1.129  -0.035  0.00  0.00     0.015 A 
ATOM      7  C7  IND d   1       1.170   0.484  -0.256  0.00  0.00    -0.016 A 
ATOM      8  C8  IND d   1       1.359  -0.722   0.404  0.00  0.00    -0.047 A 
ATOM      9  C9  IND d   1       0.399  -1.250   1.276  0.00  0.00    -0.096 A 
ATOM     10  HN1 IND d   1       3.159  -1.484  -0.044  0.00  0.00     0.298 HD
ENDROOT
TORSDOF 0
ENDMDL
