MODEL 1
REMARK minimizedAffinity -2.81195617
REMARK minimizedRMSD -1
REMARK  0 active torsions:
REMARK  status: ('A' for Active; 'I' for Inactive)
ROOT
ATOM      1  N1  IND d   1      -1.193  -0.194   0.108  0.00  0.00    -0.196 N 
ATOM      2  C2  IND d   1      -0.685   0.135  -1.118  0.00  0.00     0.054 A 
ATOM      3  C3  IND d   1       0.610  -0.244  -1.208  0.00  0.00    -0.031 A 
ATOM      4  C4  IND d   1       2.065  -1.512   0.496  0.00  0.00     0.051 A 
ATOM      5  C5  IND d   1       2.052  -1.997   1.774  0.00  0.00    -0.031 A 
ATOM      6  C6  IND d   1       0.933  -1.907   2.577  0.00  0.00     0.015 A 
ATOM      7  C7  IND d   1      -0.223  -1.335   2.126  0.00  0.00    -0.016 A 
ATOM      8  C8  IND d   1      -0.211  -0.835   0.831  0.00  0.00    -0.047 A 
ATOM      9  C9  IND d   1       0.934  -0.886   0.026  0.00  0.00    -0.096 A 
ATOM     10  HN1 IND d   1      -1.991  -0.029   0.381  0.00  0.00     0.298 HD
ENDROOT
TORSDOF 0
ENDMDL
