MODEL 1
REMARK minimizedAffinity -3.24883819
REMARK minimizedRMSD -1
REMARK  0 active torsions:
REMARK  status: ('A' for Active; 'I' for Inactive)
ROOT
ATOM      1  N1  IND d   1      -0.996   0.028   1.183  0.00  0.00    -0.196 N 
ATOM      2  C2  IND d   1      -0.651   0.654   0.018  0.00  0.00     0.054 A 
ATOM      3  C3  IND d   1       0.519   0.165  -0.451  0.00  0.00    -0.031 A 
ATOM      4  C4  IND d   1       1.986  -1.736   0.478  0.00  0.00     0.051 A 
ATOM      5  C5  IND d   1       2.102  -2.586   1.541  0.00  0.00    -0.031 A 
ATOM      6  C6  IND d   1       1.170  -2.610   2.559  0.00  0.00     0.015 A 
ATOM      7  C7  IND d   1       0.078  -1.790   2.545  0.00  0.00    -0.016 A 
ATOM      8  C8  IND d   1      -0.039  -0.921   1.470  0.00  0.00    -0.047 A 
ATOM      9  C9  IND d   1       0.925  -0.861   0.456  0.00  0.00    -0.096 A 
ATOM     10  HN1 IND d   1      -1.693   0.197   1.656  0.00  0.00     0.298 HD
ENDROOT
TORSDOF 0
ENDMDL
