MODEL 1
REMARK minimizedAffinity -5.51904964
REMARK minimizedRMSD -1
REMARK  0 active torsions:
REMARK  status: ('A' for Active; 'I' for Inactive)
ROOT
ATOM      1  N1  IND d   1      -0.758   0.587   0.454  0.00  0.00    -0.196 N 
ATOM      2  C2  IND d   1      -0.079   0.956  -0.673  0.00  0.00     0.054 A 
ATOM      3  C3  IND d   1       1.005   0.167  -0.850  0.00  0.00    -0.031 A 
ATOM      4  C4  IND d   1       1.796  -1.856   0.532  0.00  0.00     0.051 A 
ATOM      5  C5  IND d   1       1.521  -2.555   1.674  0.00  0.00    -0.031 A 
ATOM      6  C6  IND d   1       0.449  -2.237   2.483  0.00  0.00     0.015 A 
ATOM      7  C7  IND d   1      -0.399  -1.211   2.172  0.00  0.00    -0.016 A 
ATOM      8  C8  IND d   1      -0.118  -0.496   1.017  0.00  0.00    -0.047 A 
ATOM      9  C9  IND d   1       0.993  -0.787   0.215  0.00  0.00    -0.096 A 
ATOM     10  HN1 IND d   1      -1.466   0.967   0.760  0.00  0.00     0.298 HD
ENDROOT
TORSDOF 0
ENDMDL
