MODEL 1
REMARK minimizedAffinity -7.19821644
REMARK minimizedRMSD -1
REMARK  0 active torsions:
REMARK  status: ('A' for Active; 'I' for Inactive)
ROOT
ATOM      1  N1  IND d   1      -1.057   0.358   0.661  0.00  0.00    -0.196 N 
ATOM      2  C2  IND d   1      -0.336   0.777  -0.422  0.00  0.00     0.054 A 
ATOM      3  C3  IND d   1       0.754  -0.005  -0.593  0.00  0.00    -0.031 A 
ATOM      4  C4  IND d   1       1.495  -2.088   0.726  0.00  0.00     0.051 A 
ATOM      5  C5  IND d   1       1.178  -2.836   1.825  0.00  0.00    -0.031 A 
ATOM      6  C6  IND d   1       0.076  -2.553   2.607  0.00  0.00     0.015 A 
ATOM      7  C7  IND d   1      -0.760  -1.514   2.310  0.00  0.00    -0.016 A 
ATOM      8  C8  IND d   1      -0.437  -0.748   1.199  0.00  0.00    -0.047 A 
ATOM      9  C9  IND d   1       0.703  -1.004   0.427  0.00  0.00    -0.096 A 
ATOM     10  HN1 IND d   1      -1.776   0.725   0.957  0.00  0.00     0.298 HD
ENDROOT
TORSDOF 0
ENDMDL
