MODEL 1
REMARK minimizedAffinity -5.20707798
REMARK minimizedRMSD -1
REMARK  0 active torsions:
REMARK  status: ('A' for Active; 'I' for Inactive)
ROOT
ATOM      1  N1  IND d   1      -0.920   0.426   0.272  0.00  0.00    -0.196 N 
ATOM      2  C2  IND d   1      -0.226   0.533  -0.900  0.00  0.00     0.054 A 
ATOM      3  C3  IND d   1       0.781  -0.369  -0.934  0.00  0.00    -0.031 A 
ATOM      4  C4  IND d   1       1.409  -2.185   0.779  0.00  0.00     0.051 A 
ATOM      5  C5  IND d   1       1.088  -2.649   2.024  0.00  0.00    -0.031 A 
ATOM      6  C6  IND d   1       0.059  -2.102   2.763  0.00  0.00     0.015 A 
ATOM      7  C7  IND d   1      -0.699  -1.074   2.277  0.00  0.00    -0.016 A 
ATOM      8  C8  IND d   1      -0.371  -0.596   1.016  0.00  0.00    -0.047 A 
ATOM      9  C9  IND d   1       0.699  -1.119   0.279  0.00  0.00    -0.096 A 
ATOM     10  HN1 IND d   1      -1.588   0.914   0.506  0.00  0.00     0.298 HD
ENDROOT
TORSDOF 0
ENDMDL
