MODEL 1
REMARK minimizedAffinity -5.59809637
REMARK minimizedRMSD -1
REMARK  0 active torsions:
REMARK  status: ('A' for Active; 'I' for Inactive)
ROOT
ATOM      1  N1  IND d   1      -0.796  -0.104   0.112  0.00  0.00    -0.196 N 
ATOM      2  C2  IND d   1      -0.218   0.143  -1.102  0.00  0.00     0.054 A 
ATOM      3  C3  IND d   1       0.885  -0.622  -1.261  0.00  0.00    -0.031 A 
ATOM      4  C4  IND d   1       1.869  -2.419   0.297  0.00  0.00     0.051 A 
ATOM      5  C5  IND d   1       1.711  -2.975   1.536  0.00  0.00    -0.031 A 
ATOM      6  C6  IND d   1       0.686  -2.597   2.379  0.00  0.00     0.015 A 
ATOM      7  C7  IND d   1      -0.229  -1.652   2.009  0.00  0.00    -0.016 A 
ATOM      8  C8  IND d   1      -0.067  -1.081   0.755  0.00  0.00    -0.047 A 
ATOM      9  C9  IND d   1       0.996  -1.430  -0.088  0.00  0.00    -0.096 A 
ATOM     10  HN1 IND d   1      -1.498   0.285   0.423  0.00  0.00     0.298 HD
ENDROOT
TORSDOF 0
ENDMDL
