MODEL 1
REMARK minimizedAffinity -2.77336144
REMARK minimizedRMSD -1
REMARK  0 active torsions:
REMARK  status: ('A' for Active; 'I' for Inactive)
ROOT
ATOM      1  N1  IND d   1      -1.021   0.278   0.746  0.00  0.00    -0.196 N 
ATOM      2  C2  IND d   1      -0.431   0.738  -0.398  0.00  0.00     0.054 A 
ATOM      3  C3  IND d   1       0.787   0.172  -0.559  0.00  0.00    -0.031 A 
ATOM      4  C4  IND d   1       1.965  -1.611   0.876  0.00  0.00     0.051 A 
ATOM      5  C5  IND d   1       1.836  -2.313   2.042  0.00  0.00    -0.031 A 
ATOM      6  C6  IND d   1       0.724  -2.187   2.850  0.00  0.00     0.015 A 
ATOM      7  C7  IND d   1      -0.310  -1.359   2.515  0.00  0.00    -0.016 A 
ATOM      8  C8  IND d   1      -0.179  -0.639   1.336  0.00  0.00    -0.047 A 
ATOM      9  C9  IND d   1       0.966  -0.730   0.533  0.00  0.00    -0.096 A 
ATOM     10  HN1 IND d   1      -1.789   0.521   1.046  0.00  0.00     0.298 HD
ENDROOT
TORSDOF 0
ENDMDL
