MODEL 1
REMARK minimizedAffinity -4.05909061
REMARK minimizedRMSD -1
REMARK  0 active torsions:
REMARK  status: ('A' for Active; 'I' for Inactive)
ROOT
ATOM      1  N1  IND d   1      -1.068  -0.655   2.187  0.00  0.00    -0.196 N 
ATOM      2  C2  IND d   1      -0.786  -1.503   3.222  0.00  0.00     0.054 A 
ATOM      3  C3  IND d   1       0.389  -2.137   3.004  0.00  0.00    -0.031 A 
ATOM      4  C4  IND d   1       2.062  -1.859   1.067  0.00  0.00     0.051 A 
ATOM      5  C5  IND d   1       2.225  -1.228  -0.134  0.00  0.00    -0.031 A 
ATOM      6  C6  IND d   1       1.280  -0.353  -0.631  0.00  0.00     0.015 A 
ATOM      7  C7  IND d   1       0.138  -0.068   0.062  0.00  0.00    -0.016 A 
ATOM      8  C8  IND d   1      -0.033  -0.713   1.279  0.00  0.00    -0.047 A 
ATOM      9  C9  IND d   1       0.901  -1.634   1.769  0.00  0.00    -0.096 A 
ATOM     10  HN1 IND d   1      -1.772  -0.168   2.116  0.00  0.00     0.298 HD
ENDROOT
TORSDOF 0
ENDMDL
