MODEL 1
REMARK minimizedAffinity -3.93192983
REMARK minimizedRMSD -1
REMARK  0 active torsions:
REMARK  status: ('A' for Active; 'I' for Inactive)
ROOT
ATOM      1  N1  IND d   1      -0.443   0.217   0.519  0.00  0.00    -0.196 N 
ATOM      2  C2  IND d   1       0.381   0.628  -0.492  0.00  0.00     0.054 A 
ATOM      3  C3  IND d   1       1.430  -0.215  -0.616  0.00  0.00    -0.031 A 
ATOM      4  C4  IND d   1       1.940  -2.390   0.664  0.00  0.00     0.051 A 
ATOM      5  C5  IND d   1       1.497  -3.157   1.705  0.00  0.00    -0.031 A 
ATOM      6  C6  IND d   1       0.360  -2.833   2.416  0.00  0.00     0.015 A 
ATOM      7  C7  IND d   1      -0.386  -1.732   2.104  0.00  0.00    -0.016 A 
ATOM      8  C8  IND d   1       0.065  -0.947   1.052  0.00  0.00    -0.047 A 
ATOM      9  C9  IND d   1       1.242  -1.247   0.354  0.00  0.00    -0.096 A 
ATOM     10  HN1 IND d   1      -1.159   0.618   0.777  0.00  0.00     0.298 HD
ENDROOT
TORSDOF 0
ENDMDL
