MODEL 1
REMARK minimizedAffinity -5.4682169
REMARK minimizedRMSD -1
REMARK  0 active torsions:
REMARK  status: ('A' for Active; 'I' for Inactive)
ROOT
ATOM      1  N1  IND d   1      -1.097  -1.102   2.068  0.00  0.00    -0.196 N 
ATOM      2  C2  IND d   1      -0.437  -1.994   2.866  0.00  0.00     0.054 A 
ATOM      3  C3  IND d   1       0.783  -2.270   2.354  0.00  0.00    -0.031 A 
ATOM      4  C4  IND d   1       1.943  -1.295   0.274  0.00  0.00     0.051 A 
ATOM      5  C5  IND d   1       1.724  -0.472  -0.795  0.00  0.00    -0.031 A 
ATOM      6  C6  IND d   1       0.531   0.199  -0.966  0.00  0.00     0.015 A 
ATOM      7  C7  IND d   1      -0.489   0.080  -0.065  0.00  0.00    -0.016 A 
ATOM      8  C8  IND d   1      -0.273  -0.760   1.018  0.00  0.00    -0.047 A 
ATOM      9  C9  IND d   1       0.921  -1.477   1.175  0.00  0.00    -0.096 A 
ATOM     10  HN1 IND d   1      -1.893  -0.804   2.199  0.00  0.00     0.298 HD
ENDROOT
TORSDOF 0
ENDMDL
