MODEL 1
REMARK minimizedAffinity -4.82387447
REMARK minimizedRMSD -1
REMARK  0 active torsions:
REMARK  status: ('A' for Active; 'I' for Inactive)
ROOT
ATOM      1  N1  IND d   1      -0.898  -0.400   1.730  0.00  0.00    -0.196 N 
ATOM      2  C2  IND d   1      -1.304  -1.295   2.680  0.00  0.00     0.054 A 
ATOM      3  C3  IND d   1      -0.561  -2.422   2.613  0.00  0.00    -0.031 A 
ATOM      4  C4  IND d   1       1.439  -2.974   1.089  0.00  0.00     0.051 A 
ATOM      5  C5  IND d   1       2.157  -2.484   0.035  0.00  0.00    -0.031 A 
ATOM      6  C6  IND d   1       1.890  -1.249  -0.518  0.00  0.00     0.015 A 
ATOM      7  C7  IND d   1       0.897  -0.448  -0.027  0.00  0.00    -0.016 A 
ATOM      8  C8  IND d   1       0.161  -0.946   1.039  0.00  0.00    -0.047 A 
ATOM      9  C9  IND d   1       0.400  -2.217   1.576  0.00  0.00    -0.096 A 
ATOM     10  HN1 IND d   1      -1.246   0.373   1.587  0.00  0.00     0.298 HD
ENDROOT
TORSDOF 0
ENDMDL
