MODEL 1
REMARK minimizedAffinity -2.61314464
REMARK minimizedRMSD -1
REMARK  0 active torsions:
REMARK  status: ('A' for Active; 'I' for Inactive)
ROOT
ATOM      1  N1  IND d   1       0.648   1.078  -0.096  0.00  0.00    -0.196 N 
ATOM      2  C2  IND d   1      -0.645   1.222  -0.516  0.00  0.00     0.054 A 
ATOM      3  C3  IND d   1      -1.248   0.015  -0.603  0.00  0.00    -0.031 A 
ATOM      4  C4  IND d   1      -0.333  -2.317  -0.007  0.00  0.00     0.051 A 
ATOM      5  C5  IND d   1       0.808  -2.958   0.385  0.00  0.00    -0.031 A 
ATOM      6  C6  IND d   1       1.977  -2.273   0.645  0.00  0.00     0.015 A 
ATOM      7  C7  IND d   1       2.045  -0.913   0.533  0.00  0.00    -0.016 A 
ATOM      8  C8  IND d   1       0.890  -0.259   0.128  0.00  0.00    -0.047 A 
ATOM      9  C9  IND d   1      -0.287  -0.953  -0.178  0.00  0.00    -0.096 A 
ATOM     10  HN1 IND d   1       1.214   1.716   0.011  0.00  0.00     0.298 HD
ENDROOT
TORSDOF 0
ENDMDL
