MODEL 1
REMARK minimizedAffinity -2.60826278
REMARK minimizedRMSD -1
REMARK  0 active torsions:
REMARK  status: ('A' for Active; 'I' for Inactive)
ROOT
ATOM      1  N1  IND d   1      -0.699   0.765   0.746  0.00  0.00    -0.196 N 
ATOM      2  C2  IND d   1       0.078   1.314  -0.235  0.00  0.00     0.054 A 
ATOM      3  C3  IND d   1       1.266   0.672  -0.308  0.00  0.00    -0.031 A 
ATOM      4  C4  IND d   1       2.105  -1.371   1.014  0.00  0.00     0.051 A 
ATOM      5  C5  IND d   1       1.763  -2.201   2.045  0.00  0.00    -0.031 A 
ATOM      6  C6  IND d   1       0.558  -2.085   2.706  0.00  0.00     0.015 A 
ATOM      7  C7  IND d   1      -0.360  -1.136   2.353  0.00  0.00    -0.016 A 
ATOM      8  C8  IND d   1      -0.013  -0.287   1.312  0.00  0.00    -0.047 A 
ATOM      9  C9  IND d   1       1.226  -0.373   0.665  0.00  0.00    -0.096 A 
ATOM     10  HN1 IND d   1      -1.485   1.032   0.971  0.00  0.00     0.298 HD
ENDROOT
TORSDOF 0
ENDMDL
