MODEL 1
REMARK minimizedAffinity -6.06572485
REMARK minimizedRMSD -1
REMARK  0 active torsions:
REMARK  status: ('A' for Active; 'I' for Inactive)
ROOT
ATOM      1  N1  IND d   1      -0.587  -0.110   0.467  0.00  0.00    -0.196 N 
ATOM      2  C2  IND d   1       0.182   0.341  -0.569  0.00  0.00     0.054 A 
ATOM      3  C3  IND d   1       1.331  -0.366  -0.645  0.00  0.00    -0.031 A 
ATOM      4  C4  IND d   1       2.111  -2.375   0.764  0.00  0.00     0.051 A 
ATOM      5  C5  IND d   1       1.765  -3.127   1.851  0.00  0.00    -0.031 A 
ATOM      6  C6  IND d   1       0.592  -2.909   2.545  0.00  0.00     0.015 A 
ATOM      7  C7  IND d   1      -0.288  -1.935   2.169  0.00  0.00    -0.016 A 
ATOM      8  C8  IND d   1       0.064  -1.164   1.069  0.00  0.00    -0.047 A 
ATOM      9  C9  IND d   1       1.273  -1.352   0.387  0.00  0.00    -0.096 A 
ATOM     10  HN1 IND d   1      -1.350   0.210   0.702  0.00  0.00     0.298 HD
ENDROOT
TORSDOF 0
ENDMDL
