MODEL 1
REMARK minimizedAffinity -4.59797049
REMARK minimizedRMSD -1
REMARK  0 active torsions:
REMARK  status: ('A' for Active; 'I' for Inactive)
ROOT
ATOM      1  N1  IND d   1      -0.961   0.420   0.404  0.00  0.00    -0.196 N 
ATOM      2  C2  IND d   1      -0.237   0.726  -0.715  0.00  0.00     0.054 A 
ATOM      3  C3  IND d   1       0.849  -0.074  -0.806  0.00  0.00    -0.031 A 
ATOM      4  C4  IND d   1       1.581  -2.018   0.714  0.00  0.00     0.051 A 
ATOM      5  C5  IND d   1       1.260  -2.653   1.882  0.00  0.00    -0.031 A 
ATOM      6  C6  IND d   1       0.158  -2.290   2.630  0.00  0.00     0.015 A 
ATOM      7  C7  IND d   1      -0.673  -1.282   2.230  0.00  0.00    -0.016 A 
ATOM      8  C8  IND d   1      -0.346  -0.631   1.049  0.00  0.00    -0.047 A 
ATOM      9  C9  IND d   1       0.794  -0.967   0.308  0.00  0.00    -0.096 A 
ATOM     10  HN1 IND d   1      -1.679   0.816   0.661  0.00  0.00     0.298 HD
ENDROOT
TORSDOF 0
ENDMDL
