MODEL 1
REMARK minimizedAffinity 2.52722478
REMARK minimizedRMSD -1
REMARK  0 active torsions:
REMARK  status: ('A' for Active; 'I' for Inactive)
ROOT
ATOM      1  N1  IND d   1      -2.125   0.323  -0.391  0.00  0.00    -0.196 N 
ATOM      2  C2  IND d   1      -0.830   0.657  -0.109  0.00  0.00     0.054 A 
ATOM      3  C3  IND d   1      -0.446   1.720  -0.851  0.00  0.00    -0.031 A 
ATOM      4  C4  IND d   1      -1.812   3.131  -2.516  0.00  0.00     0.051 A 
ATOM      5  C5  IND d   1      -3.030   3.191  -3.132  0.00  0.00    -0.031 A 
ATOM      6  C6  IND d   1      -4.031   2.281  -2.858  0.00  0.00     0.015 A 
ATOM      7  C7  IND d   1      -3.853   1.279  -1.946  0.00  0.00    -0.016 A 
ATOM      8  C8  IND d   1      -2.614   1.212  -1.324  0.00  0.00    -0.047 A 
ATOM      9  C9  IND d   1      -1.581   2.107  -1.629  0.00  0.00    -0.096 A 
ATOM     10  HN1 IND d   1      -2.562  -0.332  -0.045  0.00  0.00     0.298 HD
ENDROOT
TORSDOF 0
ENDMDL
