MODEL 1
REMARK minimizedAffinity -4.92898226
REMARK minimizedRMSD -1
REMARK  0 active torsions:
REMARK  status: ('A' for Active; 'I' for Inactive)
ROOT
ATOM      1  N1  IND d   1      -1.133   0.347   0.591  0.00  0.00    -0.196 N 
ATOM      2  C2  IND d   1      -0.307   0.860  -0.371  0.00  0.00     0.054 A 
ATOM      3  C3  IND d   1       0.819   0.118  -0.469  0.00  0.00    -0.031 A 
ATOM      4  C4  IND d   1       1.471  -2.037   0.779  0.00  0.00     0.051 A 
ATOM      5  C5  IND d   1       1.055  -2.870   1.780  0.00  0.00    -0.031 A 
ATOM      6  C6  IND d   1      -0.136  -2.671   2.447  0.00  0.00     0.015 A 
ATOM      7  C7  IND d   1      -0.965  -1.633   2.129  0.00  0.00    -0.016 A 
ATOM      8  C8  IND d   1      -0.543  -0.781   1.118  0.00  0.00    -0.047 A 
ATOM      9  C9  IND d   1       0.684  -0.954   0.466  0.00  0.00    -0.096 A 
ATOM     10  HN1 IND d   1      -1.892   0.674   0.827  0.00  0.00     0.298 HD
ENDROOT
TORSDOF 0
ENDMDL
