MODEL 1
REMARK minimizedAffinity -2.87553811
REMARK minimizedRMSD -1
REMARK  0 active torsions:
REMARK  status: ('A' for Active; 'I' for Inactive)
ROOT
ATOM      1  N1  IND d   1      -0.577   0.155  -1.887  0.00  0.00    -0.196 N 
ATOM      2  C2  IND d   1      -1.157   1.049  -1.030  0.00  0.00     0.054 A 
ATOM      3  C3  IND d   1      -0.564   0.990   0.183  0.00  0.00    -0.031 A 
ATOM      4  C4  IND d   1       1.443  -0.424   0.956  0.00  0.00     0.051 A 
ATOM      5  C5  IND d   1       2.286  -1.415   0.539  0.00  0.00    -0.031 A 
ATOM      6  C6  IND d   1       2.219  -1.942  -0.734  0.00  0.00     0.015 A 
ATOM      7  C7  IND d   1       1.309  -1.488  -1.646  0.00  0.00    -0.016 A 
ATOM      8  C8  IND d   1       0.446  -0.486  -1.224  0.00  0.00    -0.047 A 
ATOM      9  C9  IND d   1       0.482   0.023   0.081  0.00  0.00    -0.096 A 
ATOM     10  HN1 IND d   1      -0.812   0.017  -2.703  0.00  0.00     0.298 HD
ENDROOT
TORSDOF 0
ENDMDL
