MODEL 1
REMARK minimizedAffinity -4.91814423
REMARK minimizedRMSD -1
REMARK  0 active torsions:
REMARK  status: ('A' for Active; 'I' for Inactive)
ROOT
ATOM      1  N1  IND d   1      -1.464   0.247   1.358  0.00  0.00    -0.196 N 
ATOM      2  C2  IND d   1      -0.980   0.733   0.176  0.00  0.00     0.054 A 
ATOM      3  C3  IND d   1       0.075  -0.003  -0.239  0.00  0.00    -0.031 A 
ATOM      4  C4  IND d   1       1.114  -2.110   0.813  0.00  0.00     0.051 A 
ATOM      5  C5  IND d   1       1.038  -2.913   1.916  0.00  0.00    -0.031 A 
ATOM      6  C6  IND d   1       0.103  -2.701   2.909  0.00  0.00     0.015 A 
ATOM      7  C7  IND d   1      -0.802  -1.680   2.829  0.00  0.00    -0.016 A 
ATOM      8  C8  IND d   1      -0.723  -0.859   1.713  0.00  0.00    -0.047 A 
ATOM      9  C9  IND d   1       0.251  -1.044   0.723  0.00  0.00    -0.096 A 
ATOM     10  HN1 IND d   1      -2.121   0.575   1.804  0.00  0.00     0.298 HD
ENDROOT
TORSDOF 0
ENDMDL
