MODEL 1
REMARK minimizedAffinity 12.4831066
REMARK minimizedRMSD -1
REMARK  0 active torsions:
REMARK  status: ('A' for Active; 'I' for Inactive)
ROOT
ATOM      1  N1  IND d   1       2.968   1.793   0.751  0.00  0.00    -0.196 N 
ATOM      2  C2  IND d   1       2.422   0.952  -0.179  0.00  0.00     0.054 A 
ATOM      3  C3  IND d   1       1.136   0.675   0.135  0.00  0.00    -0.031 A 
ATOM      4  C4  IND d   1      -0.305   1.573   2.069  0.00  0.00     0.051 A 
ATOM      5  C5  IND d   1      -0.236   2.340   3.199  0.00  0.00    -0.031 A 
ATOM      6  C6  IND d   1       0.928   2.979   3.576  0.00  0.00     0.015 A 
ATOM      7  C7  IND d   1       2.067   2.883   2.828  0.00  0.00    -0.016 A 
ATOM      8  C8  IND d   1       2.002   2.099   1.685  0.00  0.00    -0.047 A 
ATOM      9  C9  IND d   1       0.836   1.414   1.320  0.00  0.00    -0.096 A 
ATOM     10  HN1 IND d   1       3.778   2.081   0.752  0.00  0.00     0.298 HD
ENDROOT
TORSDOF 0
ENDMDL
