MODEL 1
REMARK minimizedAffinity 7.15963125
REMARK minimizedRMSD -1
REMARK  0 active torsions:
REMARK  status: ('A' for Active; 'I' for Inactive)
ROOT
ATOM      1  N1  IND d   1       2.997   1.745  -0.814  0.00  0.00    -0.196 N 
ATOM      2  C2  IND d   1       4.302   1.491  -1.133  0.00  0.00     0.054 A 
ATOM      3  C3  IND d   1       4.497   0.162  -1.293  0.00  0.00    -0.031 A 
ATOM      4  C4  IND d   1       2.794  -1.766  -1.180  0.00  0.00     0.051 A 
ATOM      5  C5  IND d   1       1.487  -2.032  -0.884  0.00  0.00    -0.031 A 
ATOM      6  C6  IND d   1       0.598  -1.033  -0.546  0.00  0.00     0.015 A 
ATOM      7  C7  IND d   1       0.981   0.277  -0.501  0.00  0.00    -0.016 A 
ATOM      8  C8  IND d   1       2.310   0.551  -0.794  0.00  0.00    -0.047 A 
ATOM      9  C9  IND d   1       3.227  -0.463  -1.097  0.00  0.00    -0.096 A 
ATOM     10  HN1 IND d   1       2.662   2.520  -0.653  0.00  0.00     0.298 HD
ENDROOT
TORSDOF 0
ENDMDL
