MODEL 1
REMARK minimizedAffinity 0.163683325
REMARK minimizedRMSD -1
REMARK  0 active torsions:
REMARK  status: ('A' for Active; 'I' for Inactive)
ROOT
ATOM      1  N1  IND d   1       3.124   2.752  -0.031  0.00  0.00    -0.196 N 
ATOM      2  C2  IND d   1       4.335   2.495  -0.611  0.00  0.00     0.054 A 
ATOM      3  C3  IND d   1       4.427   1.189  -0.949  0.00  0.00    -0.031 A 
ATOM      4  C4  IND d   1       2.674  -0.683  -0.735  0.00  0.00     0.051 A 
ATOM      5  C5  IND d   1       1.429  -0.941  -0.233  0.00  0.00    -0.031 A 
ATOM      6  C6  IND d   1       0.669   0.039   0.372  0.00  0.00     0.015 A 
ATOM      7  C7  IND d   1       1.123   1.322   0.487  0.00  0.00    -0.016 A 
ATOM      8  C8  IND d   1       2.390   1.586  -0.015  0.00  0.00    -0.047 A 
ATOM      9  C9  IND d   1       3.183   0.586  -0.591  0.00  0.00    -0.096 A 
ATOM     10  HN1 IND d   1       2.864   3.513   0.273  0.00  0.00     0.298 HD
ENDROOT
TORSDOF 0
ENDMDL
