MODEL 1
REMARK minimizedAffinity 4.57564116
REMARK minimizedRMSD -1
REMARK  0 active torsions:
REMARK  status: ('A' for Active; 'I' for Inactive)
ROOT
ATOM      1  N1  IND d   1       4.845  -0.077  -3.060  0.00  0.00    -0.196 N 
ATOM      2  C2  IND d   1       4.982   0.918  -2.132  0.00  0.00     0.054 A 
ATOM      3  C3  IND d   1       4.128   0.720  -1.102  0.00  0.00    -0.031 A 
ATOM      4  C4  IND d   1       2.491  -1.222  -0.685  0.00  0.00     0.051 A 
ATOM      5  C5  IND d   1       1.985  -2.349  -1.269  0.00  0.00    -0.031 A 
ATOM      6  C6  IND d   1       2.418  -2.787  -2.504  0.00  0.00     0.015 A 
ATOM      7  C7  IND d   1       3.385  -2.117  -3.199  0.00  0.00    -0.016 A 
ATOM      8  C8  IND d   1       3.895  -0.968  -2.612  0.00  0.00    -0.047 A 
ATOM      9  C9  IND d   1       3.430  -0.495  -1.378  0.00  0.00    -0.096 A 
ATOM     10  HN1 IND d   1       5.279  -0.135  -3.800  0.00  0.00     0.298 HD
ENDROOT
TORSDOF 0
ENDMDL
