MODEL 1
REMARK minimizedAffinity 3.83757114
REMARK minimizedRMSD -1
REMARK  0 active torsions:
REMARK  status: ('A' for Active; 'I' for Inactive)
ROOT
ATOM      1  N1  IND d   1       0.692   1.352   1.632  0.00  0.00    -0.196 N 
ATOM      2  C2  IND d   1       0.526   1.863   2.889  0.00  0.00     0.054 A 
ATOM      3  C3  IND d   1       1.580   2.642   3.222  0.00  0.00    -0.031 A 
ATOM      4  C4  IND d   1       3.638   3.297   1.822  0.00  0.00     0.051 A 
ATOM      5  C5  IND d   1       4.251   3.048   0.625  0.00  0.00    -0.031 A 
ATOM      6  C6  IND d   1       3.696   2.206  -0.317  0.00  0.00     0.015 A 
ATOM      7  C7  IND d   1       2.497   1.588  -0.101  0.00  0.00    -0.016 A 
ATOM      8  C8  IND d   1       1.875   1.833   1.115  0.00  0.00    -0.047 A 
ATOM      9  C9  IND d   1       2.454   2.653   2.093  0.00  0.00    -0.096 A 
ATOM     10  HN1 IND d   1       0.149   0.819   1.231  0.00  0.00     0.298 HD
ENDROOT
TORSDOF 0
ENDMDL
