MODEL 1
REMARK minimizedAffinity 3.47309017
REMARK minimizedRMSD -1
REMARK  0 active torsions:
REMARK  status: ('A' for Active; 'I' for Inactive)
ROOT
ATOM      1  N1  IND d   1       0.363  -0.837  -0.098  0.00  0.00    -0.196 N 
ATOM      2  C2  IND d   1       1.051  -1.900  -0.614  0.00  0.00     0.054 A 
ATOM      3  C3  IND d   1       2.324  -1.543  -0.896  0.00  0.00    -0.031 A 
ATOM      4  C4  IND d   1       3.521   0.701  -0.497  0.00  0.00     0.051 A 
ATOM      5  C5  IND d   1       3.295   1.983  -0.081  0.00  0.00    -0.031 A 
ATOM      6  C6  IND d   1       2.056   2.398   0.362  0.00  0.00     0.015 A 
ATOM      7  C7  IND d   1       0.995   1.540   0.416  0.00  0.00    -0.016 A 
ATOM      8  C8  IND d   1       1.219   0.239  -0.012  0.00  0.00    -0.047 A 
ATOM      9  C9  IND d   1       2.463  -0.177  -0.502  0.00  0.00    -0.096 A 
ATOM     10  HN1 IND d   1      -0.465  -0.840   0.134  0.00  0.00     0.298 HD
ENDROOT
TORSDOF 0
ENDMDL
