MODEL 1
REMARK minimizedAffinity -5.49233437
REMARK minimizedRMSD -1
REMARK  0 active torsions:
REMARK  status: ('A' for Active; 'I' for Inactive)
ROOT
ATOM      1  N1  IND d   1       3.570   2.377   0.177  0.00  0.00    -0.196 N 
ATOM      2  C2  IND d   1       4.901   2.117   0.009  0.00  0.00     0.054 A 
ATOM      3  C3  IND d   1       5.105   0.790  -0.148  0.00  0.00    -0.031 A 
ATOM      4  C4  IND d   1       3.389  -1.126  -0.264  0.00  0.00     0.051 A 
ATOM      5  C5  IND d   1       2.054  -1.386  -0.125  0.00  0.00    -0.031 A 
ATOM      6  C6  IND d   1       1.138  -0.385   0.123  0.00  0.00     0.015 A 
ATOM      7  C7  IND d   1       1.522   0.922   0.231  0.00  0.00    -0.016 A 
ATOM      8  C8  IND d   1       2.877   1.189   0.099  0.00  0.00    -0.047 A 
ATOM      9  C9  IND d   1       3.817   0.172  -0.111  0.00  0.00    -0.096 A 
ATOM     10  HN1 IND d   1       3.223   3.153   0.309  0.00  0.00     0.298 HD
ENDROOT
TORSDOF 0
ENDMDL
