MODEL 1
REMARK minimizedAffinity 2.81985402
REMARK minimizedRMSD -1
REMARK  0 active torsions:
REMARK  status: ('A' for Active; 'I' for Inactive)
ROOT
ATOM      1  N1  IND d   1       4.957  -0.367  -3.287  0.00  0.00    -0.196 N 
ATOM      2  C2  IND d   1       5.405   0.660  -2.505  0.00  0.00     0.054 A 
ATOM      3  C3  IND d   1       4.871   0.577  -1.266  0.00  0.00    -0.031 A 
ATOM      4  C4  IND d   1       3.318  -1.221  -0.273  0.00  0.00     0.051 A 
ATOM      5  C5  IND d   1       2.607  -2.338  -0.612  0.00  0.00    -0.031 A 
ATOM      6  C6  IND d   1       2.647  -2.867  -1.886  0.00  0.00     0.015 A 
ATOM      7  C7  IND d   1       3.410  -2.304  -2.869  0.00  0.00    -0.016 A 
ATOM      8  C8  IND d   1       4.127  -1.165  -2.529  0.00  0.00    -0.047 A 
ATOM      9  C9  IND d   1       4.058  -0.598  -1.250  0.00  0.00    -0.096 A 
ATOM     10  HN1 IND d   1       5.158  -0.494  -4.113  0.00  0.00     0.298 HD
ENDROOT
TORSDOF 0
ENDMDL
