MODEL 1
REMARK minimizedAffinity 3.25248814
REMARK minimizedRMSD -1
REMARK  0 active torsions:
REMARK  status: ('A' for Active; 'I' for Inactive)
ROOT
ATOM      1  N1  IND d   1       1.773   0.010  -0.415  0.00  0.00    -0.196 N 
ATOM      2  C2  IND d   1       1.113   1.137  -0.817  0.00  0.00     0.054 A 
ATOM      3  C3  IND d   1      -0.113   0.820  -1.293  0.00  0.00    -0.031 A 
ATOM      4  C4  IND d   1      -1.279  -1.471  -1.410  0.00  0.00     0.051 A 
ATOM      5  C5  IND d   1      -1.062  -2.803  -1.193  0.00  0.00    -0.031 A 
ATOM      6  C6  IND d   1       0.135  -3.275  -0.693  0.00  0.00     0.015 A 
ATOM      7  C7  IND d   1       1.159  -2.427  -0.379  0.00  0.00    -0.016 A 
ATOM      8  C8  IND d   1       0.944  -1.074  -0.605  0.00  0.00    -0.047 A 
ATOM      9  C9  IND d   1      -0.252  -0.594  -1.152  0.00  0.00    -0.096 A 
ATOM     10  HN1 IND d   1       2.571  -0.017  -0.097  0.00  0.00     0.298 HD
ENDROOT
TORSDOF 0
ENDMDL
