MODEL 1
REMARK minimizedAffinity -5.17679834
REMARK minimizedRMSD -1
REMARK  2 active torsions:
REMARK  status: ('A' for Active; 'I' for Inactive)
REMARK    1  A    between atoms: C1_2  and  C2_3 
REMARK    2  A    between atoms: C2_3  and  C3_4 
ROOT
ATOM      1  C3  UNL d   1      -1.869  -0.716  -0.057  0.00  0.00    -0.075 A 
ATOM      2  C4  UNL d   1      -1.926  -0.767  -1.457  0.00  0.00     0.002 A 
ATOM      3  C5  UNL d   1      -0.854  -0.314  -2.227  0.00  0.00     0.002 A 
ATOM      4  C6  UNL d   1       0.282   0.203  -1.608  0.00  0.00    -0.004 A 
ATOM      5  C7  UNL d   1       0.343   0.273  -0.218  0.00  0.00     0.002 A 
ATOM      6  C8  UNL d   1      -0.727  -0.183   0.555  0.00  0.00     0.002 A 
ENDROOT
BRANCH   1   7
ATOM      7  C2  UNL d   1      -3.014  -1.231   0.782  0.00  0.00     0.056 C 
BRANCH   7   8
ATOM      8  C1  UNL d   1      -2.622  -2.350   1.753  0.00  0.00     0.007 C 
ATOM      9  C   UNL d   1      -1.663  -3.364   1.145  0.00  0.00     0.009 C 
ENDBRANCH   7   8
ENDBRANCH   1   7
TORSDOF 2
ENDMDL
