MODEL 1
REMARK minimizedAffinity -5.82983637
REMARK minimizedRMSD -1
REMARK  2 active torsions:
REMARK  status: ('A' for Active; 'I' for Inactive)
REMARK    1  A    between atoms: C1_2  and  C2_3 
REMARK    2  A    between atoms: C2_3  and  C3_4 
ROOT
ATOM      1  C3  UNL d   1      -0.549  -0.851  -0.025  0.00  0.00    -0.075 A 
ATOM      2  C4  UNL d   1      -1.031  -1.727   0.958  0.00  0.00     0.002 A 
ATOM      3  C5  UNL d   1      -2.331  -2.229   0.884  0.00  0.00     0.002 A 
ATOM      4  C6  UNL d   1      -3.166  -1.855  -0.167  0.00  0.00    -0.004 A 
ATOM      5  C7  UNL d   1      -2.702  -0.972  -1.141  0.00  0.00     0.002 A 
ATOM      6  C8  UNL d   1      -1.401  -0.472  -1.071  0.00  0.00     0.002 A 
ENDROOT
BRANCH   1   7
ATOM      7  C2  UNL d   1       0.867  -0.328   0.034  0.00  0.00     0.056 C 
BRANCH   7   8
ATOM      8  C1  UNL d   1       0.999   1.037   0.718  0.00  0.00     0.007 C 
ATOM      9  C   UNL d   1       2.283   1.770   0.353  0.00  0.00     0.009 C 
ENDBRANCH   7   8
ENDBRANCH   1   7
TORSDOF 2
ENDMDL
