MODEL 1
REMARK minimizedAffinity -4.0860877
REMARK minimizedRMSD -1
REMARK  2 active torsions:
REMARK  status: ('A' for Active; 'I' for Inactive)
REMARK    1  A    between atoms: C1_2  and  C2_3 
REMARK    2  A    between atoms: C2_3  and  C3_4 
ROOT
ATOM      1  C3  UNL d   1      -1.579  -0.425   0.363  0.00  0.00    -0.075 A 
ATOM      2  C4  UNL d   1      -0.666   0.323  -0.396  0.00  0.00     0.002 A 
ATOM      3  C5  UNL d   1       0.707   0.174  -0.200  0.00  0.00     0.002 A 
ATOM      4  C6  UNL d   1       1.185  -0.713   0.762  0.00  0.00    -0.004 A 
ATOM      5  C7  UNL d   1       0.287  -1.448   1.533  0.00  0.00     0.002 A 
ATOM      6  C8  UNL d   1      -1.088  -1.305   1.336  0.00  0.00     0.002 A 
ENDROOT
BRANCH   1   7
ATOM      7  C2  UNL d   1      -3.066  -0.291   0.135  0.00  0.00     0.056 C 
BRANCH   7   8
ATOM      8  C1  UNL d   1      -3.722  -1.543  -0.455  0.00  0.00     0.007 C 
ATOM      9  C   UNL d   1      -2.935  -2.144  -1.613  0.00  0.00     0.009 C 
ENDBRANCH   7   8
ENDBRANCH   1   7
TORSDOF 2
ENDMDL
