MODEL 1
REMARK minimizedAffinity -5.36467123
REMARK minimizedRMSD -1
REMARK  2 active torsions:
REMARK  status: ('A' for Active; 'I' for Inactive)
REMARK    1  A    between atoms: C1_2  and  C2_3 
REMARK    2  A    between atoms: C2_3  and  C3_4 
ROOT
ATOM      1  C3  UNL d   1      -0.079  -0.090  -0.053  0.00  0.00    -0.075 A 
ATOM      2  C4  UNL d   1      -0.599  -0.893   0.972  0.00  0.00     0.002 A 
ATOM      3  C5  UNL d   1      -1.933  -1.302   0.944  0.00  0.00     0.002 A 
ATOM      4  C6  UNL d   1      -2.764  -0.906  -0.102  0.00  0.00    -0.004 A 
ATOM      5  C7  UNL d   1      -2.262  -0.094  -1.117  0.00  0.00     0.002 A 
ATOM      6  C8  UNL d   1      -0.927   0.313  -1.093  0.00  0.00     0.002 A 
ENDROOT
BRANCH   1   7
ATOM      7  C2  UNL d   1       1.371   0.332  -0.044  0.00  0.00     0.056 C 
BRANCH   7   8
ATOM      8  C1  UNL d   1       1.764   1.189   1.165  0.00  0.00     0.007 C 
ATOM      9  C   UNL d   1       1.986   2.654   0.815  0.00  0.00     0.009 C 
ENDBRANCH   7   8
ENDBRANCH   1   7
TORSDOF 2
ENDMDL
