MODEL 1
REMARK minimizedAffinity -5.46457863
REMARK minimizedRMSD -1
REMARK  2 active torsions:
REMARK  status: ('A' for Active; 'I' for Inactive)
REMARK    1  A    between atoms: C1_2  and  C2_3 
REMARK    2  A    between atoms: C2_3  and  C3_4 
ROOT
ATOM      1  C3  UNL d   1      -0.010   0.256  -0.052  0.00  0.00    -0.075 A 
ATOM      2  C4  UNL d   1      -0.449   0.449  -1.370  0.00  0.00     0.002 A 
ATOM      3  C5  UNL d   1      -1.748   0.099  -1.742  0.00  0.00     0.002 A 
ATOM      4  C6  UNL d   1      -2.618  -0.455  -0.806  0.00  0.00    -0.004 A 
ATOM      5  C7  UNL d   1      -2.187  -0.666   0.502  0.00  0.00     0.002 A 
ATOM      6  C8  UNL d   1      -0.889  -0.313   0.878  0.00  0.00     0.002 A 
ENDROOT
BRANCH   1   7
ATOM      7  C2  UNL d   1       1.385   0.660   0.364  0.00  0.00     0.056 C 
BRANCH   7   8
ATOM      8  C1  UNL d   1       1.425   1.667   1.518  0.00  0.00     0.007 C 
ATOM      9  C   UNL d   1       2.552   2.683   1.389  0.00  0.00     0.009 C 
ENDBRANCH   7   8
ENDBRANCH   1   7
TORSDOF 2
ENDMDL
