MODEL 1
REMARK minimizedAffinity -0.50699228
REMARK minimizedRMSD -1
REMARK  2 active torsions:
REMARK  status: ('A' for Active; 'I' for Inactive)
REMARK    1  A    between atoms: C1_2  and  C2_3 
REMARK    2  A    between atoms: C2_3  and  C3_4 
ROOT
ATOM      1  C3  UNL d   1       0.728  -0.384   0.513  0.00  0.00    -0.075 A 
ATOM      2  C4  UNL d   1      -0.005  -1.480   0.992  0.00  0.00     0.002 A 
ATOM      3  C5  UNL d   1      -1.203  -1.284   1.680  0.00  0.00     0.002 A 
ATOM      4  C6  UNL d   1      -1.678   0.006   1.905  0.00  0.00    -0.004 A 
ATOM      5  C7  UNL d   1      -0.949   1.102   1.447  0.00  0.00     0.002 A 
ATOM      6  C8  UNL d   1       0.248   0.909   0.755  0.00  0.00     0.002 A 
ENDROOT
BRANCH   1   7
ATOM      7  C2  UNL d   1       2.011  -0.590  -0.258  0.00  0.00     0.056 C 
BRANCH   7   8
ATOM      8  C1  UNL d   1       1.969  -0.055  -1.693  0.00  0.00     0.007 C 
ATOM      9  C   UNL d   1       0.674  -0.390  -2.421  0.00  0.00     0.009 C 
ENDBRANCH   7   8
ENDBRANCH   1   7
TORSDOF 2
ENDMDL
