MODEL 1
REMARK minimizedAffinity -6.11698723
REMARK minimizedRMSD -1
REMARK  2 active torsions:
REMARK  status: ('A' for Active; 'I' for Inactive)
REMARK    1  A    between atoms: C1_2  and  C2_3 
REMARK    2  A    between atoms: C2_3  and  C3_4 
ROOT
ATOM      1  C3  UNL d   1      -1.011  -0.647  -0.071  0.00  0.00    -0.075 A 
ATOM      2  C4  UNL d   1      -0.770  -1.647   0.882  0.00  0.00     0.002 A 
ATOM      3  C5  UNL d   1      -1.720  -2.640   1.123  0.00  0.00     0.002 A 
ATOM      4  C6  UNL d   1      -2.925  -2.639   0.423  0.00  0.00    -0.004 A 
ATOM      5  C7  UNL d   1      -3.182  -1.641  -0.514  0.00  0.00     0.002 A 
ATOM      6  C8  UNL d   1      -2.231  -0.649  -0.760  0.00  0.00     0.002 A 
ENDROOT
BRANCH   1   7
ATOM      7  C2  UNL d   1       0.026   0.413  -0.357  0.00  0.00     0.056 C 
BRANCH   7   8
ATOM      8  C1  UNL d   1       1.400   0.123   0.254  0.00  0.00     0.007 C 
ATOM      9  C   UNL d   1       2.244   1.374   0.457  0.00  0.00     0.009 C 
ENDBRANCH   7   8
ENDBRANCH   1   7
TORSDOF 2
ENDMDL
