MODEL 1
REMARK minimizedAffinity -3.47031617
REMARK minimizedRMSD -1
REMARK  2 active torsions:
REMARK  status: ('A' for Active; 'I' for Inactive)
REMARK    1  A    between atoms: C1_2  and  C2_3 
REMARK    2  A    between atoms: C2_3  and  C3_4 
ROOT
ATOM      1  C3  UNL d   1      -0.125  -0.133   0.009  0.00  0.00    -0.075 A 
ATOM      2  C4  UNL d   1      -1.060  -0.563   0.961  0.00  0.00     0.002 A 
ATOM      3  C5  UNL d   1      -2.402  -0.722   0.614  0.00  0.00     0.002 A 
ATOM      4  C6  UNL d   1      -2.827  -0.444  -0.683  0.00  0.00    -0.004 A 
ATOM      5  C7  UNL d   1      -1.910   0.000  -1.633  0.00  0.00     0.002 A 
ATOM      6  C8  UNL d   1      -0.565   0.156  -1.290  0.00  0.00     0.002 A 
ENDROOT
BRANCH   1   7
ATOM      7  C2  UNL d   1       1.334   0.013   0.370  0.00  0.00     0.056 C 
BRANCH   7   8
ATOM      8  C1  UNL d   1       1.716   1.409   0.871  0.00  0.00     0.007 C 
ATOM      9  C   UNL d   1       2.629   2.162  -0.088  0.00  0.00     0.009 C 
ENDBRANCH   7   8
ENDBRANCH   1   7
TORSDOF 2
ENDMDL
