MODEL 1
REMARK minimizedAffinity -5.18434429
REMARK minimizedRMSD -1
REMARK  2 active torsions:
REMARK  status: ('A' for Active; 'I' for Inactive)
REMARK    1  A    between atoms: C1_2  and  C2_3 
REMARK    2  A    between atoms: C2_3  and  C3_4 
ROOT
ATOM      1  C3  UNL d   1       0.078  -0.364   0.494  0.00  0.00    -0.075 A 
ATOM      2  C4  UNL d   1      -0.770  -0.894   1.477  0.00  0.00     0.002 A 
ATOM      3  C5  UNL d   1      -2.125  -1.093   1.212  0.00  0.00     0.002 A 
ATOM      4  C6  UNL d   1      -2.651  -0.754  -0.033  0.00  0.00    -0.004 A 
ATOM      5  C7  UNL d   1      -1.821  -0.211  -1.011  0.00  0.00     0.002 A 
ATOM      6  C8  UNL d   1      -0.464  -0.016  -0.750  0.00  0.00     0.002 A 
ENDROOT
BRANCH   1   7
ATOM      7  C2  UNL d   1       1.552  -0.174   0.765  0.00  0.00     0.056 C 
BRANCH   7   8
ATOM      8  C1  UNL d   1       1.890   1.133   1.489  0.00  0.00     0.007 C 
ATOM      9  C   UNL d   1       2.744   2.079   0.654  0.00  0.00     0.009 C 
ENDBRANCH   7   8
ENDBRANCH   1   7
TORSDOF 2
ENDMDL
