MODEL 1
REMARK minimizedAffinity -4.6436367
REMARK minimizedRMSD -1
REMARK  2 active torsions:
REMARK  status: ('A' for Active; 'I' for Inactive)
REMARK    1  A    between atoms: C1_2  and  C2_3 
REMARK    2  A    between atoms: C2_3  and  C3_4 
ROOT
ATOM      1  C3  UNL d   1       2.014   1.389   0.344  0.00  0.00    -0.075 A 
ATOM      2  C4  UNL d   1       1.637   2.236   1.396  0.00  0.00     0.002 A 
ATOM      3  C5  UNL d   1       2.064   3.564   1.425  0.00  0.00     0.002 A 
ATOM      4  C6  UNL d   1       2.880   4.058   0.410  0.00  0.00    -0.004 A 
ATOM      5  C7  UNL d   1       3.274   3.221  -0.632  0.00  0.00     0.002 A 
ATOM      6  C8  UNL d   1       2.844   1.894  -0.666  0.00  0.00     0.002 A 
ENDROOT
BRANCH   1   7
ATOM      7  C2  UNL d   1       1.530  -0.040   0.292  0.00  0.00     0.056 C 
BRANCH   7   8
ATOM      8  C1  UNL d   1       0.332  -0.260  -0.638  0.00  0.00     0.007 C 
ATOM      9  C   UNL d   1      -1.010  -0.122   0.069  0.00  0.00     0.009 C 
ENDBRANCH   7   8
ENDBRANCH   1   7
TORSDOF 2
ENDMDL
