MODEL 1
REMARK minimizedAffinity -5.04442453
REMARK minimizedRMSD -1
REMARK  2 active torsions:
REMARK  status: ('A' for Active; 'I' for Inactive)
REMARK    1  A    between atoms: C1_2  and  C2_3 
REMARK    2  A    between atoms: C2_3  and  C3_4 
ROOT
ATOM      1  C3  UNL d   1      -0.234  -0.266  -0.070  0.00  0.00    -0.075 A 
ATOM      2  C4  UNL d   1      -0.712  -0.981   1.038  0.00  0.00     0.002 A 
ATOM      3  C5  UNL d   1      -2.029  -1.440   1.070  0.00  0.00     0.002 A 
ATOM      4  C6  UNL d   1      -2.886  -1.182   0.003  0.00  0.00    -0.004 A 
ATOM      5  C7  UNL d   1      -2.427  -0.458  -1.095  0.00  0.00     0.002 A 
ATOM      6  C8  UNL d   1      -1.109  -0.001  -1.132  0.00  0.00     0.002 A 
ENDROOT
BRANCH   1   7
ATOM      7  C2  UNL d   1       1.199   0.208  -0.124  0.00  0.00     0.056 C 
BRANCH   7   8
ATOM      8  C1  UNL d   1       1.429   1.573   0.532  0.00  0.00     0.007 C 
ATOM      9  C   UNL d   1       2.722   2.243   0.085  0.00  0.00     0.009 C 
ENDBRANCH   7   8
ENDBRANCH   1   7
TORSDOF 2
ENDMDL
