MODEL 1
REMARK minimizedAffinity 3.56944156
REMARK minimizedRMSD -1
REMARK  0 active torsions:
REMARK  status: ('A' for Active; 'I' for Inactive)
ROOT
ATOM      1  O1  BZF d   1       2.434  -1.254   3.002  0.00  0.00    -0.204 OA
ATOM      2  C2  BZF d   1       2.177  -1.557   4.325  0.00  0.00     0.174 A 
ATOM      3  C3  BZF d   1       0.872  -1.374   4.612  0.00  0.00    -0.012 A 
ATOM      4  C3A BZF d   1       0.259  -1.018   3.370  0.00  0.00    -0.107 A 
ATOM      5  C4  BZF d   1      -1.025  -0.726   3.005  0.00  0.00     0.055 A 
ATOM      6  C5  BZF d   1      -1.278  -0.345   1.725  0.00  0.00    -0.016 A 
ATOM      7  C6  BZF d   1      -0.272  -0.241   0.787  0.00  0.00     0.022 A 
ATOM      8  C7  BZF d   1       1.015  -0.525   1.100  0.00  0.00     0.029 A 
ATOM      9  C7A BZF d   1       1.270  -0.942   2.384  0.00  0.00     0.058 A 
ENDROOT
TORSDOF 0
ENDMDL
