MODEL 1
REMARK minimizedAffinity 3.15372133
REMARK minimizedRMSD -1
REMARK  0 active torsions:
REMARK  status: ('A' for Active; 'I' for Inactive)
ROOT
ATOM      1  O1  BZF d   1       1.069  -1.191   2.635  0.00  0.00    -0.204 OA
ATOM      2  C2  BZF d   1       0.711  -1.338   3.961  0.00  0.00     0.174 A 
ATOM      3  C3  BZF d   1      -0.573  -0.972   4.153  0.00  0.00    -0.012 A 
ATOM      4  C3A BZF d   1      -1.074  -0.660   2.850  0.00  0.00    -0.107 A 
ATOM      5  C4  BZF d   1      -2.291  -0.249   2.385  0.00  0.00     0.055 A 
ATOM      6  C5  BZF d   1      -2.431   0.039   1.064  0.00  0.00    -0.016 A 
ATOM      7  C6  BZF d   1      -1.375  -0.067   0.182  0.00  0.00     0.022 A 
ATOM      8  C7  BZF d   1      -0.151  -0.475   0.595  0.00  0.00     0.029 A 
ATOM      9  C7A BZF d   1      -0.015  -0.799   1.923  0.00  0.00     0.058 A 
ENDROOT
TORSDOF 0
ENDMDL
