MODEL 1
REMARK minimizedAffinity -1.27939212
REMARK minimizedRMSD -1
REMARK  0 active torsions:
REMARK  status: ('A' for Active; 'I' for Inactive)
ROOT
ATOM      1  O1  BZF d   1       0.540  -0.639   2.584  0.00  0.00    -0.204 OA
ATOM      2  C2  BZF d   1       1.557  -0.955   1.705  0.00  0.00     0.174 A 
ATOM      3  C3  BZF d   1       1.077  -1.114   0.454  0.00  0.00    -0.012 A 
ATOM      4  C3A BZF d   1      -0.314  -0.793   0.542  0.00  0.00    -0.107 A 
ATOM      5  C4  BZF d   1      -1.327  -0.751  -0.373  0.00  0.00     0.055 A 
ATOM      6  C5  BZF d   1      -2.588  -0.471   0.050  0.00  0.00    -0.016 A 
ATOM      7  C6  BZF d   1      -2.872  -0.234   1.379  0.00  0.00     0.022 A 
ATOM      8  C7  BZF d   1      -1.899  -0.260   2.322  0.00  0.00     0.029 A 
ATOM      9  C7A BZF d   1      -0.619  -0.510   1.893  0.00  0.00     0.058 A 
ENDROOT
TORSDOF 0
ENDMDL
