MODEL 1
REMARK minimizedAffinity 0.653822422
REMARK minimizedRMSD -1
REMARK  0 active torsions:
REMARK  status: ('A' for Active; 'I' for Inactive)
ROOT
ATOM      1  O1  BZF d   1       2.033  -1.157   2.994  0.00  0.00    -0.204 OA
ATOM      2  C2  BZF d   1       1.823  -1.297   4.352  0.00  0.00     0.174 A 
ATOM      3  C3  BZF d   1       0.593  -0.863   4.694  0.00  0.00    -0.012 A 
ATOM      4  C3A BZF d   1      -0.037  -0.509   3.459  0.00  0.00    -0.107 A 
ATOM      5  C4  BZF d   1      -1.275  -0.026   3.141  0.00  0.00     0.055 A 
ATOM      6  C5  BZF d   1      -1.550   0.284   1.847  0.00  0.00    -0.016 A 
ATOM      7  C6  BZF d   1      -0.612   0.128   0.847  0.00  0.00     0.022 A 
ATOM      8  C7  BZF d   1       0.628  -0.352   1.113  0.00  0.00     0.029 A 
ATOM      9  C7A BZF d   1       0.898  -0.697   2.415  0.00  0.00     0.058 A 
ENDROOT
TORSDOF 0
ENDMDL
