MODEL 1
REMARK minimizedAffinity 9.12878036
REMARK minimizedRMSD -1
REMARK  0 active torsions:
REMARK  status: ('A' for Active; 'I' for Inactive)
ROOT
ATOM      1  O1  BZF d   1      -3.118  -0.842   3.135  0.00  0.00    -0.204 OA
ATOM      2  C2  BZF d   1      -3.834  -2.021   3.205  0.00  0.00     0.174 A 
ATOM      3  C3  BZF d   1      -3.903  -2.612   1.994  0.00  0.00    -0.012 A 
ATOM      4  C3A BZF d   1      -3.106  -1.794   1.131  0.00  0.00    -0.107 A 
ATOM      5  C4  BZF d   1      -2.774  -1.871  -0.191  0.00  0.00     0.055 A 
ATOM      6  C5  BZF d   1      -2.037  -0.872  -0.746  0.00  0.00    -0.016 A 
ATOM      7  C6  BZF d   1      -1.621   0.218  -0.010  0.00  0.00     0.022 A 
ATOM      8  C7  BZF d   1      -1.921   0.335   1.307  0.00  0.00     0.029 A 
ATOM      9  C7A BZF d   1      -2.638  -0.689   1.878  0.00  0.00     0.058 A 
ENDROOT
TORSDOF 0
ENDMDL
