MODEL 1
REMARK minimizedAffinity 3.73613119
REMARK minimizedRMSD -1
REMARK  0 active torsions:
REMARK  status: ('A' for Active; 'I' for Inactive)
ROOT
ATOM      1  O1  BZF d   1       0.470  -0.597   2.579  0.00  0.00    -0.204 OA
ATOM      2  C2  BZF d   1       1.557  -0.872   1.772  0.00  0.00     0.174 A 
ATOM      3  C3  BZF d   1       1.189  -0.929   0.476  0.00  0.00    -0.012 A 
ATOM      4  C3A BZF d   1      -0.199  -0.582   0.464  0.00  0.00    -0.107 A 
ATOM      5  C4  BZF d   1      -1.125  -0.450  -0.531  0.00  0.00     0.055 A 
ATOM      6  C5  BZF d   1      -2.414  -0.172  -0.201  0.00  0.00    -0.016 A 
ATOM      7  C6  BZF d   1      -2.812  -0.025   1.111  0.00  0.00     0.022 A 
ATOM      8  C7  BZF d   1      -1.929  -0.143   2.132  0.00  0.00     0.029 A 
ATOM      9  C7A BZF d   1      -0.619  -0.391   1.801  0.00  0.00     0.058 A 
ENDROOT
TORSDOF 0
ENDMDL
