MODEL 1
REMARK minimizedAffinity -1.83771276
REMARK minimizedRMSD -1
REMARK  0 active torsions:
REMARK  status: ('A' for Active; 'I' for Inactive)
ROOT
ATOM      1  O1  BZF d   1       1.886  -1.274   2.766  0.00  0.00    -0.204 OA
ATOM      2  C2  BZF d   1       1.947  -1.762   4.057  0.00  0.00     0.174 A 
ATOM      3  C3  BZF d   1       0.750  -1.651   4.668  0.00  0.00    -0.012 A 
ATOM      4  C3A BZF d   1      -0.137  -1.142   3.667  0.00  0.00    -0.107 A 
ATOM      5  C4  BZF d   1      -1.467  -0.833   3.661  0.00  0.00     0.055 A 
ATOM      6  C5  BZF d   1      -2.014  -0.288   2.542  0.00  0.00    -0.016 A 
ATOM      7  C6  BZF d   1      -1.259  -0.032   1.416  0.00  0.00     0.022 A 
ATOM      8  C7  BZF d   1       0.064  -0.326   1.373  0.00  0.00     0.029 A 
ATOM      9  C7A BZF d   1       0.611  -0.908   2.490  0.00  0.00     0.058 A 
ENDROOT
TORSDOF 0
ENDMDL
