MODEL 1
REMARK minimizedAffinity 5.66988707
REMARK minimizedRMSD -1
REMARK  0 active torsions:
REMARK  status: ('A' for Active; 'I' for Inactive)
ROOT
ATOM      1  O1  BZF d   1      -1.270   0.015   2.867  0.00  0.00    -0.204 OA
ATOM      2  C2  BZF d   1      -2.501  -0.597   3.004  0.00  0.00     0.174 A 
ATOM      3  C3  BZF d   1      -3.080  -0.783   1.800  0.00  0.00    -0.012 A 
ATOM      4  C3A BZF d   1      -2.113  -0.337   0.845  0.00  0.00    -0.107 A 
ATOM      5  C4  BZF d   1      -2.097  -0.284  -0.520  0.00  0.00     0.055 A 
ATOM      6  C5  BZF d   1      -1.028   0.275  -1.146  0.00  0.00    -0.016 A 
ATOM      7  C6  BZF d   1       0.037   0.794  -0.441  0.00  0.00     0.022 A 
ATOM      8  C7  BZF d   1       0.069   0.760   0.914  0.00  0.00     0.029 A 
ATOM      9  C7A BZF d   1      -0.995   0.166   1.549  0.00  0.00     0.058 A 
ENDROOT
TORSDOF 0
ENDMDL
