MODEL 1
REMARK minimizedAffinity -3.77481341
REMARK minimizedRMSD -1
REMARK  0 active torsions:
REMARK  status: ('A' for Active; 'I' for Inactive)
ROOT
ATOM      1  O1  BZF d   1       2.698  -1.362   3.515  0.00  0.00    -0.204 OA
ATOM      2  C2  BZF d   1       2.415  -1.602   4.846  0.00  0.00     0.174 A 
ATOM      3  C3  BZF d   1       1.160  -1.210   5.147  0.00  0.00    -0.012 A 
ATOM      4  C3A BZF d   1       0.594  -0.778   3.906  0.00  0.00    -0.107 A 
ATOM      5  C4  BZF d   1      -0.632  -0.291   3.553  0.00  0.00     0.055 A 
ATOM      6  C5  BZF d   1      -0.840   0.107   2.270  0.00  0.00    -0.016 A 
ATOM      7  C6  BZF d   1       0.155   0.037   1.317  0.00  0.00     0.022 A 
ATOM      8  C7  BZF d   1       1.386  -0.444   1.619  0.00  0.00     0.029 A 
ATOM      9  C7A BZF d   1       1.589  -0.877   2.906  0.00  0.00     0.058 A 
ENDROOT
TORSDOF 0
ENDMDL
