MODEL 1
REMARK minimizedAffinity 3.08694172
REMARK minimizedRMSD -1
REMARK  0 active torsions:
REMARK  status: ('A' for Active; 'I' for Inactive)
ROOT
ATOM      1  O1  BZF d   1       2.890  -1.314   3.326  0.00  0.00    -0.204 OA
ATOM      2  C2  BZF d   1       2.572  -1.778   4.588  0.00  0.00     0.174 A 
ATOM      3  C3  BZF d   1       1.247  -1.675   4.816  0.00  0.00    -0.012 A 
ATOM      4  C3A BZF d   1       0.690  -1.198   3.587  0.00  0.00    -0.107 A 
ATOM      5  C4  BZF d   1      -0.582  -0.911   3.182  0.00  0.00     0.055 A 
ATOM      6  C5  BZF d   1      -0.780  -0.393   1.942  0.00  0.00    -0.016 A 
ATOM      7  C6  BZF d   1       0.271  -0.146   1.083  0.00  0.00     0.022 A 
ATOM      8  C7  BZF d   1       1.550  -0.419   1.438  0.00  0.00     0.029 A 
ATOM      9  C7A BZF d   1       1.750  -0.973   2.679  0.00  0.00     0.058 A 
ENDROOT
TORSDOF 0
ENDMDL
