MODEL 1
REMARK minimizedAffinity 2.36402082
REMARK minimizedRMSD -1
REMARK  0 active torsions:
REMARK  status: ('A' for Active; 'I' for Inactive)
ROOT
ATOM      1  O1  BZF d   1       0.145  -0.233   2.384  0.00  0.00    -0.204 OA
ATOM      2  C2  BZF d   1       1.373  -0.525   1.823  0.00  0.00     0.174 A 
ATOM      3  C3  BZF d   1       1.258  -0.718   0.493  0.00  0.00    -0.012 A 
ATOM      4  C3A BZF d   1      -0.113  -0.445   0.190  0.00  0.00    -0.107 A 
ATOM      5  C4  BZF d   1      -0.838  -0.450  -0.967  0.00  0.00     0.055 A 
ATOM      6  C5  BZF d   1      -2.174  -0.209  -0.910  0.00  0.00    -0.016 A 
ATOM      7  C6  BZF d   1      -2.818   0.037   0.285  0.00  0.00     0.022 A 
ATOM      8  C7  BZF d   1      -2.140   0.057   1.458  0.00  0.00     0.029 A 
ATOM      9  C7A BZF d   1      -0.784  -0.154   1.401  0.00  0.00     0.058 A 
ENDROOT
TORSDOF 0
ENDMDL
