MODEL 1
REMARK minimizedAffinity -0.851130486
REMARK minimizedRMSD -1
REMARK  0 active torsions:
REMARK  status: ('A' for Active; 'I' for Inactive)
ROOT
ATOM      1  O1  BZF d   1      -1.776  -2.586   5.195  0.00  0.00    -0.204 OA
ATOM      2  C2  BZF d   1      -0.428  -2.435   5.458  0.00  0.00     0.174 A 
ATOM      3  C3  BZF d   1       0.116  -1.504   4.648  0.00  0.00    -0.012 A 
ATOM      4  C3A BZF d   1      -0.978  -0.978   3.891  0.00  0.00    -0.107 A 
ATOM      5  C4  BZF d   1      -1.077  -0.012   2.931  0.00  0.00     0.055 A 
ATOM      6  C5  BZF d   1      -2.280   0.211   2.339  0.00  0.00    -0.016 A 
ATOM      7  C6  BZF d   1      -3.402  -0.516   2.679  0.00  0.00     0.022 A 
ATOM      8  C7  BZF d   1      -3.354  -1.481   3.629  0.00  0.00     0.029 A 
ATOM      9  C7A BZF d   1      -2.147  -1.686   4.253  0.00  0.00     0.058 A 
ENDROOT
TORSDOF 0
ENDMDL
