MODEL 1
REMARK minimizedAffinity 7.15863132
REMARK minimizedRMSD -1
REMARK  1 active torsions:
REMARK  status: ('A' for Active; 'I' for Inactive)
REMARK    1  A    between atoms: C1_2  and  C2_3 
ROOT
ATOM      1  C2  UNL d   1      -3.351   5.980   3.175  0.00  0.00    -0.076 A 
ATOM      2  C3  UNL d   1      -2.184   5.971   3.959  0.00  0.00     0.004 A 
ATOM      3  C4  UNL d   1      -2.255   5.980   5.351  0.00  0.00    -0.003 A 
ATOM      4  C5  UNL d   1      -3.494   5.998   5.982  0.00  0.00     0.000 A 
ATOM      5  C6  UNL d   1      -4.662   5.989   5.220  0.00  0.00     0.000 A 
ATOM      6  C7  UNL d   1      -4.608   5.964   3.816  0.00  0.00    -0.073 A 
ATOM      7  C8  UNL d   1      -5.899   5.962   3.044  0.00  0.00     0.078 C 
ENDROOT
BRANCH   1   8
ATOM      8  C1  UNL d   1      -3.212   5.997   1.670  0.00  0.00     0.053 C 
ATOM      9  C   UNL d   1      -1.759   5.989   1.219  0.00  0.00     0.018 C 
ENDBRANCH   1   8
TORSDOF 1
ENDMDL
