MODEL 1
REMARK minimizedAffinity 3.00527978
REMARK minimizedRMSD -1
REMARK  1 active torsions:
REMARK  status: ('A' for Active; 'I' for Inactive)
REMARK    1  A    between atoms: C1_2  and  C2_3 
ROOT
ATOM      1  C2  UNL d   1      -3.345   5.940   2.666  0.00  0.00    -0.076 A 
ATOM      2  C3  UNL d   1      -2.296   5.965   3.602  0.00  0.00     0.004 A 
ATOM      3  C4  UNL d   1      -2.557   5.995   4.971  0.00  0.00    -0.003 A 
ATOM      4  C5  UNL d   1      -3.871   6.000   5.426  0.00  0.00     0.000 A 
ATOM      5  C6  UNL d   1      -4.924   5.958   4.512  0.00  0.00     0.000 A 
ATOM      6  C7  UNL d   1      -4.678   5.911   3.129  0.00  0.00    -0.073 A 
ATOM      7  C8  UNL d   1      -5.851   5.873   2.188  0.00  0.00     0.078 C 
ENDROOT
BRANCH   1   8
ATOM      8  C1  UNL d   1      -3.001   5.936   1.193  0.00  0.00     0.053 C 
ATOM      9  C   UNL d   1      -1.502   5.999   0.945  0.00  0.00     0.018 C 
ENDBRANCH   1   8
TORSDOF 1
ENDMDL
