MODEL 1
REMARK minimizedAffinity 5.96937323
REMARK minimizedRMSD -1
REMARK  1 active torsions:
REMARK  status: ('A' for Active; 'I' for Inactive)
REMARK    1  A    between atoms: C1_2  and  C2_3 
ROOT
ATOM      1  C2  UNL d   1      -4.655   5.193   3.599  0.00  0.00    -0.076 A 
ATOM      2  C3  UNL d   1      -5.008   5.123   4.958  0.00  0.00     0.004 A 
ATOM      3  C4  UNL d   1      -4.093   5.454   5.955  0.00  0.00    -0.003 A 
ATOM      4  C5  UNL d   1      -2.808   5.861   5.610  0.00  0.00     0.000 A 
ATOM      5  C6  UNL d   1      -2.446   5.952   4.267  0.00  0.00     0.000 A 
ATOM      6  C7  UNL d   1      -3.362   5.638   3.248  0.00  0.00    -0.073 A 
ATOM      7  C8  UNL d   1      -2.916   5.748   1.816  0.00  0.00     0.078 C 
ENDROOT
BRANCH   1   8
ATOM      8  C1  UNL d   1      -5.681   4.795   2.562  0.00  0.00     0.053 C 
ATOM      9  C   UNL d   1      -5.986   5.919   1.584  0.00  0.00     0.018 C 
ENDBRANCH   1   8
TORSDOF 1
ENDMDL
