MODEL 1
REMARK minimizedAffinity 4.79052496
REMARK minimizedRMSD -1
REMARK  1 active torsions:
REMARK  status: ('A' for Active; 'I' for Inactive)
REMARK    1  A    between atoms: C1_2  and  C2_3 
ROOT
ATOM      1  C2  UNL d   1      -3.576   5.964   3.540  0.00  0.00    -0.076 A 
ATOM      2  C3  UNL d   1      -4.912   5.932   3.976  0.00  0.00     0.004 A 
ATOM      3  C4  UNL d   1      -5.965   5.943   3.063  0.00  0.00    -0.003 A 
ATOM      4  C5  UNL d   1      -5.699   5.985   1.698  0.00  0.00     0.000 A 
ATOM      5  C6  UNL d   1      -4.380   5.999   1.248  0.00  0.00     0.000 A 
ATOM      6  C7  UNL d   1      -3.307   5.972   2.154  0.00  0.00    -0.073 A 
ATOM      7  C8  UNL d   1      -1.903   5.995   1.613  0.00  0.00     0.078 C 
ENDROOT
BRANCH   1   8
ATOM      8  C1  UNL d   1      -2.476   5.977   4.577  0.00  0.00     0.053 C 
ATOM      9  C   UNL d   1      -3.003   5.767   5.988  0.00  0.00     0.018 C 
ENDBRANCH   1   8
TORSDOF 1
ENDMDL
