MODEL 1
REMARK minimizedAffinity 11.8675041
REMARK minimizedRMSD -1
REMARK  1 active torsions:
REMARK  status: ('A' for Active; 'I' for Inactive)
REMARK    1  A    between atoms: C1_2  and  C2_3 
ROOT
ATOM      1  C2  UNL d   1      -3.649   4.605   3.167  0.00  0.00    -0.076 A 
ATOM      2  C3  UNL d   1      -2.810   4.599   4.295  0.00  0.00     0.004 A 
ATOM      3  C4  UNL d   1      -3.160   5.290   5.453  0.00  0.00    -0.003 A 
ATOM      4  C5  UNL d   1      -4.357   5.997   5.504  0.00  0.00     0.000 A 
ATOM      5  C6  UNL d   1      -5.210   5.999   4.401  0.00  0.00     0.000 A 
ATOM      6  C7  UNL d   1      -4.879   5.295   3.230  0.00  0.00    -0.073 A 
ATOM      7  C8  UNL d   1      -5.833   5.336   2.069  0.00  0.00     0.078 C 
ENDROOT
BRANCH   1   8
ATOM      8  C1  UNL d   1      -3.204   3.860   1.929  0.00  0.00     0.053 C 
ATOM      9  C   UNL d   1      -3.101   2.360   2.156  0.00  0.00     0.018 C 
ENDBRANCH   1   8
TORSDOF 1
ENDMDL
