MODEL 1
REMARK minimizedAffinity 2.9077754
REMARK minimizedRMSD -1
REMARK  1 active torsions:
REMARK  status: ('A' for Active; 'I' for Inactive)
REMARK    1  A    between atoms: C1_2  and  C2_3 
ROOT
ATOM      1  C2  UNL d   1      -3.762   4.819   3.549  0.00  0.00    -0.076 A 
ATOM      2  C3  UNL d   1      -3.009   4.831   4.736  0.00  0.00     0.004 A 
ATOM      3  C4  UNL d   1      -3.511   5.413   5.899  0.00  0.00    -0.003 A 
ATOM      4  C5  UNL d   1      -4.776   5.991   5.894  0.00  0.00     0.000 A 
ATOM      5  C6  UNL d   1      -5.544   5.972   4.731  0.00  0.00     0.000 A 
ATOM      6  C7  UNL d   1      -5.059   5.375   3.554  0.00  0.00    -0.073 A 
ATOM      7  C8  UNL d   1      -5.928   5.389   2.327  0.00  0.00     0.078 C 
ENDROOT
BRANCH   1   8
ATOM      8  C1  UNL d   1      -3.155   4.197   2.312  0.00  0.00     0.053 C 
ATOM      9  C   UNL d   1      -2.821   2.726   2.503  0.00  0.00     0.018 C 
ENDBRANCH   1   8
TORSDOF 1
ENDMDL
