MODEL 1
REMARK minimizedAffinity 7.91265392
REMARK minimizedRMSD -1
REMARK  1 active torsions:
REMARK  status: ('A' for Active; 'I' for Inactive)
REMARK    1  A    between atoms: C1_2  and  C2_3 
ROOT
ATOM      1  C2  UNL d   1      -3.109   4.857   3.600  0.00  0.00    -0.076 A 
ATOM      2  C3  UNL d   1      -2.252   3.761   3.403  0.00  0.00     0.004 A 
ATOM      3  C4  UNL d   1      -2.648   2.669   2.632  0.00  0.00    -0.003 A 
ATOM      4  C5  UNL d   1      -3.909   2.656   2.045  0.00  0.00     0.000 A 
ATOM      5  C6  UNL d   1      -4.766   3.743   2.216  0.00  0.00     0.000 A 
ATOM      6  C7  UNL d   1      -4.375   4.858   2.977  0.00  0.00    -0.073 A 
ATOM      7  C8  UNL d   1      -5.342   6.000   3.133  0.00  0.00     0.078 C 
ENDROOT
BRANCH   1   8
ATOM      8  C1  UNL d   1      -2.635   6.000   4.469  0.00  0.00     0.053 C 
ATOM      9  C   UNL d   1      -3.000   5.810   5.933  0.00  0.00     0.018 C 
ENDBRANCH   1   8
TORSDOF 1
ENDMDL
