MODEL 1
REMARK minimizedAffinity 7.76853275
REMARK minimizedRMSD -1
REMARK  1 active torsions:
REMARK  status: ('A' for Active; 'I' for Inactive)
REMARK    1  A    between atoms: C1_2  and  C2_3 
ROOT
ATOM      1  C2  UNL d   1      -4.277   5.956   3.251  0.00  0.00    -0.076 A 
ATOM      2  C3  UNL d   1      -4.679   5.986   4.598  0.00  0.00     0.004 A 
ATOM      3  C4  UNL d   1      -3.740   5.962   5.628  0.00  0.00    -0.003 A 
ATOM      4  C5  UNL d   1      -2.383   5.909   5.327  0.00  0.00     0.000 A 
ATOM      5  C6  UNL d   1      -1.966   5.897   3.997  0.00  0.00     0.000 A 
ATOM      6  C7  UNL d   1      -2.899   5.937   2.947  0.00  0.00    -0.073 A 
ATOM      7  C8  UNL d   1      -2.393   5.916   1.530  0.00  0.00     0.078 C 
ENDROOT
BRANCH   1   8
ATOM      8  C1  UNL d   1      -5.341   5.957   2.178  0.00  0.00     0.053 C 
ATOM      9  C   UNL d   1      -5.835   4.557   1.846  0.00  0.00     0.018 C 
ENDBRANCH   1   8
TORSDOF 1
ENDMDL
