MODEL 1
REMARK minimizedAffinity -0.30381161
REMARK minimizedRMSD -1
REMARK  1 active torsions:
REMARK  status: ('A' for Active; 'I' for Inactive)
REMARK    1  A    between atoms: C1_2  and  C2_3 
ROOT
ATOM      1  C2  UNL d   1      -3.098   5.800   3.327  0.00  0.00    -0.076 A 
ATOM      2  C3  UNL d   1      -2.172   5.829   4.385  0.00  0.00     0.004 A 
ATOM      3  C4  UNL d   1      -2.599   5.917   5.709  0.00  0.00    -0.003 A 
ATOM      4  C5  UNL d   1      -3.958   5.977   5.997  0.00  0.00     0.000 A 
ATOM      5  C6  UNL d   1      -4.890   5.931   4.961  0.00  0.00     0.000 A 
ATOM      6  C7  UNL d   1      -4.478   5.826   3.622  0.00  0.00    -0.073 A 
ATOM      7  C8  UNL d   1      -5.527   5.786   2.544  0.00  0.00     0.078 C 
ENDROOT
BRANCH   1   8
ATOM      8  C1  UNL d   1      -2.576   5.731   1.909  0.00  0.00     0.053 C 
ATOM      9  C   UNL d   1      -2.554   4.311   1.365  0.00  0.00     0.018 C 
ENDBRANCH   1   8
TORSDOF 1
ENDMDL
