MODEL 1
REMARK minimizedAffinity 12.2755804
REMARK minimizedRMSD -1
REMARK  1 active torsions:
REMARK  status: ('A' for Active; 'I' for Inactive)
REMARK    1  A    between atoms: C1_2  and  C2_3 
ROOT
ATOM      1  C2  UNL d   1      -2.970   3.620   3.417  0.00  0.00    -0.076 A 
ATOM      2  C3  UNL d   1      -2.868   3.439   4.807  0.00  0.00     0.004 A 
ATOM      3  C4  UNL d   1      -2.958   4.523   5.680  0.00  0.00    -0.003 A 
ATOM      4  C5  UNL d   1      -3.151   5.804   5.176  0.00  0.00     0.000 A 
ATOM      5  C6  UNL d   1      -3.272   6.000   3.801  0.00  0.00     0.000 A 
ATOM      6  C7  UNL d   1      -3.200   4.916   2.908  0.00  0.00    -0.073 A 
ATOM      7  C8  UNL d   1      -3.331   5.185   1.434  0.00  0.00     0.078 C 
ENDROOT
BRANCH   1   8
ATOM      8  C1  UNL d   1      -2.838   2.411   2.518  0.00  0.00     0.053 C 
ATOM      9  C   UNL d   1      -2.943   1.101   3.284  0.00  0.00     0.018 C 
ENDBRANCH   1   8
TORSDOF 1
ENDMDL
