MODEL 1
REMARK minimizedAffinity 1.04683805
REMARK minimizedRMSD -1
REMARK  1 active torsions:
REMARK  status: ('A' for Active; 'I' for Inactive)
REMARK    1  A    between atoms: C1_2  and  C2_3 
ROOT
ATOM      1  C2  UNL d   1      -3.429   5.942   3.246  0.00  0.00    -0.076 A 
ATOM      2  C3  UNL d   1      -2.427   5.949   4.231  0.00  0.00     0.004 A 
ATOM      3  C4  UNL d   1      -2.753   5.977   5.586  0.00  0.00    -0.003 A 
ATOM      4  C5  UNL d   1      -4.088   6.000   5.977  0.00  0.00     0.000 A 
ATOM      5  C6  UNL d   1      -5.095   5.976   5.013  0.00  0.00     0.000 A 
ATOM      6  C7  UNL d   1      -4.783   5.931   3.644  0.00  0.00    -0.073 A 
ATOM      7  C8  UNL d   1      -5.910   5.913   2.647  0.00  0.00     0.078 C 
ENDROOT
BRANCH   1   8
ATOM      8  C1  UNL d   1      -3.015   5.938   1.792  0.00  0.00     0.053 C 
ATOM      9  C   UNL d   1      -3.041   4.545   1.182  0.00  0.00     0.018 C 
ENDBRANCH   1   8
TORSDOF 1
ENDMDL
