MODEL 1
REMARK minimizedAffinity 3.09446096
REMARK minimizedRMSD -1
REMARK  1 active torsions:
REMARK  status: ('A' for Active; 'I' for Inactive)
REMARK    1  A    between atoms: C1_2  and  C2_3 
ROOT
ATOM      1  C2  UNL d   1      -3.611   4.476   2.880  0.00  0.00    -0.076 A 
ATOM      2  C3  UNL d   1      -2.547   4.475   3.799  0.00  0.00     0.004 A 
ATOM      3  C4  UNL d   1      -2.607   5.230   4.968  0.00  0.00    -0.003 A 
ATOM      4  C5  UNL d   1      -3.734   5.999   5.239  0.00  0.00     0.000 A 
ATOM      5  C6  UNL d   1      -4.806   5.999   4.348  0.00  0.00     0.000 A 
ATOM      6  C7  UNL d   1      -4.768   5.230   3.172  0.00  0.00    -0.073 A 
ATOM      7  C8  UNL d   1      -5.950   5.272   2.243  0.00  0.00     0.078 C 
ENDROOT
BRANCH   1   8
ATOM      8  C1  UNL d   1      -3.477   3.659   1.615  0.00  0.00     0.053 C 
ATOM      9  C   UNL d   1      -3.197   2.191   1.897  0.00  0.00     0.018 C 
ENDBRANCH   1   8
TORSDOF 1
ENDMDL
