MODEL 1
REMARK minimizedAffinity 3.97453356
REMARK minimizedRMSD -1
REMARK  1 active torsions:
REMARK  status: ('A' for Active; 'I' for Inactive)
REMARK    1  A    between atoms: C1_2  and  C2_3 
ROOT
ATOM      1  C2  UNL d   1      -3.360   5.951   3.172  0.00  0.00    -0.076 A 
ATOM      2  C3  UNL d   1      -2.497   5.920   4.281  0.00  0.00     0.004 A 
ATOM      3  C4  UNL d   1      -2.999   5.932   5.581  0.00  0.00    -0.003 A 
ATOM      4  C5  UNL d   1      -4.372   5.976   5.793  0.00  0.00     0.000 A 
ATOM      5  C6  UNL d   1      -5.244   5.990   4.705  0.00  0.00     0.000 A 
ATOM      6  C7  UNL d   1      -4.755   5.961   3.388  0.00  0.00    -0.073 A 
ATOM      7  C8  UNL d   1      -5.740   5.984   2.251  0.00  0.00     0.078 C 
ENDROOT
BRANCH   1   8
ATOM      8  C1  UNL d   1      -2.757   5.964   1.785  0.00  0.00     0.053 C 
ATOM      9  C   UNL d   1      -2.763   4.589   1.135  0.00  0.00     0.018 C 
ENDBRANCH   1   8
TORSDOF 1
ENDMDL
