MODEL 1
REMARK minimizedAffinity 3.73534966
REMARK minimizedRMSD -1
REMARK  0 active torsions:
REMARK  status: ('A' for Active; 'I' for Inactive)
ROOT
ATOM      1  C1  BNZ d   1      -1.696  -0.411   0.009  0.00  0.00     0.000 A 
ATOM      2  C2  BNZ d   1      -2.342  -0.253   1.206  0.00  0.00     0.000 A 
ATOM      3  C3  BNZ d   1      -1.638  -0.145   2.373  0.00  0.00     0.000 A 
ATOM      4  C4  BNZ d   1      -0.292  -0.237   2.346  0.00  0.00     0.000 A 
ATOM      5  C5  BNZ d   1       0.373  -0.405   1.148  0.00  0.00     0.000 A 
ATOM      6  C6  BNZ d   1      -0.337  -0.474  -0.028  0.00  0.00     0.000 A 
ENDROOT
TORSDOF 0
ENDMDL
