MODEL 1
REMARK minimizedAffinity -2.79001355
REMARK minimizedRMSD -1
REMARK  0 active torsions:
REMARK  status: ('A' for Active; 'I' for Inactive)
ROOT
ATOM      1  C1  BNZ d   1       0.865  -1.058  -1.162  0.00  0.00     0.000 A 
ATOM      2  C2  BNZ d   1       1.590  -1.140  -2.322  0.00  0.00     0.000 A 
ATOM      3  C3  BNZ d   1       1.576  -0.118  -3.229  0.00  0.00     0.000 A 
ATOM      4  C4  BNZ d   1       0.807   0.966  -2.996  0.00  0.00     0.000 A 
ATOM      5  C5  BNZ d   1       0.064   1.059  -1.836  0.00  0.00     0.000 A 
ATOM      6  C6  BNZ d   1       0.111   0.045  -0.907  0.00  0.00     0.000 A 
ENDROOT
TORSDOF 0
ENDMDL
