MODEL 1
REMARK minimizedAffinity -4.35481453
REMARK minimizedRMSD -1
REMARK  0 active torsions:
REMARK  status: ('A' for Active; 'I' for Inactive)
ROOT
ATOM      1  C1  BNZ d   1      -1.980   0.012   0.744  0.00  0.00     0.000 A 
ATOM      2  C2  BNZ d   1      -1.264  -0.879  -0.009  0.00  0.00     0.000 A 
ATOM      3  C3  BNZ d   1       0.103  -0.860  -0.005  0.00  0.00     0.000 A 
ATOM      4  C4  BNZ d   1       0.751   0.075   0.720  0.00  0.00     0.000 A 
ATOM      5  C5  BNZ d   1       0.043   0.986   1.477  0.00  0.00     0.000 A 
ATOM      6  C6  BNZ d   1      -1.332   0.939   1.501  0.00  0.00     0.000 A 
ENDROOT
TORSDOF 0
ENDMDL
