MODEL 1
REMARK minimizedAffinity -4.63266754
REMARK minimizedRMSD -1
REMARK  0 active torsions:
REMARK  status: ('A' for Active; 'I' for Inactive)
ROOT
ATOM      1  C1  BNZ d   1      -1.439   0.270   2.561  0.00  0.00     0.000 A 
ATOM      2  C2  BNZ d   1      -1.536  -0.371   1.355  0.00  0.00     0.000 A 
ATOM      3  C3  BNZ d   1      -0.850   0.082   0.264  0.00  0.00     0.000 A 
ATOM      4  C4  BNZ d   1      -0.099   1.198   0.369  0.00  0.00     0.000 A 
ATOM      5  C5  BNZ d   1       0.002   1.861   1.576  0.00  0.00     0.000 A 
ATOM      6  C6  BNZ d   1      -0.660   1.379   2.682  0.00  0.00     0.000 A 
ENDROOT
TORSDOF 0
ENDMDL
