MODEL 1
REMARK minimizedAffinity -4.6344552
REMARK minimizedRMSD -1
REMARK  0 active torsions:
REMARK  status: ('A' for Active; 'I' for Inactive)
ROOT
ATOM      1  C1  BNZ d   1       0.276   1.627   2.380  0.00  0.00     0.000 A 
ATOM      2  C2  BNZ d   1       0.680   1.173   1.153  0.00  0.00     0.000 A 
ATOM      3  C3  BNZ d   1      -0.132   0.371   0.401  0.00  0.00     0.000 A 
ATOM      4  C4  BNZ d   1      -1.329  -0.009   0.894  0.00  0.00     0.000 A 
ATOM      5  C5  BNZ d   1      -1.746   0.434   2.134  0.00  0.00     0.000 A 
ATOM      6  C6  BNZ d   1      -0.942   1.273   2.870  0.00  0.00     0.000 A 
ENDROOT
TORSDOF 0
ENDMDL
