MODEL 1
REMARK minimizedAffinity -2.40311241
REMARK minimizedRMSD -1
REMARK  0 active torsions:
REMARK  status: ('A' for Active; 'I' for Inactive)
ROOT
ATOM      1  C1  BNZ d   1      -1.615   1.102   2.683  0.00  0.00     0.000 A 
ATOM      2  C2  BNZ d   1      -1.637   0.255   1.607  0.00  0.00     0.000 A 
ATOM      3  C3  BNZ d   1      -0.914   0.534   0.482  0.00  0.00     0.000 A 
ATOM      4  C4  BNZ d   1      -0.202   1.678   0.419  0.00  0.00     0.000 A 
ATOM      5  C5  BNZ d   1      -0.177   2.546   1.492  0.00  0.00     0.000 A 
ATOM      6  C6  BNZ d   1      -0.875   2.243   2.638  0.00  0.00     0.000 A 
ENDROOT
TORSDOF 0
ENDMDL
