MODEL 1
REMARK minimizedAffinity -4.69623709
REMARK minimizedRMSD -1
REMARK  0 active torsions:
REMARK  status: ('A' for Active; 'I' for Inactive)
ROOT
ATOM      1  C1  BNZ d   1       0.423   1.114   2.033  0.00  0.00     0.000 A 
ATOM      2  C2  BNZ d   1       0.719   0.522   0.834  0.00  0.00     0.000 A 
ATOM      3  C3  BNZ d   1      -0.268  -0.015   0.055  0.00  0.00     0.000 A 
ATOM      4  C4  BNZ d   1      -1.543   0.005   0.494  0.00  0.00     0.000 A 
ATOM      5  C5  BNZ d   1      -1.857   0.590   1.705  0.00  0.00     0.000 A 
ATOM      6  C6  BNZ d   1      -0.866   1.164   2.468  0.00  0.00     0.000 A 
ENDROOT
TORSDOF 0
ENDMDL
