MODEL 1
REMARK minimizedAffinity -4.38092661
REMARK minimizedRMSD -1
REMARK  0 active torsions:
REMARK  status: ('A' for Active; 'I' for Inactive)
ROOT
ATOM      1  C1  BNZ d   1       0.703   0.075   1.242  0.00  0.00     0.000 A 
ATOM      2  C2  BNZ d   1       0.525  -0.296  -0.064  0.00  0.00     0.000 A 
ATOM      3  C3  BNZ d   1      -0.678  -0.114  -0.686  0.00  0.00     0.000 A 
ATOM      4  C4  BNZ d   1      -1.713   0.401   0.010  0.00  0.00     0.000 A 
ATOM      5  C5  BNZ d   1      -1.552   0.772   1.330  0.00  0.00     0.000 A 
ATOM      6  C6  BNZ d   1      -0.328   0.623   1.941  0.00  0.00     0.000 A 
ENDROOT
TORSDOF 0
ENDMDL
