MODEL 1
REMARK minimizedAffinity -2.22201276
REMARK minimizedRMSD -1
REMARK  1 active torsions:
REMARK  status: ('A' for Active; 'I' for Inactive)
REMARK    1  A    between atoms: C1_2  and  C2_3 
ROOT
ATOM      1  C2  UNL d   1       2.627   1.492  -4.617  0.00  0.00    -0.077 A 
ATOM      2  C3  UNL d   1       2.988   0.709  -3.512  0.00  0.00     0.002 A 
ATOM      3  C4  UNL d   1       2.137   0.608  -2.409  0.00  0.00     0.002 A 
ATOM      4  C5  UNL d   1       0.918   1.282  -2.404  0.00  0.00    -0.004 A 
ATOM      5  C6  UNL d   1       0.550   2.065  -3.498  0.00  0.00     0.002 A 
ATOM      6  C7  UNL d   1       1.400   2.168  -4.600  0.00  0.00     0.002 A 
ENDROOT
BRANCH   1   7
ATOM      7  C1  UNL d   1       3.521   1.563  -5.827  0.00  0.00     0.055 C 
ATOM      8  C   UNL d   1       4.678   0.581  -5.719  0.00  0.00     0.019 C 
ENDBRANCH   1   7
TORSDOF 1
ENDMDL
