MODEL 1
REMARK minimizedAffinity -4.24567842
REMARK minimizedRMSD -1
REMARK  1 active torsions:
REMARK  status: ('A' for Active; 'I' for Inactive)
REMARK    1  A    between atoms: C1_2  and  C2_3 
ROOT
ATOM      1  C2  UNL d   1      -3.772  -0.444   0.369  0.00  0.00    -0.077 A 
ATOM      2  C3  UNL d   1      -4.466  -0.429   1.587  0.00  0.00     0.002 A 
ATOM      3  C4  UNL d   1      -3.769  -0.419   2.797  0.00  0.00     0.002 A 
ATOM      4  C5  UNL d   1      -2.376  -0.420   2.800  0.00  0.00    -0.004 A 
ATOM      5  C6  UNL d   1      -1.677  -0.437   1.594  0.00  0.00     0.002 A 
ATOM      6  C7  UNL d   1      -2.372  -0.448   0.384  0.00  0.00     0.002 A 
ENDROOT
BRANCH   1   7
ATOM      7  C1  UNL d   1      -4.522  -0.405  -0.937  0.00  0.00     0.055 C 
ATOM      8  C   UNL d   1      -5.990  -0.068  -0.723  0.00  0.00     0.019 C 
ENDBRANCH   1   7
TORSDOF 1
ENDMDL
