MODEL 1
REMARK minimizedAffinity -2.47371006
REMARK minimizedRMSD -1
REMARK  1 active torsions:
REMARK  status: ('A' for Active; 'I' for Inactive)
REMARK    1  A    between atoms: C1_2  and  C2_3 
ROOT
ATOM      1  C2  UNL d   1      -2.812   2.575   0.664  0.00  0.00    -0.077 A 
ATOM      2  C3  UNL d   1      -2.604   2.354   2.033  0.00  0.00     0.002 A 
ATOM      3  C4  UNL d   1      -2.713   1.068   2.565  0.00  0.00     0.002 A 
ATOM      4  C5  UNL d   1      -3.025  -0.008   1.736  0.00  0.00    -0.004 A 
ATOM      5  C6  UNL d   1      -3.236   0.202   0.373  0.00  0.00     0.002 A 
ATOM      6  C7  UNL d   1      -3.129   1.487  -0.160  0.00  0.00     0.002 A 
ENDROOT
BRANCH   1   7
ATOM      7  C1  UNL d   1      -2.648   3.953   0.079  0.00  0.00     0.055 C 
ATOM      8  C   UNL d   1      -3.713   4.907   0.601  0.00  0.00     0.019 C 
ENDBRANCH   1   7
TORSDOF 1
ENDMDL
