MODEL 1
REMARK minimizedAffinity -3.30208564
REMARK minimizedRMSD -1
REMARK  1 active torsions:
REMARK  status: ('A' for Active; 'I' for Inactive)
REMARK    1  A    between atoms: C1_2  and  C2_3 
ROOT
ATOM      1  C2  UNL d   1      -2.124   1.797   0.405  0.00  0.00    -0.077 A 
ATOM      2  C3  UNL d   1      -1.989   0.542  -0.204  0.00  0.00     0.002 A 
ATOM      3  C4  UNL d   1      -2.161  -0.627   0.540  0.00  0.00     0.002 A 
ATOM      4  C5  UNL d   1      -2.474  -0.552   1.896  0.00  0.00    -0.004 A 
ATOM      5  C6  UNL d   1      -2.608   0.692   2.511  0.00  0.00     0.002 A 
ATOM      6  C7  UNL d   1      -2.435   1.861   1.769  0.00  0.00     0.002 A 
ENDROOT
BRANCH   1   7
ATOM      7  C1  UNL d   1      -1.987   3.058  -0.407  0.00  0.00     0.055 C 
ATOM      8  C   UNL d   1      -3.179   3.982  -0.199  0.00  0.00     0.019 C 
ENDBRANCH   1   7
TORSDOF 1
ENDMDL
