MODEL 1
REMARK minimizedAffinity 2.90072966
REMARK minimizedRMSD -1
REMARK  1 active torsions:
REMARK  status: ('A' for Active; 'I' for Inactive)
REMARK    1  A    between atoms: C1_2  and  C2_3 
ROOT
ATOM      1  C2  UNL d   1      -3.085   0.043   1.386  0.00  0.00    -0.077 A 
ATOM      2  C3  UNL d   1      -3.117  -0.496   0.093  0.00  0.00     0.002 A 
ATOM      3  C4  UNL d   1      -3.173   0.345  -1.021  0.00  0.00     0.002 A 
ATOM      4  C5  UNL d   1      -3.193   1.728  -0.853  0.00  0.00    -0.004 A 
ATOM      5  C6  UNL d   1      -3.164   2.273   0.430  0.00  0.00     0.002 A 
ATOM      6  C7  UNL d   1      -3.109   1.435   1.545  0.00  0.00     0.002 A 
ENDROOT
BRANCH   1   7
ATOM      7  C1  UNL d   1      -2.975  -0.860   2.587  0.00  0.00     0.055 C 
ATOM      8  C   UNL d   1      -1.915  -0.362   3.559  0.00  0.00     0.019 C 
ENDBRANCH   1   7
TORSDOF 1
ENDMDL
