MODEL 1
REMARK minimizedAffinity 6.02904272
REMARK minimizedRMSD -1
REMARK  1 active torsions:
REMARK  status: ('A' for Active; 'I' for Inactive)
REMARK    1  A    between atoms: C1_2  and  C2_3 
ROOT
ATOM      1  C2  UNL d   1      -4.100   0.351   1.604  0.00  0.00    -0.077 A 
ATOM      2  C3  UNL d   1      -3.239   0.552   0.516  0.00  0.00     0.002 A 
ATOM      3  C4  UNL d   1      -3.756   0.759  -0.764  0.00  0.00     0.002 A 
ATOM      4  C5  UNL d   1      -5.135   0.773  -0.967  0.00  0.00    -0.004 A 
ATOM      5  C6  UNL d   1      -5.999   0.573   0.109  0.00  0.00     0.002 A 
ATOM      6  C7  UNL d   1      -5.484   0.364   1.389  0.00  0.00     0.002 A 
ENDROOT
BRANCH   1   7
ATOM      7  C1  UNL d   1      -3.545   0.176   2.994  0.00  0.00     0.055 C 
ATOM      8  C   UNL d   1      -4.566  -0.467   3.921  0.00  0.00     0.019 C 
ENDBRANCH   1   7
TORSDOF 1
ENDMDL
