MODEL 1
REMARK minimizedAffinity -0.464628249
REMARK minimizedRMSD -1
REMARK  1 active torsions:
REMARK  status: ('A' for Active; 'I' for Inactive)
REMARK    1  A    between atoms: C1_2  and  C2_3 
ROOT
ATOM      1  C2  UNL d   1      -3.275   4.653   1.434  0.00  0.00    -0.077 A 
ATOM      2  C3  UNL d   1      -3.227   3.358   1.968  0.00  0.00     0.002 A 
ATOM      3  C4  UNL d   1      -2.908   2.270   1.153  0.00  0.00     0.002 A 
ATOM      4  C5  UNL d   1      -2.630   2.467  -0.198  0.00  0.00    -0.004 A 
ATOM      5  C6  UNL d   1      -2.677   3.751  -0.739  0.00  0.00     0.002 A 
ATOM      6  C7  UNL d   1      -2.997   4.840   0.074  0.00  0.00     0.002 A 
ENDROOT
BRANCH   1   7
ATOM      7  C1  UNL d   1      -3.570   5.834   2.322  0.00  0.00     0.055 C 
ATOM      8  C   UNL d   1      -4.638   5.498   3.353  0.00  0.00     0.019 C 
ENDBRANCH   1   7
TORSDOF 1
ENDMDL
