MODEL 1
REMARK minimizedAffinity -3.42652154
REMARK minimizedRMSD -1
REMARK  1 active torsions:
REMARK  status: ('A' for Active; 'I' for Inactive)
REMARK    1  A    between atoms: C1_2  and  C2_3 
ROOT
ATOM      1  C2  UNL d   1      -3.720   1.707   3.788  0.00  0.00    -0.077 A 
ATOM      2  C3  UNL d   1      -2.586   1.387   3.028  0.00  0.00     0.002 A 
ATOM      3  C4  UNL d   1      -2.368   0.076   2.602  0.00  0.00     0.002 A 
ATOM      4  C5  UNL d   1      -3.281  -0.925   2.926  0.00  0.00    -0.004 A 
ATOM      5  C6  UNL d   1      -4.411  -0.618   3.683  0.00  0.00     0.002 A 
ATOM      6  C7  UNL d   1      -4.630   0.692   4.111  0.00  0.00     0.002 A 
ENDROOT
BRANCH   1   7
ATOM      7  C1  UNL d   1      -3.982   3.130   4.206  0.00  0.00     0.055 C 
ATOM      8  C   UNL d   1      -3.656   4.106   3.085  0.00  0.00     0.019 C 
ENDBRANCH   1   7
TORSDOF 1
ENDMDL
