MODEL 1
REMARK minimizedAffinity 8.74146557
REMARK minimizedRMSD -1
REMARK  1 active torsions:
REMARK  status: ('A' for Active; 'I' for Inactive)
REMARK    1  A    between atoms: C1_2  and  C2_3 
ROOT
ATOM      1  C2  UNL d   1      -4.364  -0.830   3.441  0.00  0.00    -0.077 A 
ATOM      2  C3  UNL d   1      -3.548  -0.662   4.569  0.00  0.00     0.002 A 
ATOM      3  C4  UNL d   1      -2.326   0.005   4.464  0.00  0.00     0.002 A 
ATOM      4  C5  UNL d   1      -1.911   0.513   3.234  0.00  0.00    -0.004 A 
ATOM      5  C6  UNL d   1      -2.715   0.350   2.107  0.00  0.00     0.002 A 
ATOM      6  C7  UNL d   1      -3.936  -0.318   2.210  0.00  0.00     0.002 A 
ENDROOT
BRANCH   1   7
ATOM      7  C1  UNL d   1      -5.705  -1.506   3.563  0.00  0.00     0.055 C 
ATOM      8  C   UNL d   1      -5.602  -2.995   3.270  0.00  0.00     0.019 C 
ENDBRANCH   1   7
TORSDOF 1
ENDMDL
