MODEL 1
REMARK minimizedAffinity 2.34257865
REMARK minimizedRMSD -1
REMARK  1 active torsions:
REMARK  status: ('A' for Active; 'I' for Inactive)
REMARK    1  A    between atoms: C1_2  and  C2_3 
ROOT
ATOM      1  C2  UNL d   1      -4.903  -0.730   3.375  0.00  0.00    -0.077 A 
ATOM      2  C3  UNL d   1      -4.828  -0.242   4.687  0.00  0.00     0.002 A 
ATOM      3  C4  UNL d   1      -3.839   0.677   5.043  0.00  0.00     0.002 A 
ATOM      4  C5  UNL d   1      -2.922   1.120   4.092  0.00  0.00    -0.004 A 
ATOM      5  C6  UNL d   1      -2.988   0.639   2.784  0.00  0.00     0.002 A 
ATOM      6  C7  UNL d   1      -3.974  -0.281   2.427  0.00  0.00     0.002 A 
ENDROOT
BRANCH   1   7
ATOM      7  C1  UNL d   1      -5.999  -1.684   2.977  0.00  0.00     0.055 C 
ATOM      8  C   UNL d   1      -5.824  -3.039   3.647  0.00  0.00     0.019 C 
ENDBRANCH   1   7
TORSDOF 1
ENDMDL
