MODEL 1
REMARK minimizedAffinity 4.13447618
REMARK minimizedRMSD -1
REMARK  1 active torsions:
REMARK  status: ('A' for Active; 'I' for Inactive)
REMARK    1  A    between atoms: C1_2  and  C2_3 
ROOT
ATOM      1  C2  UNL d   1      -3.521   0.069   1.509  0.00  0.00    -0.077 A 
ATOM      2  C3  UNL d   1      -2.477   0.687   2.212  0.00  0.00     0.002 A 
ATOM      3  C4  UNL d   1      -2.312   0.454   3.579  0.00  0.00     0.002 A 
ATOM      4  C5  UNL d   1      -3.183  -0.399   4.253  0.00  0.00    -0.004 A 
ATOM      5  C6  UNL d   1      -4.225  -1.017   3.563  0.00  0.00     0.002 A 
ATOM      6  C7  UNL d   1      -4.393  -0.785   2.197  0.00  0.00     0.002 A 
ENDROOT
BRANCH   1   7
ATOM      7  C1  UNL d   1      -3.671   0.279   0.025  0.00  0.00     0.055 C 
ATOM      8  C   UNL d   1      -5.134   0.258  -0.392  0.00  0.00     0.019 C 
ENDBRANCH   1   7
TORSDOF 1
ENDMDL
