MODEL 1
REMARK minimizedAffinity -0.590511858
REMARK minimizedRMSD -1
REMARK  1 active torsions:
REMARK  status: ('A' for Active; 'I' for Inactive)
REMARK    1  A    between atoms: C1_2  and  C2_3 
ROOT
ATOM      1  C2  UNL d   1      -2.748   0.283   2.650  0.00  0.00    -0.077 A 
ATOM      2  C3  UNL d   1      -3.054  -0.808   1.824  0.00  0.00     0.002 A 
ATOM      3  C4  UNL d   1      -3.287  -0.618   0.460  0.00  0.00     0.002 A 
ATOM      4  C5  UNL d   1      -3.212   0.660  -0.090  0.00  0.00    -0.004 A 
ATOM      5  C6  UNL d   1      -2.911   1.752   0.723  0.00  0.00     0.002 A 
ATOM      6  C7  UNL d   1      -2.679   1.564   2.087  0.00  0.00     0.002 A 
ENDROOT
BRANCH   1   7
ATOM      7  C1  UNL d   1      -2.449   0.074   4.111  0.00  0.00     0.055 C 
ATOM      8  C   UNL d   1      -3.634   0.466   4.981  0.00  0.00     0.019 C 
ENDBRANCH   1   7
TORSDOF 1
ENDMDL
