MODEL 1
REMARK minimizedAffinity -0.407932162
REMARK minimizedRMSD -1
REMARK  1 active torsions:
REMARK  status: ('A' for Active; 'I' for Inactive)
REMARK    1  A    between atoms: C1_2  and  C2_3 
ROOT
ATOM      1  C2  UNL d   1      -2.947   1.367   2.032  0.00  0.00    -0.077 A 
ATOM      2  C3  UNL d   1      -3.494   0.563   1.023  0.00  0.00     0.002 A 
ATOM      3  C4  UNL d   1      -3.616   1.050  -0.280  0.00  0.00     0.002 A 
ATOM      4  C5  UNL d   1      -3.189   2.340  -0.586  0.00  0.00    -0.004 A 
ATOM      5  C6  UNL d   1      -2.645   3.149   0.411  0.00  0.00     0.002 A 
ATOM      6  C7  UNL d   1      -2.524   2.664   1.714  0.00  0.00     0.002 A 
ENDROOT
BRANCH   1   7
ATOM      7  C1  UNL d   1      -2.769   0.827   3.427  0.00  0.00     0.055 C 
ATOM      8  C   UNL d   1      -3.026  -0.672   3.477  0.00  0.00     0.019 C 
ENDBRANCH   1   7
TORSDOF 1
ENDMDL
