MODEL 1
REMARK minimizedAffinity -2.22089314
REMARK minimizedRMSD -1
REMARK  1 active torsions:
REMARK  status: ('A' for Active; 'I' for Inactive)
REMARK    1  A    between atoms: C1_2  and  C2_3 
ROOT
ATOM      1  C2  UNL d   1      -2.663   0.386   0.985  0.00  0.00    -0.077 A 
ATOM      2  C3  UNL d   1      -2.161   1.454   1.741  0.00  0.00     0.002 A 
ATOM      3  C4  UNL d   1      -2.391   2.772   1.341  0.00  0.00     0.002 A 
ATOM      4  C5  UNL d   1      -3.128   3.033   0.188  0.00  0.00    -0.004 A 
ATOM      5  C6  UNL d   1      -3.630   1.978  -0.572  0.00  0.00     0.002 A 
ATOM      6  C7  UNL d   1      -3.400   0.660  -0.175  0.00  0.00     0.002 A 
ENDROOT
BRANCH   1   7
ATOM      7  C1  UNL d   1      -2.458  -1.035   1.441  0.00  0.00     0.055 C 
ATOM      8  C   UNL d   1      -1.744  -1.859   0.379  0.00  0.00     0.019 C 
ENDBRANCH   1   7
TORSDOF 1
ENDMDL
