MODEL 1
REMARK minimizedAffinity -3.85037494
REMARK minimizedRMSD -1
REMARK  1 active torsions:
REMARK  status: ('A' for Active; 'I' for Inactive)
REMARK    1  A    between atoms: C1_2  and  C2_3 
ROOT
ATOM      1  C2  UNL d   1      -2.538   1.650   1.320  0.00  0.00    -0.077 A 
ATOM      2  C3  UNL d   1      -2.734   0.775   0.243  0.00  0.00     0.002 A 
ATOM      3  C4  UNL d   1      -2.822  -0.602   0.458  0.00  0.00     0.002 A 
ATOM      4  C5  UNL d   1      -2.721  -1.114   1.750  0.00  0.00    -0.004 A 
ATOM      5  C6  UNL d   1      -2.525  -0.252   2.828  0.00  0.00     0.002 A 
ATOM      6  C7  UNL d   1      -2.434   1.124   2.614  0.00  0.00     0.002 A 
ENDROOT
BRANCH   1   7
ATOM      7  C1  UNL d   1      -2.491   3.139   1.095  0.00  0.00     0.055 C 
ATOM      8  C   UNL d   1      -3.554   3.583   0.100  0.00  0.00     0.019 C 
ENDBRANCH   1   7
TORSDOF 1
ENDMDL
