MODEL 1
REMARK minimizedAffinity -1.6342423
REMARK minimizedRMSD -1
REMARK  1 active torsions:
REMARK  status: ('A' for Active; 'I' for Inactive)
REMARK    1  A    between atoms: C3_4  and  O_7 
ROOT
ATOM      1  C   UNL d   1       0.197   0.399  -1.003  0.00  0.00    -0.033 A 
ATOM      2  C1  UNL d   1      -0.158   0.290   0.342  0.00  0.00     0.039 A 
ATOM      3  C2  UNL d   1      -0.449  -0.961   0.890  0.00  0.00    -0.080 A 
ATOM      4  C3  UNL d   1      -0.381  -2.093   0.083  0.00  0.00     0.150 A 
ATOM      5  C4  UNL d   1      -0.024  -1.992  -1.258  0.00  0.00    -0.007 A 
ATOM      6  C5  UNL d   1       0.266  -0.742  -1.803  0.00  0.00     0.039 A 
ENDROOT
BRANCH   4   7
ATOM      7  O   UNL d   1      -0.661  -3.335   0.571  0.00  0.00    -0.526 OA
ATOM      8  H5  UNL d   1      -0.920  -3.248   1.504  0.00  0.00     0.418 HD
ENDBRANCH   4   7
TORSDOF 1
ENDMDL
