MODEL 1
REMARK minimizedAffinity -2.40020704
REMARK minimizedRMSD -1
REMARK  1 active torsions:
REMARK  status: ('A' for Active; 'I' for Inactive)
REMARK    1  A    between atoms: C3_4  and  O_7 
ROOT
ATOM      1  C   UNL d   1       0.829  -1.731  -0.321  0.00  0.00    -0.033 A 
ATOM      2  C1  UNL d   1       0.807  -1.100  -1.566  0.00  0.00     0.039 A 
ATOM      3  C2  UNL d   1       0.661   0.286  -1.645  0.00  0.00    -0.080 A 
ATOM      4  C3  UNL d   1       0.538   1.028  -0.474  0.00  0.00     0.150 A 
ATOM      5  C4  UNL d   1       0.563   0.406   0.770  0.00  0.00    -0.007 A 
ATOM      6  C5  UNL d   1       0.708  -0.978   0.847  0.00  0.00     0.039 A 
ENDROOT
BRANCH   4   7
ATOM      7  O   UNL d   1       0.388   2.383  -0.501  0.00  0.00    -0.526 OA
ATOM      8  H5  UNL d   1       0.360   2.671  -1.429  0.00  0.00     0.418 HD
ENDBRANCH   4   7
TORSDOF 1
ENDMDL
