MODEL 1
REMARK minimizedAffinity -2.98572969
REMARK minimizedRMSD -1
REMARK  1 active torsions:
REMARK  status: ('A' for Active; 'I' for Inactive)
REMARK    1  A    between atoms: C3_4  and  O_7 
ROOT
ATOM      1  C   UNL d   1      -0.777   0.307   0.708  0.00  0.00    -0.033 A 
ATOM      2  C1  UNL d   1      -1.017  -0.312   1.936  0.00  0.00     0.039 A 
ATOM      3  C2  UNL d   1      -0.686  -1.656   2.119  0.00  0.00    -0.080 A 
ATOM      4  C3  UNL d   1      -0.116  -2.369   1.068  0.00  0.00     0.150 A 
ATOM      5  C4  UNL d   1       0.130  -1.757  -0.157  0.00  0.00    -0.007 A 
ATOM      6  C5  UNL d   1      -0.202  -0.415  -0.338  0.00  0.00     0.039 A 
ENDROOT
BRANCH   4   7
ATOM      7  O   UNL d   1       0.220  -3.684   1.197  0.00  0.00    -0.526 OA
ATOM      8  H5  UNL d   1      -0.034  -3.980   2.087  0.00  0.00     0.418 HD
ENDBRANCH   4   7
TORSDOF 1
ENDMDL
