MODEL 1
REMARK minimizedAffinity -2.17506719
REMARK minimizedRMSD -1
REMARK  1 active torsions:
REMARK  status: ('A' for Active; 'I' for Inactive)
REMARK    1  A    between atoms: C3_4  and  O_7 
ROOT
ATOM      1  C   UNL d   1      -0.896  -2.466   0.577  0.00  0.00    -0.033 A 
ATOM      2  C1  UNL d   1      -0.733  -2.002  -0.729  0.00  0.00     0.039 A 
ATOM      3  C2  UNL d   1      -0.363  -0.675  -0.960  0.00  0.00    -0.080 A 
ATOM      4  C3  UNL d   1      -0.158   0.175   0.123  0.00  0.00     0.150 A 
ATOM      5  C4  UNL d   1      -0.314  -0.282   1.428  0.00  0.00    -0.007 A 
ATOM      6  C5  UNL d   1      -0.686  -1.606   1.656  0.00  0.00     0.039 A 
ENDROOT
BRANCH   4   7
ATOM      7  O   UNL d   1       0.200   1.479  -0.052  0.00  0.00    -0.526 OA
ATOM      8  H5  UNL d   1       0.244   1.660  -1.006  0.00  0.00     0.418 HD
ENDBRANCH   4   7
TORSDOF 1
ENDMDL
