MODEL 1
REMARK minimizedAffinity -5.16518211
REMARK minimizedRMSD -1
REMARK  1 active torsions:
REMARK  status: ('A' for Active; 'I' for Inactive)
REMARK    1  A    between atoms: C3_4  and  O_7 
ROOT
ATOM      1  C   UNL d   1      -0.523   0.081   0.328  0.00  0.00    -0.033 A 
ATOM      2  C1  UNL d   1       0.459  -0.459  -0.505  0.00  0.00     0.039 A 
ATOM      3  C2  UNL d   1       0.752  -1.823  -0.450  0.00  0.00    -0.080 A 
ATOM      4  C3  UNL d   1       0.057  -2.635   0.441  0.00  0.00     0.150 A 
ATOM      5  C4  UNL d   1      -0.926  -2.106   1.271  0.00  0.00    -0.007 A 
ATOM      6  C5  UNL d   1      -1.216  -0.743   1.215  0.00  0.00     0.039 A 
ENDROOT
BRANCH   4   7
ATOM      7  O   UNL d   1       0.311  -3.971   0.534  0.00  0.00    -0.526 OA
ATOM      8  H5  UNL d   1       1.033  -4.191  -0.078  0.00  0.00     0.418 HD
ENDBRANCH   4   7
TORSDOF 1
ENDMDL
