MODEL 1
REMARK minimizedAffinity -5.1211462
REMARK minimizedRMSD -1
REMARK  1 active torsions:
REMARK  status: ('A' for Active; 'I' for Inactive)
REMARK    1  A    between atoms: C3_4  and  O_7 
ROOT
ATOM      1  C   UNL d   1      -0.393  -3.331  -0.915  0.00  0.00    -0.033 A 
ATOM      2  C1  UNL d   1       0.019  -2.509  -1.966  0.00  0.00     0.039 A 
ATOM      3  C2  UNL d   1       0.188  -1.139  -1.757  0.00  0.00    -0.080 A 
ATOM      4  C3  UNL d   1      -0.056  -0.605  -0.495  0.00  0.00     0.150 A 
ATOM      5  C4  UNL d   1      -0.463  -1.419   0.557  0.00  0.00    -0.007 A 
ATOM      6  C5  UNL d   1      -0.633  -2.786   0.347  0.00  0.00     0.039 A 
ENDROOT
BRANCH   4   7
ATOM      7  O   UNL d   1       0.091   0.727  -0.244  0.00  0.00    -0.526 OA
ATOM      8  H5  UNL d   1       0.348   1.169  -1.071  0.00  0.00     0.418 HD
ENDBRANCH   4   7
TORSDOF 1
ENDMDL
