MODEL 1
REMARK minimizedAffinity -3.43613863
REMARK minimizedRMSD -1
REMARK  1 active torsions:
REMARK  status: ('A' for Active; 'I' for Inactive)
REMARK    1  A    between atoms: C3_4  and  O_7 
ROOT
ATOM      1  C   UNL d   1      -0.648  -2.682   0.542  0.00  0.00    -0.033 A 
ATOM      2  C1  UNL d   1       0.391  -2.375  -0.340  0.00  0.00     0.039 A 
ATOM      3  C2  UNL d   1       0.822  -1.055  -0.480  0.00  0.00    -0.080 A 
ATOM      4  C3  UNL d   1       0.209  -0.052   0.266  0.00  0.00     0.150 A 
ATOM      5  C4  UNL d   1      -0.824  -0.352   1.149  0.00  0.00    -0.007 A 
ATOM      6  C5  UNL d   1      -1.254  -1.671   1.287  0.00  0.00     0.039 A 
ENDROOT
BRANCH   4   7
ATOM      7  O   UNL d   1       0.592   1.252   0.160  0.00  0.00    -0.526 OA
ATOM      8  H5  UNL d   1       1.295   1.312  -0.508  0.00  0.00     0.418 HD
ENDBRANCH   4   7
TORSDOF 1
ENDMDL
