MODEL 1
REMARK minimizedAffinity -1.30477679
REMARK minimizedRMSD -1
REMARK  1 active torsions:
REMARK  status: ('A' for Active; 'I' for Inactive)
REMARK    1  A    between atoms: C3_4  and  O_7 
ROOT
ATOM      1  C   UNL d   1      -0.618  -1.426   1.973  0.00  0.00    -0.033 A 
ATOM      2  C1  UNL d   1      -0.905  -2.443   1.060  0.00  0.00     0.039 A 
ATOM      3  C2  UNL d   1      -0.607  -2.272  -0.294  0.00  0.00    -0.080 A 
ATOM      4  C3  UNL d   1      -0.022  -1.083  -0.721  0.00  0.00     0.150 A 
ATOM      5  C4  UNL d   1       0.270  -0.068   0.184  0.00  0.00    -0.007 A 
ATOM      6  C5  UNL d   1      -0.029  -0.239   1.535  0.00  0.00     0.039 A 
ENDROOT
BRANCH   4   7
ATOM      7  O   UNL d   1       0.282  -0.870  -2.032  0.00  0.00    -0.526 OA
ATOM      8  H5  UNL d   1      -0.002  -1.645  -2.544  0.00  0.00     0.418 HD
ENDBRANCH   4   7
TORSDOF 1
ENDMDL
