MODEL 1
REMARK minimizedAffinity -3.14786315
REMARK minimizedRMSD -1
REMARK  1 active torsions:
REMARK  status: ('A' for Active; 'I' for Inactive)
REMARK    1  A    between atoms: C3_4  and  O_7 
ROOT
ATOM      1  C   UNL d   1      -0.490   0.758  -0.438  0.00  0.00    -0.033 A 
ATOM      2  C1  UNL d   1      -0.673   2.068  -0.885  0.00  0.00     0.039 A 
ATOM      3  C2  UNL d   1       0.235   3.065  -0.523  0.00  0.00    -0.080 A 
ATOM      4  C3  UNL d   1       1.321   2.739   0.285  0.00  0.00     0.150 A 
ATOM      5  C4  UNL d   1       1.512   1.435   0.730  0.00  0.00    -0.007 A 
ATOM      6  C5  UNL d   1       0.604   0.441   0.368  0.00  0.00     0.039 A 
ENDROOT
BRANCH   4   7
ATOM      7  O   UNL d   1       2.232   3.678   0.668  0.00  0.00    -0.526 OA
ATOM      8  H5  UNL d   1       1.956   4.539   0.309  0.00  0.00     0.418 HD
ENDBRANCH   4   7
TORSDOF 1
ENDMDL
