MODEL 1
REMARK minimizedAffinity -2.5457921
REMARK minimizedRMSD -1
REMARK  1 active torsions:
REMARK  status: ('A' for Active; 'I' for Inactive)
REMARK    1  A    between atoms: C3_4  and  O_7 
ROOT
ATOM      1  C   UNL d   1      -0.147  -0.437  -0.121  0.00  0.00    -0.033 A 
ATOM      2  C1  UNL d   1      -0.216   0.449  -1.197  0.00  0.00     0.039 A 
ATOM      3  C2  UNL d   1       0.033   1.809  -1.002  0.00  0.00    -0.080 A 
ATOM      4  C3  UNL d   1       0.352   2.269   0.272  0.00  0.00     0.150 A 
ATOM      5  C4  UNL d   1       0.426   1.392   1.349  0.00  0.00    -0.007 A 
ATOM      6  C5  UNL d   1       0.176   0.034   1.152  0.00  0.00     0.039 A 
ENDROOT
BRANCH   4   7
ATOM      7  O   UNL d   1       0.599   3.588   0.513  0.00  0.00    -0.526 OA
ATOM      8  H5  UNL d   1       0.483   4.079  -0.318  0.00  0.00     0.418 HD
ENDBRANCH   4   7
TORSDOF 1
ENDMDL
