MODEL 1
REMARK minimizedAffinity -3.76298022
REMARK minimizedRMSD -1
REMARK  1 active torsions:
REMARK  status: ('A' for Active; 'I' for Inactive)
REMARK    1  A    between atoms: C3_4  and  O_7 
ROOT
ATOM      1  C   UNL d   1      -1.080   0.406   0.512  0.00  0.00    -0.033 A 
ATOM      2  C1  UNL d   1      -1.863  -0.603   1.077  0.00  0.00     0.039 A 
ATOM      3  C2  UNL d   1      -1.376  -1.909   1.150  0.00  0.00    -0.080 A 
ATOM      4  C3  UNL d   1      -0.106  -2.193   0.657  0.00  0.00     0.150 A 
ATOM      5  C4  UNL d   1       0.681  -1.193   0.096  0.00  0.00    -0.007 A 
ATOM      6  C5  UNL d   1       0.193   0.111   0.023  0.00  0.00     0.039 A 
ENDROOT
BRANCH   4   7
ATOM      7  O   UNL d   1       0.411  -3.454   0.702  0.00  0.00    -0.526 OA
ATOM      8  H5  UNL d   1      -0.256  -4.046   1.089  0.00  0.00     0.418 HD
ENDBRANCH   4   7
TORSDOF 1
ENDMDL
