MODEL 1
REMARK minimizedAffinity -4.25076628
REMARK minimizedRMSD -1
REMARK  1 active torsions:
REMARK  status: ('A' for Active; 'I' for Inactive)
REMARK    1  A    between atoms: C3_4  and  O_7 
ROOT
ATOM      1  C   UNL d   1      -0.168  -3.058  -0.021  0.00  0.00    -0.033 A 
ATOM      2  C1  UNL d   1      -0.464  -2.374   1.160  0.00  0.00     0.039 A 
ATOM      3  C2  UNL d   1      -0.271  -0.994   1.237  0.00  0.00    -0.080 A 
ATOM      4  C3  UNL d   1       0.215  -0.309   0.127  0.00  0.00     0.150 A 
ATOM      5  C4  UNL d   1       0.507  -0.983  -1.055  0.00  0.00    -0.007 A 
ATOM      6  C5  UNL d   1       0.316  -2.362  -1.129  0.00  0.00     0.039 A 
ENDROOT
BRANCH   4   7
ATOM      7  O   UNL d   1       0.423   1.038   0.155  0.00  0.00    -0.526 OA
ATOM      8  H5  UNL d   1       0.205   1.364   1.044  0.00  0.00     0.418 HD
ENDBRANCH   4   7
TORSDOF 1
ENDMDL
