MODEL 1
REMARK minimizedAffinity -2.92620277
REMARK minimizedRMSD -1
REMARK  1 active torsions:
REMARK  status: ('A' for Active; 'I' for Inactive)
REMARK    1  A    between atoms: C3_4  and  O_7 
ROOT
ATOM      1  C   UNL d   1       0.431   0.658   0.412  0.00  0.00    -0.033 A 
ATOM      2  C1  UNL d   1       0.860  -0.490  -0.258  0.00  0.00     0.039 A 
ATOM      3  C2  UNL d   1       0.206  -1.706  -0.051  0.00  0.00    -0.080 A 
ATOM      4  C3  UNL d   1      -0.873  -1.762   0.826  0.00  0.00     0.150 A 
ATOM      5  C4  UNL d   1      -1.308  -0.622   1.494  0.00  0.00    -0.007 A 
ATOM      6  C5  UNL d   1      -0.654   0.592   1.287  0.00  0.00     0.039 A 
ENDROOT
BRANCH   4   7
ATOM      7  O   UNL d   1      -1.539  -2.927   1.063  0.00  0.00    -0.526 OA
ATOM      8  H5  UNL d   1      -1.110  -3.636   0.555  0.00  0.00     0.418 HD
ENDBRANCH   4   7
TORSDOF 1
ENDMDL
