MODEL 1
REMARK minimizedAffinity 9.6448698
REMARK minimizedRMSD -1
REMARK  1 active torsions:
REMARK  status: ('A' for Active; 'I' for Inactive)
REMARK    1  A    between atoms: C1_2  and  C2_3 
ROOT
ATOM      1  C2  UNL d   1      -2.287   3.100  -3.373  0.00  0.00    -0.077 A 
ATOM      2  C3  UNL d   1      -0.893   2.997  -3.270  0.00  0.00     0.002 A 
ATOM      3  C4  UNL d   1      -0.071   4.007  -3.775  0.00  0.00     0.002 A 
ATOM      4  C5  UNL d   1      -0.635   5.127  -4.383  0.00  0.00    -0.004 A 
ATOM      5  C6  UNL d   1      -2.020   5.238  -4.492  0.00  0.00     0.002 A 
ATOM      6  C7  UNL d   1      -2.843   4.229  -3.989  0.00  0.00     0.002 A 
ENDROOT
BRANCH   1   7
ATOM      7  C1  UNL d   1      -3.177   2.035  -2.786  0.00  0.00     0.055 C 
ATOM      8  C   UNL d   1      -2.684   1.598  -1.414  0.00  0.00     0.019 C 
ENDBRANCH   1   7
TORSDOF 1
ENDMDL
