MODEL 1
REMARK minimizedAffinity -0.329298288
REMARK minimizedRMSD -1
REMARK  1 active torsions:
REMARK  status: ('A' for Active; 'I' for Inactive)
REMARK    1  A    between atoms: C1_2  and  C2_3 
ROOT
ATOM      1  C2  UNL d   1      -0.481   1.666  -0.382  0.00  0.00    -0.077 A 
ATOM      2  C3  UNL d   1       0.178   0.436  -0.520  0.00  0.00     0.002 A 
ATOM      3  C4  UNL d   1       0.379  -0.119  -1.785  0.00  0.00     0.002 A 
ATOM      4  C5  UNL d   1      -0.072   0.549  -2.921  0.00  0.00    -0.004 A 
ATOM      5  C6  UNL d   1      -0.731   1.772  -2.794  0.00  0.00     0.002 A 
ATOM      6  C7  UNL d   1      -0.934   2.328  -1.530  0.00  0.00     0.002 A 
ENDROOT
BRANCH   1   7
ATOM      7  C1  UNL d   1      -0.656   2.290   0.978  0.00  0.00     0.055 C 
ATOM      8  C   UNL d   1       0.443   1.850   1.934  0.00  0.00     0.019 C 
ENDBRANCH   1   7
TORSDOF 1
ENDMDL
