MODEL 1
REMARK minimizedAffinity -2.11094761
REMARK minimizedRMSD -1
REMARK  1 active torsions:
REMARK  status: ('A' for Active; 'I' for Inactive)
REMARK    1  A    between atoms: C1_2  and  C2_3 
ROOT
ATOM      1  C2  UNL d   1      -0.571   2.442  -0.954  0.00  0.00    -0.077 A 
ATOM      2  C3  UNL d   1      -0.223   1.085  -1.015  0.00  0.00     0.002 A 
ATOM      3  C4  UNL d   1       0.178   0.513  -2.224  0.00  0.00     0.002 A 
ATOM      4  C5  UNL d   1       0.238   1.290  -3.379  0.00  0.00    -0.004 A 
ATOM      5  C6  UNL d   1      -0.108   2.640  -3.328  0.00  0.00     0.002 A 
ATOM      6  C7  UNL d   1      -0.510   3.213  -2.121  0.00  0.00     0.002 A 
ENDROOT
BRANCH   1   7
ATOM      7  C1  UNL d   1      -0.956   3.073   0.359  0.00  0.00     0.055 C 
ATOM      8  C   UNL d   1      -0.073   2.573   1.493  0.00  0.00     0.019 C 
ENDBRANCH   1   7
TORSDOF 1
ENDMDL
