MODEL 1
REMARK minimizedAffinity 5.11128426
REMARK minimizedRMSD -1
REMARK  1 active torsions:
REMARK  status: ('A' for Active; 'I' for Inactive)
REMARK    1  A    between atoms: C1_2  and  C2_3 
ROOT
ATOM      1  C2  UNL d   1      -1.303   1.376  -1.800  0.00  0.00    -0.077 A 
ATOM      2  C3  UNL d   1      -2.626   0.974  -1.569  0.00  0.00     0.002 A 
ATOM      3  C4  UNL d   1      -2.921  -0.365  -1.301  0.00  0.00     0.002 A 
ATOM      4  C5  UNL d   1      -1.898  -1.310  -1.259  0.00  0.00    -0.004 A 
ATOM      5  C6  UNL d   1      -0.580  -0.920  -1.490  0.00  0.00     0.002 A 
ATOM      6  C7  UNL d   1      -0.283   0.417  -1.758  0.00  0.00     0.002 A 
ENDROOT
BRANCH   1   7
ATOM      7  C1  UNL d   1      -0.977   2.827  -2.040  0.00  0.00     0.055 C 
ATOM      8  C   UNL d   1      -0.357   3.466  -0.807  0.00  0.00     0.019 C 
ENDBRANCH   1   7
TORSDOF 1
ENDMDL
