MODEL 1
REMARK minimizedAffinity 12.2973423
REMARK minimizedRMSD -1
REMARK  1 active torsions:
REMARK  status: ('A' for Active; 'I' for Inactive)
REMARK    1  A    between atoms: C1_2  and  C2_3 
ROOT
ATOM      1  C2  UNL d   1       3.024  -3.551  -0.581  0.00  0.00    -0.077 A 
ATOM      2  C3  UNL d   1       4.365  -3.958  -0.558  0.00  0.00     0.002 A 
ATOM      3  C4  UNL d   1       4.743  -5.178  -1.120  0.00  0.00     0.002 A 
ATOM      4  C5  UNL d   1       3.786  -5.999  -1.714  0.00  0.00    -0.004 A 
ATOM      5  C6  UNL d   1       2.449  -5.604  -1.740  0.00  0.00     0.002 A 
ATOM      6  C7  UNL d   1       2.070  -4.385  -1.177  0.00  0.00     0.002 A 
ENDROOT
BRANCH   1   7
ATOM      7  C1  UNL d   1       2.622  -2.212  -0.018  0.00  0.00     0.055 C 
ATOM      8  C   UNL d   1       3.781  -1.226  -0.054  0.00  0.00     0.019 C 
ENDBRANCH   1   7
TORSDOF 1
ENDMDL
