MODEL 1
REMARK minimizedAffinity 4.44011641
REMARK minimizedRMSD -1
REMARK  1 active torsions:
REMARK  status: ('A' for Active; 'I' for Inactive)
REMARK    1  A    between atoms: C1_2  and  C2_3 
ROOT
ATOM      1  C2  UNL d   1      -0.387   4.910  -1.199  0.00  0.00    -0.077 A 
ATOM      2  C3  UNL d   1       0.337   3.724  -1.387  0.00  0.00     0.002 A 
ATOM      3  C4  UNL d   1       0.290   2.709  -0.429  0.00  0.00     0.002 A 
ATOM      4  C5  UNL d   1      -0.483   2.867   0.719  0.00  0.00    -0.004 A 
ATOM      5  C6  UNL d   1      -1.205   4.044   0.916  0.00  0.00     0.002 A 
ATOM      6  C7  UNL d   1      -1.158   5.060  -0.040  0.00  0.00     0.002 A 
ENDROOT
BRANCH   1   7
ATOM      7  C1  UNL d   1      -0.376   5.985  -2.254  0.00  0.00     0.055 C 
ATOM      8  C   UNL d   1      -1.676   5.997  -3.046  0.00  0.00     0.019 C 
ENDBRANCH   1   7
TORSDOF 1
ENDMDL
