MODEL 1
REMARK minimizedAffinity 4.11468315
REMARK minimizedRMSD -1
REMARK  0 active torsions:
REMARK  status: ('A' for Active; 'I' for Inactive)
ROOT
ATOM      1  N1  IND d   1      -4.590   3.847  -5.312  0.00  0.00    -0.196 N 
ATOM      2  C2  IND d   1      -5.290   4.957  -5.696  0.00  0.00     0.054 A 
ATOM      3  C3  IND d   1      -4.443   5.970  -5.986  0.00  0.00    -0.031 A 
ATOM      4  C4  IND d   1      -1.869   5.998  -5.998  0.00  0.00     0.051 A 
ATOM      5  C5  IND d   1      -0.782   5.231  -5.685  0.00  0.00    -0.031 A 
ATOM      6  C6  IND d   1      -0.911   3.937  -5.225  0.00  0.00     0.015 A 
ATOM      7  C7  IND d   1      -2.137   3.355  -5.071  0.00  0.00    -0.016 A 
ATOM      8  C8  IND d   1      -3.244   4.133  -5.381  0.00  0.00    -0.047 A 
ATOM      9  C9  IND d   1      -3.120   5.461  -5.808  0.00  0.00    -0.096 A 
ATOM     10  HN1 IND d   1      -4.932   3.098  -5.068  0.00  0.00     0.298 HD
ENDROOT
TORSDOF 0
ENDMDL
