MODEL 1
REMARK minimizedAffinity 0.265102059
REMARK minimizedRMSD -1
REMARK  0 active torsions:
REMARK  status: ('A' for Active; 'I' for Inactive)
ROOT
ATOM      1  N1  IND d   1      -1.802  -3.983  -2.471  0.00  0.00    -0.196 N 
ATOM      2  C2  IND d   1      -0.893  -4.728  -1.773  0.00  0.00     0.054 A 
ATOM      3  C3  IND d   1      -0.646  -4.163  -0.570  0.00  0.00    -0.031 A 
ATOM      4  C4  IND d   1      -1.695  -2.070   0.500  0.00  0.00     0.051 A 
ATOM      5  C5  IND d   1      -2.547  -1.035   0.232  0.00  0.00    -0.031 A 
ATOM      6  C6  IND d   1      -3.209  -0.929  -0.973  0.00  0.00     0.015 A 
ATOM      7  C7  IND d   1      -3.052  -1.865  -1.957  0.00  0.00    -0.016 A 
ATOM      8  C8  IND d   1      -2.183  -2.913  -1.691  0.00  0.00    -0.047 A 
ATOM      9  C9  IND d   1      -1.475  -3.003  -0.486  0.00  0.00    -0.096 A 
ATOM     10  HN1 IND d   1      -2.087  -4.153  -3.264  0.00  0.00     0.298 HD
ENDROOT
TORSDOF 0
ENDMDL
