MODEL 1
REMARK minimizedAffinity -3.0422864
REMARK minimizedRMSD -1
REMARK  0 active torsions:
REMARK  status: ('A' for Active; 'I' for Inactive)
ROOT
ATOM      1  N1  IND d   1      -2.507  -5.657  -0.874  0.00  0.00    -0.196 N 
ATOM      2  C2  IND d   1      -3.755  -5.950  -0.399  0.00  0.00     0.054 A 
ATOM      3  C3  IND d   1      -4.187  -4.970   0.425  0.00  0.00    -0.031 A 
ATOM      4  C4  IND d   1      -3.055  -2.745   1.055  0.00  0.00     0.051 A 
ATOM      5  C5  IND d   1      -1.891  -2.047   0.898  0.00  0.00    -0.031 A 
ATOM      6  C6  IND d   1      -0.853  -2.524   0.125  0.00  0.00     0.015 A 
ATOM      7  C7  IND d   1      -0.945  -3.718  -0.533  0.00  0.00    -0.016 A 
ATOM      8  C8  IND d   1      -2.123  -4.433  -0.370  0.00  0.00    -0.047 A 
ATOM      9  C9  IND d   1      -3.163  -3.974   0.448  0.00  0.00    -0.096 A 
ATOM     10  HN1 IND d   1      -2.041  -6.153  -1.399  0.00  0.00     0.298 HD
ENDROOT
TORSDOF 0
ENDMDL
