MODEL 1
REMARK minimizedAffinity -0.0658133402
REMARK minimizedRMSD -1
REMARK  0 active torsions:
REMARK  status: ('A' for Active; 'I' for Inactive)
ROOT
ATOM      1  N1  IND d   1      -1.885  -2.254  -0.479  0.00  0.00    -0.196 N 
ATOM      2  C2  IND d   1      -0.693  -1.798   0.011  0.00  0.00     0.054 A 
ATOM      3  C3  IND d   1       0.253  -2.759  -0.083  0.00  0.00    -0.031 A 
ATOM      4  C4  IND d   1       0.092  -5.119  -1.100  0.00  0.00     0.051 A 
ATOM      5  C5  IND d   1      -0.802  -6.000  -1.640  0.00  0.00    -0.031 A 
ATOM      6  C6  IND d   1      -2.129  -5.670  -1.827  0.00  0.00     0.015 A 
ATOM      7  C7  IND d   1      -2.611  -4.437  -1.489  0.00  0.00    -0.016 A 
ATOM      8  C8  IND d   1      -1.708  -3.542  -0.934  0.00  0.00    -0.047 A 
ATOM      9  C9  IND d   1      -0.369  -3.886  -0.703  0.00  0.00    -0.096 A 
ATOM     10  HN1 IND d   1      -2.622  -1.811  -0.499  0.00  0.00     0.298 HD
ENDROOT
TORSDOF 0
ENDMDL
