MODEL 1
REMARK minimizedAffinity -1.42352891
REMARK minimizedRMSD -1
REMARK  0 active torsions:
REMARK  status: ('A' for Active; 'I' for Inactive)
ROOT
ATOM      1  N1  IND d   1       2.766  -3.359  -0.765  0.00  0.00    -0.196 N 
ATOM      2  C2  IND d   1       1.876  -4.364  -0.508  0.00  0.00     0.054 A 
ATOM      3  C3  IND d   1       0.743  -3.862   0.033  0.00  0.00    -0.031 A 
ATOM      4  C4  IND d   1       0.095  -1.413   0.492  0.00  0.00     0.051 A 
ATOM      5  C5  IND d   1       0.596  -0.142   0.457  0.00  0.00    -0.031 A 
ATOM      6  C6  IND d   1       1.870   0.128   0.001  0.00  0.00     0.015 A 
ATOM      7  C7  IND d   1       2.691  -0.867  -0.450  0.00  0.00    -0.016 A 
ATOM      8  C8  IND d   1       2.189  -2.160  -0.409  0.00  0.00    -0.047 A 
ATOM      9  C9  IND d   1       0.912  -2.445   0.092  0.00  0.00    -0.096 A 
ATOM     10  HN1 IND d   1       3.554  -3.459  -1.094  0.00  0.00     0.298 HD
ENDROOT
TORSDOF 0
ENDMDL
