MODEL 1
REMARK minimizedAffinity 13.6525841
REMARK minimizedRMSD -1
REMARK  0 active torsions:
REMARK  status: ('A' for Active; 'I' for Inactive)
ROOT
ATOM      1  N1  IND d   1       3.257   0.833   1.123  0.00  0.00    -0.196 N 
ATOM      2  C2  IND d   1       2.060   0.853   0.464  0.00  0.00     0.054 A 
ATOM      3  C3  IND d   1       1.401   2.006   0.719  0.00  0.00    -0.031 A 
ATOM      4  C4  IND d   1       2.147   4.042   2.107  0.00  0.00     0.051 A 
ATOM      5  C5  IND d   1       3.147   4.476   2.931  0.00  0.00    -0.031 A 
ATOM      6  C6  IND d   1       4.260   3.704   3.197  0.00  0.00     0.015 A 
ATOM      7  C7  IND d   1       4.418   2.467   2.638  0.00  0.00    -0.016 A 
ATOM      8  C8  IND d   1       3.401   2.020   1.807  0.00  0.00    -0.047 A 
ATOM      9  C9  IND d   1       2.250   2.782   1.567  0.00  0.00    -0.096 A 
ATOM     10  HN1 IND d   1       3.825   0.187   1.113  0.00  0.00     0.298 HD
ENDROOT
TORSDOF 0
ENDMDL
