MODEL 1
REMARK minimizedAffinity 7.55890512
REMARK minimizedRMSD -1
REMARK  0 active torsions:
REMARK  status: ('A' for Active; 'I' for Inactive)
ROOT
ATOM      1  N1  IND d   1       0.635   2.405   2.825  0.00  0.00    -0.196 N 
ATOM      2  C2  IND d   1       0.171   3.559   3.392  0.00  0.00     0.054 A 
ATOM      3  C3  IND d   1       1.126   4.516   3.359  0.00  0.00    -0.031 A 
ATOM      4  C4  IND d   1       3.485   4.437   2.333  0.00  0.00     0.051 A 
ATOM      5  C5  IND d   1       4.372   3.587   1.735  0.00  0.00    -0.031 A 
ATOM      6  C6  IND d   1       4.051   2.273   1.462  0.00  0.00     0.015 A 
ATOM      7  C7  IND d   1       2.822   1.761   1.768  0.00  0.00    -0.016 A 
ATOM      8  C8  IND d   1       1.921   2.621   2.381  0.00  0.00    -0.047 A 
ATOM      9  C9  IND d   1       2.256   3.943   2.699  0.00  0.00    -0.096 A 
ATOM     10  HN1 IND d   1       0.197   1.668   2.756  0.00  0.00     0.298 HD
ENDROOT
TORSDOF 0
ENDMDL
