MODEL 1
REMARK minimizedAffinity 10.604188
REMARK minimizedRMSD -1
REMARK  0 active torsions:
REMARK  status: ('A' for Active; 'I' for Inactive)
ROOT
ATOM      1  N1  IND d   1       3.047   0.581   1.460  0.00  0.00    -0.196 N 
ATOM      2  C2  IND d   1       1.697   0.613   1.252  0.00  0.00     0.054 A 
ATOM      3  C3  IND d   1       1.203   1.835   1.554  0.00  0.00    -0.031 A 
ATOM      4  C4  IND d   1       2.446   3.960   2.309  0.00  0.00     0.051 A 
ATOM      5  C5  IND d   1       3.683   4.412   2.674  0.00  0.00    -0.031 A 
ATOM      6  C6  IND d   1       4.794   3.594   2.649  0.00  0.00     0.015 A 
ATOM      7  C7  IND d   1       4.712   2.291   2.246  0.00  0.00    -0.016 A 
ATOM      8  C8  IND d   1       3.456   1.827   1.882  0.00  0.00    -0.047 A 
ATOM      9  C9  IND d   1       2.317   2.640   1.946  0.00  0.00    -0.096 A 
ATOM     10  HN1 IND d   1       3.556  -0.103   1.346  0.00  0.00     0.298 HD
ENDROOT
TORSDOF 0
ENDMDL
