MODEL 1
REMARK minimizedAffinity 9.41272926
REMARK minimizedRMSD -1
REMARK  0 active torsions:
REMARK  status: ('A' for Active; 'I' for Inactive)
ROOT
ATOM      1  N1  IND d   1       2.978   0.664   0.769  0.00  0.00    -0.196 N 
ATOM      2  C2  IND d   1       1.655   0.436   0.511  0.00  0.00     0.054 A 
ATOM      3  C3  IND d   1       0.885   1.320   1.184  0.00  0.00    -0.031 A 
ATOM      4  C4  IND d   1       1.587   3.289   2.685  0.00  0.00     0.051 A 
ATOM      5  C5  IND d   1       2.685   3.876   3.249  0.00  0.00    -0.031 A 
ATOM      6  C6  IND d   1       3.963   3.414   3.008  0.00  0.00     0.015 A 
ATOM      7  C7  IND d   1       4.192   2.351   2.181  0.00  0.00    -0.016 A 
ATOM      8  C8  IND d   1       3.079   1.749   1.612  0.00  0.00    -0.047 A 
ATOM      9  C9  IND d   1       1.777   2.186   1.887  0.00  0.00    -0.096 A 
ATOM     10  HN1 IND d   1       3.637   0.208   0.457  0.00  0.00     0.298 HD
ENDROOT
TORSDOF 0
ENDMDL
