MODEL 1
REMARK minimizedAffinity 8.37140846
REMARK minimizedRMSD -1
REMARK  0 active torsions:
REMARK  status: ('A' for Active; 'I' for Inactive)
ROOT
ATOM      1  N1  IND d   1       2.946  -2.939  -0.088  0.00  0.00    -0.196 N 
ATOM      2  C2  IND d   1       3.001  -1.720   0.528  0.00  0.00     0.054 A 
ATOM      3  C3  IND d   1       1.754  -1.251   0.756  0.00  0.00    -0.031 A 
ATOM      4  C4  IND d   1      -0.521  -2.362   0.293  0.00  0.00     0.051 A 
ATOM      5  C5  IND d   1      -1.084  -3.462  -0.291  0.00  0.00    -0.031 A 
ATOM      6  C6  IND d   1      -0.317  -4.465  -0.847  0.00  0.00     0.015 A 
ATOM      7  C7  IND d   1       1.048  -4.411  -0.828  0.00  0.00    -0.016 A 
ATOM      8  C8  IND d   1       1.623  -3.292  -0.242  0.00  0.00    -0.047 A 
ATOM      9  C9  IND d   1       0.849  -2.251   0.286  0.00  0.00    -0.096 A 
ATOM     10  HN1 IND d   1       3.623  -3.406  -0.338  0.00  0.00     0.298 HD
ENDROOT
TORSDOF 0
ENDMDL
