MODEL 1
REMARK minimizedAffinity 3.34214878
REMARK minimizedRMSD -1
REMARK  0 active torsions:
REMARK  status: ('A' for Active; 'I' for Inactive)
ROOT
ATOM      1  N1  IND d   1       2.708   1.180   2.005  0.00  0.00    -0.196 N 
ATOM      2  C2  IND d   1       3.901   1.306   1.349  0.00  0.00     0.054 A 
ATOM      3  C3  IND d   1       4.435   2.527   1.576  0.00  0.00    -0.031 A 
ATOM      4  C4  IND d   1       3.573   4.437   3.071  0.00  0.00     0.051 A 
ATOM      5  C5  IND d   1       2.507   4.803   3.843  0.00  0.00    -0.031 A 
ATOM      6  C6  IND d   1       1.432   3.962   4.049  0.00  0.00     0.015 A 
ATOM      7  C7  IND d   1       1.390   2.713   3.496  0.00  0.00    -0.016 A 
ATOM      8  C8  IND d   1       2.468   2.341   2.705  0.00  0.00    -0.047 A 
ATOM      9  C9  IND d   1       3.541   3.207   2.459  0.00  0.00    -0.096 A 
ATOM     10  HN1 IND d   1       2.194   0.491   1.983  0.00  0.00     0.298 HD
ENDROOT
TORSDOF 0
ENDMDL
