MODEL 1
REMARK minimizedAffinity 3.36742258
REMARK minimizedRMSD -1
REMARK  0 active torsions:
REMARK  status: ('A' for Active; 'I' for Inactive)
ROOT
ATOM      1  N1  IND d   1       4.120   5.959   2.319  0.00  0.00    -0.196 N 
ATOM      2  C2  IND d   1       3.030   5.922   1.495  0.00  0.00     0.054 A 
ATOM      3  C3  IND d   1       1.891   5.890   2.223  0.00  0.00    -0.031 A 
ATOM      4  C4  IND d   1       1.579   5.992   4.776  0.00  0.00     0.051 A 
ATOM      5  C5  IND d   1       2.282   5.997   5.948  0.00  0.00    -0.031 A 
ATOM      6  C6  IND d   1       3.662   5.991   5.971  0.00  0.00     0.015 A 
ATOM      7  C7  IND d   1       4.393   5.993   4.817  0.00  0.00    -0.016 A 
ATOM      8  C8  IND d   1       3.682   5.982   3.625  0.00  0.00    -0.047 A 
ATOM      9  C9  IND d   1       2.282   5.944   3.596  0.00  0.00    -0.096 A 
ATOM     10  HN1 IND d   1       4.941   5.967   2.064  0.00  0.00     0.298 HD
ENDROOT
TORSDOF 0
ENDMDL
