MODEL 1
REMARK minimizedAffinity 11.4386234
REMARK minimizedRMSD -1
REMARK  0 active torsions:
REMARK  status: ('A' for Active; 'I' for Inactive)
ROOT
ATOM      1  N1  IND d   1       4.691   5.712   1.614  0.00  0.00    -0.196 N 
ATOM      2  C2  IND d   1       3.355   5.998   1.580  0.00  0.00     0.054 A 
ATOM      3  C3  IND d   1       2.629   4.878   1.794  0.00  0.00    -0.031 A 
ATOM      4  C4  IND d   1       3.426   2.487   2.320  0.00  0.00     0.051 A 
ATOM      5  C5  IND d   1       4.557   1.727   2.420  0.00  0.00    -0.031 A 
ATOM      6  C6  IND d   1       5.816   2.267   2.256  0.00  0.00     0.015 A 
ATOM      7  C7  IND d   1       5.992   3.597   1.995  0.00  0.00    -0.016 A 
ATOM      8  C8  IND d   1       4.846   4.371   1.886  0.00  0.00    -0.047 A 
ATOM      9  C9  IND d   1       3.564   3.820   2.010  0.00  0.00    -0.096 A 
ATOM     10  HN1 IND d   1       5.328   6.276   1.486  0.00  0.00     0.298 HD
ENDROOT
TORSDOF 0
ENDMDL
