MODEL 1
REMARK minimizedAffinity 14.7228556
REMARK minimizedRMSD -1
REMARK  0 active torsions:
REMARK  status: ('A' for Active; 'I' for Inactive)
ROOT
ATOM      1  N1  IND d   1       5.553   4.940   3.290  0.00  0.00    -0.196 N 
ATOM      2  C2  IND d   1       5.750   4.367   4.515  0.00  0.00     0.054 A 
ATOM      3  C3  IND d   1       4.798   3.438   4.758  0.00  0.00    -0.031 A 
ATOM      4  C4  IND d   1       2.881   2.624   3.244  0.00  0.00     0.051 A 
ATOM      5  C5  IND d   1       2.275   2.876   2.045  0.00  0.00    -0.031 A 
ATOM      6  C6  IND d   1       2.741   3.846   1.182  0.00  0.00     0.015 A 
ATOM      7  C7  IND d   1       3.843   4.596   1.481  0.00  0.00    -0.016 A 
ATOM      8  C8  IND d   1       4.457   4.348   2.700  0.00  0.00    -0.047 A 
ATOM      9  C9  IND d   1       3.963   3.395   3.600  0.00  0.00    -0.096 A 
ATOM     10  HN1 IND d   1       6.033   5.564   2.945  0.00  0.00     0.298 HD
ENDROOT
TORSDOF 0
ENDMDL
