MODEL 1
REMARK minimizedAffinity 10.9348688
REMARK minimizedRMSD -1
REMARK  0 active torsions:
REMARK  status: ('A' for Active; 'I' for Inactive)
ROOT
ATOM      1  N1  IND d   1      -5.228   3.179   0.364  0.00  0.00    -0.196 N 
ATOM      2  C2  IND d   1      -6.000   3.015  -0.753  0.00  0.00     0.054 A 
ATOM      3  C3  IND d   1      -5.644   1.888  -1.409  0.00  0.00    -0.031 A 
ATOM      4  C4  IND d   1      -3.893   0.110  -0.775  0.00  0.00     0.051 A 
ATOM      5  C5  IND d   1      -2.913  -0.159   0.139  0.00  0.00    -0.031 A 
ATOM      6  C6  IND d   1      -2.651   0.687   1.197  0.00  0.00     0.015 A 
ATOM      7  C7  IND d   1      -3.371   1.832   1.388  0.00  0.00    -0.016 A 
ATOM      8  C8  IND d   1      -4.362   2.112   0.459  0.00  0.00    -0.047 A 
ATOM      9  C9  IND d   1      -4.604   1.279  -0.642  0.00  0.00    -0.096 A 
ATOM     10  HN1 IND d   1      -5.276   3.838   0.915  0.00  0.00     0.298 HD
ENDROOT
TORSDOF 0
ENDMDL
