MODEL 1
REMARK minimizedAffinity 8.07035732
REMARK minimizedRMSD -1
REMARK  0 active torsions:
REMARK  status: ('A' for Active; 'I' for Inactive)
ROOT
ATOM      1  N1  IND d   1       3.494  -5.961  -5.017  0.00  0.00    -0.196 N 
ATOM      2  C2  IND d   1       4.401  -5.923  -3.995  0.00  0.00     0.054 A 
ATOM      3  C3  IND d   1       3.765  -5.890  -2.802  0.00  0.00    -0.031 A 
ATOM      4  C4  IND d   1       1.244  -5.993  -2.290  0.00  0.00     0.051 A 
ATOM      5  C5  IND d   1       0.021  -5.998  -2.899  0.00  0.00    -0.031 A 
ATOM      6  C6  IND d   1      -0.110  -5.994  -4.273  0.00  0.00     0.015 A 
ATOM      7  C7  IND d   1       0.983  -5.996  -5.092  0.00  0.00    -0.016 A 
ATOM      8  C8  IND d   1       2.227  -5.983  -4.478  0.00  0.00    -0.047 A 
ATOM      9  C9  IND d   1       2.366  -5.945  -3.084  0.00  0.00    -0.096 A 
ATOM     10  HN1 IND d   1       3.684  -5.969  -5.856  0.00  0.00     0.298 HD
ENDROOT
TORSDOF 0
ENDMDL
