MODEL 1
REMARK minimizedAffinity 4.11172962
REMARK minimizedRMSD -1
REMARK  0 active torsions:
REMARK  status: ('A' for Active; 'I' for Inactive)
ROOT
ATOM      1  N1  IND d   1       4.255   5.718   2.184  0.00  0.00    -0.196 N 
ATOM      2  C2  IND d   1       4.201   5.693   3.550  0.00  0.00     0.054 A 
ATOM      3  C3  IND d   1       3.514   4.608   3.973  0.00  0.00    -0.031 A 
ATOM      4  C4  IND d   1       2.482   2.689   2.603  0.00  0.00     0.051 A 
ATOM      5  C5  IND d   1       2.245   2.289   1.318  0.00  0.00    -0.031 A 
ATOM      6  C6  IND d   1       2.676   3.026   0.234  0.00  0.00     0.015 A 
ATOM      7  C7  IND d   1       3.375   4.189   0.395  0.00  0.00    -0.016 A 
ATOM      8  C8  IND d   1       3.612   4.601   1.699  0.00  0.00    -0.047 A 
ATOM      9  C9  IND d   1       3.139   3.880   2.803  0.00  0.00    -0.096 A 
ATOM     10  HN1 IND d   1       4.629   6.329   1.708  0.00  0.00     0.298 HD
ENDROOT
TORSDOF 0
ENDMDL
