MODEL 1
REMARK minimizedAffinity -2.34967279
REMARK minimizedRMSD -1
REMARK  0 active torsions:
REMARK  status: ('A' for Active; 'I' for Inactive)
ROOT
ATOM      1  C1  BNZ d   1      -1.372  -1.250  -5.776  0.00  0.00     0.000 A 
ATOM      2  C2  BNZ d   1      -0.799  -0.027  -5.999  0.00  0.00     0.000 A 
ATOM      3  C3  BNZ d   1       0.203   0.435  -5.192  0.00  0.00     0.000 A 
ATOM      4  C4  BNZ d   1       0.603  -0.308  -4.141  0.00  0.00     0.000 A 
ATOM      5  C5  BNZ d   1       0.029  -1.540  -3.896  0.00  0.00     0.000 A 
ATOM      6  C6  BNZ d   1      -0.953  -2.019  -4.734  0.00  0.00     0.000 A 
ENDROOT
TORSDOF 0
ENDMDL
