MODEL 1
REMARK minimizedAffinity -5.00010967
REMARK minimizedRMSD -1
REMARK  0 active torsions:
REMARK  status: ('A' for Active; 'I' for Inactive)
ROOT
ATOM      1  C1  BNZ d   1      -0.446   1.254   1.542  0.00  0.00     0.000 A 
ATOM      2  C2  BNZ d   1      -0.826   1.361   2.853  0.00  0.00     0.000 A 
ATOM      3  C3  BNZ d   1      -0.045   0.852   3.852  0.00  0.00     0.000 A 
ATOM      4  C4  BNZ d   1       1.095   0.203   3.537  0.00  0.00     0.000 A 
ATOM      5  C5  BNZ d   1       1.487   0.079   2.219  0.00  0.00     0.000 A 
ATOM      6  C6  BNZ d   1       0.717   0.627   1.219  0.00  0.00     0.000 A 
ENDROOT
TORSDOF 0
ENDMDL
