MODEL 1
REMARK minimizedAffinity -4.53128481
REMARK minimizedRMSD -1
REMARK  0 active torsions:
REMARK  status: ('A' for Active; 'I' for Inactive)
ROOT
ATOM      1  C1  BNZ d   1       0.629   0.491   1.337  0.00  0.00     0.000 A 
ATOM      2  C2  BNZ d   1       0.383  -0.195   0.177  0.00  0.00     0.000 A 
ATOM      3  C3  BNZ d   1      -0.897  -0.406  -0.253  0.00  0.00     0.000 A 
ATOM      4  C4  BNZ d   1      -1.929   0.032   0.496  0.00  0.00     0.000 A 
ATOM      5  C5  BNZ d   1      -1.698   0.717   1.672  0.00  0.00     0.000 A 
ATOM      6  C6  BNZ d   1      -0.408   0.962   2.082  0.00  0.00     0.000 A 
ENDROOT
TORSDOF 0
ENDMDL
