MODEL 1
REMARK minimizedAffinity -5.01854563
REMARK minimizedRMSD -1
REMARK  0 active torsions:
REMARK  status: ('A' for Active; 'I' for Inactive)
ROOT
ATOM      1  C1  BNZ d   1       0.713   0.711   1.865  0.00  0.00     0.000 A 
ATOM      2  C2  BNZ d   1       0.695   0.177   0.604  0.00  0.00     0.000 A 
ATOM      3  C3  BNZ d   1      -0.488  -0.062  -0.039  0.00  0.00     0.000 A 
ATOM      4  C4  BNZ d   1      -1.650   0.195   0.595  0.00  0.00     0.000 A 
ATOM      5  C5  BNZ d   1      -1.649   0.725   1.870  0.00  0.00     0.000 A 
ATOM      6  C6  BNZ d   1      -0.456   1.000   2.499  0.00  0.00     0.000 A 
ENDROOT
TORSDOF 0
ENDMDL
