MODEL 1
REMARK minimizedAffinity -3.35866857
REMARK minimizedRMSD -1
REMARK  0 active torsions:
REMARK  status: ('A' for Active; 'I' for Inactive)
ROOT
ATOM      1  C1  BNZ d   1       2.074   0.612  -3.634  0.00  0.00     0.000 A 
ATOM      2  C2  BNZ d   1       1.818  -0.259  -2.609  0.00  0.00     0.000 A 
ATOM      3  C3  BNZ d   1       0.593  -0.852  -2.483  0.00  0.00     0.000 A 
ATOM      4  C4  BNZ d   1      -0.386  -0.542  -3.356  0.00  0.00     0.000 A 
ATOM      5  C5  BNZ d   1      -0.147   0.342  -4.390  0.00  0.00     0.000 A 
ATOM      6  C6  BNZ d   1       1.099   0.906  -4.537  0.00  0.00     0.000 A 
ENDROOT
TORSDOF 0
ENDMDL
