MODEL 1
REMARK minimizedAffinity -4.75822544
REMARK minimizedRMSD -1
REMARK  0 active torsions:
REMARK  status: ('A' for Active; 'I' for Inactive)
ROOT
ATOM      1  C1  BNZ d   1      -0.475   0.205   0.091  0.00  0.00     0.000 A 
ATOM      2  C2  BNZ d   1      -0.602   0.696   1.363  0.00  0.00     0.000 A 
ATOM      3  C3  BNZ d   1       0.349   0.440   2.311  0.00  0.00     0.000 A 
ATOM      4  C4  BNZ d   1       1.404  -0.338   1.997  0.00  0.00     0.000 A 
ATOM      5  C5  BNZ d   1       1.542  -0.849   0.722  0.00  0.00     0.000 A 
ATOM      6  C6  BNZ d   1       0.603  -0.557  -0.240  0.00  0.00     0.000 A 
ENDROOT
TORSDOF 0
ENDMDL
