MODEL 1
REMARK minimizedAffinity -3.71533346
REMARK minimizedRMSD -1
REMARK  0 active torsions:
REMARK  status: ('A' for Active; 'I' for Inactive)
ROOT
ATOM      1  C1  BNZ d   1      -0.147   0.074  -0.063  0.00  0.00     0.000 A 
ATOM      2  C2  BNZ d   1       0.142   0.510   1.203  0.00  0.00     0.000 A 
ATOM      3  C3  BNZ d   1       1.296   0.129   1.828  0.00  0.00     0.000 A 
ATOM      4  C4  BNZ d   1       2.140  -0.718   1.205  0.00  0.00     0.000 A 
ATOM      5  C5  BNZ d   1       1.858  -1.174  -0.068  0.00  0.00     0.000 A 
ATOM      6  C6  BNZ d   1       0.714  -0.758  -0.710  0.00  0.00     0.000 A 
ENDROOT
TORSDOF 0
ENDMDL
