MODEL 1
REMARK minimizedAffinity -4.3057704
REMARK minimizedRMSD -1
REMARK  0 active torsions:
REMARK  status: ('A' for Active; 'I' for Inactive)
ROOT
ATOM      1  C1  BNZ d   1       1.097   0.241   3.026  0.00  0.00     0.000 A 
ATOM      2  C2  BNZ d   1      -0.114   0.399   3.645  0.00  0.00     0.000 A 
ATOM      3  C3  BNZ d   1      -1.256   0.570   2.914  0.00  0.00     0.000 A 
ATOM      4  C4  BNZ d   1      -1.181   0.623   1.569  0.00  0.00     0.000 A 
ATOM      5  C5  BNZ d   1       0.034   0.475   0.930  0.00  0.00     0.000 A 
ATOM      6  C6  BNZ d   1       1.176   0.264   1.668  0.00  0.00     0.000 A 
ENDROOT
TORSDOF 0
ENDMDL
