MODEL 1
REMARK minimizedAffinity -2.61846685
REMARK minimizedRMSD -1
REMARK  0 active torsions:
REMARK  status: ('A' for Active; 'I' for Inactive)
ROOT
ATOM      1  C1  BNZ d   1      -2.236   0.749   1.081  0.00  0.00     0.000 A 
ATOM      2  C2  BNZ d   1      -1.807   0.010   0.011  0.00  0.00     0.000 A 
ATOM      3  C3  BNZ d   1      -0.484  -0.302  -0.139  0.00  0.00     0.000 A 
ATOM      4  C4  BNZ d   1       0.411   0.160   0.757  0.00  0.00     0.000 A 
ATOM      5  C5  BNZ d   1      -0.005   0.915   1.836  0.00  0.00     0.000 A 
ATOM      6  C6  BNZ d   1      -1.342   1.193   2.005  0.00  0.00     0.000 A 
ENDROOT
TORSDOF 0
ENDMDL
