MODEL 1
REMARK minimizedAffinity -4.62808132
REMARK minimizedRMSD -1
REMARK  0 active torsions:
REMARK  status: ('A' for Active; 'I' for Inactive)
ROOT
ATOM      1  C1  BNZ d   1      -1.172   0.326   0.968  0.00  0.00     0.000 A 
ATOM      2  C2  BNZ d   1       0.026  -0.217   0.586  0.00  0.00     0.000 A 
ATOM      3  C3  BNZ d   1       1.059  -0.328   1.474  0.00  0.00     0.000 A 
ATOM      4  C4  BNZ d   1       0.908   0.141   2.729  0.00  0.00     0.000 A 
ATOM      5  C5  BNZ d   1      -0.290   0.701   3.127  0.00  0.00     0.000 A 
ATOM      6  C6  BNZ d   1      -1.341   0.775   2.242  0.00  0.00     0.000 A 
ENDROOT
TORSDOF 0
ENDMDL
