MODEL 1
REMARK minimizedAffinity -5.06025267
REMARK minimizedRMSD -1
REMARK  0 active torsions:
REMARK  status: ('A' for Active; 'I' for Inactive)
ROOT
ATOM      1  C1  BNZ d   1      -1.852   0.423   0.679  0.00  0.00     0.000 A 
ATOM      2  C2  BNZ d   1      -2.034   0.892   1.952  0.00  0.00     0.000 A 
ATOM      3  C3  BNZ d   1      -0.970   1.294   2.709  0.00  0.00     0.000 A 
ATOM      4  C4  BNZ d   1       0.278   1.189   2.208  0.00  0.00     0.000 A 
ATOM      5  C5  BNZ d   1       0.479   0.710   0.929  0.00  0.00     0.000 A 
ATOM      6  C6  BNZ d   1      -0.598   0.342   0.155  0.00  0.00     0.000 A 
ENDROOT
TORSDOF 0
ENDMDL
