MODEL 1
REMARK minimizedAffinity -3.82745624
REMARK minimizedRMSD -1
REMARK  0 active torsions:
REMARK  status: ('A' for Active; 'I' for Inactive)
ROOT
ATOM      1  C1  BNZ d   1      -0.476  -0.112   0.326  0.00  0.00     0.000 A 
ATOM      2  C2  BNZ d   1      -1.602   0.299   0.988  0.00  0.00     0.000 A 
ATOM      3  C3  BNZ d   1      -1.519   0.851   2.236  0.00  0.00     0.000 A 
ATOM      4  C4  BNZ d   1      -0.316   0.954   2.836  0.00  0.00     0.000 A 
ATOM      5  C5  BNZ d   1       0.828   0.535   2.186  0.00  0.00     0.000 A 
ATOM      6  C6  BNZ d   1       0.745   0.016   0.914  0.00  0.00     0.000 A 
ENDROOT
TORSDOF 0
ENDMDL
