MODEL 1
REMARK minimizedAffinity -3.01632571
REMARK minimizedRMSD -1
REMARK  0 active torsions:
REMARK  status: ('A' for Active; 'I' for Inactive)
ROOT
ATOM      1  C1  BNZ d   1      -0.175  -0.663  -0.457  0.00  0.00     0.000 A 
ATOM      2  C2  BNZ d   1      -1.361  -0.168   0.015  0.00  0.00     0.000 A 
ATOM      3  C3  BNZ d   1      -1.431   0.431   1.241  0.00  0.00     0.000 A 
ATOM      4  C4  BNZ d   1      -0.326   0.499   2.010  0.00  0.00     0.000 A 
ATOM      5  C5  BNZ d   1       0.876  -0.004   1.553  0.00  0.00     0.000 A 
ATOM      6  C6  BNZ d   1       0.952  -0.571   0.301  0.00  0.00     0.000 A 
ENDROOT
TORSDOF 0
ENDMDL
