MODEL 1
REMARK minimizedAffinity 0.14730072
REMARK minimizedRMSD -1
REMARK  0 active torsions:
REMARK  status: ('A' for Active; 'I' for Inactive)
ROOT
ATOM      1  O1  BZF d   1       5.052   1.831   5.133  0.00  0.00    -0.204 OA
ATOM      2  C2  BZF d   1       3.840   1.314   5.546  0.00  0.00     0.174 A 
ATOM      3  C3  BZF d   1       3.031   2.294   5.998  0.00  0.00    -0.012 A 
ATOM      4  C3A BZF d   1       3.751   3.510   5.773  0.00  0.00    -0.107 A 
ATOM      5  C4  BZF d   1       3.465   4.826   5.999  0.00  0.00     0.055 A 
ATOM      6  C5  BZF d   1       4.413   5.763   5.734  0.00  0.00    -0.016 A 
ATOM      7  C6  BZF d   1       5.657   5.420   5.248  0.00  0.00     0.022 A 
ATOM      8  C7  BZF d   1       5.986   4.128   5.003  0.00  0.00     0.029 A 
ATOM      9  C7A BZF d   1       5.018   3.181   5.239  0.00  0.00     0.058 A 
ENDROOT
TORSDOF 0
ENDMDL
