MODEL 1
REMARK minimizedAffinity 0.559034944
REMARK minimizedRMSD -1
REMARK  0 active torsions:
REMARK  status: ('A' for Active; 'I' for Inactive)
ROOT
ATOM      1  O1  BZF d   1       2.981   5.290   5.536  0.00  0.00    -0.204 OA
ATOM      2  C2  BZF d   1       4.160   5.999   5.667  0.00  0.00     0.174 A 
ATOM      3  C3  BZF d   1       5.193   5.169   5.917  0.00  0.00    -0.012 A 
ATOM      4  C3A BZF d   1       4.639   3.851   5.852  0.00  0.00    -0.107 A 
ATOM      5  C4  BZF d   1       5.171   2.601   5.998  0.00  0.00     0.055 A 
ATOM      6  C5  BZF d   1       4.346   1.522   5.948  0.00  0.00    -0.016 A 
ATOM      7  C6  BZF d   1       2.986   1.657   5.760  0.00  0.00     0.022 A 
ATOM      8  C7  BZF d   1       2.413   2.875   5.605  0.00  0.00     0.029 A 
ATOM      9  C7A BZF d   1       3.249   3.965   5.622  0.00  0.00     0.058 A 
ENDROOT
TORSDOF 0
ENDMDL
