MODEL 1
REMARK minimizedAffinity 2.8086412
REMARK minimizedRMSD -1
REMARK  0 active torsions:
REMARK  status: ('A' for Active; 'I' for Inactive)
ROOT
ATOM      1  O1  BZF d   1       4.448   2.052   5.246  0.00  0.00    -0.204 OA
ATOM      2  C2  BZF d   1       3.075   1.914   5.318  0.00  0.00     0.174 A 
ATOM      3  C3  BZF d   1       2.492   3.086   5.645  0.00  0.00    -0.012 A 
ATOM      4  C3A BZF d   1       3.561   4.036   5.696  0.00  0.00    -0.107 A 
ATOM      5  C4  BZF d   1       3.614   5.376   5.955  0.00  0.00     0.055 A 
ATOM      6  C5  BZF d   1       4.824   5.992   6.000  0.00  0.00    -0.016 A 
ATOM      7  C6  BZF d   1       6.000   5.300   5.795  0.00  0.00     0.022 A 
ATOM      8  C7  BZF d   1       5.997   3.971   5.529  0.00  0.00     0.029 A 
ATOM      9  C7A BZF d   1       4.774   3.351   5.452  0.00  0.00     0.058 A 
ENDROOT
TORSDOF 0
ENDMDL
