MODEL 1
REMARK minimizedAffinity -3.35498405
REMARK minimizedRMSD -1
REMARK  0 active torsions:
REMARK  status: ('A' for Active; 'I' for Inactive)
ROOT
ATOM      1  O1  BZF d   1       2.557   3.340   4.828  0.00  0.00    -0.204 OA
ATOM      2  C2  BZF d   1       2.917   2.017   4.992  0.00  0.00     0.174 A 
ATOM      3  C3  BZF d   1       4.199   1.917   5.400  0.00  0.00    -0.012 A 
ATOM      4  C3A BZF d   1       4.641   3.265   5.586  0.00  0.00    -0.107 A 
ATOM      5  C4  BZF d   1       5.820   3.818   5.997  0.00  0.00     0.055 A 
ATOM      6  C5  BZF d   1       5.950   5.171   5.999  0.00  0.00    -0.016 A 
ATOM      7  C6  BZF d   1       4.924   5.999   5.592  0.00  0.00     0.022 A 
ATOM      8  C7  BZF d   1       3.735   5.497   5.180  0.00  0.00     0.029 A 
ATOM      9  C7A BZF d   1       3.589   4.131   5.208  0.00  0.00     0.058 A 
ENDROOT
TORSDOF 0
ENDMDL
