MODEL 1
REMARK minimizedAffinity -3.29171824
REMARK minimizedRMSD -1
REMARK  0 active torsions:
REMARK  status: ('A' for Active; 'I' for Inactive)
ROOT
ATOM      1  O1  BZF d   1       4.094   2.283   5.297  0.00  0.00    -0.204 OA
ATOM      2  C2  BZF d   1       2.986   1.527   5.627  0.00  0.00     0.174 A 
ATOM      3  C3  BZF d   1       1.961   2.320   6.000  0.00  0.00    -0.012 A 
ATOM      4  C3A BZF d   1       2.430   3.658   5.807  0.00  0.00    -0.107 A 
ATOM      5  C4  BZF d   1       1.862   4.887   5.986  0.00  0.00     0.055 A 
ATOM      6  C5  BZF d   1       2.614   5.999   5.776  0.00  0.00    -0.016 A 
ATOM      7  C6  BZF d   1       3.936   5.919   5.390  0.00  0.00     0.022 A 
ATOM      8  C7  BZF d   1       4.542   4.722   5.194  0.00  0.00     0.029 A 
ATOM      9  C7A BZF d   1       3.775   3.597   5.375  0.00  0.00     0.058 A 
ENDROOT
TORSDOF 0
ENDMDL
