MODEL 1
REMARK minimizedAffinity -2.90545845
REMARK minimizedRMSD -1
REMARK  0 active torsions:
REMARK  status: ('A' for Active; 'I' for Inactive)
ROOT
ATOM      1  O1  BZF d   1       3.148   2.294   6.000  0.00  0.00    -0.204 OA
ATOM      2  C2  BZF d   1       3.994   1.501   5.249  0.00  0.00     0.174 A 
ATOM      3  C3  BZF d   1       4.351   2.129   4.110  0.00  0.00    -0.012 A 
ATOM      4  C3A BZF d   1       3.761   3.429   4.195  0.00  0.00    -0.107 A 
ATOM      5  C4  BZF d   1       3.769   4.520   3.374  0.00  0.00     0.055 A 
ATOM      6  C5  BZF d   1       3.032   5.610   3.715  0.00  0.00    -0.016 A 
ATOM      7  C6  BZF d   1       2.271   5.640   4.865  0.00  0.00     0.022 A 
ATOM      8  C7  BZF d   1       2.235   4.584   5.714  0.00  0.00     0.029 A 
ATOM      9  C7A BZF d   1       3.005   3.494   5.389  0.00  0.00     0.058 A 
ENDROOT
TORSDOF 0
ENDMDL
