MODEL 1
REMARK minimizedAffinity -5.63161135
REMARK minimizedRMSD -1
REMARK  0 active torsions:
REMARK  status: ('A' for Active; 'I' for Inactive)
ROOT
ATOM      1  O1  BZF d   1       2.963   3.311   5.909  0.00  0.00    -0.204 OA
ATOM      2  C2  BZF d   1       3.923   2.737   5.098  0.00  0.00     0.174 A 
ATOM      3  C3  BZF d   1       3.681   3.014   3.800  0.00  0.00    -0.012 A 
ATOM      4  C3A BZF d   1       2.547   3.888   3.808  0.00  0.00    -0.107 A 
ATOM      5  C4  BZF d   1       1.842   4.518   2.823  0.00  0.00     0.055 A 
ATOM      6  C5  BZF d   1       0.742   5.242   3.159  0.00  0.00    -0.016 A 
ATOM      7  C6  BZF d   1       0.316   5.352   4.466  0.00  0.00     0.022 A 
ATOM      8  C7  BZF d   1       0.986   4.749   5.478  0.00  0.00     0.029 A 
ATOM      9  C7A BZF d   1       2.117   4.043   5.146  0.00  0.00     0.058 A 
ENDROOT
TORSDOF 0
ENDMDL
