MODEL 1
REMARK minimizedAffinity 4.25732565
REMARK minimizedRMSD -1
REMARK  0 active torsions:
REMARK  status: ('A' for Active; 'I' for Inactive)
ROOT
ATOM      1  O1  BZF d   1       3.199   1.872   3.760  0.00  0.00    -0.204 OA
ATOM      2  C2  BZF d   1       2.932   1.209   4.942  0.00  0.00     0.174 A 
ATOM      3  C3  BZF d   1       3.374   1.919   5.999  0.00  0.00    -0.012 A 
ATOM      4  C3A BZF d   1       3.871   3.143   5.449  0.00  0.00    -0.107 A 
ATOM      5  C4  BZF d   1       4.427   4.262   6.000  0.00  0.00     0.055 A 
ATOM      6  C5  BZF d   1       4.875   5.249   5.180  0.00  0.00    -0.016 A 
ATOM      7  C6  BZF d   1       4.787   5.148   3.807  0.00  0.00     0.022 A 
ATOM      8  C7  BZF d   1       4.238   4.059   3.215  0.00  0.00     0.029 A 
ATOM      9  C7A BZF d   1       3.756   3.074   4.042  0.00  0.00     0.058 A 
ENDROOT
TORSDOF 0
ENDMDL
