MODEL 1
REMARK minimizedAffinity 16.0908604
REMARK minimizedRMSD -1
REMARK  2 active torsions:
REMARK  status: ('A' for Active; 'I' for Inactive)
REMARK    1  A    between atoms: C2'_3  and  C1'_4 
REMARK    2  A    between atoms: C1'_4  and  C1_5 
ROOT
ATOM      1  C1  I4B d   1       3.710   2.029   3.041  0.00  0.00    -0.075 A 
ATOM      2  C2  I4B d   1       3.777   2.360   1.711  0.00  0.00     0.003 A 
ATOM      3  C3  I4B d   1       4.198   3.654   1.318  0.00  0.00     0.002 A 
ATOM      4  C4  I4B d   1       4.493   4.594   2.284  0.00  0.00    -0.004 A 
ATOM      5  C5  I4B d   1       4.447   4.250   3.632  0.00  0.00     0.002 A 
ATOM      6  C6  I4B d   1       4.065   2.955   4.013  0.00  0.00     0.003 A 
ENDROOT
BRANCH   1   7
ATOM      7  C1' I4B d   1       3.230   0.664   3.421  0.00  0.00     0.060 C 
BRANCH   7   8
ATOM      8  C2' I4B d   1       1.780   0.545   2.998  0.00  0.00    -0.013 C 
ATOM      9  C4' I4B d   1       1.511  -0.780   2.336  0.00  0.00     0.013 C 
ATOM     10  C3' I4B d   1       0.926   0.724   4.218  0.00  0.00     0.013 C 
ENDBRANCH   7   8
ENDBRANCH   1   7
TORSDOF 2
ENDMDL
