MODEL 1
REMARK minimizedAffinity 16.3435173
REMARK minimizedRMSD -1
REMARK  2 active torsions:
REMARK  status: ('A' for Active; 'I' for Inactive)
REMARK    1  A    between atoms: C2'_3  and  C1'_4 
REMARK    2  A    between atoms: C1'_4  and  C1_5 
ROOT
ATOM      1  C1  I4B d   1       2.399   0.586   2.547  0.00  0.00    -0.075 A 
ATOM      2  C2  I4B d   1       2.918   1.400   1.571  0.00  0.00     0.003 A 
ATOM      3  C3  I4B d   1       3.869   2.394   1.903  0.00  0.00     0.002 A 
ATOM      4  C4  I4B d   1       4.233   2.573   3.222  0.00  0.00    -0.004 A 
ATOM      5  C5  I4B d   1       3.723   1.732   4.207  0.00  0.00     0.002 A 
ATOM      6  C6  I4B d   1       2.810   0.724   3.866  0.00  0.00     0.003 A 
ENDROOT
BRANCH   1   7
ATOM      7  C1' I4B d   1       1.372  -0.433   2.166  0.00  0.00     0.060 C 
BRANCH   7   8
ATOM      8  C2' I4B d   1       0.350  -0.505   3.282  0.00  0.00    -0.013 C 
ATOM      9  C4' I4B d   1      -0.998  -0.016   2.820  0.00  0.00     0.013 C 
ATOM     10  C3' I4B d   1       0.278  -1.928   3.752  0.00  0.00     0.013 C 
ENDBRANCH   7   8
ENDBRANCH   1   7
TORSDOF 2
ENDMDL
