MODEL 1
REMARK minimizedAffinity 9.48929977
REMARK minimizedRMSD -1
REMARK  2 active torsions:
REMARK  status: ('A' for Active; 'I' for Inactive)
REMARK    1  A    between atoms: C2'_3  and  C1'_4 
REMARK    2  A    between atoms: C1'_4  and  C1_5 
ROOT
ATOM      1  C1  I4B d   1       1.203  -0.828   3.816  0.00  0.00    -0.075 A 
ATOM      2  C2  I4B d   1       1.365   0.304   4.574  0.00  0.00     0.003 A 
ATOM      3  C3  I4B d   1       0.598   1.462   4.299  0.00  0.00     0.002 A 
ATOM      4  C4  I4B d   1      -0.277   1.460   3.233  0.00  0.00    -0.004 A 
ATOM      5  C5  I4B d   1      -0.457   0.304   2.479  0.00  0.00     0.002 A 
ATOM      6  C6  I4B d   1       0.278  -0.852   2.780  0.00  0.00     0.003 A 
ENDROOT
BRANCH   1   7
ATOM      7  C1' I4B d   1       2.053  -2.022   4.113  0.00  0.00     0.060 C 
BRANCH   7   8
ATOM      8  C2' I4B d   1       2.008  -2.267   5.608  0.00  0.00    -0.013 C 
ATOM      9  C4' I4B d   1       0.795  -3.072   5.992  0.00  0.00     0.013 C 
ATOM     10  C3' I4B d   1       3.273  -2.973   5.999  0.00  0.00     0.013 C 
ENDBRANCH   7   8
ENDBRANCH   1   7
TORSDOF 2
ENDMDL
