MODEL 1
REMARK minimizedAffinity 10.6079073
REMARK minimizedRMSD -1
REMARK  2 active torsions:
REMARK  status: ('A' for Active; 'I' for Inactive)
REMARK    1  A    between atoms: C2'_3  and  C1'_4 
REMARK    2  A    between atoms: C1'_4  and  C1_5 
ROOT
ATOM      1  C1  I4B d   1       5.067   2.053   3.423  0.00  0.00    -0.075 A 
ATOM      2  C2  I4B d   1       4.099   2.449   2.534  0.00  0.00     0.003 A 
ATOM      3  C3  I4B d   1       4.050   1.885   1.236  0.00  0.00     0.002 A 
ATOM      4  C4  I4B d   1       5.013   0.973   0.855  0.00  0.00    -0.004 A 
ATOM      5  C5  I4B d   1       5.979   0.556   1.765  0.00  0.00     0.002 A 
ATOM      6  C6  I4B d   1       6.000   1.090   3.062  0.00  0.00     0.003 A 
ENDROOT
BRANCH   1   7
ATOM      7  C1' I4B d   1       5.109   2.694   4.774  0.00  0.00     0.060 C 
BRANCH   7   8
ATOM      8  C2' I4B d   1       4.693   4.142   4.618  0.00  0.00    -0.013 C 
ATOM      9  C4' I4B d   1       3.818   4.585   5.761  0.00  0.00     0.013 C 
ATOM     10  C3' I4B d   1       5.938   4.975   4.535  0.00  0.00     0.013 C 
ENDBRANCH   7   8
ENDBRANCH   1   7
TORSDOF 2
ENDMDL
