MODEL 1
REMARK minimizedAffinity 12.0936699
REMARK minimizedRMSD -1
REMARK  2 active torsions:
REMARK  status: ('A' for Active; 'I' for Inactive)
REMARK    1  A    between atoms: C2'_3  and  C1'_4 
REMARK    2  A    between atoms: C1'_4  and  C1_5 
ROOT
ATOM      1  C1  I4B d   1      -1.622  -2.905  -3.828  0.00  0.00    -0.075 A 
ATOM      2  C2  I4B d   1      -2.019  -3.588  -4.950  0.00  0.00     0.003 A 
ATOM      3  C3  I4B d   1      -2.241  -4.985  -4.892  0.00  0.00     0.002 A 
ATOM      4  C4  I4B d   1      -2.007  -5.663  -3.713  0.00  0.00    -0.004 A 
ATOM      5  C5  I4B d   1      -1.627  -4.965  -2.570  0.00  0.00     0.002 A 
ATOM      6  C6  I4B d   1      -1.444  -3.575  -2.624  0.00  0.00     0.003 A 
ENDROOT
BRANCH   1   7
ATOM      7  C1' I4B d   1      -1.364  -1.435  -3.932  0.00  0.00     0.060 C 
BRANCH   7   8
ATOM      8  C2' I4B d   1       0.024  -1.244  -4.507  0.00  0.00    -0.013 C 
ATOM      9  C4' I4B d   1      -0.036  -0.708  -5.913  0.00  0.00     0.013 C 
ATOM     10  C3' I4B d   1       0.775  -0.311  -3.604  0.00  0.00     0.013 C 
ENDBRANCH   7   8
ENDBRANCH   1   7
TORSDOF 2
ENDMDL
