MODEL 1
REMARK minimizedAffinity 16.8536377
REMARK minimizedRMSD -1
REMARK  2 active torsions:
REMARK  status: ('A' for Active; 'I' for Inactive)
REMARK    1  A    between atoms: C2'_3  and  C1'_4 
REMARK    2  A    between atoms: C1'_4  and  C1_5 
ROOT
ATOM      1  C1  I4B d   1      -0.768  -2.523  -5.025  0.00  0.00    -0.075 A 
ATOM      2  C2  I4B d   1      -1.267  -2.549  -3.746  0.00  0.00     0.003 A 
ATOM      3  C3  I4B d   1      -0.900  -1.544  -2.818  0.00  0.00     0.002 A 
ATOM      4  C4  I4B d   1      -0.000  -0.568  -3.193  0.00  0.00    -0.004 A 
ATOM      5  C5  I4B d   1       0.486  -0.530  -4.497  0.00  0.00     0.002 A 
ATOM      6  C6  I4B d   1       0.090  -1.506  -5.423  0.00  0.00     0.003 A 
ENDROOT
BRANCH   1   7
ATOM      7  C1' I4B d   1      -1.150  -3.618  -5.970  0.00  0.00     0.060 C 
BRANCH   7   8
ATOM      8  C2' I4B d   1      -2.118  -4.537  -5.253  0.00  0.00    -0.013 C 
ATOM      9  C4' I4B d   1      -3.423  -4.643  -5.997  0.00  0.00     0.013 C 
ATOM     10  C3' I4B d   1      -1.464  -5.879  -5.112  0.00  0.00     0.013 C 
ENDBRANCH   7   8
ENDBRANCH   1   7
TORSDOF 2
ENDMDL
