MODEL 1
REMARK minimizedAffinity 6.96006536
REMARK minimizedRMSD -1
REMARK  2 active torsions:
REMARK  status: ('A' for Active; 'I' for Inactive)
REMARK    1  A    between atoms: C2'_3  and  C1'_4 
REMARK    2  A    between atoms: C1'_4  and  C1_5 
ROOT
ATOM      1  C1  I4B d   1       5.960   0.116  -3.547  0.00  0.00    -0.075 A 
ATOM      2  C2  I4B d   1       5.937   0.835  -4.716  0.00  0.00     0.003 A 
ATOM      3  C3  I4B d   1       5.931   0.167  -5.964  0.00  0.00     0.002 A 
ATOM      4  C4  I4B d   1       5.998  -1.211  -5.998  0.00  0.00    -0.004 A 
ATOM      5  C5  I4B d   1       5.998  -1.939  -4.812  0.00  0.00     0.002 A 
ATOM      6  C6  I4B d   1       5.967  -1.273  -3.578  0.00  0.00     0.003 A 
ENDROOT
BRANCH   1   7
ATOM      7  C1' I4B d   1       6.000   0.855  -2.247  0.00  0.00     0.060 C 
BRANCH   7   8
ATOM      8  C2' I4B d   1       5.264   2.166  -2.433  0.00  0.00    -0.013 C 
ATOM      9  C4' I4B d   1       3.792   2.009  -2.152  0.00  0.00     0.013 C 
ATOM     10  C3' I4B d   1       5.885   3.179  -1.518  0.00  0.00     0.013 C 
ENDBRANCH   7   8
ENDBRANCH   1   7
TORSDOF 2
ENDMDL
