MODEL 1
REMARK minimizedAffinity 8.6279707
REMARK minimizedRMSD -1
REMARK  2 active torsions:
REMARK  status: ('A' for Active; 'I' for Inactive)
REMARK    1  A    between atoms: C2'_3  and  C1'_4 
REMARK    2  A    between atoms: C1'_4  and  C1_5 
ROOT
ATOM      1  C1  I4B d   1       2.951   3.399  -2.958  0.00  0.00    -0.075 A 
ATOM      2  C2  I4B d   1       2.692   2.504  -3.966  0.00  0.00     0.003 A 
ATOM      3  C3  I4B d   1       2.317   2.966  -5.251  0.00  0.00     0.002 A 
ATOM      4  C4  I4B d   1       2.165   4.320  -5.469  0.00  0.00    -0.004 A 
ATOM      5  C5  I4B d   1       2.450   5.227  -4.452  0.00  0.00     0.002 A 
ATOM      6  C6  I4B d   1       2.857   4.765  -3.193  0.00  0.00     0.003 A 
ENDROOT
BRANCH   1   7
ATOM      7  C1' I4B d   1       3.312   2.876  -1.604  0.00  0.00     0.060 C 
BRANCH   7   8
ATOM      8  C2' I4B d   1       2.026   2.603  -0.851  0.00  0.00    -0.013 C 
ATOM      9  C4' I4B d   1       0.838   3.185  -1.570  0.00  0.00     0.013 C 
ATOM     10  C3' I4B d   1       1.889   1.118  -0.693  0.00  0.00     0.013 C 
ENDBRANCH   7   8
ENDBRANCH   1   7
TORSDOF 2
ENDMDL
