MODEL 1
REMARK minimizedAffinity 10.4363928
REMARK minimizedRMSD -1
REMARK  2 active torsions:
REMARK  status: ('A' for Active; 'I' for Inactive)
REMARK    1  A    between atoms: C2'_3  and  C1'_4 
REMARK    2  A    between atoms: C1'_4  and  C1_5 
ROOT
ATOM      1  C1  I4B d   1       5.289   3.169  -4.892  0.00  0.00    -0.075 A 
ATOM      2  C2  I4B d   1       5.980   3.648  -3.807  0.00  0.00     0.003 A 
ATOM      3  C3  I4B d   1       5.346   4.515  -2.885  0.00  0.00     0.002 A 
ATOM      4  C4  I4B d   1       4.045   4.915  -3.111  0.00  0.00    -0.004 A 
ATOM      5  C5  I4B d   1       3.339   4.410  -4.199  0.00  0.00     0.002 A 
ATOM      6  C6  I4B d   1       3.960   3.522  -5.089  0.00  0.00     0.003 A 
ENDROOT
BRANCH   1   7
ATOM      7  C1' I4B d   1       5.999   2.282  -5.865  0.00  0.00     0.060 C 
BRANCH   7   8
ATOM      8  C2' I4B d   1       5.574   0.854  -5.590  0.00  0.00    -0.013 C 
ATOM      9  C4' I4B d   1       6.000   0.413  -4.215  0.00  0.00     0.013 C 
ATOM     10  C3' I4B d   1       4.084   0.776  -5.747  0.00  0.00     0.013 C 
ENDBRANCH   7   8
ENDBRANCH   1   7
TORSDOF 2
ENDMDL
