MODEL 1
REMARK minimizedAffinity 5.62277985
REMARK minimizedRMSD -1
REMARK  2 active torsions:
REMARK  status: ('A' for Active; 'I' for Inactive)
REMARK    1  A    between atoms: C2'_3  and  C1'_4 
REMARK    2  A    between atoms: C1'_4  and  C1_5 
ROOT
ATOM      1  C1  I4B d   1       1.261   0.140  -2.884  0.00  0.00    -0.075 A 
ATOM      2  C2  I4B d   1       1.622  -0.089  -4.188  0.00  0.00     0.003 A 
ATOM      3  C3  I4B d   1       1.769  -1.415  -4.664  0.00  0.00     0.002 A 
ATOM      4  C4  I4B d   1       1.596  -2.472  -3.794  0.00  0.00    -0.004 A 
ATOM      5  C5  I4B d   1       1.207  -2.238  -2.479  0.00  0.00     0.002 A 
ATOM      6  C6  I4B d   1       1.027  -0.924  -2.023  0.00  0.00     0.003 A 
ENDROOT
BRANCH   1   7
ATOM      7  C1' I4B d   1       1.147   1.553  -2.406  0.00  0.00     0.060 C 
BRANCH   7   8
ATOM      8  C2' I4B d   1       1.057   1.528  -0.893  0.00  0.00    -0.013 C 
ATOM      9  C4' I4B d   1       2.010   2.516  -0.274  0.00  0.00     0.013 C 
ATOM     10  C3' I4B d   1      -0.361   1.830  -0.509  0.00  0.00     0.013 C 
ENDBRANCH   7   8
ENDBRANCH   1   7
TORSDOF 2
ENDMDL
