MODEL 1
REMARK minimizedAffinity 6.41893911
REMARK minimizedRMSD -1
REMARK  2 active torsions:
REMARK  status: ('A' for Active; 'I' for Inactive)
REMARK    1  A    between atoms: C2'_3  and  C1'_4 
REMARK    2  A    between atoms: C1'_4  and  C1_5 
ROOT
ATOM      1  C1  I4B d   1      -4.048   2.972   5.093  0.00  0.00    -0.075 A 
ATOM      2  C2  I4B d   1      -4.705   3.769   5.997  0.00  0.00     0.003 A 
ATOM      3  C3  I4B d   1      -4.713   5.175   5.834  0.00  0.00     0.002 A 
ATOM      4  C4  I4B d   1      -4.014   5.743   4.789  0.00  0.00    -0.004 A 
ATOM      5  C5  I4B d   1      -3.367   4.932   3.860  0.00  0.00     0.002 A 
ATOM      6  C6  I4B d   1      -3.394   3.538   4.005  0.00  0.00     0.003 A 
ENDROOT
BRANCH   1   7
ATOM      7  C1' I4B d   1      -4.031   1.493   5.313  0.00  0.00     0.060 C 
BRANCH   7   8
ATOM      8  C2' I4B d   1      -3.551   0.836   4.035  0.00  0.00    -0.013 C 
ATOM      9  C4' I4B d   1      -2.336  -0.019   4.285  0.00  0.00     0.013 C 
ATOM     10  C3' I4B d   1      -4.681   0.021   3.480  0.00  0.00     0.013 C 
ENDBRANCH   7   8
ENDBRANCH   1   7
TORSDOF 2
ENDMDL
