MODEL 1
REMARK minimizedAffinity 1.8792392
REMARK minimizedRMSD -1
REMARK  2 active torsions:
REMARK  status: ('A' for Active; 'I' for Inactive)
REMARK    1  A    between atoms: C2'_3  and  C1'_4 
REMARK    2  A    between atoms: C1'_4  and  C1_5 
ROOT
ATOM      1  C1  I4B d   1       1.835   0.751  -3.946  0.00  0.00    -0.075 A 
ATOM      2  C2  I4B d   1       1.911  -0.438  -3.265  0.00  0.00     0.003 A 
ATOM      3  C3  I4B d   1       1.267  -0.585  -2.013  0.00  0.00     0.002 A 
ATOM      4  C4  I4B d   1       0.605   0.492  -1.459  0.00  0.00    -0.004 A 
ATOM      5  C5  I4B d   1       0.511   1.690  -2.161  0.00  0.00     0.002 A 
ATOM      6  C6  I4B d   1       1.119   1.817  -3.418  0.00  0.00     0.003 A 
ENDROOT
BRANCH   1   7
ATOM      7  C1' I4B d   1       2.555   0.881  -5.251  0.00  0.00     0.060 C 
BRANCH   7   8
ATOM      8  C2' I4B d   1       3.995   1.250  -4.956  0.00  0.00    -0.013 C 
ATOM      9  C4' I4B d   1       4.926   0.693  -6.000  0.00  0.00     0.013 C 
ATOM     10  C3' I4B d   1       4.086   2.746  -4.891  0.00  0.00     0.013 C 
ENDBRANCH   7   8
ENDBRANCH   1   7
TORSDOF 2
ENDMDL
