MODEL 1
REMARK minimizedAffinity 5.18264866
REMARK minimizedRMSD -1
REMARK  2 active torsions:
REMARK  status: ('A' for Active; 'I' for Inactive)
REMARK    1  A    between atoms: C2'_3  and  C1'_4 
REMARK    2  A    between atoms: C1'_4  and  C1_5 
ROOT
ATOM      1  C1  I4B d   1      -3.366   1.538   5.586  0.00  0.00    -0.075 A 
ATOM      2  C2  I4B d   1      -2.428   0.911   4.803  0.00  0.00     0.003 A 
ATOM      3  C3  I4B d   1      -2.608  -0.440   4.419  0.00  0.00     0.002 A 
ATOM      4  C4  I4B d   1      -3.707  -1.136   4.879  0.00  0.00    -0.004 A 
ATOM      5  C5  I4B d   1      -4.668  -0.493   5.653  0.00  0.00     0.002 A 
ATOM      6  C6  I4B d   1      -4.503   0.856   5.999  0.00  0.00     0.003 A 
ENDROOT
BRANCH   1   7
ATOM      7  C1' I4B d   1      -3.128   2.955   6.000  0.00  0.00     0.060 C 
BRANCH   7   8
ATOM      8  C2' I4B d   1      -4.000   3.846   5.139  0.00  0.00    -0.013 C 
ATOM      9  C4' I4B d   1      -4.723   4.871   5.973  0.00  0.00     0.013 C 
ATOM     10  C3' I4B d   1      -3.124   4.502   4.114  0.00  0.00     0.013 C 
ENDBRANCH   7   8
ENDBRANCH   1   7
TORSDOF 2
ENDMDL
