MODEL 1
REMARK minimizedAffinity 6.69613028
REMARK minimizedRMSD -1
REMARK  2 active torsions:
REMARK  status: ('A' for Active; 'I' for Inactive)
REMARK    1  A    between atoms: C2'_3  and  C1'_4 
REMARK    2  A    between atoms: C1'_4  and  C1_5 
ROOT
ATOM      1  C1  I4B d   1       3.340   0.011  -4.656  0.00  0.00    -0.075 A 
ATOM      2  C2  I4B d   1       4.316  -0.393  -3.779  0.00  0.00     0.003 A 
ATOM      3  C3  I4B d   1       5.665  -0.022  -3.995  0.00  0.00     0.002 A 
ATOM      4  C4  I4B d   1       5.999   0.705  -5.119  0.00  0.00    -0.004 A 
ATOM      5  C5  I4B d   1       5.005   1.133  -5.994  0.00  0.00     0.002 A 
ATOM      6  C6  I4B d   1       3.666   0.795  -5.755  0.00  0.00     0.003 A 
ENDROOT
BRANCH   1   7
ATOM      7  C1' I4B d   1       1.930  -0.426  -4.416  0.00  0.00     0.060 C 
BRANCH   7   8
ATOM      8  C2' I4B d   1       1.845  -0.978  -3.007  0.00  0.00    -0.013 C 
ATOM      9  C4' I4B d   1       1.043  -0.070  -2.113  0.00  0.00     0.013 C 
ATOM     10  C3' I4B d   1       1.233  -2.345  -3.081  0.00  0.00     0.013 C 
ENDBRANCH   7   8
ENDBRANCH   1   7
TORSDOF 2
ENDMDL
