MODEL 1
REMARK minimizedAffinity -1.63196659
REMARK minimizedRMSD -1
REMARK  2 active torsions:
REMARK  status: ('A' for Active; 'I' for Inactive)
REMARK    1  A    between atoms: C2'_3  and  C1'_4 
REMARK    2  A    between atoms: C1'_4  and  C1_5 
ROOT
ATOM      1  C1  I4B d   1       2.491   0.695  -3.634  0.00  0.00    -0.075 A 
ATOM      2  C2  I4B d   1       1.602   1.731  -3.494  0.00  0.00     0.003 A 
ATOM      3  C3  I4B d   1       0.634   1.705  -2.460  0.00  0.00     0.002 A 
ATOM      4  C4  I4B d   1       0.559   0.607  -1.627  0.00  0.00    -0.004 A 
ATOM      5  C5  I4B d   1       1.476  -0.432  -1.756  0.00  0.00     0.002 A 
ATOM      6  C6  I4B d   1       2.457  -0.382  -2.758  0.00  0.00     0.003 A 
ENDROOT
BRANCH   1   7
ATOM      7  C1' I4B d   1       3.479   0.740  -4.756  0.00  0.00     0.060 C 
BRANCH   7   8
ATOM      8  C2' I4B d   1       4.757   1.361  -4.229  0.00  0.00    -0.013 C 
ATOM      9  C4' I4B d   1       5.876   0.354  -4.191  0.00  0.00     0.013 C 
ATOM     10  C3' I4B d   1       5.104   2.524  -5.110  0.00  0.00     0.013 C 
ENDBRANCH   7   8
ENDBRANCH   1   7
TORSDOF 2
ENDMDL
