MODEL 1
REMARK minimizedAffinity 5.0658927
REMARK minimizedRMSD -1
REMARK  2 active torsions:
REMARK  status: ('A' for Active; 'I' for Inactive)
REMARK    1  A    between atoms: C2'_3  and  C1'_4 
REMARK    2  A    between atoms: C1'_4  and  C1_5 
ROOT
ATOM      1  C1  I4B d   1      -3.782   1.932   5.477  0.00  0.00    -0.075 A 
ATOM      2  C2  I4B d   1      -4.529   0.906   5.999  0.00  0.00     0.003 A 
ATOM      3  C3  I4B d   1      -4.369  -0.413   5.510  0.00  0.00     0.002 A 
ATOM      4  C4  I4B d   1      -3.494  -0.651   4.470  0.00  0.00    -0.004 A 
ATOM      5  C5  I4B d   1      -2.721   0.387   3.957  0.00  0.00     0.002 A 
ATOM      6  C6  I4B d   1      -2.857   1.685   4.472  0.00  0.00     0.003 A 
ENDROOT
BRANCH   1   7
ATOM      7  C1' I4B d   1      -4.000   3.318   5.995  0.00  0.00     0.060 C 
BRANCH   7   8
ATOM      8  C2' I4B d   1      -3.178   4.268   5.148  0.00  0.00    -0.013 C 
ATOM      9  C4' I4B d   1      -3.661   4.282   3.721  0.00  0.00     0.013 C 
ATOM     10  C3' I4B d   1      -3.268   5.633   5.763  0.00  0.00     0.013 C 
ENDBRANCH   7   8
ENDBRANCH   1   7
TORSDOF 2
ENDMDL
