MODEL 1
REMARK minimizedAffinity 0.988749146
REMARK minimizedRMSD -1
REMARK  2 active torsions:
REMARK  status: ('A' for Active; 'I' for Inactive)
REMARK    1  A    between atoms: C2'_3  and  C1'_4 
REMARK    2  A    between atoms: C1'_4  and  C1_5 
ROOT
ATOM      1  C1  I4B d   1       3.922   3.040  -5.414  0.00  0.00    -0.075 A 
ATOM      2  C2  I4B d   1       5.156   3.110  -4.816  0.00  0.00     0.003 A 
ATOM      3  C3  I4B d   1       5.997   1.971  -4.783  0.00  0.00     0.002 A 
ATOM      4  C4  I4B d   1       5.547   0.778  -5.311  0.00  0.00    -0.004 A 
ATOM      5  C5  I4B d   1       4.305   0.715  -5.936  0.00  0.00     0.002 A 
ATOM      6  C6  I4B d   1       3.492   1.857  -5.999  0.00  0.00     0.003 A 
ENDROOT
BRANCH   1   7
ATOM      7  C1' I4B d   1       3.047   4.253  -5.402  0.00  0.00     0.060 C 
BRANCH   7   8
ATOM      8  C2' I4B d   1       1.627   3.806  -5.687  0.00  0.00    -0.013 C 
ATOM      9  C4' I4B d   1       1.049   3.048  -4.521  0.00  0.00     0.013 C 
ATOM     10  C3' I4B d   1       0.811   5.026  -5.997  0.00  0.00     0.013 C 
ENDBRANCH   7   8
ENDBRANCH   1   7
TORSDOF 2
ENDMDL
