MODEL 1
REMARK minimizedAffinity 7.95565748
REMARK minimizedRMSD -1
REMARK  0 active torsions:
REMARK  status: ('A' for Active; 'I' for Inactive)
ROOT
ATOM      1  C4' PXY d   1       5.980  -5.127   5.998  0.00  0.00     0.077 C 
ATOM      2  C1' PXY d   1       2.800  -0.791   3.877  0.00  0.00     0.077 C 
ATOM      3  C1  PXY d   1       3.626  -1.937   4.428  0.00  0.00    -0.082 A 
ATOM      4  C2  PXY d   1       4.369  -1.749   5.506  0.00  0.00     0.003 A 
ATOM      5  C3  PXY d   1       5.146  -2.765   5.999  0.00  0.00     0.003 A 
ATOM      6  C4  PXY d   1       5.123  -4.002   5.413  0.00  0.00    -0.082 A 
ATOM      7  C5  PXY d   1       4.360  -4.205   4.318  0.00  0.00     0.003 A 
ATOM      8  C6  PXY d   1       3.609  -3.149   3.809  0.00  0.00     0.003 A 
ENDROOT
TORSDOF 0
ENDMDL
