MODEL 1
REMARK minimizedAffinity 10.9626245
REMARK minimizedRMSD -1
REMARK  0 active torsions:
REMARK  status: ('A' for Active; 'I' for Inactive)
ROOT
ATOM      1  C4' PXY d   1       2.977   1.588   3.008  0.00  0.00     0.077 C 
ATOM      2  C1' PXY d   1       0.399  -2.632   6.000  0.00  0.00     0.077 C 
ATOM      3  C1  PXY d   1       1.078  -1.534   5.206  0.00  0.00    -0.082 A 
ATOM      4  C2  PXY d   1       1.514  -0.451   5.828  0.00  0.00     0.003 A 
ATOM      5  C3  PXY d   1       2.102   0.566   5.121  0.00  0.00     0.003 A 
ATOM      6  C4  PXY d   1       2.294   0.450   3.770  0.00  0.00    -0.082 A 
ATOM      7  C5  PXY d   1       1.861  -0.657   3.130  0.00  0.00     0.003 A 
ATOM      8  C6  PXY d   1       1.230  -1.660   3.859  0.00  0.00     0.003 A 
ENDROOT
TORSDOF 0
ENDMDL
