MODEL 1
REMARK minimizedAffinity 4.45271635
REMARK minimizedRMSD -1
REMARK  0 active torsions:
REMARK  status: ('A' for Active; 'I' for Inactive)
ROOT
ATOM      1  C4' PXY d   1       0.350   5.999  -3.871  0.00  0.00     0.077 C 
ATOM      2  C1' PXY d   1      -0.017   2.993   1.053  0.00  0.00     0.077 C 
ATOM      3  C1  PXY d   1       0.071   3.774  -0.244  0.00  0.00    -0.082 A 
ATOM      4  C2  PXY d   1       1.151   4.493  -0.503  0.00  0.00     0.003 A 
ATOM      5  C3  PXY d   1       1.233   5.230  -1.656  0.00  0.00     0.003 A 
ATOM      6  C4  PXY d   1       0.222   5.188  -2.578  0.00  0.00    -0.082 A 
ATOM      7  C5  PXY d   1      -0.879   4.449  -2.326  0.00  0.00     0.003 A 
ATOM      8  C6  PXY d   1      -0.960   3.741  -1.131  0.00  0.00     0.003 A 
ENDROOT
TORSDOF 0
ENDMDL
