MODEL 1
REMARK minimizedAffinity 9.15199471
REMARK minimizedRMSD -1
REMARK  0 active torsions:
REMARK  status: ('A' for Active; 'I' for Inactive)
ROOT
ATOM      1  C4' PXY d   1       0.124   3.564  -0.000  0.00  0.00     0.077 C 
ATOM      2  C1' PXY d   1      -0.120   0.100   4.621  0.00  0.00     0.077 C 
ATOM      3  C1  PXY d   1      -0.044   1.012   3.413  0.00  0.00    -0.082 A 
ATOM      4  C2  PXY d   1      -1.159   1.473   2.870  0.00  0.00     0.003 A 
ATOM      5  C3  PXY d   1      -1.110   2.273   1.758  0.00  0.00     0.003 A 
ATOM      6  C4  PXY d   1       0.095   2.648   1.227  0.00  0.00    -0.082 A 
ATOM      7  C5  PXY d   1       1.238   2.190   1.780  0.00  0.00     0.003 A 
ATOM      8  C6  PXY d   1       1.165   1.346   2.885  0.00  0.00     0.003 A 
ENDROOT
TORSDOF 0
ENDMDL
