MODEL 1
REMARK minimizedAffinity 9.4893055
REMARK minimizedRMSD -1
REMARK  0 active torsions:
REMARK  status: ('A' for Active; 'I' for Inactive)
ROOT
ATOM      1  C4' PXY d   1      -1.473  -4.326  -3.017  0.00  0.00     0.077 C 
ATOM      2  C1' PXY d   1       2.326  -2.463   0.921  0.00  0.00     0.077 C 
ATOM      3  C1  PXY d   1       1.338  -2.961  -0.115  0.00  0.00    -0.082 A 
ATOM      4  C2  PXY d   1       0.462  -2.120  -0.641  0.00  0.00     0.003 A 
ATOM      5  C3  PXY d   1      -0.459  -2.561  -1.556  0.00  0.00     0.003 A 
ATOM      6  C4  PXY d   1      -0.450  -3.865  -1.975  0.00  0.00    -0.082 A 
ATOM      7  C5  PXY d   1       0.447  -4.726  -1.451  0.00  0.00     0.003 A 
ATOM      8  C6  PXY d   1       1.347  -4.268  -0.493  0.00  0.00     0.003 A 
ENDROOT
TORSDOF 0
ENDMDL
