MODEL 1
REMARK minimizedAffinity 9.12285995
REMARK minimizedRMSD -1
REMARK  0 active torsions:
REMARK  status: ('A' for Active; 'I' for Inactive)
ROOT
ATOM      1  C4' PXY d   1      -5.999   0.736  -5.608  0.00  0.00     0.077 C 
ATOM      2  C1' PXY d   1      -4.848   5.201  -2.122  0.00  0.00     0.077 C 
ATOM      3  C1  PXY d   1      -5.150   4.038  -3.047  0.00  0.00    -0.082 A 
ATOM      4  C2  PXY d   1      -5.748   2.960  -2.567  0.00  0.00     0.003 A 
ATOM      5  C3  PXY d   1      -6.000   1.886  -3.382  0.00  0.00     0.003 A 
ATOM      6  C4  PXY d   1      -5.684   1.938  -4.713  0.00  0.00    -0.082 A 
ATOM      7  C5  PXY d   1      -5.082   3.039  -5.212  0.00  0.00     0.003 A 
ATOM      8  C6  PXY d   1      -4.798   4.101  -4.360  0.00  0.00     0.003 A 
ENDROOT
TORSDOF 0
ENDMDL
