MODEL 1
REMARK minimizedAffinity -1.58694243
REMARK minimizedRMSD -1
REMARK  0 active torsions:
REMARK  status: ('A' for Active; 'I' for Inactive)
ROOT
ATOM      1  C4' PXY d   1      -0.725   4.259  -1.183  0.00  0.00     0.077 C 
ATOM      2  C1' PXY d   1       2.521   3.021   3.437  0.00  0.00     0.077 C 
ATOM      3  C1  PXY d   1       1.677   3.356   2.223  0.00  0.00    -0.082 A 
ATOM      4  C2  PXY d   1       0.415   2.964   2.175  0.00  0.00     0.003 A 
ATOM      5  C3  PXY d   1      -0.353   3.230   1.071  0.00  0.00     0.003 A 
ATOM      6  C4  PXY d   1       0.161   3.952   0.027  0.00  0.00    -0.082 A 
ATOM      7  C5  PXY d   1       1.446   4.364   0.072  0.00  0.00     0.003 A 
ATOM      8  C6  PXY d   1       2.220   4.048   1.185  0.00  0.00     0.003 A 
ENDROOT
TORSDOF 0
ENDMDL
