MODEL 1
REMARK minimizedAffinity 6.99957657
REMARK minimizedRMSD -1
REMARK  0 active torsions:
REMARK  status: ('A' for Active; 'I' for Inactive)
ROOT
ATOM      1  C4' PXY d   1      -5.998   5.093  -6.000  0.00  0.00     0.077 C 
ATOM      2  C1' PXY d   1      -4.622   3.090  -0.755  0.00  0.00     0.077 C 
ATOM      3  C1  PXY d   1      -4.973   3.609  -2.135  0.00  0.00    -0.082 A 
ATOM      4  C2  PXY d   1      -5.646   4.741  -2.257  0.00  0.00     0.003 A 
ATOM      5  C3  PXY d   1      -6.000   5.208  -3.497  0.00  0.00     0.003 A 
ATOM      6  C4  PXY d   1      -5.614   4.537  -4.626  0.00  0.00    -0.082 A 
ATOM      7  C5  PXY d   1      -4.917   3.386  -4.510  0.00  0.00     0.003 A 
ATOM      8  C6  PXY d   1      -4.604   2.908  -3.242  0.00  0.00     0.003 A 
ENDROOT
TORSDOF 0
ENDMDL
