MODEL 1
REMARK minimizedAffinity 2.9521513
REMARK minimizedRMSD -1
REMARK  3 active torsions:
REMARK  status: ('A' for Active; 'I' for Inactive)
REMARK    1  A    between atoms: C3'_2  and  C2'_3 
REMARK    2  A    between atoms: C2'_3  and  C1'_4 
REMARK    3  A    between atoms: C1'_4  and  C1_5 
ROOT
ATOM      1  C1  N4B d   1      -4.785   0.005  -3.556  0.00  0.00    -0.075 A 
ATOM      2  C2  N4B d   1      -5.325  -1.202  -4.052  0.00  0.00     0.002 A 
ATOM      3  C3  N4B d   1      -5.110  -2.379  -3.378  0.00  0.00     0.002 A 
ATOM      4  C4  N4B d   1      -4.346  -2.377  -2.221  0.00  0.00    -0.004 A 
ATOM      5  C5  N4B d   1      -3.849  -1.204  -1.734  0.00  0.00     0.002 A 
ATOM      6  C6  N4B d   1      -4.060  -0.013  -2.399  0.00  0.00     0.002 A 
ENDROOT
BRANCH   1   7
ATOM      7  C1' N4B d   1      -4.920   1.303  -4.304  0.00  0.00     0.057 C 
BRANCH   7   8
ATOM      8  C2' N4B d   1      -4.436   2.445  -3.416  0.00  0.00     0.009 C 
BRANCH   8   9
ATOM      9  C3' N4B d   1      -4.586   3.795  -4.095  0.00  0.00     0.004 C 
ATOM     10  C4' N4B d   1      -5.934   3.983  -4.724  0.00  0.00     0.003 C 
ENDBRANCH   8   9
ENDBRANCH   7   8
ENDBRANCH   1   7
TORSDOF 3
ENDMDL
