MODEL 1
REMARK minimizedAffinity 10.9717741
REMARK minimizedRMSD -1
REMARK  3 active torsions:
REMARK  status: ('A' for Active; 'I' for Inactive)
REMARK    1  A    between atoms: C3'_2  and  C2'_3 
REMARK    2  A    between atoms: C2'_3  and  C1'_4 
REMARK    3  A    between atoms: C1'_4  and  C1_5 
ROOT
ATOM      1  C1  N4B d   1      -4.514   2.401  -3.805  0.00  0.00    -0.075 A 
ATOM      2  C2  N4B d   1      -5.753   3.034  -4.048  0.00  0.00     0.002 A 
ATOM      3  C3  N4B d   1      -5.792   4.369  -4.366  0.00  0.00     0.002 A 
ATOM      4  C4  N4B d   1      -4.611   5.094  -4.428  0.00  0.00    -0.004 A 
ATOM      5  C5  N4B d   1      -3.416   4.470  -4.217  0.00  0.00     0.002 A 
ATOM      6  C6  N4B d   1      -3.362   3.127  -3.900  0.00  0.00     0.002 A 
ENDROOT
BRANCH   1   7
ATOM      7  C1' N4B d   1      -4.427   0.964  -3.370  0.00  0.00     0.057 C 
BRANCH   7   8
ATOM      8  C2' N4B d   1      -3.983   0.908  -1.912  0.00  0.00     0.009 C 
BRANCH   8   9
ATOM      9  C3' N4B d   1      -3.287  -0.401  -1.580  0.00  0.00     0.004 C 
ATOM     10  C4' N4B d   1      -3.417  -1.421  -2.672  0.00  0.00     0.003 C 
ENDBRANCH   8   9
ENDBRANCH   7   8
ENDBRANCH   1   7
TORSDOF 3
ENDMDL
