MODEL 1
REMARK minimizedAffinity 8.47785187
REMARK minimizedRMSD -1
REMARK  3 active torsions:
REMARK  status: ('A' for Active; 'I' for Inactive)
REMARK    1  A    between atoms: C3'_2  and  C2'_3 
REMARK    2  A    between atoms: C2'_3  and  C1'_4 
REMARK    3  A    between atoms: C1'_4  and  C1_5 
ROOT
ATOM      1  C1  N4B d   1       3.644  -4.962   0.689  0.00  0.00    -0.075 A 
ATOM      2  C2  N4B d   1       4.837  -4.321   1.089  0.00  0.00     0.002 A 
ATOM      3  C3  N4B d   1       6.000  -4.537   0.392  0.00  0.00     0.002 A 
ATOM      4  C4  N4B d   1       5.998  -5.401  -0.693  0.00  0.00    -0.004 A 
ATOM      5  C5  N4B d   1       4.836  -5.996  -1.089  0.00  0.00     0.002 A 
ATOM      6  C6  N4B d   1       3.659  -5.785  -0.400  0.00  0.00     0.002 A 
ENDROOT
BRANCH   1   7
ATOM      7  C1' N4B d   1       2.367  -4.823   1.472  0.00  0.00     0.057 C 
BRANCH   7   8
ATOM      8  C2' N4B d   1       1.912  -3.367   1.436  0.00  0.00     0.009 C 
BRANCH   8   9
ATOM      9  C3' N4B d   1       1.227  -2.953   2.727  0.00  0.00     0.004 C 
ATOM     10  C4' N4B d   1      -0.157  -2.420   2.505  0.00  0.00     0.003 C 
ENDBRANCH   8   9
ENDBRANCH   7   8
ENDBRANCH   1   7
TORSDOF 3
ENDMDL
