MODEL 1
REMARK minimizedAffinity 10.8841276
REMARK minimizedRMSD -1
REMARK  3 active torsions:
REMARK  status: ('A' for Active; 'I' for Inactive)
REMARK    1  A    between atoms: C3'_2  and  C2'_3 
REMARK    2  A    between atoms: C2'_3  and  C1'_4 
REMARK    3  A    between atoms: C1'_4  and  C1_5 
ROOT
ATOM      1  C1  N4B d   1      -2.564   4.434  -5.345  0.00  0.00    -0.075 A 
ATOM      2  C2  N4B d   1      -2.354   3.902  -4.054  0.00  0.00     0.002 A 
ATOM      3  C3  N4B d   1      -3.324   3.129  -3.464  0.00  0.00     0.002 A 
ATOM      4  C4  N4B d   1      -4.514   2.890  -4.135  0.00  0.00    -0.004 A 
ATOM      5  C5  N4B d   1      -4.698   3.386  -5.393  0.00  0.00     0.002 A 
ATOM      6  C6  N4B d   1      -3.731   4.162  -5.999  0.00  0.00     0.002 A 
ENDROOT
BRANCH   1   7
ATOM      7  C1' N4B d   1      -1.569   5.355  -5.996  0.00  0.00     0.057 C 
BRANCH   7   8
ATOM      8  C2' N4B d   1      -0.193   4.696  -5.983  0.00  0.00     0.009 C 
BRANCH   8   9
ATOM      9  C3' N4B d   1       0.928   5.721  -5.994  0.00  0.00     0.004 C 
ATOM     10  C4' N4B d   1       2.273   5.113  -5.733  0.00  0.00     0.003 C 
ENDBRANCH   8   9
ENDBRANCH   7   8
ENDBRANCH   1   7
TORSDOF 3
ENDMDL
