MODEL 1
REMARK minimizedAffinity 9.60294724
REMARK minimizedRMSD -1
REMARK  3 active torsions:
REMARK  status: ('A' for Active; 'I' for Inactive)
REMARK    1  A    between atoms: C3'_2  and  C2'_3 
REMARK    2  A    between atoms: C2'_3  and  C1'_4 
REMARK    3  A    between atoms: C1'_4  and  C1_5 
ROOT
ATOM      1  C1  N4B d   1       3.893  -3.688   1.854  0.00  0.00    -0.075 A 
ATOM      2  C2  N4B d   1       5.258  -3.853   1.529  0.00  0.00     0.002 A 
ATOM      3  C3  N4B d   1       5.624  -4.163   0.243  0.00  0.00     0.002 A 
ATOM      4  C4  N4B d   1       4.647  -4.331  -0.727  0.00  0.00    -0.004 A 
ATOM      5  C5  N4B d   1       3.334  -4.145  -0.411  0.00  0.00     0.002 A 
ATOM      6  C6  N4B d   1       2.951  -3.829   0.877  0.00  0.00     0.002 A 
ENDROOT
BRANCH   1   7
ATOM      7  C1' N4B d   1       3.438  -3.433   3.265  0.00  0.00     0.057 C 
BRANCH   7   8
ATOM      8  C2' N4B d   1       4.538  -3.864   4.232  0.00  0.00     0.009 C 
BRANCH   8   9
ATOM      9  C3' N4B d   1       4.386  -3.209   5.594  0.00  0.00     0.004 C 
ATOM     10  C4' N4B d   1       5.597  -2.423   5.999  0.00  0.00     0.003 C 
ENDBRANCH   8   9
ENDBRANCH   7   8
ENDBRANCH   1   7
TORSDOF 3
ENDMDL
