MODEL 1
REMARK minimizedAffinity 6.56066656
REMARK minimizedRMSD -1
REMARK  3 active torsions:
REMARK  status: ('A' for Active; 'I' for Inactive)
REMARK    1  A    between atoms: C3'_2  and  C2'_3 
REMARK    2  A    between atoms: C2'_3  and  C1'_4 
REMARK    3  A    between atoms: C1'_4  and  C1_5 
ROOT
ATOM      1  C1  N4B d   1       1.456   3.563   4.612  0.00  0.00    -0.075 A 
ATOM      2  C2  N4B d   1       2.609   4.029   5.281  0.00  0.00     0.002 A 
ATOM      3  C3  N4B d   1       2.582   5.236   5.936  0.00  0.00     0.002 A 
ATOM      4  C4  N4B d   1       1.425   6.000   5.919  0.00  0.00    -0.004 A 
ATOM      5  C5  N4B d   1       0.308   5.531   5.292  0.00  0.00     0.002 A 
ATOM      6  C6  N4B d   1       0.319   4.318   4.633  0.00  0.00     0.002 A 
ENDROOT
BRANCH   1   7
ATOM      7  C1' N4B d   1       1.463   2.291   3.810  0.00  0.00     0.057 C 
BRANCH   7   8
ATOM      8  C2' N4B d   1       1.542   2.634   2.325  0.00  0.00     0.009 C 
BRANCH   8   9
ATOM      9  C3' N4B d   1       2.473   1.698   1.574  0.00  0.00     0.004 C 
ATOM     10  C4' N4B d   1       1.949   1.322   0.220  0.00  0.00     0.003 C 
ENDBRANCH   8   9
ENDBRANCH   7   8
ENDBRANCH   1   7
TORSDOF 3
ENDMDL
