MODEL 1
REMARK minimizedAffinity 12.0116186
REMARK minimizedRMSD -1
REMARK  3 active torsions:
REMARK  status: ('A' for Active; 'I' for Inactive)
REMARK    1  A    between atoms: C3'_2  and  C2'_3 
REMARK    2  A    between atoms: C2'_3  and  C1'_4 
REMARK    3  A    between atoms: C1'_4  and  C1_5 
ROOT
ATOM      1  C1  N4B d   1      -3.802  -1.150  -2.225  0.00  0.00    -0.075 A 
ATOM      2  C2  N4B d   1      -4.096   0.049  -2.910  0.00  0.00     0.002 A 
ATOM      3  C3  N4B d   1      -4.930   0.029  -4.001  0.00  0.00     0.002 A 
ATOM      4  C4  N4B d   1      -5.463  -1.175  -4.435  0.00  0.00    -0.004 A 
ATOM      5  C5  N4B d   1      -5.194  -2.325  -3.753  0.00  0.00     0.002 A 
ATOM      6  C6  N4B d   1      -4.361  -2.320  -2.652  0.00  0.00     0.002 A 
ENDROOT
BRANCH   1   7
ATOM      7  C1' N4B d   1      -2.828  -1.191  -1.079  0.00  0.00     0.057 C 
BRANCH   7   8
ATOM      8  C2' N4B d   1      -1.858  -0.020  -1.203  0.00  0.00     0.009 C 
BRANCH   8   9
ATOM      9  C3' N4B d   1      -0.412  -0.460  -1.049  0.00  0.00     0.004 C 
ATOM     10  C4' N4B d   1       0.564   0.590  -1.486  0.00  0.00     0.003 C 
ENDBRANCH   8   9
ENDBRANCH   7   8
ENDBRANCH   1   7
TORSDOF 3
ENDMDL
