MODEL 1
REMARK minimizedAffinity 5.73729658
REMARK minimizedRMSD -1
REMARK  3 active torsions:
REMARK  status: ('A' for Active; 'I' for Inactive)
REMARK    1  A    between atoms: C3'_2  and  C2'_3 
REMARK    2  A    between atoms: C2'_3  and  C1'_4 
REMARK    3  A    between atoms: C1'_4  and  C1_5 
ROOT
ATOM      1  C1  N4B d   1       2.354  -3.561   1.383  0.00  0.00    -0.075 A 
ATOM      2  C2  N4B d   1       1.800  -2.263   1.342  0.00  0.00     0.002 A 
ATOM      3  C3  N4B d   1       0.623  -1.998   1.998  0.00  0.00     0.002 A 
ATOM      4  C4  N4B d   1      -0.025  -3.015   2.683  0.00  0.00    -0.004 A 
ATOM      5  C5  N4B d   1       0.530  -4.260   2.739  0.00  0.00     0.002 A 
ATOM      6  C6  N4B d   1       1.715  -4.540   2.087  0.00  0.00     0.002 A 
ENDROOT
BRANCH   1   7
ATOM      7  C1' N4B d   1       3.594  -3.920   0.610  0.00  0.00     0.057 C 
BRANCH   7   8
ATOM      8  C2' N4B d   1       4.822  -3.597   1.455  0.00  0.00     0.009 C 
BRANCH   8   9
ATOM      9  C3' N4B d   1       5.728  -2.584   0.777  0.00  0.00     0.004 C 
ATOM     10  C4' N4B d   1       5.868  -1.314   1.562  0.00  0.00     0.003 C 
ENDBRANCH   8   9
ENDBRANCH   7   8
ENDBRANCH   1   7
TORSDOF 3
ENDMDL
