MODEL 1
REMARK minimizedAffinity -3.36854887
REMARK minimizedRMSD -1
REMARK  1 active torsions:
REMARK  status: ('A' for Active; 'I' for Inactive)
REMARK    1  A    between atoms: C1_2  and  C2_3 
ROOT
ATOM      1  C2  UNL d   1       0.024  -0.473  -0.918  0.00  0.00    -0.081 A 
ATOM      2  C3  UNL d   1       1.125  -0.753  -0.099  0.00  0.00     0.006 A 
ATOM      3  C4  UNL d   1       1.000  -0.718   1.292  0.00  0.00     0.002 A 
ATOM      4  C5  UNL d   1      -0.229  -0.410   1.887  0.00  0.00    -0.080 A 
ATOM      5  C6  UNL d   1      -0.384  -0.398   3.378  0.00  0.00     0.076 C 
ATOM      6  C7  UNL d   1      -1.324  -0.112   1.068  0.00  0.00     0.002 A 
ATOM      7  C8  UNL d   1      -1.199  -0.147  -0.322  0.00  0.00     0.006 A 
ENDROOT
BRANCH   1   8
ATOM      8  C1  UNL d   1       0.139  -0.573  -2.418  0.00  0.00     0.054 C 
ATOM      9  C   UNL d   1       1.017   0.536  -2.981  0.00  0.00     0.018 C 
ENDBRANCH   1   8
TORSDOF 1
ENDMDL
