MODEL 1
REMARK minimizedAffinity -4.39279222
REMARK minimizedRMSD -1
REMARK  1 active torsions:
REMARK  status: ('A' for Active; 'I' for Inactive)
REMARK    1  A    between atoms: C1_2  and  C2_3 
ROOT
ATOM      1  C2  UNL d   1       0.168  -0.235  -1.234  0.00  0.00    -0.081 A 
ATOM      2  C3  UNL d   1       0.899  -0.608  -0.099  0.00  0.00     0.006 A 
ATOM      3  C4  UNL d   1       0.328  -0.517   1.173  0.00  0.00     0.002 A 
ATOM      4  C5  UNL d   1      -0.985  -0.060   1.330  0.00  0.00    -0.080 A 
ATOM      5  C6  UNL d   1      -1.620   0.014   2.687  0.00  0.00     0.076 C 
ATOM      6  C7  UNL d   1      -1.710   0.329   0.199  0.00  0.00     0.002 A 
ATOM      7  C8  UNL d   1      -1.139   0.239  -1.073  0.00  0.00     0.006 A 
ENDROOT
BRANCH   1   8
ATOM      8  C1  UNL d   1       0.758  -0.393  -2.612  0.00  0.00     0.054 C 
ATOM      9  C   UNL d   1       1.309   0.927  -3.132  0.00  0.00     0.018 C 
ENDBRANCH   1   8
TORSDOF 1
ENDMDL
