MODEL 1
REMARK minimizedAffinity -1.77440143
REMARK minimizedRMSD -1
REMARK  1 active torsions:
REMARK  status: ('A' for Active; 'I' for Inactive)
REMARK    1  A    between atoms: C1_2  and  C2_3 
ROOT
ATOM      1  C2  UNL d   1       0.326  -0.300  -0.899  0.00  0.00    -0.081 A 
ATOM      2  C3  UNL d   1       1.100  -0.412   0.263  0.00  0.00     0.006 A 
ATOM      3  C4  UNL d   1       0.550  -0.114   1.512  0.00  0.00     0.002 A 
ATOM      4  C5  UNL d   1      -0.784   0.291   1.621  0.00  0.00    -0.080 A 
ATOM      5  C6  UNL d   1      -1.396   0.584   2.959  0.00  0.00     0.076 C 
ATOM      6  C7  UNL d   1      -1.553   0.420   0.459  0.00  0.00     0.002 A 
ATOM      7  C8  UNL d   1      -1.003   0.123  -0.790  0.00  0.00     0.006 A 
ENDROOT
BRANCH   1   8
ATOM      8  C1  UNL d   1       0.897  -0.682  -2.240  0.00  0.00     0.054 C 
ATOM      9  C   UNL d   1       0.865   0.491  -3.210  0.00  0.00     0.018 C 
ENDBRANCH   1   8
TORSDOF 1
ENDMDL
