MODEL 1
REMARK minimizedAffinity 5.07102108
REMARK minimizedRMSD -1
REMARK  1 active torsions:
REMARK  status: ('A' for Active; 'I' for Inactive)
REMARK    1  A    between atoms: C1_2  and  C2_3 
ROOT
ATOM      1  C2  UNL d   1       0.006  -0.016  -4.515  0.00  0.00    -0.081 A 
ATOM      2  C3  UNL d   1      -0.214  -1.292  -3.982  0.00  0.00     0.006 A 
ATOM      3  C4  UNL d   1      -1.265  -2.084  -4.450  0.00  0.00     0.002 A 
ATOM      4  C5  UNL d   1      -2.108  -1.617  -5.465  0.00  0.00    -0.080 A 
ATOM      5  C6  UNL d   1      -3.221  -2.469  -5.998  0.00  0.00     0.076 C 
ATOM      6  C7  UNL d   1      -1.898  -0.336  -5.986  0.00  0.00     0.002 A 
ATOM      7  C8  UNL d   1      -0.848   0.457  -5.517  0.00  0.00     0.006 A 
ENDROOT
BRANCH   1   8
ATOM      8  C1  UNL d   1       1.178   0.814  -4.058  0.00  0.00     0.054 C 
ATOM      9  C   UNL d   1       1.581   1.832  -5.115  0.00  0.00     0.018 C 
ENDBRANCH   1   8
TORSDOF 1
ENDMDL
