MODEL 1
REMARK minimizedAffinity -4.57918024
REMARK minimizedRMSD -1
REMARK  1 active torsions:
REMARK  status: ('A' for Active; 'I' for Inactive)
REMARK    1  A    between atoms: C1_2  and  C2_3 
ROOT
ATOM      1  C2  UNL d   1       0.258  -0.131  -1.804  0.00  0.00    -0.081 A 
ATOM      2  C3  UNL d   1      -0.308   1.106  -1.472  0.00  0.00     0.006 A 
ATOM      3  C4  UNL d   1      -0.896   1.303  -0.221  0.00  0.00     0.002 A 
ATOM      4  C5  UNL d   1      -0.922   0.270   0.722  0.00  0.00    -0.080 A 
ATOM      5  C6  UNL d   1      -1.523   0.478   2.081  0.00  0.00     0.076 C 
ATOM      6  C7  UNL d   1      -0.372  -0.971   0.385  0.00  0.00     0.002 A 
ATOM      7  C8  UNL d   1       0.215  -1.169  -0.867  0.00  0.00     0.006 A 
ENDROOT
BRANCH   1   8
ATOM      8  C1  UNL d   1       0.950  -0.327  -3.128  0.00  0.00     0.054 C 
ATOM      9  C   UNL d   1       1.325   1.006  -3.759  0.00  0.00     0.018 C 
ENDBRANCH   1   8
TORSDOF 1
ENDMDL
