MODEL 1
REMARK minimizedAffinity -2.88313913
REMARK minimizedRMSD -1
REMARK  1 active torsions:
REMARK  status: ('A' for Active; 'I' for Inactive)
REMARK    1  A    between atoms: C1_2  and  C2_3 
ROOT
ATOM      1  C2  UNL d   1      -1.304   0.317   0.677  0.00  0.00    -0.081 A 
ATOM      2  C3  UNL d   1       0.029  -0.110   0.621  0.00  0.00     0.006 A 
ATOM      3  C4  UNL d   1       0.793  -0.201   1.787  0.00  0.00     0.002 A 
ATOM      4  C5  UNL d   1       0.236   0.125   3.028  0.00  0.00    -0.080 A 
ATOM      5  C6  UNL d   1       1.036   0.002   4.290  0.00  0.00     0.076 C 
ATOM      6  C7  UNL d   1      -1.090   0.568   3.082  0.00  0.00     0.002 A 
ATOM      7  C8  UNL d   1      -1.854   0.660   1.917  0.00  0.00     0.006 A 
ENDROOT
BRANCH   1   8
ATOM      8  C1  UNL d   1      -2.150   0.355  -0.570  0.00  0.00     0.054 C 
ATOM      9  C   UNL d   1      -3.015  -0.891  -0.690  0.00  0.00     0.018 C 
ENDBRANCH   1   8
TORSDOF 1
ENDMDL
