MODEL 1
REMARK minimizedAffinity -4.04734707
REMARK minimizedRMSD -1
REMARK  1 active torsions:
REMARK  status: ('A' for Active; 'I' for Inactive)
REMARK    1  A    between atoms: C1_2  and  C2_3 
ROOT
ATOM      1  C2  UNL d   1       0.515  -0.144   2.113  0.00  0.00    -0.081 A 
ATOM      2  C3  UNL d   1      -0.667   0.371   2.658  0.00  0.00     0.006 A 
ATOM      3  C4  UNL d   1      -1.723   0.752   1.827  0.00  0.00     0.002 A 
ATOM      4  C5  UNL d   1      -1.618   0.616   0.438  0.00  0.00    -0.080 A 
ATOM      5  C6  UNL d   1      -2.756   0.993  -0.464  0.00  0.00     0.076 C 
ATOM      6  C7  UNL d   1      -0.430   0.118  -0.107  0.00  0.00     0.002 A 
ATOM      7  C8  UNL d   1       0.626  -0.262   0.723  0.00  0.00     0.006 A 
ENDROOT
BRANCH   1   8
ATOM      8  C1  UNL d   1       1.631  -0.616   3.010  0.00  0.00     0.054 C 
ATOM      9  C   UNL d   1       1.143  -0.823   4.437  0.00  0.00     0.018 C 
ENDBRANCH   1   8
TORSDOF 1
ENDMDL
