MODEL 1
REMARK minimizedAffinity -3.82921124
REMARK minimizedRMSD -1
REMARK  1 active torsions:
REMARK  status: ('A' for Active; 'I' for Inactive)
REMARK    1  A    between atoms: C1_2  and  C2_3 
ROOT
ATOM      1  C2  UNL d   1       0.421   0.091   2.006  0.00  0.00    -0.081 A 
ATOM      2  C3  UNL d   1      -0.828   0.533   2.458  0.00  0.00     0.006 A 
ATOM      3  C4  UNL d   1      -1.916   0.598   1.584  0.00  0.00     0.002 A 
ATOM      4  C5  UNL d   1      -1.774   0.215   0.246  0.00  0.00    -0.080 A 
ATOM      5  C6  UNL d   1      -2.941   0.251  -0.696  0.00  0.00     0.076 C 
ATOM      6  C7  UNL d   1      -0.522  -0.211  -0.210  0.00  0.00     0.002 A 
ATOM      7  C8  UNL d   1       0.566  -0.275   0.664  0.00  0.00     0.006 A 
ENDROOT
BRANCH   1   8
ATOM      8  C1  UNL d   1       1.579  -0.042   2.962  0.00  0.00     0.054 C 
ATOM      9  C   UNL d   1       1.210  -0.902   4.162  0.00  0.00     0.018 C 
ENDBRANCH   1   8
TORSDOF 1
ENDMDL
