MODEL 1
REMARK minimizedAffinity -4.95042562
REMARK minimizedRMSD -1
REMARK  0 active torsions:
REMARK  status: ('A' for Active; 'I' for Inactive)
ROOT
ATOM      1  C4' PXY d   1      -1.852  -0.366   2.315  0.00  0.00     0.077 C 
ATOM      2  C1' PXY d   1       1.102  -1.837  -2.431  0.00  0.00     0.077 C 
ATOM      3  C1  PXY d   1       0.322  -1.463  -1.186  0.00  0.00    -0.082 A 
ATOM      4  C2  PXY d   1       0.054  -0.191  -0.939  0.00  0.00     0.003 A 
ATOM      5  C3  PXY d   1      -0.623   0.167   0.198  0.00  0.00     0.003 A 
ATOM      6  C4  PXY d   1      -1.076  -0.790   1.066  0.00  0.00    -0.082 A 
ATOM      7  C5  PXY d   1      -0.816  -2.091   0.816  0.00  0.00     0.003 A 
ATOM      8  C6  PXY d   1      -0.092  -2.431  -0.324  0.00  0.00     0.003 A 
ENDROOT
TORSDOF 0
ENDMDL
