MODEL 1
REMARK minimizedAffinity 3.69521642
REMARK minimizedRMSD -1
REMARK  0 active torsions:
REMARK  status: ('A' for Active; 'I' for Inactive)
ROOT
ATOM      1  C4' PXY d   1      -0.022   2.559   0.323  0.00  0.00     0.077 C 
ATOM      2  C1' PXY d   1      -1.904  -2.895  -0.033  0.00  0.00     0.077 C 
ATOM      3  C1  PXY d   1      -1.402  -1.467   0.050  0.00  0.00    -0.082 A 
ATOM      4  C2  PXY d   1      -1.479  -0.813   1.198  0.00  0.00     0.003 A 
ATOM      5  C3  PXY d   1      -1.059   0.490   1.283  0.00  0.00     0.003 A 
ATOM      6  C4  PXY d   1      -0.507   1.112   0.195  0.00  0.00    -0.082 A 
ATOM      7  C5  PXY d   1      -0.416   0.448  -0.977  0.00  0.00     0.003 A 
ATOM      8  C6  PXY d   1      -0.885  -0.860  -1.052  0.00  0.00     0.003 A 
ENDROOT
TORSDOF 0
ENDMDL
