MODEL 1
REMARK minimizedAffinity -2.94616008
REMARK minimizedRMSD -1
REMARK  0 active torsions:
REMARK  status: ('A' for Active; 'I' for Inactive)
ROOT
ATOM      1  C4' PXY d   1       0.179   0.265  -2.676  0.00  0.00     0.077 C 
ATOM      2  C1' PXY d   1      -1.535  -0.636   2.771  0.00  0.00     0.077 C 
ATOM      3  C1  PXY d   1      -1.086  -0.387   1.344  0.00  0.00    -0.082 A 
ATOM      4  C2  PXY d   1      -1.303  -1.309   0.420  0.00  0.00     0.003 A 
ATOM      5  C3  PXY d   1      -0.875  -1.113  -0.868  0.00  0.00     0.003 A 
ATOM      6  C4  PXY d   1      -0.266   0.060  -1.225  0.00  0.00    -0.082 A 
ATOM      7  C5  PXY d   1      -0.051   1.009  -0.290  0.00  0.00     0.003 A 
ATOM      8  C6  PXY d   1      -0.456   0.775   1.021  0.00  0.00     0.003 A 
ENDROOT
TORSDOF 0
ENDMDL
