MODEL 1
REMARK minimizedAffinity 4.48753834
REMARK minimizedRMSD -1
REMARK  0 active torsions:
REMARK  status: ('A' for Active; 'I' for Inactive)
ROOT
ATOM      1  C4' PXY d   1       0.487  -0.430  -2.239  0.00  0.00     0.077 C 
ATOM      2  C1' PXY d   1      -2.424  -0.221   2.750  0.00  0.00     0.077 C 
ATOM      3  C1  PXY d   1      -1.663  -0.263   1.440  0.00  0.00    -0.082 A 
ATOM      4  C2  PXY d   1      -1.601  -1.393   0.755  0.00  0.00     0.003 A 
ATOM      5  C3  PXY d   1      -0.890  -1.457  -0.415  0.00  0.00     0.003 A 
ATOM      6  C4  PXY d   1      -0.279  -0.339  -0.917  0.00  0.00    -0.082 A 
ATOM      7  C5  PXY d   1      -0.346   0.821  -0.229  0.00  0.00     0.003 A 
ATOM      8  C6  PXY d   1      -1.039   0.854   0.978  0.00  0.00     0.003 A 
ENDROOT
TORSDOF 0
ENDMDL
