MODEL 1
REMARK minimizedAffinity -5.17694235
REMARK minimizedRMSD -1
REMARK  0 active torsions:
REMARK  status: ('A' for Active; 'I' for Inactive)
ROOT
ATOM      1  C4' PXY d   1       0.582  -1.867  -3.287  0.00  0.00     0.077 C 
ATOM      2  C1' PXY d   1      -1.335  -1.596   2.159  0.00  0.00     0.077 C 
ATOM      3  C1  PXY d   1      -0.828  -1.680   0.733  0.00  0.00    -0.082 A 
ATOM      4  C2  PXY d   1      -0.512  -0.570   0.086  0.00  0.00     0.003 A 
ATOM      5  C3  PXY d   1      -0.082  -0.625  -1.215  0.00  0.00     0.003 A 
ATOM      6  C4  PXY d   1       0.075  -1.831  -1.843  0.00  0.00    -0.082 A 
ATOM      7  C5  PXY d   1      -0.236  -2.969  -1.186  0.00  0.00     0.003 A 
ATOM      8  C6  PXY d   1      -0.709  -2.889   0.121  0.00  0.00     0.003 A 
ENDROOT
TORSDOF 0
ENDMDL
