MODEL 1
REMARK minimizedAffinity 3.88177967
REMARK minimizedRMSD -1
REMARK  0 active torsions:
REMARK  status: ('A' for Active; 'I' for Inactive)
ROOT
ATOM      1  C4' PXY d   1      -3.711   0.734   3.068  0.00  0.00     0.077 C 
ATOM      2  C1' PXY d   1       0.611   0.133  -0.723  0.00  0.00     0.077 C 
ATOM      3  C1  PXY d   1      -0.517   0.281   0.279  0.00  0.00    -0.082 A 
ATOM      4  C2  PXY d   1      -1.693   0.734  -0.123  0.00  0.00     0.003 A 
ATOM      5  C3  PXY d   1      -2.715   0.905   0.775  0.00  0.00     0.003 A 
ATOM      6  C4  PXY d   1      -2.546   0.558   2.089  0.00  0.00    -0.082 A 
ATOM      7  C5  PXY d   1      -1.352   0.086   2.505  0.00  0.00     0.003 A 
ATOM      8  C6  PXY d   1      -0.316  -0.041   1.585  0.00  0.00     0.003 A 
ENDROOT
TORSDOF 0
ENDMDL
