MODEL 1
REMARK minimizedAffinity 8.72834206
REMARK minimizedRMSD -1
REMARK  0 active torsions:
REMARK  status: ('A' for Active; 'I' for Inactive)
ROOT
ATOM      1  C4' PXY d   1      -2.139  -0.788   2.630  0.00  0.00     0.077 C 
ATOM      2  C1' PXY d   1       2.229   0.787  -0.814  0.00  0.00     0.077 C 
ATOM      3  C1  PXY d   1       1.091   0.367   0.096  0.00  0.00    -0.082 A 
ATOM      4  C2  PXY d   1      -0.150   0.372  -0.362  0.00  0.00     0.003 A 
ATOM      5  C3  PXY d   1      -1.193   0.026   0.457  0.00  0.00     0.003 A 
ATOM      6  C4  PXY d   1      -0.959  -0.381   1.743  0.00  0.00    -0.082 A 
ATOM      7  C5  PXY d   1       0.306  -0.399   2.216  0.00  0.00     0.003 A 
ATOM      8  C6  PXY d   1       1.347  -0.004   1.380  0.00  0.00     0.003 A 
ENDROOT
TORSDOF 0
ENDMDL
