MODEL 1
REMARK minimizedAffinity -4.08681726
REMARK minimizedRMSD -1
REMARK  0 active torsions:
REMARK  status: ('A' for Active; 'I' for Inactive)
ROOT
ATOM      1  C4' PXY d   1       1.956   2.614  -1.154  0.00  0.00     0.077 C 
ATOM      2  C1' PXY d   1      -0.484   4.722   3.644  0.00  0.00     0.077 C 
ATOM      3  C1  PXY d   1       0.165   4.179   2.386  0.00  0.00    -0.082 A 
ATOM      4  C2  PXY d   1      -0.556   3.471   1.532  0.00  0.00     0.003 A 
ATOM      5  C3  PXY d   1       0.023   2.945   0.405  0.00  0.00     0.003 A 
ATOM      6  C4  PXY d   1       1.340   3.191   0.124  0.00  0.00    -0.082 A 
ATOM      7  C5  PXY d   1       2.080   3.921   0.985  0.00  0.00     0.003 A 
ATOM      8  C6  PXY d   1       1.484   4.411   2.143  0.00  0.00     0.003 A 
ENDROOT
TORSDOF 0
ENDMDL
