MODEL 1
REMARK minimizedAffinity -3.92979074
REMARK minimizedRMSD -1
REMARK  0 active torsions:
REMARK  status: ('A' for Active; 'I' for Inactive)
ROOT
ATOM      1  C4' PXY d   1       0.084   1.903   0.201  0.00  0.00     0.077 C 
ATOM      2  C1' PXY d   1      -0.005  -3.876   0.065  0.00  0.00     0.077 C 
ATOM      3  C1  PXY d   1       0.006  -2.360   0.106  0.00  0.00    -0.082 A 
ATOM      4  C2  PXY d   1       0.799  -1.690  -0.714  0.00  0.00     0.003 A 
ATOM      5  C3  PXY d   1       0.846  -0.320  -0.668  0.00  0.00     0.003 A 
ATOM      6  C4  PXY d   1       0.033   0.372   0.188  0.00  0.00    -0.082 A 
ATOM      7  C5  PXY d   1      -0.787  -0.304   1.021  0.00  0.00     0.003 A 
ATOM      8  C6  PXY d   1      -0.789  -1.696   0.987  0.00  0.00     0.003 A 
ENDROOT
TORSDOF 0
ENDMDL
