MODEL 1
REMARK minimizedAffinity -5.38070631
REMARK minimizedRMSD -1
REMARK  0 active torsions:
REMARK  status: ('A' for Active; 'I' for Inactive)
ROOT
ATOM      1  C4' PXY d   1      -2.543   0.618   2.378  0.00  0.00     0.077 C 
ATOM      2  C1' PXY d   1       0.248  -3.424  -0.669  0.00  0.00     0.077 C 
ATOM      3  C1  PXY d   1      -0.473  -2.357   0.130  0.00  0.00    -0.082 A 
ATOM      4  C2  PXY d   1      -1.533  -2.684   0.851  0.00  0.00     0.003 A 
ATOM      5  C3  PXY d   1      -2.216  -1.725   1.555  0.00  0.00     0.003 A 
ATOM      6  C4  PXY d   1      -1.778  -0.428   1.563  0.00  0.00    -0.082 A 
ATOM      7  C5  PXY d   1      -0.691  -0.088   0.838  0.00  0.00     0.003 A 
ATOM      8  C6  PXY d   1      -0.036  -1.069   0.098  0.00  0.00     0.003 A 
ENDROOT
TORSDOF 0
ENDMDL
