MODEL 1
REMARK minimizedAffinity -4.43759012
REMARK minimizedRMSD -1
REMARK  0 active torsions:
REMARK  status: ('A' for Active; 'I' for Inactive)
ROOT
ATOM      1  C4' PXY d   1       0.163   1.882   0.045  0.00  0.00     0.077 C 
ATOM      2  C1' PXY d   1      -0.310  -3.792  -0.950  0.00  0.00     0.077 C 
ATOM      3  C1  PXY d   1      -0.179  -2.303  -0.700  0.00  0.00    -0.082 A 
ATOM      4  C2  PXY d   1      -0.297  -1.833   0.531  0.00  0.00     0.003 A 
ATOM      5  C3  PXY d   1      -0.213  -0.486   0.771  0.00  0.00     0.003 A 
ATOM      6  C4  PXY d   1       0.047   0.385  -0.253  0.00  0.00    -0.082 A 
ATOM      7  C5  PXY d   1       0.180  -0.087  -1.511  0.00  0.00     0.003 A 
ATOM      8  C6  PXY d   1       0.050  -1.454  -1.739  0.00  0.00     0.003 A 
ENDROOT
TORSDOF 0
ENDMDL
