MODEL 1
REMARK minimizedAffinity -4.70353413
REMARK minimizedRMSD -1
REMARK  0 active torsions:
REMARK  status: ('A' for Active; 'I' for Inactive)
ROOT
ATOM      1  C4' PXY d   1       1.238  -2.681  -2.910  0.00  0.00     0.077 C 
ATOM      2  C1' PXY d   1      -1.122  -1.051   2.109  0.00  0.00     0.077 C 
ATOM      3  C1  PXY d   1      -0.506  -1.467   0.787  0.00  0.00    -0.082 A 
ATOM      4  C2  PXY d   1      -0.441  -2.750   0.471  0.00  0.00     0.003 A 
ATOM      5  C3  PXY d   1       0.142  -3.145  -0.706  0.00  0.00     0.003 A 
ATOM      6  C4  PXY d   1       0.615  -2.215  -1.591  0.00  0.00    -0.082 A 
ATOM      7  C5  PXY d   1       0.543  -0.903  -1.280  0.00  0.00     0.003 A 
ATOM      8  C6  PXY d   1      -0.015  -0.525  -0.063  0.00  0.00     0.003 A 
ENDROOT
TORSDOF 0
ENDMDL
