MODEL 1
REMARK minimizedAffinity 1.04114616
REMARK minimizedRMSD -1
REMARK  0 active torsions:
REMARK  status: ('A' for Active; 'I' for Inactive)
ROOT
ATOM      1  C4' PXY d   1       0.069  -0.400  -1.890  0.00  0.00     0.077 C 
ATOM      2  C1' PXY d   1      -3.176  -0.050   2.880  0.00  0.00     0.077 C 
ATOM      3  C1  PXY d   1      -2.321  -0.154   1.633  0.00  0.00    -0.082 A 
ATOM      4  C2  PXY d   1      -1.908   0.949   1.030  0.00  0.00     0.003 A 
ATOM      5  C3  PXY d   1      -1.160   0.874  -0.118  0.00  0.00     0.003 A 
ATOM      6  C4  PXY d   1      -0.788  -0.343  -0.623  0.00  0.00    -0.082 A 
ATOM      7  C5  PXY d   1      -1.197  -1.473  -0.008  0.00  0.00     0.003 A 
ATOM      8  C6  PXY d   1      -1.989  -1.375   1.132  0.00  0.00     0.003 A 
ENDROOT
TORSDOF 0
ENDMDL
