MODEL 1
REMARK minimizedAffinity -4.23943615
REMARK minimizedRMSD -1
REMARK  0 active torsions:
REMARK  status: ('A' for Active; 'I' for Inactive)
ROOT
ATOM      1  C4' PXY d   1      -0.569  -0.672   2.132  0.00  0.00     0.077 C 
ATOM      2  C1' PXY d   1       0.516  -3.247  -2.929  0.00  0.00     0.077 C 
ATOM      3  C1  PXY d   1       0.241  -2.564  -1.604  0.00  0.00    -0.082 A 
ATOM      4  C2  PXY d   1      -0.408  -3.216  -0.653  0.00  0.00     0.003 A 
ATOM      5  C3  PXY d   1      -0.692  -2.603   0.539  0.00  0.00     0.003 A 
ATOM      6  C4  PXY d   1      -0.262  -1.326   0.782  0.00  0.00    -0.082 A 
ATOM      7  C5  PXY d   1       0.410  -0.657  -0.179  0.00  0.00     0.003 A 
ATOM      8  C6  PXY d   1       0.653  -1.283  -1.398  0.00  0.00     0.003 A 
ENDROOT
TORSDOF 0
ENDMDL
