MODEL 1
REMARK minimizedAffinity -2.65191364
REMARK minimizedRMSD -1
REMARK  0 active torsions:
REMARK  status: ('A' for Active; 'I' for Inactive)
ROOT
ATOM      1  C4' PXY d   1       0.750  -1.874  -3.075  0.00  0.00     0.077 C 
ATOM      2  C1' PXY d   1      -1.500  -1.874   2.249  0.00  0.00     0.077 C 
ATOM      3  C1  PXY d   1      -0.914  -1.862   0.851  0.00  0.00    -0.082 A 
ATOM      4  C2  PXY d   1      -0.769  -3.000   0.192  0.00  0.00     0.003 A 
ATOM      5  C3  PXY d   1      -0.211  -3.011  -1.060  0.00  0.00     0.003 A 
ATOM      6  C4  PXY d   1       0.154  -1.838  -1.666  0.00  0.00    -0.082 A 
ATOM      7  C5  PXY d   1      -0.000  -0.671  -1.004  0.00  0.00     0.003 A 
ATOM      8  C6  PXY d   1      -0.530  -0.686   0.283  0.00  0.00     0.003 A 
ENDROOT
TORSDOF 0
ENDMDL
