MODEL 1
REMARK minimizedAffinity 3.02715373
REMARK minimizedRMSD -1
REMARK  0 active torsions:
REMARK  status: ('A' for Active; 'I' for Inactive)
ROOT
ATOM      1  C4' PXY d   1       1.378  -1.350   3.611  0.00  0.00     0.077 C 
ATOM      2  C1' PXY d   1      -3.222   0.161   0.454  0.00  0.00     0.077 C 
ATOM      3  C1  PXY d   1      -2.024  -0.238   1.292  0.00  0.00    -0.082 A 
ATOM      4  C2  PXY d   1      -0.825   0.232   0.985  0.00  0.00     0.003 A 
ATOM      5  C3  PXY d   1       0.274  -0.143   1.713  0.00  0.00     0.003 A 
ATOM      6  C4  PXY d   1       0.138  -0.967   2.799  0.00  0.00    -0.082 A 
ATOM      7  C5  PXY d   1      -1.083  -1.442   3.125  0.00  0.00     0.003 A 
ATOM      8  C6  PXY d   1      -2.180  -1.081   2.348  0.00  0.00     0.003 A 
ENDROOT
TORSDOF 0
ENDMDL
