MODEL 1
REMARK minimizedAffinity -0.835013211
REMARK minimizedRMSD -1
REMARK  0 active torsions:
REMARK  status: ('A' for Active; 'I' for Inactive)
ROOT
ATOM      1  C4' PXY d   1       0.245   0.106  -1.722  0.00  0.00     0.077 C 
ATOM      2  C1' PXY d   1      -3.364   0.391   2.785  0.00  0.00     0.077 C 
ATOM      3  C1  PXY d   1      -2.416   0.329   1.604  0.00  0.00    -0.082 A 
ATOM      4  C2  PXY d   1      -2.489  -0.687   0.759  0.00  0.00     0.003 A 
ATOM      5  C3  PXY d   1      -1.618  -0.775  -0.296  0.00  0.00     0.003 A 
ATOM      6  C4  PXY d   1      -0.699   0.214  -0.520  0.00  0.00    -0.082 A 
ATOM      7  C5  PXY d   1      -0.626   1.260   0.331  0.00  0.00     0.003 A 
ATOM      8  C6  PXY d   1      -1.491   1.310   1.419  0.00  0.00     0.003 A 
ENDROOT
TORSDOF 0
ENDMDL
