MODEL 1
REMARK minimizedAffinity -3.88770604
REMARK minimizedRMSD -1
REMARK  0 active torsions:
REMARK  status: ('A' for Active; 'I' for Inactive)
ROOT
ATOM      1  C4' PXY d   1       0.754  -2.628  -2.800  0.00  0.00     0.077 C 
ATOM      2  C1' PXY d   1      -1.446  -0.890   2.255  0.00  0.00     0.077 C 
ATOM      3  C1  PXY d   1      -0.865  -1.357   0.935  0.00  0.00    -0.082 A 
ATOM      4  C2  PXY d   1      -0.496  -0.465   0.031  0.00  0.00     0.003 A 
ATOM      5  C3  PXY d   1       0.001  -0.870  -1.181  0.00  0.00     0.003 A 
ATOM      6  C4  PXY d   1       0.172  -2.202  -1.449  0.00  0.00    -0.082 A 
ATOM      7  C5  PXY d   1      -0.192  -3.118  -0.528  0.00  0.00     0.003 A 
ATOM      8  C6  PXY d   1      -0.733  -2.687   0.680  0.00  0.00     0.003 A 
ENDROOT
TORSDOF 0
ENDMDL
