MODEL 1
REMARK minimizedAffinity 7.87401676
REMARK minimizedRMSD -1
REMARK  1 active torsions:
REMARK  status: ('A' for Active; 'I' for Inactive)
REMARK    1  A    between atoms: C1_2  and  C2_3 
ROOT
ATOM      1  C2  UNL d   1      -2.223  -0.305   2.583  0.00  0.00    -0.081 A 
ATOM      2  C3  UNL d   1      -1.999   0.332   1.357  0.00  0.00     0.006 A 
ATOM      3  C4  UNL d   1      -0.702   0.468   0.855  0.00  0.00     0.002 A 
ATOM      4  C5  UNL d   1       0.391  -0.037   1.568  0.00  0.00    -0.080 A 
ATOM      5  C6  UNL d   1       1.785   0.075   1.027  0.00  0.00     0.076 C 
ATOM      6  C7  UNL d   1       0.169  -0.658   2.802  0.00  0.00     0.002 A 
ATOM      7  C8  UNL d   1      -1.127  -0.793   3.304  0.00  0.00     0.006 A 
ENDROOT
BRANCH   1   8
ATOM      8  C1  UNL d   1      -3.626  -0.510   3.096  0.00  0.00     0.054 C 
ATOM      9  C   UNL d   1      -3.793  -1.892   3.713  0.00  0.00     0.018 C 
ENDBRANCH   1   8
TORSDOF 1
ENDMDL
