MODEL 1
REMARK minimizedAffinity 8.68775463
REMARK minimizedRMSD -1
REMARK  1 active torsions:
REMARK  status: ('A' for Active; 'I' for Inactive)
REMARK    1  A    between atoms: C1_2  and  C2_3 
ROOT
ATOM      1  C2  UNL d   1       0.143  -0.493   2.454  0.00  0.00    -0.081 A 
ATOM      2  C3  UNL d   1      -1.171  -0.320   2.903  0.00  0.00     0.006 A 
ATOM      3  C4  UNL d   1      -2.186   0.024   2.006  0.00  0.00     0.002 A 
ATOM      4  C5  UNL d   1      -1.905   0.192   0.646  0.00  0.00    -0.080 A 
ATOM      5  C6  UNL d   1      -2.991   0.531  -0.331  0.00  0.00     0.076 C 
ATOM      6  C7  UNL d   1      -0.588   0.036   0.200  0.00  0.00     0.002 A 
ATOM      7  C8  UNL d   1       0.427  -0.307   1.096  0.00  0.00     0.006 A 
ENDROOT
BRANCH   1   8
ATOM      8  C1  UNL d   1       1.228  -0.927   3.407  0.00  0.00     0.054 C 
ATOM      9  C   UNL d   1       0.642  -1.458   4.707  0.00  0.00     0.018 C 
ENDBRANCH   1   8
TORSDOF 1
ENDMDL
