MODEL 1
REMARK minimizedAffinity 8.87160683
REMARK minimizedRMSD -1
REMARK  1 active torsions:
REMARK  status: ('A' for Active; 'I' for Inactive)
REMARK    1  A    between atoms: C1_2  and  C2_3 
ROOT
ATOM      1  C2  UNL d   1      -0.522  -0.374  -4.196  0.00  0.00    -0.081 A 
ATOM      2  C3  UNL d   1      -1.118  -1.183  -3.221  0.00  0.00     0.006 A 
ATOM      3  C4  UNL d   1      -0.639  -1.181  -1.909  0.00  0.00     0.002 A 
ATOM      4  C5  UNL d   1       0.439  -0.366  -1.549  0.00  0.00    -0.080 A 
ATOM      5  C6  UNL d   1       0.944  -0.332  -0.137  0.00  0.00     0.076 C 
ATOM      6  C7  UNL d   1       1.047   0.429  -2.527  0.00  0.00     0.002 A 
ATOM      7  C8  UNL d   1       0.568   0.427  -3.839  0.00  0.00     0.006 A 
ENDROOT
BRANCH   1   8
ATOM      8  C1  UNL d   1      -1.077  -0.326  -5.597  0.00  0.00     0.054 C 
ATOM      9  C   UNL d   1      -1.946  -1.541  -5.890  0.00  0.00     0.018 C 
ENDBRANCH   1   8
TORSDOF 1
ENDMDL
