MODEL 1
REMARK minimizedAffinity -1.44358897
REMARK minimizedRMSD -1
REMARK  1 active torsions:
REMARK  status: ('A' for Active; 'I' for Inactive)
REMARK    1  A    between atoms: C1_2  and  C2_3 
ROOT
ATOM      1  C2  UNL d   1      -0.503  -0.518   3.522  0.00  0.00    -0.081 A 
ATOM      2  C3  UNL d   1       0.426  -0.760   2.503  0.00  0.00     0.006 A 
ATOM      3  C4  UNL d   1       0.086  -0.535   1.167  0.00  0.00     0.002 A 
ATOM      4  C5  UNL d   1      -1.185  -0.057   0.828  0.00  0.00    -0.080 A 
ATOM      5  C6  UNL d   1      -1.552   0.217  -0.600  0.00  0.00     0.076 C 
ATOM      6  C7  UNL d   1      -2.119   0.169   1.845  0.00  0.00     0.002 A 
ATOM      7  C8  UNL d   1      -1.779  -0.057   3.181  0.00  0.00     0.006 A 
ENDROOT
BRANCH   1   8
ATOM      8  C1  UNL d   1      -0.118  -0.698   4.968  0.00  0.00     0.054 C 
ATOM      9  C   UNL d   1       1.089  -1.613   5.110  0.00  0.00     0.018 C 
ENDBRANCH   1   8
TORSDOF 1
ENDMDL
