MODEL 1
REMARK minimizedAffinity 2.59645534
REMARK minimizedRMSD -1
REMARK  1 active torsions:
REMARK  status: ('A' for Active; 'I' for Inactive)
REMARK    1  A    between atoms: C1_2  and  C2_3 
ROOT
ATOM      1  C2  UNL d   1      -1.210  -0.343   0.744  0.00  0.00    -0.081 A 
ATOM      2  C3  UNL d   1      -2.074  -0.409   1.844  0.00  0.00     0.006 A 
ATOM      3  C4  UNL d   1      -1.622  -0.904   3.070  0.00  0.00     0.002 A 
ATOM      4  C5  UNL d   1      -0.299  -1.334   3.218  0.00  0.00    -0.080 A 
ATOM      5  C6  UNL d   1       0.207  -1.839   4.537  0.00  0.00     0.076 C 
ATOM      6  C7  UNL d   1       0.559  -1.284   2.114  0.00  0.00     0.002 A 
ATOM      7  C8  UNL d   1       0.108  -0.790   0.888  0.00  0.00     0.006 A 
ENDROOT
BRANCH   1   8
ATOM      8  C1  UNL d   1      -1.676   0.251  -0.561  0.00  0.00     0.054 C 
ATOM      9  C   UNL d   1      -0.563   1.038  -1.239  0.00  0.00     0.018 C 
ENDBRANCH   1   8
TORSDOF 1
ENDMDL
