MODEL 1
REMARK minimizedAffinity -4.464077
REMARK minimizedRMSD -1
REMARK  1 active torsions:
REMARK  status: ('A' for Active; 'I' for Inactive)
REMARK    1  A    between atoms: C1_2  and  C2_3 
ROOT
ATOM      1  C2  UNL d   1      -0.005   0.349  -1.972  0.00  0.00    -0.081 A 
ATOM      2  C3  UNL d   1      -0.949   1.333  -1.651  0.00  0.00     0.006 A 
ATOM      3  C4  UNL d   1      -1.510   1.385  -0.374  0.00  0.00     0.002 A 
ATOM      4  C5  UNL d   1      -1.133   0.461   0.606  0.00  0.00    -0.080 A 
ATOM      5  C6  UNL d   1      -1.705   0.525   1.991  0.00  0.00     0.076 C 
ATOM      6  C7  UNL d   1      -0.203  -0.533   0.281  0.00  0.00     0.002 A 
ATOM      7  C8  UNL d   1       0.359  -0.586  -0.997  0.00  0.00     0.006 A 
ENDROOT
BRANCH   1   8
ATOM      8  C1  UNL d   1       0.650   0.329  -3.329  0.00  0.00     0.054 C 
ATOM      9  C   UNL d   1       2.150   0.095  -3.216  0.00  0.00     0.018 C 
ENDBRANCH   1   8
TORSDOF 1
ENDMDL
