MODEL 1
REMARK minimizedAffinity -4.42000866
REMARK minimizedRMSD -1
REMARK  1 active torsions:
REMARK  status: ('A' for Active; 'I' for Inactive)
REMARK    1  A    between atoms: C1_2  and  C2_3 
ROOT
ATOM      1  C2  UNL d   1      -1.060   0.406  -0.061  0.00  0.00    -0.081 A 
ATOM      2  C3  UNL d   1      -0.392  -0.806  -0.278  0.00  0.00     0.006 A 
ATOM      3  C4  UNL d   1       0.440  -0.967  -1.388  0.00  0.00     0.002 A 
ATOM      4  C5  UNL d   1       0.623   0.082  -2.296  0.00  0.00    -0.080 A 
ATOM      5  C6  UNL d   1       1.537  -0.068  -3.476  0.00  0.00     0.076 C 
ATOM      6  C7  UNL d   1      -0.058   1.286  -2.089  0.00  0.00     0.002 A 
ATOM      7  C8  UNL d   1      -0.890   1.448  -0.979  0.00  0.00     0.006 A 
ENDROOT
BRANCH   1   8
ATOM      8  C1  UNL d   1      -1.906   0.604   1.170  0.00  0.00     0.054 C 
ATOM      9  C   UNL d   1      -1.150   0.211   2.431  0.00  0.00     0.018 C 
ENDBRANCH   1   8
TORSDOF 1
ENDMDL
