MODEL 1
REMARK minimizedAffinity -5.3158288
REMARK minimizedRMSD -1
REMARK  1 active torsions:
REMARK  status: ('A' for Active; 'I' for Inactive)
REMARK    1  A    between atoms: C1_2  and  C2_3 
ROOT
ATOM      1  C2  UNL d   1       1.040   0.513  -1.662  0.00  0.00    -0.081 A 
ATOM      2  C3  UNL d   1       1.049  -0.636  -0.862  0.00  0.00     0.006 A 
ATOM      3  C4  UNL d   1       0.187  -0.745   0.231  0.00  0.00     0.002 A 
ATOM      4  C5  UNL d   1      -0.703   0.290   0.540  0.00  0.00    -0.080 A 
ATOM      5  C6  UNL d   1      -1.654   0.173   1.693  0.00  0.00     0.076 C 
ATOM      6  C7  UNL d   1      -0.699   1.446  -0.248  0.00  0.00     0.002 A 
ATOM      7  C8  UNL d   1       0.163   1.555  -1.342  0.00  0.00     0.006 A 
ENDROOT
BRANCH   1   8
ATOM      8  C1  UNL d   1       1.923   0.607  -2.880  0.00  0.00     0.054 C 
ATOM      9  C   UNL d   1       1.105   0.534  -4.162  0.00  0.00     0.018 C 
ENDBRANCH   1   8
TORSDOF 1
ENDMDL
