MODEL 1
REMARK minimizedAffinity -1.89331901
REMARK minimizedRMSD -1
REMARK  1 active torsions:
REMARK  status: ('A' for Active; 'I' for Inactive)
REMARK    1  A    between atoms: C1_2  and  C2_3 
ROOT
ATOM      1  C2  UNL d   1       0.752   0.159  -2.343  0.00  0.00    -0.081 A 
ATOM      2  C3  UNL d   1       0.911  -1.007  -1.582  0.00  0.00     0.006 A 
ATOM      3  C4  UNL d   1       0.287  -1.131  -0.339  0.00  0.00     0.002 A 
ATOM      4  C5  UNL d   1      -0.511  -0.097   0.162  0.00  0.00    -0.080 A 
ATOM      5  C6  UNL d   1      -1.210  -0.230   1.482  0.00  0.00     0.076 C 
ATOM      6  C7  UNL d   1      -0.655   1.074  -0.589  0.00  0.00     0.002 A 
ATOM      7  C8  UNL d   1      -0.032   1.200  -1.833  0.00  0.00     0.006 A 
ENDROOT
BRANCH   1   8
ATOM      8  C1  UNL d   1       1.370   0.270  -3.713  0.00  0.00     0.054 C 
ATOM      9  C   UNL d   1       0.561   1.194  -4.612  0.00  0.00     0.018 C 
ENDBRANCH   1   8
TORSDOF 1
ENDMDL
