MODEL 1
REMARK minimizedAffinity -1.64249682
REMARK minimizedRMSD -1
REMARK  1 active torsions:
REMARK  status: ('A' for Active; 'I' for Inactive)
REMARK    1  A    between atoms: C1_2  and  C2_3 
ROOT
ATOM      1  C2  UNL d   1      -0.218   3.827   1.591  0.00  0.00    -0.081 A 
ATOM      2  C3  UNL d   1       0.975   4.480   1.923  0.00  0.00     0.006 A 
ATOM      3  C4  UNL d   1       2.147   4.220   1.209  0.00  0.00     0.002 A 
ATOM      4  C5  UNL d   1       2.144   3.310   0.146  0.00  0.00    -0.080 A 
ATOM      5  C6  UNL d   1       3.389   3.045  -0.648  0.00  0.00     0.076 C 
ATOM      6  C7  UNL d   1       0.956   2.645  -0.175  0.00  0.00     0.002 A 
ATOM      7  C8  UNL d   1      -0.216   2.903   0.540  0.00  0.00     0.006 A 
ENDROOT
BRANCH   1   8
ATOM      8  C1  UNL d   1      -1.498   4.153   2.317  0.00  0.00     0.054 C 
ATOM      9  C   UNL d   1      -1.393   5.480   3.055  0.00  0.00     0.018 C 
ENDBRANCH   1   8
TORSDOF 1
ENDMDL
