MODEL 1
REMARK minimizedAffinity -1.30771351
REMARK minimizedRMSD -1
REMARK  1 active torsions:
REMARK  status: ('A' for Active; 'I' for Inactive)
REMARK    1  A    between atoms: C1_2  and  C2_3 
ROOT
ATOM      1  C2  UNL d   1       0.313   0.611  -0.323  0.00  0.00    -0.081 A 
ATOM      2  C3  UNL d   1      -0.785   0.134   0.404  0.00  0.00     0.006 A 
ATOM      3  C4  UNL d   1      -1.011  -1.239   0.523  0.00  0.00     0.002 A 
ATOM      4  C5  UNL d   1      -0.141  -2.157  -0.074  0.00  0.00    -0.080 A 
ATOM      5  C6  UNL d   1      -0.356  -3.634   0.072  0.00  0.00     0.076 C 
ATOM      6  C7  UNL d   1       0.946  -1.680  -0.815  0.00  0.00     0.002 A 
ATOM      7  C8  UNL d   1       1.172  -0.307  -0.936  0.00  0.00     0.006 A 
ENDROOT
BRANCH   1   8
ATOM      8  C1  UNL d   1       0.596   2.090  -0.400  0.00  0.00     0.054 C 
ATOM      9  C   UNL d   1       2.012   2.407   0.062  0.00  0.00     0.018 C 
ENDBRANCH   1   8
TORSDOF 1
ENDMDL
