MODEL 1
REMARK minimizedAffinity -3.97403455
REMARK minimizedRMSD -1
REMARK  1 active torsions:
REMARK  status: ('A' for Active; 'I' for Inactive)
REMARK    1  A    between atoms: C1_2  and  C2_3 
ROOT
ATOM      1  C2  UNL d   1       0.911   1.960   0.202  0.00  0.00    -0.081 A 
ATOM      2  C3  UNL d   1       0.677   1.287  -1.003  0.00  0.00     0.006 A 
ATOM      3  C4  UNL d   1       0.368  -0.075  -1.006  0.00  0.00     0.002 A 
ATOM      4  C5  UNL d   1       0.280  -0.785   0.196  0.00  0.00    -0.080 A 
ATOM      5  C6  UNL d   1      -0.081  -2.241   0.208  0.00  0.00     0.076 C 
ATOM      6  C7  UNL d   1       0.530  -0.118   1.399  0.00  0.00     0.002 A 
ATOM      7  C8  UNL d   1       0.840   1.244   1.403  0.00  0.00     0.006 A 
ENDROOT
BRANCH   1   8
ATOM      8  C1  UNL d   1       1.181   3.443   0.213  0.00  0.00     0.054 C 
ATOM      9  C   UNL d   1       2.067   3.835   1.387  0.00  0.00     0.018 C 
ENDBRANCH   1   8
TORSDOF 1
ENDMDL
