MODEL 1
REMARK minimizedAffinity -5.1135087
REMARK minimizedRMSD -1
REMARK  1 active torsions:
REMARK  status: ('A' for Active; 'I' for Inactive)
REMARK    1  A    between atoms: C1_2  and  C2_3 
ROOT
ATOM      1  C2  UNL d   1       0.130   0.887  -0.058  0.00  0.00    -0.081 A 
ATOM      2  C3  UNL d   1       0.831   0.026  -0.910  0.00  0.00     0.006 A 
ATOM      3  C4  UNL d   1       0.628  -1.354  -0.846  0.00  0.00     0.002 A 
ATOM      4  C5  UNL d   1      -0.285  -1.896   0.066  0.00  0.00    -0.080 A 
ATOM      5  C6  UNL d   1      -0.534  -3.374   0.124  0.00  0.00     0.076 C 
ATOM      6  C7  UNL d   1      -0.972  -1.037   0.930  0.00  0.00     0.002 A 
ATOM      7  C8  UNL d   1      -0.769   0.343   0.866  0.00  0.00     0.006 A 
ENDROOT
BRANCH   1   8
ATOM      8  C1  UNL d   1       0.299   2.381  -0.169  0.00  0.00     0.054 C 
ATOM      9  C   UNL d   1       1.769   2.775  -0.149  0.00  0.00     0.018 C 
ENDBRANCH   1   8
TORSDOF 1
ENDMDL
