MODEL 1
REMARK minimizedAffinity -3.33915424
REMARK minimizedRMSD -1
REMARK  1 active torsions:
REMARK  status: ('A' for Active; 'I' for Inactive)
REMARK    1  A    between atoms: C1_2  and  C2_3 
ROOT
ATOM      1  C2  UNL d   1       0.369   0.545   0.009  0.00  0.00    -0.081 A 
ATOM      2  C3  UNL d   1      -0.763   0.027   0.649  0.00  0.00     0.006 A 
ATOM      3  C4  UNL d   1      -0.972  -1.353   0.711  0.00  0.00     0.002 A 
ATOM      4  C5  UNL d   1      -0.049  -2.237   0.142  0.00  0.00    -0.080 A 
ATOM      5  C6  UNL d   1      -0.245  -3.721   0.228  0.00  0.00     0.076 C 
ATOM      6  C7  UNL d   1       1.074  -1.718  -0.513  0.00  0.00     0.002 A 
ATOM      7  C8  UNL d   1       1.282  -0.339  -0.576  0.00  0.00     0.006 A 
ENDROOT
BRANCH   1   8
ATOM      8  C1  UNL d   1       0.630   2.030  -0.004  0.00  0.00     0.054 C 
ATOM      9  C   UNL d   1       1.914   2.372   0.737  0.00  0.00     0.018 C 
ENDBRANCH   1   8
TORSDOF 1
ENDMDL
