MODEL 1
REMARK minimizedAffinity -4.20859528
REMARK minimizedRMSD -1
REMARK  1 active torsions:
REMARK  status: ('A' for Active; 'I' for Inactive)
REMARK    1  A    between atoms: C1_2  and  C2_3 
ROOT
ATOM      1  C2  UNL d   1       0.809   0.559   0.377  0.00  0.00    -0.081 A 
ATOM      2  C3  UNL d   1       0.861  -0.188   1.560  0.00  0.00     0.006 A 
ATOM      3  C4  UNL d   1       0.494  -1.535   1.563  0.00  0.00     0.002 A 
ATOM      4  C5  UNL d   1       0.077  -2.160   0.383  0.00  0.00    -0.080 A 
ATOM      5  C6  UNL d   1      -0.291  -3.614   0.367  0.00  0.00     0.076 C 
ATOM      6  C7  UNL d   1       0.008  -1.410  -0.796  0.00  0.00     0.002 A 
ATOM      7  C8  UNL d   1       0.375  -0.062  -0.799  0.00  0.00     0.006 A 
ENDROOT
BRANCH   1   8
ATOM      8  C1  UNL d   1       1.266   1.996   0.356  0.00  0.00     0.054 C 
ATOM      9  C   UNL d   1       0.372   2.873   1.221  0.00  0.00     0.018 C 
ENDBRANCH   1   8
TORSDOF 1
ENDMDL
