MODEL 1
REMARK minimizedAffinity -2.62377906
REMARK minimizedRMSD -1
REMARK  1 active torsions:
REMARK  status: ('A' for Active; 'I' for Inactive)
REMARK    1  A    between atoms: C1_2  and  C2_3 
ROOT
ATOM      1  C2  UNL d   1      -0.853  -2.215  -0.876  0.00  0.00    -0.081 A 
ATOM      2  C3  UNL d   1      -1.602  -3.089  -0.078  0.00  0.00     0.006 A 
ATOM      3  C4  UNL d   1      -2.015  -2.704   1.199  0.00  0.00     0.002 A 
ATOM      4  C5  UNL d   1      -1.694  -1.436   1.696  0.00  0.00    -0.080 A 
ATOM      5  C6  UNL d   1      -2.158  -0.999   3.054  0.00  0.00     0.076 C 
ATOM      6  C7  UNL d   1      -0.932  -0.570   0.906  0.00  0.00     0.002 A 
ATOM      7  C8  UNL d   1      -0.517  -0.955  -0.370  0.00  0.00     0.006 A 
ENDROOT
BRANCH   1   8
ATOM      8  C1  UNL d   1      -0.461  -2.604  -2.279  0.00  0.00     0.054 C 
ATOM      9  C   UNL d   1       0.232  -1.455  -2.998  0.00  0.00     0.018 C 
ENDBRANCH   1   8
TORSDOF 1
ENDMDL
