MODEL 1
REMARK minimizedAffinity -4.06797123
REMARK minimizedRMSD -1
REMARK  1 active torsions:
REMARK  status: ('A' for Active; 'I' for Inactive)
REMARK    1  A    between atoms: C1_2  and  C2_3 
ROOT
ATOM      1  C2  UNL d   1       0.341   0.790   0.124  0.00  0.00    -0.081 A 
ATOM      2  C3  UNL d   1      -0.440   0.235   1.145  0.00  0.00     0.006 A 
ATOM      3  C4  UNL d   1      -0.554  -1.152   1.275  0.00  0.00     0.002 A 
ATOM      4  C5  UNL d   1       0.117  -2.005   0.393  0.00  0.00    -0.080 A 
ATOM      5  C6  UNL d   1       0.027  -3.495   0.540  0.00  0.00     0.076 C 
ATOM      6  C7  UNL d   1       0.883  -1.451  -0.638  0.00  0.00     0.002 A 
ATOM      7  C8  UNL d   1       0.997  -0.065  -0.769  0.00  0.00     0.006 A 
ENDROOT
BRANCH   1   8
ATOM      8  C1  UNL d   1       0.519   2.283   0.020  0.00  0.00     0.054 C 
ATOM      9  C   UNL d   1       1.900   2.710   0.495  0.00  0.00     0.018 C 
ENDBRANCH   1   8
TORSDOF 1
ENDMDL
