MODEL 1
REMARK minimizedAffinity -3.11054707
REMARK minimizedRMSD -1
REMARK  1 active torsions:
REMARK  status: ('A' for Active; 'I' for Inactive)
REMARK    1  A    between atoms: C1_2  and  C2_3 
ROOT
ATOM      1  C2  UNL d   1       0.569   0.527   0.302  0.00  0.00    -0.081 A 
ATOM      2  C3  UNL d   1       1.317  -0.414  -0.415  0.00  0.00     0.006 A 
ATOM      3  C4  UNL d   1       0.956  -1.764  -0.404  0.00  0.00     0.002 A 
ATOM      4  C5  UNL d   1      -0.162  -2.193   0.318  0.00  0.00    -0.080 A 
ATOM      5  C6  UNL d   1      -0.578  -3.634   0.315  0.00  0.00     0.076 C 
ATOM      6  C7  UNL d   1      -0.899  -1.256   1.050  0.00  0.00     0.002 A 
ATOM      7  C8  UNL d   1      -0.538   0.093   1.039  0.00  0.00     0.006 A 
ENDROOT
BRANCH   1   8
ATOM      8  C1  UNL d   1       0.918   1.992   0.240  0.00  0.00     0.054 C 
ATOM      9  C   UNL d   1       2.306   2.255   0.805  0.00  0.00     0.018 C 
ENDBRANCH   1   8
TORSDOF 1
ENDMDL
