MODEL 1
REMARK minimizedAffinity -4.20625973
REMARK minimizedRMSD -1
REMARK  1 active torsions:
REMARK  status: ('A' for Active; 'I' for Inactive)
REMARK    1  A    between atoms: C1_2  and  C2_3 
ROOT
ATOM      1  C2  UNL d   1      -0.455  -1.751  -0.915  0.00  0.00    -0.081 A 
ATOM      2  C3  UNL d   1      -1.120  -2.578  -0.002  0.00  0.00     0.006 A 
ATOM      3  C4  UNL d   1      -1.795  -2.028   1.091  0.00  0.00     0.002 A 
ATOM      4  C5  UNL d   1      -1.821  -0.643   1.285  0.00  0.00    -0.080 A 
ATOM      5  C6  UNL d   1      -2.567  -0.038   2.437  0.00  0.00     0.076 C 
ATOM      6  C7  UNL d   1      -1.142   0.182   0.382  0.00  0.00     0.002 A 
ATOM      7  C8  UNL d   1      -0.467  -0.367  -0.710  0.00  0.00     0.006 A 
ENDROOT
BRANCH   1   8
ATOM      8  C1  UNL d   1       0.218  -2.336  -2.131  0.00  0.00     0.054 C 
ATOM      9  C   UNL d   1       0.404  -1.288  -3.219  0.00  0.00     0.018 C 
ENDBRANCH   1   8
TORSDOF 1
ENDMDL
