MODEL 1
REMARK minimizedAffinity -1.87436604
REMARK minimizedRMSD -1
REMARK  1 active torsions:
REMARK  status: ('A' for Active; 'I' for Inactive)
REMARK    1  A    between atoms: C1_2  and  C2_3 
ROOT
ATOM      1  C2  UNL d   1      -0.310  -1.545   0.559  0.00  0.00    -0.081 A 
ATOM      2  C3  UNL d   1      -0.543  -0.318  -0.075  0.00  0.00     0.006 A 
ATOM      3  C4  UNL d   1      -1.747   0.363   0.122  0.00  0.00     0.002 A 
ATOM      4  C5  UNL d   1      -2.733  -0.166   0.961  0.00  0.00    -0.080 A 
ATOM      5  C6  UNL d   1      -4.017   0.570   1.205  0.00  0.00     0.076 C 
ATOM      6  C7  UNL d   1      -2.507  -1.399   1.581  0.00  0.00     0.002 A 
ATOM      7  C8  UNL d   1      -1.304  -2.082   1.384  0.00  0.00     0.006 A 
ENDROOT
BRANCH   1   8
ATOM      8  C1  UNL d   1       1.012  -2.250   0.400  0.00  0.00     0.054 C 
ATOM      9  C   UNL d   1       0.914  -3.711   0.818  0.00  0.00     0.018 C 
ENDBRANCH   1   8
TORSDOF 1
ENDMDL
