MODEL 1
REMARK minimizedAffinity -5.37402582
REMARK minimizedRMSD -1
REMARK  1 active torsions:
REMARK  status: ('A' for Active; 'I' for Inactive)
REMARK    1  A    between atoms: C1_2  and  C2_3 
ROOT
ATOM      1  C2  UNL d   1       0.234   0.617  -0.121  0.00  0.00    -0.081 A 
ATOM      2  C3  UNL d   1       0.838  -0.124  -1.144  0.00  0.00     0.006 A 
ATOM      3  C4  UNL d   1       0.795  -1.520  -1.127  0.00  0.00     0.002 A 
ATOM      4  C5  UNL d   1       0.140  -2.197  -0.093  0.00  0.00    -0.080 A 
ATOM      5  C6  UNL d   1       0.060  -3.695  -0.080  0.00  0.00     0.076 C 
ATOM      6  C7  UNL d   1      -0.448  -1.458   0.938  0.00  0.00     0.002 A 
ATOM      7  C8  UNL d   1      -0.405  -0.062   0.923  0.00  0.00     0.006 A 
ENDROOT
BRANCH   1   8
ATOM      8  C1  UNL d   1       0.223   2.124  -0.169  0.00  0.00     0.054 C 
ATOM      9  C   UNL d   1       1.585   2.699   0.194  0.00  0.00     0.018 C 
ENDBRANCH   1   8
TORSDOF 1
ENDMDL
