MODEL 1
REMARK minimizedAffinity -3.89414263
REMARK minimizedRMSD -1
REMARK  1 active torsions:
REMARK  status: ('A' for Active; 'I' for Inactive)
REMARK    1  A    between atoms: C1_2  and  C2_3 
ROOT
ATOM      1  C2  UNL d   1       0.720   1.281   0.019  0.00  0.00    -0.081 A 
ATOM      2  C3  UNL d   1       0.093   0.579  -1.018  0.00  0.00     0.006 A 
ATOM      3  C4  UNL d   1      -0.694  -0.541  -0.740  0.00  0.00     0.002 A 
ATOM      4  C5  UNL d   1      -0.873  -0.973   0.578  0.00  0.00    -0.080 A 
ATOM      5  C6  UNL d   1      -1.740  -2.156   0.892  0.00  0.00     0.076 C 
ATOM      6  C7  UNL d   1      -0.233  -0.283   1.612  0.00  0.00     0.002 A 
ATOM      7  C8  UNL d   1       0.555   0.837   1.336  0.00  0.00     0.006 A 
ENDROOT
BRANCH   1   8
ATOM      8  C1  UNL d   1       1.517   2.527  -0.271  0.00  0.00     0.054 C 
ATOM      9  C   UNL d   1       2.336   2.954   0.939  0.00  0.00     0.018 C 
ENDBRANCH   1   8
TORSDOF 1
ENDMDL
