MODEL 1
REMARK minimizedAffinity -0.879341841
REMARK minimizedRMSD -1
REMARK  2 active torsions:
REMARK  status: ('A' for Active; 'I' for Inactive)
REMARK    1  A    between atoms: C2'_3  and  C1'_4 
REMARK    2  A    between atoms: C1'_4  and  C1_5 
ROOT
ATOM      1  C1  I4B d   1       3.250  -5.959   1.080  0.00  0.00    -0.075 A 
ATOM      2  C2  I4B d   1       4.619  -5.929   0.988  0.00  0.00     0.003 A 
ATOM      3  C3  I4B d   1       5.249  -5.921  -0.280  0.00  0.00     0.002 A 
ATOM      4  C4  I4B d   1       4.478  -5.993  -1.422  0.00  0.00    -0.004 A 
ATOM      5  C5  I4B d   1       3.089  -6.000  -1.328  0.00  0.00     0.002 A 
ATOM      6  C6  I4B d   1       2.471  -5.970  -0.070  0.00  0.00     0.003 A 
ENDROOT
BRANCH   1   7
ATOM      7  C1' I4B d   1       2.619  -6.000   2.435  0.00  0.00     0.060 C 
BRANCH   7   8
ATOM      8  C2' I4B d   1       2.948  -4.701   3.143  0.00  0.00    -0.013 C 
ATOM      9  C4' I4B d   1       1.948  -3.627   2.805  0.00  0.00     0.013 C 
ATOM     10  C3' I4B d   1       2.974  -4.972   4.618  0.00  0.00     0.013 C 
ENDBRANCH   7   8
ENDBRANCH   1   7
TORSDOF 2
ENDMDL
