MODEL 1
REMARK minimizedAffinity 3.77075768
REMARK minimizedRMSD -1
REMARK  2 active torsions:
REMARK  status: ('A' for Active; 'I' for Inactive)
REMARK    1  A    between atoms: C2'_3  and  C1'_4 
REMARK    2  A    between atoms: C1'_4  and  C1_5 
ROOT
ATOM      1  C1  I4B d   1       4.118  -5.136  -1.211  0.00  0.00    -0.075 A 
ATOM      2  C2  I4B d   1       4.096  -3.778  -1.407  0.00  0.00     0.003 A 
ATOM      3  C3  I4B d   1       3.732  -3.246  -2.668  0.00  0.00     0.002 A 
ATOM      4  C4  I4B d   1       3.448  -4.103  -3.711  0.00  0.00    -0.004 A 
ATOM      5  C5  I4B d   1       3.448  -5.479  -3.504  0.00  0.00     0.002 A 
ATOM      6  C6  I4B d   1       3.773  -5.999  -2.243  0.00  0.00     0.003 A 
ENDROOT
BRANCH   1   7
ATOM      7  C1' I4B d   1       4.539  -5.665   0.123  0.00  0.00     0.060 C 
BRANCH   7   8
ATOM      8  C2' I4B d   1       3.287  -5.943   0.931  0.00  0.00    -0.013 C 
ATOM      9  C4' I4B d   1       3.076  -4.891   1.988  0.00  0.00     0.013 C 
ATOM     10  C3' I4B d   1       2.127  -5.999  -0.017  0.00  0.00     0.013 C 
ENDBRANCH   7   8
ENDBRANCH   1   7
TORSDOF 2
ENDMDL
