MODEL 1
REMARK minimizedAffinity 7.80526781
REMARK minimizedRMSD -1
REMARK  2 active torsions:
REMARK  status: ('A' for Active; 'I' for Inactive)
REMARK    1  A    between atoms: C2'_3  and  C1'_4 
REMARK    2  A    between atoms: C1'_4  and  C1_5 
ROOT
ATOM      1  C1  I4B d   1       2.405  -4.253   2.300  0.00  0.00    -0.075 A 
ATOM      2  C2  I4B d   1       3.160  -4.197   3.445  0.00  0.00     0.003 A 
ATOM      3  C3  I4B d   1       3.262  -2.988   4.174  0.00  0.00     0.002 A 
ATOM      4  C4  I4B d   1       2.637  -1.853   3.698  0.00  0.00    -0.004 A 
ATOM      5  C5  I4B d   1       1.852  -1.917   2.550  0.00  0.00     0.002 A 
ATOM      6  C6  I4B d   1       1.725  -3.128   1.853  0.00  0.00     0.003 A 
ENDROOT
BRANCH   1   7
ATOM      7  C1' I4B d   1       2.346  -5.538   1.537  0.00  0.00     0.060 C 
BRANCH   7   8
ATOM      8  C2' I4B d   1       3.167  -5.369   0.274  0.00  0.00    -0.013 C 
ATOM      9  C4' I4B d   1       4.533  -5.985   0.425  0.00  0.00     0.013 C 
ATOM     10  C3' I4B d   1       2.410  -5.999  -0.857  0.00  0.00     0.013 C 
ENDBRANCH   7   8
ENDBRANCH   1   7
TORSDOF 2
ENDMDL
