MODEL 1
REMARK minimizedAffinity 10.8270178
REMARK minimizedRMSD -1
REMARK  2 active torsions:
REMARK  status: ('A' for Active; 'I' for Inactive)
REMARK    1  A    between atoms: C2'_3  and  C1'_4 
REMARK    2  A    between atoms: C1'_4  and  C1_5 
ROOT
ATOM      1  C1  I4B d   1       2.775  -5.959   0.933  0.00  0.00    -0.075 A 
ATOM      2  C2  I4B d   1       4.128  -5.934   0.701  0.00  0.00     0.003 A 
ATOM      3  C3  I4B d   1       4.623  -5.927  -0.626  0.00  0.00     0.002 A 
ATOM      4  C4  I4B d   1       3.738  -5.996  -1.682  0.00  0.00    -0.004 A 
ATOM      5  C5  I4B d   1       2.366  -5.999  -1.445  0.00  0.00     0.002 A 
ATOM      6  C6  I4B d   1       1.881  -5.968  -0.130  0.00  0.00     0.003 A 
ENDROOT
BRANCH   1   7
ATOM      7  C1' I4B d   1       2.287  -5.999   2.347  0.00  0.00     0.060 C 
BRANCH   7   8
ATOM      8  C2' I4B d   1       2.484  -4.622   2.947  0.00  0.00    -0.013 C 
ATOM      9  C4' I4B d   1       1.210  -3.820   2.900  0.00  0.00     0.013 C 
ATOM     10  C3' I4B d   1       2.961  -4.797   4.358  0.00  0.00     0.013 C 
ENDBRANCH   7   8
ENDBRANCH   1   7
TORSDOF 2
ENDMDL
