MODEL 1
REMARK minimizedAffinity 9.91609669
REMARK minimizedRMSD -1
REMARK  2 active torsions:
REMARK  status: ('A' for Active; 'I' for Inactive)
REMARK    1  A    between atoms: C2'_3  and  C1'_4 
REMARK    2  A    between atoms: C1'_4  and  C1_5 
ROOT
ATOM      1  C1  I4B d   1       2.427  -3.728   1.893  0.00  0.00    -0.075 A 
ATOM      2  C2  I4B d   1       1.559  -2.960   1.157  0.00  0.00     0.003 A 
ATOM      3  C3  I4B d   1       1.269  -1.633   1.556  0.00  0.00     0.002 A 
ATOM      4  C4  I4B d   1       1.825  -1.135   2.716  0.00  0.00    -0.004 A 
ATOM      5  C5  I4B d   1       2.722  -1.907   3.448  0.00  0.00     0.002 A 
ATOM      6  C6  I4B d   1       3.036  -3.207   3.028  0.00  0.00     0.003 A 
ENDROOT
BRANCH   1   7
ATOM      7  C1' I4B d   1       2.686  -5.137   1.461  0.00  0.00     0.060 C 
BRANCH   7   8
ATOM      8  C2' I4B d   1       2.413  -5.227  -0.026  0.00  0.00    -0.013 C 
ATOM      9  C4' I4B d   1       3.559  -5.881  -0.752  0.00  0.00     0.013 C 
ATOM     10  C3' I4B d   1       1.141  -5.998  -0.217  0.00  0.00     0.013 C 
ENDBRANCH   7   8
ENDBRANCH   1   7
TORSDOF 2
ENDMDL
