MODEL 1
REMARK minimizedAffinity -2.33756685
REMARK minimizedRMSD -1
REMARK  0 active torsions:
REMARK  status: ('A' for Active; 'I' for Inactive)
ROOT
ATOM      1  N1  IND d   1       0.026  -0.432  -0.632  0.00  0.00    -0.196 N 
ATOM      2  C2  IND d   1       0.683   0.718  -0.974  0.00  0.00     0.054 A 
ATOM      3  C3  IND d   1       0.922   1.468   0.125  0.00  0.00    -0.031 A 
ATOM      4  C4  IND d   1       0.414   0.956   2.597  0.00  0.00     0.051 A 
ATOM      5  C5  IND d   1      -0.209   0.044   3.402  0.00  0.00    -0.031 A 
ATOM      6  C6  IND d   1      -0.794  -1.097   2.894  0.00  0.00     0.015 A 
ATOM      7  C7  IND d   1      -0.769  -1.376   1.557  0.00  0.00    -0.016 A 
ATOM      8  C8  IND d   1      -0.144  -0.449   0.735  0.00  0.00    -0.047 A 
ATOM      9  C9  IND d   1       0.415   0.732   1.240  0.00  0.00    -0.096 A 
ATOM     10  HN1 IND d   1      -0.237  -1.041  -1.179  0.00  0.00     0.298 HD
ENDROOT
TORSDOF 0
ENDMDL
