MODEL 1
REMARK minimizedAffinity -5.15941429
REMARK minimizedRMSD -1
REMARK  0 active torsions:
REMARK  status: ('A' for Active; 'I' for Inactive)
ROOT
ATOM      1  N1  IND d   1       1.123   0.168  -0.727  0.00  0.00    -0.196 N 
ATOM      2  C2  IND d   1      -0.005   0.054  -1.490  0.00  0.00     0.054 A 
ATOM      3  C3  IND d   1      -1.072  -0.236  -0.712  0.00  0.00    -0.031 A 
ATOM      4  C4  IND d   1      -1.214  -0.468   1.848  0.00  0.00     0.051 A 
ATOM      5  C5  IND d   1      -0.438  -0.485   2.973  0.00  0.00    -0.031 A 
ATOM      6  C6  IND d   1       0.925  -0.278   2.921  0.00  0.00     0.015 A 
ATOM      7  C7  IND d   1       1.564  -0.035   1.739  0.00  0.00    -0.016 A 
ATOM      8  C8  IND d   1       0.781  -0.024   0.594  0.00  0.00    -0.047 A 
ATOM      9  C9  IND d   1      -0.597  -0.275   0.635  0.00  0.00    -0.096 A 
ATOM     10  HN1 IND d   1       1.914   0.331  -1.022  0.00  0.00     0.298 HD
ENDROOT
TORSDOF 0
ENDMDL
