MODEL 1
REMARK minimizedAffinity -4.54857922
REMARK minimizedRMSD -1
REMARK  0 active torsions:
REMARK  status: ('A' for Active; 'I' for Inactive)
ROOT
ATOM      1  N1  IND d   1       1.191   1.328   0.185  0.00  0.00    -0.196 N 
ATOM      2  C2  IND d   1       0.778   1.048  -1.088  0.00  0.00     0.054 A 
ATOM      3  C3  IND d   1      -0.186   0.100  -1.072  0.00  0.00    -0.031 A 
ATOM      4  C4  IND d   1      -1.310  -1.055   0.935  0.00  0.00     0.051 A 
ATOM      5  C5  IND d   1      -1.245  -1.155   2.296  0.00  0.00    -0.031 A 
ATOM      6  C6  IND d   1      -0.348  -0.415   3.039  0.00  0.00     0.015 A 
ATOM      7  C7  IND d   1       0.513   0.464   2.446  0.00  0.00    -0.016 A 
ATOM      8  C8  IND d   1       0.454   0.563   1.063  0.00  0.00    -0.047 A 
ATOM      9  C9  IND d   1      -0.425  -0.217   0.300  0.00  0.00    -0.096 A 
ATOM     10  HN1 IND d   1       1.807   1.888   0.401  0.00  0.00     0.298 HD
ENDROOT
TORSDOF 0
ENDMDL
