MODEL 1
REMARK minimizedAffinity -0.645660162
REMARK minimizedRMSD -1
REMARK  0 active torsions:
REMARK  status: ('A' for Active; 'I' for Inactive)
ROOT
ATOM      1  N1  IND d   1       1.459  -0.065  -0.615  0.00  0.00    -0.196 N 
ATOM      2  C2  IND d   1       0.877  -0.545  -1.754  0.00  0.00     0.054 A 
ATOM      3  C3  IND d   1      -0.387  -0.953  -1.500  0.00  0.00    -0.031 A 
ATOM      4  C4  IND d   1      -1.737  -0.830   0.689  0.00  0.00     0.051 A 
ATOM      5  C5  IND d   1      -1.618  -0.502   2.010  0.00  0.00    -0.031 A 
ATOM      6  C6  IND d   1      -0.445   0.000   2.534  0.00  0.00     0.015 A 
ATOM      7  C7  IND d   1       0.655   0.206   1.750  0.00  0.00    -0.016 A 
ATOM      8  C8  IND d   1       0.541  -0.132   0.409  0.00  0.00    -0.047 A 
ATOM      9  C9  IND d   1      -0.634  -0.682  -0.120  0.00  0.00    -0.096 A 
ATOM     10  HN1 IND d   1       2.264   0.230  -0.549  0.00  0.00     0.298 HD
ENDROOT
TORSDOF 0
ENDMDL
