MODEL 1
REMARK minimizedAffinity -3.73408222
REMARK minimizedRMSD -1
REMARK  0 active torsions:
REMARK  status: ('A' for Active; 'I' for Inactive)
ROOT
ATOM      1  N1  IND d   1       1.074   0.975   0.162  0.00  0.00    -0.196 N 
ATOM      2  C2  IND d   1       0.598   0.602  -1.064  0.00  0.00     0.054 A 
ATOM      3  C3  IND d   1      -0.415  -0.283  -0.926  0.00  0.00    -0.031 A 
ATOM      4  C4  IND d   1      -1.523  -1.180   1.218  0.00  0.00     0.051 A 
ATOM      5  C5  IND d   1      -1.410  -1.155   2.580  0.00  0.00    -0.031 A 
ATOM      6  C6  IND d   1      -0.446  -0.402   3.218  0.00  0.00     0.015 A 
ATOM      7  C7  IND d   1       0.438   0.367   2.516  0.00  0.00    -0.016 A 
ATOM      8  C8  IND d   1       0.331   0.339   1.133  0.00  0.00    -0.047 A 
ATOM      9  C9  IND d   1      -0.618  -0.456   0.477  0.00  0.00    -0.096 A 
ATOM     10  HN1 IND d   1       1.727   1.516   0.303  0.00  0.00     0.298 HD
ENDROOT
TORSDOF 0
ENDMDL
