MODEL 1
REMARK minimizedAffinity -4.90829849
REMARK minimizedRMSD -1
REMARK  0 active torsions:
REMARK  status: ('A' for Active; 'I' for Inactive)
ROOT
ATOM      1  N1  IND d   1       0.785  -0.171   1.820  0.00  0.00    -0.196 N 
ATOM      2  C2  IND d   1       0.148  -0.412   3.005  0.00  0.00     0.054 A 
ATOM      3  C3  IND d   1      -1.190  -0.301   2.851  0.00  0.00    -0.031 A 
ATOM      4  C4  IND d   1      -2.558   0.169   0.721  0.00  0.00     0.051 A 
ATOM      5  C5  IND d   1      -2.418   0.493  -0.600  0.00  0.00    -0.031 A 
ATOM      6  C6  IND d   1      -1.178   0.611  -1.194  0.00  0.00     0.015 A 
ATOM      7  C7  IND d   1      -0.027   0.399  -0.489  0.00  0.00    -0.016 A 
ATOM      8  C8  IND d   1      -0.165   0.077   0.854  0.00  0.00    -0.047 A 
ATOM      9  C9  IND d   1      -1.420  -0.003   1.472  0.00  0.00    -0.096 A 
ATOM     10  HN1 IND d   1       1.636  -0.174   1.698  0.00  0.00     0.298 HD
ENDROOT
TORSDOF 0
ENDMDL
