MODEL 1
REMARK minimizedAffinity -5.98769426
REMARK minimizedRMSD -1
REMARK  0 active torsions:
REMARK  status: ('A' for Active; 'I' for Inactive)
ROOT
ATOM      1  N1  IND d   1      -0.897   0.505  -0.881  0.00  0.00    -0.196 N 
ATOM      2  C2  IND d   1       0.462   0.621  -0.797  0.00  0.00     0.054 A 
ATOM      3  C3  IND d   1       0.867   0.491   0.486  0.00  0.00    -0.031 A 
ATOM      4  C4  IND d   1      -0.518  -0.018   2.595  0.00  0.00     0.051 A 
ATOM      5  C5  IND d   1      -1.806  -0.173   3.027  0.00  0.00    -0.031 A 
ATOM      6  C6  IND d   1      -2.878  -0.111   2.160  0.00  0.00     0.015 A 
ATOM      7  C7  IND d   1      -2.700   0.097   0.821  0.00  0.00    -0.016 A 
ATOM      8  C8  IND d   1      -1.395   0.262   0.381  0.00  0.00    -0.047 A 
ATOM      9  C9  IND d   1      -0.306   0.243   1.262  0.00  0.00    -0.096 A 
ATOM     10  HN1 IND d   1      -1.363   0.572  -1.600  0.00  0.00     0.298 HD
ENDROOT
TORSDOF 0
ENDMDL
