MODEL 1
REMARK minimizedAffinity -5.23459101
REMARK minimizedRMSD -1
REMARK  0 active torsions:
REMARK  status: ('A' for Active; 'I' for Inactive)
ROOT
ATOM      1  N1  IND d   1       0.275   1.010  -0.710  0.00  0.00    -0.196 N 
ATOM      2  C2  IND d   1      -1.035   0.824  -1.053  0.00  0.00     0.054 A 
ATOM      3  C3  IND d   1      -1.721   0.286  -0.020  0.00  0.00    -0.031 A 
ATOM      4  C4  IND d   1      -0.916  -0.276   2.360  0.00  0.00     0.051 A 
ATOM      5  C5  IND d   1       0.208  -0.316   3.136  0.00  0.00    -0.031 A 
ATOM      6  C6  IND d   1       1.437   0.095   2.661  0.00  0.00     0.015 A 
ATOM      7  C7  IND d   1       1.585   0.574   1.390  0.00  0.00    -0.016 A 
ATOM      8  C8  IND d   1       0.447   0.609   0.597  0.00  0.00    -0.047 A 
ATOM      9  C9  IND d   1      -0.794   0.153   1.060  0.00  0.00    -0.096 A 
ATOM     10  HN1 IND d   1       0.889   1.323  -1.224  0.00  0.00     0.298 HD
ENDROOT
TORSDOF 0
ENDMDL
