MODEL 1
REMARK minimizedAffinity -4.52970314
REMARK minimizedRMSD -1
REMARK  0 active torsions:
REMARK  status: ('A' for Active; 'I' for Inactive)
ROOT
ATOM      1  N1  IND d   1      -0.626  -1.238  -0.995  0.00  0.00    -0.196 N 
ATOM      2  C2  IND d   1       0.316  -0.676  -1.811  0.00  0.00     0.054 A 
ATOM      3  C3  IND d   1       1.143   0.119  -1.096  0.00  0.00    -0.031 A 
ATOM      4  C4  IND d   1       1.197   0.564   1.439  0.00  0.00     0.051 A 
ATOM      5  C5  IND d   1       0.514   0.303   2.593  0.00  0.00    -0.031 A 
ATOM      6  C6  IND d   1      -0.605  -0.504   2.612  0.00  0.00     0.015 A 
ATOM      7  C7  IND d   1      -1.078  -1.091   1.473  0.00  0.00    -0.016 A 
ATOM      8  C8  IND d   1      -0.391  -0.823   0.297  0.00  0.00    -0.047 A 
ATOM      9  C9  IND d   1       0.720   0.030   0.266  0.00  0.00    -0.096 A 
ATOM     10  HN1 IND d   1      -1.259  -1.764  -1.247  0.00  0.00     0.298 HD
ENDROOT
TORSDOF 0
ENDMDL
