MODEL 1
REMARK minimizedAffinity -2.81289291
REMARK minimizedRMSD -1
REMARK  0 active torsions:
REMARK  status: ('A' for Active; 'I' for Inactive)
ROOT
ATOM      1  N1  IND d   1      -0.662  -0.456  -1.390  0.00  0.00    -0.196 N 
ATOM      2  C2  IND d   1       0.432  -0.074  -2.115  0.00  0.00     0.054 A 
ATOM      3  C3  IND d   1       1.432   0.311  -1.290  0.00  0.00    -0.031 A 
ATOM      4  C4  IND d   1       1.525   0.301   1.283  0.00  0.00     0.051 A 
ATOM      5  C5  IND d   1       0.754   0.071   2.388  0.00  0.00    -0.031 A 
ATOM      6  C6  IND d   1      -0.554  -0.357   2.288  0.00  0.00     0.015 A 
ATOM      7  C7  IND d   1      -1.139  -0.584   1.074  0.00  0.00    -0.016 A 
ATOM      8  C8  IND d   1      -0.361  -0.345  -0.050  0.00  0.00    -0.047 A 
ATOM      9  C9  IND d   1       0.953   0.131   0.044  0.00  0.00    -0.096 A 
ATOM     10  HN1 IND d   1      -1.413  -0.720  -1.716  0.00  0.00     0.298 HD
ENDROOT
TORSDOF 0
ENDMDL
