MODEL 1
REMARK minimizedAffinity -4.45603418
REMARK minimizedRMSD -1
REMARK  0 active torsions:
REMARK  status: ('A' for Active; 'I' for Inactive)
ROOT
ATOM      1  N1  IND d   1      -1.194   0.011  -1.277  0.00  0.00    -0.196 N 
ATOM      2  C2  IND d   1      -0.070   0.367  -1.968  0.00  0.00     0.054 A 
ATOM      3  C3  IND d   1       0.997   0.414  -1.139  0.00  0.00    -0.031 A 
ATOM      4  C4  IND d   1       1.145  -0.155   1.368  0.00  0.00     0.051 A 
ATOM      5  C5  IND d   1       0.373  -0.494   2.443  0.00  0.00    -0.031 A 
ATOM      6  C6  IND d   1      -0.988  -0.689   2.330  0.00  0.00     0.015 A 
ATOM      7  C7  IND d   1      -1.629  -0.563   1.130  0.00  0.00    -0.016 A 
ATOM      8  C8  IND d   1      -0.849  -0.211   0.038  0.00  0.00    -0.047 A 
ATOM      9  C9  IND d   1       0.526   0.030   0.154  0.00  0.00    -0.096 A 
ATOM     10  HN1 IND d   1      -1.984  -0.063  -1.609  0.00  0.00     0.298 HD
ENDROOT
TORSDOF 0
ENDMDL
