MODEL 1
REMARK minimizedAffinity -2.35856199
REMARK minimizedRMSD -1
REMARK  0 active torsions:
REMARK  status: ('A' for Active; 'I' for Inactive)
ROOT
ATOM      1  N1  IND d   1      -1.631  -0.530   2.016  0.00  0.00    -0.196 N 
ATOM      2  C2  IND d   1      -0.927  -0.380   3.178  0.00  0.00     0.054 A 
ATOM      3  C3  IND d   1       0.354  -0.040   2.910  0.00  0.00    -0.031 A 
ATOM      4  C4  IND d   1       1.485   0.423   0.644  0.00  0.00     0.051 A 
ATOM      5  C5  IND d   1       1.256   0.380  -0.702  0.00  0.00    -0.031 A 
ATOM      6  C6  IND d   1       0.028   0.026  -1.222  0.00  0.00     0.015 A 
ATOM      7  C7  IND d   1      -1.025  -0.288  -0.411  0.00  0.00    -0.016 A 
ATOM      8  C8  IND d   1      -0.795  -0.251   0.957  0.00  0.00    -0.047 A 
ATOM      9  C9  IND d   1       0.461   0.066   1.490  0.00  0.00    -0.096 A 
ATOM     10  HN1 IND d   1      -2.458  -0.760   1.956  0.00  0.00     0.298 HD
ENDROOT
TORSDOF 0
ENDMDL
