MODEL 1
REMARK minimizedAffinity -0.998311222
REMARK minimizedRMSD -1
REMARK  0 active torsions:
REMARK  status: ('A' for Active; 'I' for Inactive)
ROOT
ATOM      1  N1  IND d   1      -0.089  -1.280  -0.991  0.00  0.00    -0.196 N 
ATOM      2  C2  IND d   1      -0.502   0.020  -0.894  0.00  0.00     0.054 A 
ATOM      3  C3  IND d   1      -0.018   0.745  -1.928  0.00  0.00    -0.031 A 
ATOM      4  C4  IND d   1       1.388  -0.018  -3.945  0.00  0.00     0.051 A 
ATOM      5  C5  IND d   1       2.041  -1.106  -4.453  0.00  0.00    -0.031 A 
ATOM      6  C6  IND d   1       2.015  -2.333  -3.821  0.00  0.00     0.015 A 
ATOM      7  C7  IND d   1       1.322  -2.521  -2.659  0.00  0.00    -0.016 A 
ATOM      8  C8  IND d   1       0.663  -1.417  -2.137  0.00  0.00    -0.047 A 
ATOM      9  C9  IND d   1       0.721  -0.159  -2.750  0.00  0.00    -0.096 A 
ATOM     10  HN1 IND d   1      -0.270  -1.906  -0.430  0.00  0.00     0.298 HD
ENDROOT
TORSDOF 0
ENDMDL
