MODEL 1
REMARK minimizedAffinity -4.34274244
REMARK minimizedRMSD -1
REMARK  0 active torsions:
REMARK  status: ('A' for Active; 'I' for Inactive)
ROOT
ATOM      1  N1  IND d   1      -0.909   0.437  -1.173  0.00  0.00    -0.196 N 
ATOM      2  C2  IND d   1       0.416   0.738  -1.323  0.00  0.00     0.054 A 
ATOM      3  C3  IND d   1       1.070   0.580  -0.151  0.00  0.00    -0.031 A 
ATOM      4  C4  IND d   1       0.184  -0.261   2.116  0.00  0.00     0.051 A 
ATOM      5  C5  IND d   1      -0.968  -0.624   2.754  0.00  0.00    -0.031 A 
ATOM      6  C6  IND d   1      -2.184  -0.656   2.102  0.00  0.00     0.015 A 
ATOM      7  C7  IND d   1      -2.291  -0.334   0.779  0.00  0.00    -0.016 A 
ATOM      8  C8  IND d   1      -1.124   0.042   0.129  0.00  0.00    -0.047 A 
ATOM      9  C9  IND d   1       0.106   0.117   0.796  0.00  0.00    -0.096 A 
ATOM     10  HN1 IND d   1      -1.508   0.486  -1.789  0.00  0.00     0.298 HD
ENDROOT
TORSDOF 0
ENDMDL
