MODEL 1
REMARK minimizedAffinity -4.46824408
REMARK minimizedRMSD -1
REMARK  0 active torsions:
REMARK  status: ('A' for Active; 'I' for Inactive)
ROOT
ATOM      1  N1  IND d   1      -1.692  -0.480   2.477  0.00  0.00    -0.196 N 
ATOM      2  C2  IND d   1      -0.365  -0.751   2.663  0.00  0.00     0.054 A 
ATOM      3  C3  IND d   1       0.322  -0.551   1.516  0.00  0.00    -0.031 A 
ATOM      4  C4  IND d   1      -0.511   0.319  -0.759  0.00  0.00     0.051 A 
ATOM      5  C5  IND d   1      -1.652   0.668  -1.427  0.00  0.00    -0.031 A 
ATOM      6  C6  IND d   1      -2.888   0.654  -0.814  0.00  0.00     0.015 A 
ATOM      7  C7  IND d   1      -3.029   0.301   0.498  0.00  0.00    -0.016 A 
ATOM      8  C8  IND d   1      -1.875  -0.061   1.177  0.00  0.00    -0.047 A 
ATOM      9  C9  IND d   1      -0.623  -0.090   0.549  0.00  0.00    -0.096 A 
ATOM     10  HN1 IND d   1      -2.308  -0.558   3.071  0.00  0.00     0.298 HD
ENDROOT
TORSDOF 0
ENDMDL
