MODEL 1
REMARK minimizedAffinity 0.811825097
REMARK minimizedRMSD -1
REMARK  0 active torsions:
REMARK  status: ('A' for Active; 'I' for Inactive)
ROOT
ATOM      1  C1  DEN d   1      -0.558   0.194   3.344  0.00  0.00     0.130 A 
ATOM      2  C2  DEN d   1       0.640  -0.541   2.947  0.00  0.00    -0.031 A 
ATOM      3  C3  DEN d   1       0.440  -1.027   1.567  0.00  0.00     0.027 A 
ATOM      4  C4  DEN d   1      -1.595  -0.712   0.014  0.00  0.00     0.027 A 
ATOM      5  C5  DEN d   1      -2.857  -0.169  -0.086  0.00  0.00    -0.003 A 
ATOM      6  C6  DEN d   1      -3.450   0.498   0.953  0.00  0.00     0.001 A 
ATOM      7  C7  DEN d   1      -2.762   0.678   2.124  0.00  0.00     0.017 A 
ATOM      8  C8  DEN d   1      -1.492   0.128   2.235  0.00  0.00    -0.094 A 
ATOM      9  C9  DEN d   1      -0.905  -0.532   1.169  0.00  0.00    -0.072 A 
ENDROOT
TORSDOF 0
ENDMDL
