MODEL 1
REMARK minimizedAffinity 2.15165734
REMARK minimizedRMSD -1
REMARK  0 active torsions:
REMARK  status: ('A' for Active; 'I' for Inactive)
ROOT
ATOM      1  C1  DEN d   1       1.580  -0.105   2.262  0.00  0.00     0.130 A 
ATOM      2  C2  DEN d   1       1.418   1.309   1.935  0.00  0.00    -0.031 A 
ATOM      3  C3  DEN d   1      -0.025   1.577   1.769  0.00  0.00     0.027 A 
ATOM      4  C4  DEN d   1      -2.013  -0.052   1.990  0.00  0.00     0.027 A 
ATOM      5  C5  DEN d   1      -2.371  -1.358   2.243  0.00  0.00    -0.003 A 
ATOM      6  C6  DEN d   1      -1.444  -2.336   2.485  0.00  0.00     0.001 A 
ATOM      7  C7  DEN d   1      -0.113  -2.015   2.523  0.00  0.00     0.017 A 
ATOM      8  C8  DEN d   1       0.257  -0.702   2.262  0.00  0.00    -0.094 A 
ATOM      9  C9  DEN d   1      -0.697   0.275   2.032  0.00  0.00    -0.072 A 
ENDROOT
TORSDOF 0
ENDMDL
