MODEL 1
REMARK minimizedAffinity -0.702937901
REMARK minimizedRMSD -1
REMARK  0 active torsions:
REMARK  status: ('A' for Active; 'I' for Inactive)
ROOT
ATOM      1  C1  DEN d   1       1.446   0.269   2.250  0.00  0.00     0.130 A 
ATOM      2  C2  DEN d   1       2.226  -0.723   2.984  0.00  0.00    -0.031 A 
ATOM      3  C3  DEN d   1       1.307  -1.792   3.425  0.00  0.00     0.027 A 
ATOM      4  C4  DEN d   1      -1.234  -2.007   3.040  0.00  0.00     0.027 A 
ATOM      5  C5  DEN d   1      -2.340  -1.405   2.481  0.00  0.00    -0.003 A 
ATOM      6  C6  DEN d   1      -2.268  -0.196   1.841  0.00  0.00     0.001 A 
ATOM      7  C7  DEN d   1      -1.056   0.428   1.705  0.00  0.00     0.017 A 
ATOM      8  C8  DEN d   1       0.062  -0.169   2.271  0.00  0.00    -0.094 A 
ATOM      9  C9  DEN d   1      -0.029  -1.397   2.904  0.00  0.00    -0.072 A 
ENDROOT
TORSDOF 0
ENDMDL
