MODEL 1
REMARK minimizedAffinity 5.42864132
REMARK minimizedRMSD -1
REMARK  0 active torsions:
REMARK  status: ('A' for Active; 'I' for Inactive)
ROOT
ATOM      1  C1  DEN d   1       1.233  -1.225   5.933  0.00  0.00     0.130 A 
ATOM      2  C2  DEN d   1       2.578  -0.656   5.948  0.00  0.00    -0.031 A 
ATOM      3  C3  DEN d   1       3.032  -0.522   4.549  0.00  0.00     0.027 A 
ATOM      4  C4  DEN d   1       1.789  -1.134   2.374  0.00  0.00     0.027 A 
ATOM      5  C5  DEN d   1       0.626  -1.660   1.855  0.00  0.00    -0.003 A 
ATOM      6  C6  DEN d   1      -0.394  -2.105   2.654  0.00  0.00     0.001 A 
ATOM      7  C7  DEN d   1      -0.289  -1.991   4.015  0.00  0.00     0.017 A 
ATOM      8  C8  DEN d   1       0.884  -1.469   4.546  0.00  0.00    -0.094 A 
ATOM      9  C9  DEN d   1       1.898  -1.013   3.721  0.00  0.00    -0.072 A 
ENDROOT
TORSDOF 0
ENDMDL
