MODEL 1
REMARK minimizedAffinity 3.27232623
REMARK minimizedRMSD -1
REMARK  0 active torsions:
REMARK  status: ('A' for Active; 'I' for Inactive)
ROOT
ATOM      1  C1  DEN d   1       0.667  -2.590   3.673  0.00  0.00     0.130 A 
ATOM      2  C2  DEN d   1       1.870  -1.794   3.446  0.00  0.00    -0.031 A 
ATOM      3  C3  DEN d   1       1.494  -0.619   2.635  0.00  0.00     0.027 A 
ATOM      4  C4  DEN d   1      -0.823   0.044   1.717  0.00  0.00     0.027 A 
ATOM      5  C5  DEN d   1      -2.148  -0.325   1.640  0.00  0.00    -0.003 A 
ATOM      6  C6  DEN d   1      -2.617  -1.483   2.201  0.00  0.00     0.001 A 
ATOM      7  C7  DEN d   1      -1.763  -2.291   2.904  0.00  0.00     0.017 A 
ATOM      8  C8  DEN d   1      -0.424  -1.929   2.980  0.00  0.00    -0.094 A 
ATOM      9  C9  DEN d   1       0.028  -0.748   2.416  0.00  0.00    -0.072 A 
ENDROOT
TORSDOF 0
ENDMDL
