MODEL 1
REMARK minimizedAffinity -4.65433979
REMARK minimizedRMSD -1
REMARK  0 active torsions:
REMARK  status: ('A' for Active; 'I' for Inactive)
ROOT
ATOM      1  C1  DEN d   1      -3.903  -0.080  -0.671  0.00  0.00     0.130 A 
ATOM      2  C2  DEN d   1      -4.904  -0.024   0.391  0.00  0.00    -0.031 A 
ATOM      3  C3  DEN d   1      -4.221  -0.274   1.676  0.00  0.00     0.027 A 
ATOM      4  C4  DEN d   1      -1.723  -0.736   2.123  0.00  0.00     0.027 A 
ATOM      5  C5  DEN d   1      -0.487  -0.893   1.534  0.00  0.00    -0.003 A 
ATOM      6  C6  DEN d   1      -0.311  -0.825   0.178  0.00  0.00     0.001 A 
ATOM      7  C7  DEN d   1      -1.380  -0.548  -0.633  0.00  0.00     0.017 A 
ATOM      8  C8  DEN d   1      -2.630  -0.396  -0.047  0.00  0.00    -0.094 A 
ATOM      9  C9  DEN d   1      -2.786  -0.457   1.327  0.00  0.00    -0.072 A 
ENDROOT
TORSDOF 0
ENDMDL
