MODEL 1
REMARK minimizedAffinity 4.60956335
REMARK minimizedRMSD -1
REMARK  0 active torsions:
REMARK  status: ('A' for Active; 'I' for Inactive)
ROOT
ATOM      1  C   UNL d   1      -3.053  -5.671  -3.631  0.00  0.00     0.124 A 
ATOM      2  C1  UNL d   1      -2.339  -5.741  -4.819  0.00  0.00     0.062 A 
ATOM      3  C2  UNL d   1      -0.960  -5.548  -4.819  0.00  0.00     0.162 A 
ATOM      4  C3  UNL d   1      -0.287  -5.284  -3.627  0.00  0.00    -0.034 A 
ATOM      5  C4  UNL d   1      -1.012  -5.214  -2.436  0.00  0.00     0.162 A 
ATOM      6  C5  UNL d   1      -2.390  -5.408  -2.441  0.00  0.00     0.062 A 
ATOM      7  F   UNL d   1      -3.078  -5.339  -1.293  0.00  0.00    -0.097 F 
ATOM      8  F1  UNL d   1      -0.396  -4.962  -1.272  0.00  0.00    -0.096 F 
ATOM      9  I   UNL d   1       1.774  -4.994  -3.623  0.00  0.00    -0.060 I 
ATOM     10  F2  UNL d   1      -0.296  -5.622  -5.982  0.00  0.00    -0.096 F 
ATOM     11  F3  UNL d   1      -2.978  -5.995  -5.970  0.00  0.00    -0.097 F 
ATOM     12  F4  UNL d   1      -4.380  -5.856  -3.634  0.00  0.00    -0.092 F 
ENDROOT
TORSDOF 0
ENDMDL
