MODEL 1
REMARK minimizedAffinity 14.1573801
REMARK minimizedRMSD -1
REMARK  0 active torsions:
REMARK  status: ('A' for Active; 'I' for Inactive)
ROOT
ATOM      1  C   UNL d   1       1.997   0.455  -0.114  0.00  0.00     0.124 A 
ATOM      2  C1  UNL d   1       0.661   0.701  -0.399  0.00  0.00     0.062 A 
ATOM      3  C2  UNL d   1      -0.292  -0.295  -0.202  0.00  0.00     0.162 A 
ATOM      4  C3  UNL d   1       0.088  -1.545   0.286  0.00  0.00    -0.034 A 
ATOM      5  C4  UNL d   1       1.433  -1.785   0.570  0.00  0.00     0.162 A 
ATOM      6  C5  UNL d   1       2.381  -0.787   0.371  0.00  0.00     0.062 A 
ATOM      7  F   UNL d   1       3.672  -1.027   0.647  0.00  0.00    -0.097 F 
ATOM      8  F1  UNL d   1       1.832  -2.976   1.040  0.00  0.00    -0.096 F 
ATOM      9  I   UNL d   1      -1.334  -3.036   0.583  0.00  0.00    -0.060 I 
ATOM     10  F2  UNL d   1      -1.576  -0.029  -0.486  0.00  0.00    -0.096 F 
ATOM     11  F3  UNL d   1       0.287   1.900  -0.868  0.00  0.00    -0.097 F 
ATOM     12  F4  UNL d   1       2.911   1.414  -0.306  0.00  0.00    -0.092 F 
ENDROOT
TORSDOF 0
ENDMDL
