MODEL 1
REMARK minimizedAffinity 10.998045
REMARK minimizedRMSD -1
REMARK  0 active torsions:
REMARK  status: ('A' for Active; 'I' for Inactive)
ROOT
ATOM      1  C   UNL d   1      -3.825   0.709  -1.813  0.00  0.00     0.124 A 
ATOM      2  C1  UNL d   1      -3.287   0.035  -0.726  0.00  0.00     0.062 A 
ATOM      3  C2  UNL d   1      -1.913  -0.171  -0.640  0.00  0.00     0.162 A 
ATOM      4  C3  UNL d   1      -1.067   0.298  -1.645  0.00  0.00    -0.034 A 
ATOM      5  C4  UNL d   1      -1.616   0.973  -2.737  0.00  0.00     0.162 A 
ATOM      6  C5  UNL d   1      -2.990   1.177  -2.818  0.00  0.00     0.062 A 
ATOM      7  F   UNL d   1      -3.508   1.827  -3.869  0.00  0.00    -0.097 F 
ATOM      8  F1  UNL d   1      -0.832   1.437  -3.721  0.00  0.00    -0.096 F 
ATOM      9  I   UNL d   1       0.988  -0.008  -1.521  0.00  0.00    -0.060 I 
ATOM     10  F2  UNL d   1      -1.420  -0.824   0.422  0.00  0.00    -0.096 F 
ATOM     11  F3  UNL d   1      -4.092  -0.419   0.246  0.00  0.00    -0.097 F 
ATOM     12  F4  UNL d   1      -5.148   0.905  -1.894  0.00  0.00    -0.092 F 
ENDROOT
TORSDOF 0
ENDMDL
