MODEL 1
REMARK minimizedAffinity 2.58245301
REMARK minimizedRMSD -1
REMARK  0 active torsions:
REMARK  status: ('A' for Active; 'I' for Inactive)
ROOT
ATOM      1  C   UNL d   1       2.827  -1.246   3.006  0.00  0.00     0.124 A 
ATOM      2  C1  UNL d   1       1.449  -1.154   2.872  0.00  0.00     0.062 A 
ATOM      3  C2  UNL d   1       0.889  -0.750   1.663  0.00  0.00     0.162 A 
ATOM      4  C3  UNL d   1       1.707  -0.436   0.578  0.00  0.00    -0.034 A 
ATOM      5  C4  UNL d   1       3.093  -0.530   0.721  0.00  0.00     0.162 A 
ATOM      6  C5  UNL d   1       3.648  -0.934   1.932  0.00  0.00     0.062 A 
ATOM      7  F   UNL d   1       4.979  -1.022   2.060  0.00  0.00    -0.097 F 
ATOM      8  F1  UNL d   1       3.909  -0.236  -0.301  0.00  0.00    -0.096 F 
ATOM      9  I   UNL d   1       0.874   0.167  -1.231  0.00  0.00    -0.060 I 
ATOM     10  F2  UNL d   1      -0.446  -0.670   1.561  0.00  0.00    -0.096 F 
ATOM     11  F3  UNL d   1       0.653  -1.453   3.909  0.00  0.00    -0.097 F 
ATOM     12  F4  UNL d   1       3.363  -1.633   4.171  0.00  0.00    -0.092 F 
ENDROOT
TORSDOF 0
ENDMDL
