MODEL 1
REMARK minimizedAffinity 15.9698954
REMARK minimizedRMSD -1
REMARK  0 active torsions:
REMARK  status: ('A' for Active; 'I' for Inactive)
ROOT
ATOM      1  C   UNL d   1       0.778  -5.647  -4.893  0.00  0.00     0.124 A 
ATOM      2  C1  UNL d   1       1.468  -5.286  -3.744  0.00  0.00     0.062 A 
ATOM      3  C2  UNL d   1       0.773  -4.928  -2.593  0.00  0.00     0.162 A 
ATOM      4  C3  UNL d   1      -0.622  -4.930  -2.584  0.00  0.00    -0.034 A 
ATOM      5  C4  UNL d   1      -1.310  -5.294  -3.743  0.00  0.00     0.162 A 
ATOM      6  C5  UNL d   1      -0.610  -5.651  -4.891  0.00  0.00     0.062 A 
ATOM      7  F   UNL d   1      -1.279  -6.000  -6.000  0.00  0.00    -0.097 F 
ATOM      8  F1  UNL d   1      -2.651  -5.307  -3.769  0.00  0.00    -0.096 F 
ATOM      9  I   UNL d   1      -1.665  -4.395  -0.864  0.00  0.00    -0.060 I 
ATOM     10  F2  UNL d   1       1.466  -4.583  -1.498  0.00  0.00    -0.096 F 
ATOM     11  F3  UNL d   1       2.809  -5.281  -3.744  0.00  0.00    -0.097 F 
ATOM     12  F4  UNL d   1       1.449  -5.990  -6.000  0.00  0.00    -0.092 F 
ENDROOT
TORSDOF 0
ENDMDL
