MODEL 1
REMARK minimizedAffinity 12.2556772
REMARK minimizedRMSD -1
REMARK  0 active torsions:
REMARK  status: ('A' for Active; 'I' for Inactive)
ROOT
ATOM      1  C   UNL d   1       3.466  -1.278   3.351  0.00  0.00     0.124 A 
ATOM      2  C1  UNL d   1       2.097  -1.113   3.187  0.00  0.00     0.062 A 
ATOM      3  C2  UNL d   1       1.573  -0.820   1.931  0.00  0.00     0.162 A 
ATOM      4  C3  UNL d   1       2.418  -0.692   0.828  0.00  0.00    -0.034 A 
ATOM      5  C4  UNL d   1       3.793  -0.858   1.001  0.00  0.00     0.162 A 
ATOM      6  C5  UNL d   1       4.312  -1.151   2.258  0.00  0.00     0.062 A 
ATOM      7  F   UNL d   1       5.634  -1.310   2.415  0.00  0.00    -0.097 F 
ATOM      8  F1  UNL d   1       4.634  -0.742  -0.038  0.00  0.00    -0.096 F 
ATOM      9  I   UNL d   1       1.638  -0.254  -1.051  0.00  0.00    -0.060 I 
ATOM     10  F2  UNL d   1       0.247  -0.665   1.802  0.00  0.00    -0.096 F 
ATOM     11  F3  UNL d   1       1.278  -1.234   4.241  0.00  0.00    -0.097 F 
ATOM     12  F4  UNL d   1       3.967  -1.559   4.560  0.00  0.00    -0.092 F 
ENDROOT
TORSDOF 0
ENDMDL
