MODEL 1
REMARK minimizedAffinity 19.1591663
REMARK minimizedRMSD -1
REMARK  0 active torsions:
REMARK  status: ('A' for Active; 'I' for Inactive)
ROOT
ATOM      1  C   UNL d   1      -2.383  -1.686   0.553  0.00  0.00     0.124 A 
ATOM      2  C1  UNL d   1      -1.994  -0.402   0.912  0.00  0.00     0.062 A 
ATOM      3  C2  UNL d   1      -0.651  -0.039   0.863  0.00  0.00     0.162 A 
ATOM      4  C3  UNL d   1       0.313  -0.960   0.452  0.00  0.00    -0.034 A 
ATOM      5  C4  UNL d   1      -0.087  -2.249   0.094  0.00  0.00     0.162 A 
ATOM      6  C5  UNL d   1      -1.430  -2.607   0.145  0.00  0.00     0.062 A 
ATOM      7  F   UNL d   1      -1.804  -3.847  -0.202  0.00  0.00    -0.097 F 
ATOM      8  F1  UNL d   1       0.814  -3.159  -0.305  0.00  0.00    -0.096 F 
ATOM      9  I   UNL d   1       2.321  -0.420   0.378  0.00  0.00    -0.060 I 
ATOM     10  F2  UNL d   1      -0.304   1.208   1.215  0.00  0.00    -0.096 F 
ATOM     11  F3  UNL d   1      -2.913   0.490   1.307  0.00  0.00    -0.097 F 
ATOM     12  F4  UNL d   1      -3.676  -2.033   0.602  0.00  0.00    -0.092 F 
ENDROOT
TORSDOF 0
ENDMDL
