MODEL 1
REMARK minimizedAffinity 11.9324512
REMARK minimizedRMSD -1
REMARK  0 active torsions:
REMARK  status: ('A' for Active; 'I' for Inactive)
ROOT
ATOM      1  C   UNL d   1      -4.217   0.381  -1.913  0.00  0.00     0.124 A 
ATOM      2  C1  UNL d   1      -3.761  -0.302  -0.794  0.00  0.00     0.062 A 
ATOM      3  C2  UNL d   1      -2.410  -0.274  -0.459  0.00  0.00     0.162 A 
ATOM      4  C3  UNL d   1      -1.505   0.441  -1.244  0.00  0.00    -0.034 A 
ATOM      5  C4  UNL d   1      -1.972   1.125  -2.368  0.00  0.00     0.162 A 
ATOM      6  C5  UNL d   1      -3.323   1.093  -2.699  0.00  0.00     0.062 A 
ATOM      7  F   UNL d   1      -3.762   1.753  -3.780  0.00  0.00    -0.097 F 
ATOM      8  F1  UNL d   1      -1.129   1.822  -3.145  0.00  0.00    -0.096 F 
ATOM      9  I   UNL d   1       0.515   0.486  -0.747  0.00  0.00    -0.060 I 
ATOM     10  F2  UNL d   1      -1.997  -0.942   0.628  0.00  0.00    -0.096 F 
ATOM     11  F3  UNL d   1      -4.623  -0.992  -0.033  0.00  0.00    -0.097 F 
ATOM     12  F4  UNL d   1      -5.517   0.351  -2.233  0.00  0.00    -0.092 F 
ENDROOT
TORSDOF 0
ENDMDL
