MODEL 1
REMARK minimizedAffinity 17.2800999
REMARK minimizedRMSD -1
REMARK  0 active torsions:
REMARK  status: ('A' for Active; 'I' for Inactive)
ROOT
ATOM      1  C   UNL d   1       2.719  -1.368   2.920  0.00  0.00     0.124 A 
ATOM      2  C1  UNL d   1       1.347  -1.253   2.740  0.00  0.00     0.062 A 
ATOM      3  C2  UNL d   1       0.833  -0.871   1.504  0.00  0.00     0.162 A 
ATOM      4  C3  UNL d   1       1.691  -0.602   0.438  0.00  0.00    -0.034 A 
ATOM      5  C4  UNL d   1       3.069  -0.718   0.627  0.00  0.00     0.162 A 
ATOM      6  C5  UNL d   1       3.578  -1.101   1.864  0.00  0.00     0.062 A 
ATOM      7  F   UNL d   1       4.903  -1.211   2.036  0.00  0.00    -0.097 F 
ATOM      8  F1  UNL d   1       3.922  -0.467  -0.377  0.00  0.00    -0.096 F 
ATOM      9  I   UNL d   1       0.926  -0.030  -1.411  0.00  0.00    -0.060 I 
ATOM     10  F2  UNL d   1      -0.496  -0.768   1.359  0.00  0.00    -0.096 F 
ATOM     11  F3  UNL d   1       0.515  -1.510   3.759  0.00  0.00    -0.097 F 
ATOM     12  F4  UNL d   1       3.211  -1.735   4.110  0.00  0.00    -0.092 F 
ENDROOT
TORSDOF 0
ENDMDL
