MODEL 1
REMARK minimizedAffinity 7.23049307
REMARK minimizedRMSD -1
REMARK  0 active torsions:
REMARK  status: ('A' for Active; 'I' for Inactive)
ROOT
ATOM      1  C   UNL d   1      -3.514   2.673  -4.190  0.00  0.00     0.124 A 
ATOM      2  C1  UNL d   1      -3.681   1.574  -3.358  0.00  0.00     0.062 A 
ATOM      3  C2  UNL d   1      -2.581   1.000  -2.729  0.00  0.00     0.162 A 
ATOM      4  C3  UNL d   1      -1.303   1.523  -2.928  0.00  0.00    -0.034 A 
ATOM      5  C4  UNL d   1      -1.143   2.627  -3.767  0.00  0.00     0.162 A 
ATOM      6  C5  UNL d   1      -2.246   3.198  -4.394  0.00  0.00     0.062 A 
ATOM      7  F   UNL d   1      -2.083   4.259  -5.197  0.00  0.00    -0.097 F 
ATOM      8  F1  UNL d   1       0.071   3.156  -3.980  0.00  0.00    -0.096 F 
ATOM      9  I   UNL d   1       0.345   0.667  -1.988  0.00  0.00    -0.060 I 
ATOM     10  F2  UNL d   1      -2.771  -0.061  -1.930  0.00  0.00    -0.096 F 
ATOM     11  F3  UNL d   1      -4.905   1.064  -3.161  0.00  0.00    -0.097 F 
ATOM     12  F4  UNL d   1      -4.575   3.223  -4.796  0.00  0.00    -0.092 F 
ENDROOT
TORSDOF 0
ENDMDL
