MODEL 1
REMARK minimizedAffinity 12.7416906
REMARK minimizedRMSD -1
REMARK  0 active torsions:
REMARK  status: ('A' for Active; 'I' for Inactive)
ROOT
ATOM      1  C   UNL d   1       3.391  -1.231   3.288  0.00  0.00     0.124 A 
ATOM      2  C1  UNL d   1       4.302  -0.858   2.311  0.00  0.00     0.062 A 
ATOM      3  C2  UNL d   1       3.860  -0.503   1.040  0.00  0.00     0.162 A 
ATOM      4  C3  UNL d   1       2.498  -0.517   0.739  0.00  0.00    -0.034 A 
ATOM      5  C4  UNL d   1       1.587  -0.894   1.728  0.00  0.00     0.162 A 
ATOM      6  C5  UNL d   1       2.034  -1.249   2.996  0.00  0.00     0.062 A 
ATOM      7  F   UNL d   1       1.152  -1.609   3.940  0.00  0.00    -0.097 F 
ATOM      8  F1  UNL d   1       0.270  -0.919   1.473  0.00  0.00    -0.096 F 
ATOM      9  I   UNL d   1       1.832   0.014  -1.160  0.00  0.00    -0.060 I 
ATOM     10  F2  UNL d   1       4.763  -0.147   0.115  0.00  0.00    -0.096 F 
ATOM     11  F3  UNL d   1       5.614  -0.841   2.590  0.00  0.00    -0.097 F 
ATOM     12  F4  UNL d   1       3.819  -1.574   4.510  0.00  0.00    -0.092 F 
ENDROOT
TORSDOF 0
ENDMDL
