MODEL 1
REMARK minimizedAffinity 1.64040768
REMARK minimizedRMSD -1
REMARK  0 active torsions:
REMARK  status: ('A' for Active; 'I' for Inactive)
ROOT
ATOM      1  C   UNL d   1      -0.228  -5.959  -4.155  0.00  0.00     0.124 A 
ATOM      2  C1  UNL d   1      -0.035  -5.956  -2.781  0.00  0.00     0.062 A 
ATOM      3  C2  UNL d   1      -1.129  -5.968  -1.920  0.00  0.00     0.162 A 
ATOM      4  C3  UNL d   1      -2.427  -5.983  -2.432  0.00  0.00    -0.034 A 
ATOM      5  C4  UNL d   1      -2.613  -5.985  -3.815  0.00  0.00     0.162 A 
ATOM      6  C5  UNL d   1      -1.517  -5.974  -4.671  0.00  0.00     0.062 A 
ATOM      7  F   UNL d   1      -1.705  -5.976  -5.999  0.00  0.00    -0.097 F 
ATOM      8  F1  UNL d   1      -3.847  -5.999  -4.341  0.00  0.00    -0.096 F 
ATOM      9  I   UNL d   1      -4.065  -5.999  -1.149  0.00  0.00    -0.060 I 
ATOM     10  F2  UNL d   1      -0.913  -5.964  -0.597  0.00  0.00    -0.096 F 
ATOM     11  F3  UNL d   1       1.208  -5.942  -2.280  0.00  0.00    -0.097 F 
ATOM     12  F4  UNL d   1       0.826  -5.948  -4.981  0.00  0.00    -0.092 F 
ENDROOT
TORSDOF 0
ENDMDL
