MODEL 1
REMARK minimizedAffinity -1.98473883
REMARK minimizedRMSD -1
REMARK  0 active torsions:
REMARK  status: ('A' for Active; 'I' for Inactive)
ROOT
ATOM      1  C   UNL d   1      -3.207  -5.913  -3.013  0.00  0.00     0.124 A 
ATOM      2  C1  UNL d   1      -2.007  -5.826  -2.321  0.00  0.00     0.062 A 
ATOM      3  C2  UNL d   1      -2.005  -5.738  -0.932  0.00  0.00     0.162 A 
ATOM      4  C3  UNL d   1      -3.207  -5.738  -0.225  0.00  0.00    -0.034 A 
ATOM      5  C4  UNL d   1      -4.410  -5.825  -0.928  0.00  0.00     0.162 A 
ATOM      6  C5  UNL d   1      -4.407  -5.912  -2.317  0.00  0.00     0.062 A 
ATOM      7  F   UNL d   1      -5.567  -5.996  -2.984  0.00  0.00    -0.097 F 
ATOM      8  F1  UNL d   1      -5.584  -5.828  -0.280  0.00  0.00    -0.096 F 
ATOM      9  I   UNL d   1      -3.208  -5.607   1.852  0.00  0.00    -0.060 I 
ATOM     10  F2  UNL d   1      -0.830  -5.655  -0.289  0.00  0.00    -0.096 F 
ATOM     11  F3  UNL d   1      -0.846  -5.825  -2.992  0.00  0.00    -0.097 F 
ATOM     12  F4  UNL d   1      -3.206  -5.996  -4.350  0.00  0.00    -0.092 F 
ENDROOT
TORSDOF 0
ENDMDL
