MODEL 1
REMARK minimizedAffinity 16.4193764
REMARK minimizedRMSD -1
REMARK  0 active torsions:
REMARK  status: ('A' for Active; 'I' for Inactive)
ROOT
ATOM      1  C   UNL d   1       3.585   4.739   0.706  0.00  0.00     0.124 A 
ATOM      2  C1  UNL d   1       2.214   4.825   0.908  0.00  0.00     0.062 A 
ATOM      3  C2  UNL d   1       1.380   3.788   0.501  0.00  0.00     0.162 A 
ATOM      4  C3  UNL d   1       1.915   2.654  -0.112  0.00  0.00    -0.034 A 
ATOM      5  C4  UNL d   1       3.294   2.576  -0.312  0.00  0.00     0.162 A 
ATOM      6  C5  UNL d   1       4.123   3.615   0.097  0.00  0.00     0.062 A 
ATOM      7  F   UNL d   1       5.447   3.530  -0.099  0.00  0.00    -0.097 F 
ATOM      8  F1  UNL d   1       3.842   1.500  -0.898  0.00  0.00    -0.096 F 
ATOM      9  I   UNL d   1       0.672   1.101  -0.722  0.00  0.00    -0.060 I 
ATOM     10  F2  UNL d   1       0.060   3.898   0.708  0.00  0.00    -0.096 F 
ATOM     11  F3  UNL d   1       1.691   5.911   1.496  0.00  0.00    -0.097 F 
ATOM     12  F4  UNL d   1       4.385   5.739   1.098  0.00  0.00    -0.092 F 
ENDROOT
TORSDOF 0
ENDMDL
