MODEL 1
REMARK minimizedAffinity -3.32114148
REMARK minimizedRMSD -1
REMARK  0 active torsions:
REMARK  status: ('A' for Active; 'I' for Inactive)
ROOT
ATOM      1  C   UNL d   1      -0.125   0.750   2.901  0.00  0.00     0.124 A 
ATOM      2  C1  UNL d   1       1.058   0.096   2.584  0.00  0.00     0.062 A 
ATOM      3  C2  UNL d   1       1.242  -0.440   1.314  0.00  0.00     0.162 A 
ATOM      4  C3  UNL d   1       0.242  -0.324   0.348  0.00  0.00    -0.034 A 
ATOM      5  C4  UNL d   1      -0.945   0.334   0.674  0.00  0.00     0.162 A 
ATOM      6  C5  UNL d   1      -1.125   0.868   1.946  0.00  0.00     0.062 A 
ATOM      7  F   UNL d   1      -2.268   1.500   2.250  0.00  0.00    -0.097 F 
ATOM      8  F1  UNL d   1      -1.928   0.464  -0.230  0.00  0.00    -0.096 F 
ATOM      9  I   UNL d   1       0.514  -1.125  -1.553  0.00  0.00    -0.060 I 
ATOM     10  F2  UNL d   1       2.395  -1.067   1.035  0.00  0.00    -0.096 F 
ATOM     11  F3  UNL d   1       2.025  -0.021   3.506  0.00  0.00    -0.097 F 
ATOM     12  F4  UNL d   1      -0.301   1.264   4.125  0.00  0.00    -0.092 F 
ENDROOT
TORSDOF 0
ENDMDL
