MODEL 1
REMARK minimizedAffinity 3.07909179
REMARK minimizedRMSD -1
REMARK  0 active torsions:
REMARK  status: ('A' for Active; 'I' for Inactive)
ROOT
ATOM      1  C   UNL d   1      -0.151   0.048   2.450  0.00  0.00     0.124 A 
ATOM      2  C1  UNL d   1      -1.275   0.357   1.695  0.00  0.00     0.062 A 
ATOM      3  C2  UNL d   1      -1.262   0.178   0.315  0.00  0.00     0.162 A 
ATOM      4  C3  UNL d   1      -0.122  -0.314  -0.320  0.00  0.00    -0.034 A 
ATOM      5  C4  UNL d   1       1.004  -0.622   0.445  0.00  0.00     0.162 A 
ATOM      6  C5  UNL d   1       0.987  -0.441   1.824  0.00  0.00     0.062 A 
ATOM      7  F   UNL d   1       2.073  -0.740   2.551  0.00  0.00    -0.097 F 
ATOM      8  F1  UNL d   1       2.117  -1.097  -0.134  0.00  0.00    -0.096 F 
ATOM      9  I   UNL d   1      -0.099  -0.583  -2.384  0.00  0.00    -0.060 I 
ATOM     10  F2  UNL d   1      -2.362   0.485  -0.389  0.00  0.00    -0.096 F 
ATOM     11  F3  UNL d   1      -2.375   0.830   2.298  0.00  0.00    -0.097 F 
ATOM     12  F4  UNL d   1      -0.166   0.222   3.777  0.00  0.00    -0.092 F 
ENDROOT
TORSDOF 0
ENDMDL
