MODEL 1
REMARK minimizedAffinity -5.69041252
REMARK minimizedRMSD -1
REMARK  0 active torsions:
REMARK  status: ('A' for Active; 'I' for Inactive)
ROOT
ATOM      1  C   UNL d   1       0.014   0.765   2.982  0.00  0.00     0.124 A 
ATOM      2  C1  UNL d   1      -0.830   1.289   2.013  0.00  0.00     0.062 A 
ATOM      3  C2  UNL d   1      -0.648   0.958   0.673  0.00  0.00     0.162 A 
ATOM      4  C3  UNL d   1       0.381   0.096   0.295  0.00  0.00    -0.034 A 
ATOM      5  C4  UNL d   1       1.226  -0.427   1.276  0.00  0.00     0.162 A 
ATOM      6  C5  UNL d   1       1.041  -0.092   2.613  0.00  0.00     0.062 A 
ATOM      7  F   UNL d   1       1.857  -0.600   3.548  0.00  0.00    -0.097 F 
ATOM      8  F1  UNL d   1       2.226  -1.258   0.947  0.00  0.00    -0.096 F 
ATOM      9  I   UNL d   1       0.656  -0.403  -1.707  0.00  0.00    -0.060 I 
ATOM     10  F2  UNL d   1      -1.478   1.479  -0.242  0.00  0.00    -0.096 F 
ATOM     11  F3  UNL d   1      -1.822   2.118   2.367  0.00  0.00    -0.097 F 
ATOM     12  F4  UNL d   1      -0.163   1.087   4.270  0.00  0.00    -0.092 F 
ENDROOT
TORSDOF 0
ENDMDL
