MODEL 1
REMARK minimizedAffinity -2.63716364
REMARK minimizedRMSD -1
REMARK  0 active torsions:
REMARK  status: ('A' for Active; 'I' for Inactive)
ROOT
ATOM      1  C   UNL d   1      -0.765   0.790   2.970  0.00  0.00     0.124 A 
ATOM      2  C1  UNL d   1       0.547   0.381   2.776  0.00  0.00     0.062 A 
ATOM      3  C2  UNL d   1       0.962  -0.072   1.527  0.00  0.00     0.162 A 
ATOM      4  C3  UNL d   1       0.064  -0.118   0.461  0.00  0.00    -0.034 A 
ATOM      5  C4  UNL d   1      -1.255   0.294   0.664  0.00  0.00     0.162 A 
ATOM      6  C5  UNL d   1      -1.664   0.746   1.914  0.00  0.00     0.062 A 
ATOM      7  F   UNL d   1      -2.933   1.141   2.099  0.00  0.00    -0.097 F 
ATOM      8  F1  UNL d   1      -2.144   0.263  -0.340  0.00  0.00    -0.096 F 
ATOM      9  I   UNL d   1       0.680  -0.795  -1.408  0.00  0.00    -0.060 I 
ATOM     10  F2  UNL d   1       2.236  -0.461   1.369  0.00  0.00    -0.096 F 
ATOM     11  F3  UNL d   1       1.418   0.421   3.795  0.00  0.00    -0.097 F 
ATOM     12  F4  UNL d   1      -1.162   1.225   4.173  0.00  0.00    -0.092 F 
ENDROOT
TORSDOF 0
ENDMDL
