MODEL 1
REMARK minimizedAffinity -4.91381836
REMARK minimizedRMSD -1
REMARK  0 active torsions:
REMARK  status: ('A' for Active; 'I' for Inactive)
ROOT
ATOM      1  C   UNL d   1       0.224   0.686   3.143  0.00  0.00     0.124 A 
ATOM      2  C1  UNL d   1       1.209  -0.157   2.649  0.00  0.00     0.062 A 
ATOM      3  C2  UNL d   1       1.238  -0.482   1.296  0.00  0.00     0.162 A 
ATOM      4  C3  UNL d   1       0.279   0.038   0.427  0.00  0.00    -0.034 A 
ATOM      5  C4  UNL d   1      -0.710   0.884   0.932  0.00  0.00     0.162 A 
ATOM      6  C5  UNL d   1      -0.734   1.206   2.285  0.00  0.00     0.062 A 
ATOM      7  F   UNL d   1      -1.687   2.021   2.761  0.00  0.00    -0.097 F 
ATOM      8  F1  UNL d   1      -1.648   1.401   0.124  0.00  0.00    -0.096 F 
ATOM      9  I   UNL d   1       0.318  -0.446  -1.597  0.00  0.00    -0.060 I 
ATOM     10  F2  UNL d   1       2.202  -1.299   0.845  0.00  0.00    -0.096 F 
ATOM     11  F3  UNL d   1       2.136  -0.661   3.477  0.00  0.00    -0.097 F 
ATOM     12  F4  UNL d   1       0.198   0.996   4.446  0.00  0.00    -0.092 F 
ENDROOT
TORSDOF 0
ENDMDL
