MODEL 1
REMARK minimizedAffinity -3.48695016
REMARK minimizedRMSD -1
REMARK  0 active torsions:
REMARK  status: ('A' for Active; 'I' for Inactive)
ROOT
ATOM      1  C   UNL d   1      -0.532  -1.559  -1.277  0.00  0.00     0.172 C 
ATOM      2  N   UNL d   1      -0.692  -0.277  -0.631  0.00  0.00    -0.070 N 
ATOM      3  C1  UNL d   1       0.063   0.192   0.410  0.00  0.00    -0.004 A 
ATOM      4  C2  UNL d   1      -0.402   1.447   0.737  0.00  0.00    -0.047 A 
ATOM      5  C3  UNL d   1      -1.474   1.743  -0.139  0.00  0.00    -0.047 A 
ATOM      6  C4  UNL d   1      -1.632   0.658  -0.975  0.00  0.00    -0.004 A 
ENDROOT
TORSDOF 0
ENDMDL
