MODEL 1
REMARK minimizedAffinity -0.992296398
REMARK minimizedRMSD -1
REMARK  0 active torsions:
REMARK  status: ('A' for Active; 'I' for Inactive)
ROOT
ATOM      1  C   UNL d   1      -0.725   0.987   0.110  0.00  0.00     0.172 C 
ATOM      2  N   UNL d   1       0.178   2.059   0.457  0.00  0.00    -0.070 N 
ATOM      3  C1  UNL d   1       1.497   1.914   0.793  0.00  0.00    -0.004 A 
ATOM      4  C2  UNL d   1       2.007   3.168   1.053  0.00  0.00    -0.047 A 
ATOM      5  C3  UNL d   1       0.957   4.099   0.867  0.00  0.00    -0.047 A 
ATOM      6  C4  UNL d   1      -0.164   3.385   0.498  0.00  0.00    -0.004 A 
ENDROOT
TORSDOF 0
ENDMDL
