MODEL 1
REMARK minimizedAffinity 0.557991147
REMARK minimizedRMSD -1
REMARK  0 active torsions:
REMARK  status: ('A' for Active; 'I' for Inactive)
ROOT
ATOM      1  C   UNL d   1       0.400   2.296   1.536  0.00  0.00     0.172 C 
ATOM      2  N   UNL d   1      -0.586   1.430   0.933  0.00  0.00    -0.070 N 
ATOM      3  C1  UNL d   1      -0.665   0.073   1.099  0.00  0.00    -0.004 A 
ATOM      4  C2  UNL d   1      -1.738  -0.380   0.362  0.00  0.00    -0.047 A 
ATOM      5  C3  UNL d   1      -2.323   0.743  -0.269  0.00  0.00    -0.047 A 
ATOM      6  C4  UNL d   1      -1.590   1.851   0.101  0.00  0.00    -0.004 A 
ENDROOT
TORSDOF 0
ENDMDL
