MODEL 1
REMARK minimizedAffinity -3.10888553
REMARK minimizedRMSD -1
REMARK  0 active torsions:
REMARK  status: ('A' for Active; 'I' for Inactive)
ROOT
ATOM      1  C   UNL d   1      -0.221  -1.027  -0.074  0.00  0.00     0.172 C 
ATOM      2  N   UNL d   1      -0.242   0.416  -0.013  0.00  0.00    -0.070 N 
ATOM      3  C1  UNL d   1      -1.341   1.189   0.249  0.00  0.00    -0.004 A 
ATOM      4  C2  UNL d   1      -0.947   2.509   0.218  0.00  0.00    -0.047 A 
ATOM      5  C3  UNL d   1       0.438   2.530  -0.074  0.00  0.00    -0.047 A 
ATOM      6  C4  UNL d   1       0.849   1.221  -0.212  0.00  0.00    -0.004 A 
ENDROOT
TORSDOF 0
ENDMDL
