MODEL 1
REMARK minimizedAffinity -3.32064867
REMARK minimizedRMSD -1
REMARK  0 active torsions:
REMARK  status: ('A' for Active; 'I' for Inactive)
ROOT
ATOM      1  C   UNL d   1      -0.664   0.679   0.006  0.00  0.00     0.172 C 
ATOM      2  N   UNL d   1       0.148   1.846   0.261  0.00  0.00    -0.070 N 
ATOM      3  C1  UNL d   1      -0.255   2.967   0.936  0.00  0.00    -0.004 A 
ATOM      4  C2  UNL d   1       0.805   3.846   0.965  0.00  0.00    -0.047 A 
ATOM      5  C3  UNL d   1       1.883   3.233   0.283  0.00  0.00    -0.047 A 
ATOM      6  C4  UNL d   1       1.448   1.996  -0.143  0.00  0.00    -0.004 A 
ENDROOT
TORSDOF 0
ENDMDL
