MODEL 1
REMARK minimizedAffinity -3.6567595
REMARK minimizedRMSD -1
REMARK  0 active torsions:
REMARK  status: ('A' for Active; 'I' for Inactive)
ROOT
ATOM      1  C   UNL d   1       0.540  -0.296  -0.093  0.00  0.00     0.172 C 
ATOM      2  N   UNL d   1       0.580   1.145  -0.001  0.00  0.00    -0.070 N 
ATOM      3  C1  UNL d   1      -0.421   1.997  -0.385  0.00  0.00    -0.004 A 
ATOM      4  C2  UNL d   1       0.002   3.285  -0.136  0.00  0.00    -0.047 A 
ATOM      5  C3  UNL d   1       1.303   3.203   0.416  0.00  0.00    -0.047 A 
ATOM      6  C4  UNL d   1       1.635   1.867   0.489  0.00  0.00    -0.004 A 
ENDROOT
TORSDOF 0
ENDMDL
