MODEL 1
REMARK minimizedAffinity -3.44624448
REMARK minimizedRMSD -1
REMARK  0 active torsions:
REMARK  status: ('A' for Active; 'I' for Inactive)
ROOT
ATOM      1  C   UNL d   1       0.362   3.353  -0.007  0.00  0.00     0.172 C 
ATOM      2  N   UNL d   1       0.233   1.921   0.135  0.00  0.00    -0.070 N 
ATOM      3  C1  UNL d   1       1.230   1.006  -0.070  0.00  0.00    -0.004 A 
ATOM      4  C2  UNL d   1       0.707  -0.248   0.167  0.00  0.00    -0.047 A 
ATOM      5  C3  UNL d   1      -0.651  -0.079   0.526  0.00  0.00    -0.047 A 
ATOM      6  C4  UNL d   1      -0.918   1.273   0.499  0.00  0.00    -0.004 A 
ENDROOT
TORSDOF 0
ENDMDL
