MODEL 1
REMARK minimizedAffinity -0.681751549
REMARK minimizedRMSD -1
REMARK  0 active torsions:
REMARK  status: ('A' for Active; 'I' for Inactive)
ROOT
ATOM      1  C   UNL d   1       2.436  -0.296   0.581  0.00  0.00     0.172 C 
ATOM      2  N   UNL d   1       1.028   0.001   0.453  0.00  0.00    -0.070 N 
ATOM      3  C1  UNL d   1       0.363   1.008   1.099  0.00  0.00    -0.004 A 
ATOM      4  C2  UNL d   1      -0.958   0.959   0.710  0.00  0.00    -0.047 A 
ATOM      5  C3  UNL d   1      -1.091  -0.116  -0.202  0.00  0.00    -0.047 A 
ATOM      6  C4  UNL d   1       0.154  -0.691  -0.343  0.00  0.00    -0.004 A 
ENDROOT
TORSDOF 0
ENDMDL
