MODEL 1
REMARK minimizedAffinity -1.47628689
REMARK minimizedRMSD -1
REMARK  0 active torsions:
REMARK  status: ('A' for Active; 'I' for Inactive)
ROOT
ATOM      1  C   UNL d   1      -0.682  -2.871  -1.085  0.00  0.00     0.172 C 
ATOM      2  N   UNL d   1      -0.559  -1.627  -0.362  0.00  0.00    -0.070 N 
ATOM      3  C1  UNL d   1      -1.596  -0.898   0.155  0.00  0.00    -0.004 A 
ATOM      4  C2  UNL d   1      -1.064   0.216   0.768  0.00  0.00    -0.047 A 
ATOM      5  C3  UNL d   1       0.341   0.155   0.614  0.00  0.00    -0.047 A 
ATOM      6  C4  UNL d   1       0.627  -0.996  -0.090  0.00  0.00    -0.004 A 
ENDROOT
TORSDOF 0
ENDMDL
