MODEL 1
REMARK minimizedAffinity -4.11120176
REMARK minimizedRMSD -1
REMARK  0 active torsions:
REMARK  status: ('A' for Active; 'I' for Inactive)
ROOT
ATOM      1  C   UNL d   1       0.872  -0.547   0.295  0.00  0.00     0.172 C 
ATOM      2  N   UNL d   1       0.808   0.894   0.229  0.00  0.00    -0.070 N 
ATOM      3  C1  UNL d   1       1.830   1.753   0.533  0.00  0.00    -0.004 A 
ATOM      4  C2  UNL d   1       1.371   3.039   0.344  0.00  0.00    -0.047 A 
ATOM      5  C3  UNL d   1       0.026   2.949  -0.087  0.00  0.00    -0.047 A 
ATOM      6  C4  UNL d   1      -0.297   1.610  -0.149  0.00  0.00    -0.004 A 
ENDROOT
TORSDOF 0
ENDMDL
