MODEL 1
REMARK minimizedAffinity -2.59165001
REMARK minimizedRMSD -1
REMARK  0 active torsions:
REMARK  status: ('A' for Active; 'I' for Inactive)
ROOT
ATOM      1  C   UNL d   1      -0.434  -1.865  -2.365  0.00  0.00     0.172 C 
ATOM      2  N   UNL d   1      -0.541  -1.035  -1.188  0.00  0.00    -0.070 N 
ATOM      3  C1  UNL d   1      -0.091  -1.363   0.063  0.00  0.00    -0.004 A 
ATOM      4  C2  UNL d   1      -0.380  -0.310   0.905  0.00  0.00    -0.047 A 
ATOM      5  C3  UNL d   1      -1.026   0.684   0.132  0.00  0.00    -0.047 A 
ATOM      6  C4  UNL d   1      -1.113   0.209  -1.159  0.00  0.00    -0.004 A 
ENDROOT
TORSDOF 0
ENDMDL
