MODEL 1
REMARK minimizedAffinity -0.124719121
REMARK minimizedRMSD -1
REMARK  0 active torsions:
REMARK  status: ('A' for Active; 'I' for Inactive)
ROOT
ATOM      1  C   UNL d   1       0.161  -0.861   0.017  0.00  0.00     0.172 C 
ATOM      2  N   UNL d   1      -0.312  -2.019  -0.705  0.00  0.00    -0.070 N 
ATOM      3  C1  UNL d   1      -1.338  -2.838  -0.315  0.00  0.00    -0.004 A 
ATOM      4  C2  UNL d   1      -1.479  -3.822  -1.269  0.00  0.00    -0.047 A 
ATOM      5  C3  UNL d   1      -0.503  -3.586  -2.267  0.00  0.00    -0.047 A 
ATOM      6  C4  UNL d   1       0.205  -2.464  -1.892  0.00  0.00    -0.004 A 
ENDROOT
TORSDOF 0
ENDMDL
