MODEL 1
REMARK minimizedAffinity -3.29672194
REMARK minimizedRMSD -1
REMARK  0 active torsions:
REMARK  status: ('A' for Active; 'I' for Inactive)
ROOT
ATOM      1  C   UNL d   1       0.143   0.384  -0.279  0.00  0.00     0.172 C 
ATOM      2  N   UNL d   1       0.932   1.557   0.018  0.00  0.00    -0.070 N 
ATOM      3  C1  UNL d   1       2.289   1.664  -0.129  0.00  0.00    -0.004 A 
ATOM      4  C2  UNL d   1       2.656   2.935   0.258  0.00  0.00    -0.047 A 
ATOM      5  C3  UNL d   1       1.479   3.614   0.652  0.00  0.00    -0.047 A 
ATOM      6  C4  UNL d   1       0.426   2.738   0.494  0.00  0.00    -0.004 A 
ENDROOT
TORSDOF 0
ENDMDL
