MODEL 1
REMARK minimizedAffinity -4.09655571
REMARK minimizedRMSD -1
REMARK  0 active torsions:
REMARK  status: ('A' for Active; 'I' for Inactive)
ROOT
ATOM      1  C   UNL d   1      -1.386   0.980   0.014  0.00  0.00     0.172 C 
ATOM      2  N   UNL d   1      -0.107   1.652   0.025  0.00  0.00    -0.070 N 
ATOM      3  C1  UNL d   1       0.093   2.982   0.280  0.00  0.00    -0.004 A 
ATOM      4  C2  UNL d   1       1.447   3.228   0.197  0.00  0.00    -0.047 A 
ATOM      5  C3  UNL d   1       2.081   2.004  -0.120  0.00  0.00    -0.047 A 
ATOM      6  C4  UNL d   1       1.096   1.045  -0.221  0.00  0.00    -0.004 A 
ENDROOT
TORSDOF 0
ENDMDL
