MODEL 1
REMARK minimizedAffinity -3.88995862
REMARK minimizedRMSD -1
REMARK  0 active torsions:
REMARK  status: ('A' for Active; 'I' for Inactive)
ROOT
ATOM      1  C   UNL d   1      -1.099   0.855   0.321  0.00  0.00     0.172 C 
ATOM      2  N   UNL d   1      -0.080   1.877   0.368  0.00  0.00    -0.070 N 
ATOM      3  C1  UNL d   1       1.267   1.656   0.479  0.00  0.00    -0.004 A 
ATOM      4  C2  UNL d   1       1.896   2.883   0.489  0.00  0.00    -0.047 A 
ATOM      5  C3  UNL d   1       0.892   3.874   0.380  0.00  0.00    -0.047 A 
ATOM      6  C4  UNL d   1      -0.322   3.224   0.307  0.00  0.00    -0.004 A 
ENDROOT
TORSDOF 0
ENDMDL
