MODEL 1
REMARK minimizedAffinity -2.83892488
REMARK minimizedRMSD -1
REMARK  0 active torsions:
REMARK  status: ('A' for Active; 'I' for Inactive)
ROOT
ATOM      1  C   UNL d   1      -0.210  -1.237  -0.261  0.00  0.00     0.172 C 
ATOM      2  N   UNL d   1      -0.285   0.177   0.020  0.00  0.00    -0.070 N 
ATOM      3  C1  UNL d   1      -1.118   0.767   0.933  0.00  0.00    -0.004 A 
ATOM      4  C2  UNL d   1      -0.885   2.125   0.902  0.00  0.00    -0.047 A 
ATOM      5  C3  UNL d   1       0.122   2.360  -0.064  0.00  0.00    -0.047 A 
ATOM      6  C4  UNL d   1       0.475   1.137  -0.595  0.00  0.00    -0.004 A 
ENDROOT
TORSDOF 0
ENDMDL
