MODEL 1
REMARK minimizedAffinity -3.17910957
REMARK minimizedRMSD -1
REMARK  0 active torsions:
REMARK  status: ('A' for Active; 'I' for Inactive)
ROOT
ATOM      1  C   UNL d   1       2.397   1.755   0.965  0.00  0.00     0.172 C 
ATOM      2  N   UNL d   1       1.067   1.199   0.881  0.00  0.00    -0.070 N 
ATOM      3  C1  UNL d   1      -0.100   1.915   0.905  0.00  0.00    -0.004 A 
ATOM      4  C2  UNL d   1      -1.145   1.022   0.801  0.00  0.00    -0.047 A 
ATOM      5  C3  UNL d   1      -0.586  -0.275   0.712  0.00  0.00    -0.047 A 
ATOM      6  C4  UNL d   1       0.785  -0.136   0.764  0.00  0.00    -0.004 A 
ENDROOT
TORSDOF 0
ENDMDL
