MODEL 1
REMARK minimizedAffinity -4.03238344
REMARK minimizedRMSD -1
REMARK  0 active torsions:
REMARK  status: ('A' for Active; 'I' for Inactive)
ROOT
ATOM      1  C   UNL d   1      -1.161   0.586   0.404  0.00  0.00     0.172 C 
ATOM      2  N   UNL d   1      -0.045   1.501   0.395  0.00  0.00    -0.070 N 
ATOM      3  C1  UNL d   1      -0.132   2.868   0.381  0.00  0.00    -0.004 A 
ATOM      4  C2  UNL d   1       1.150   3.373   0.376  0.00  0.00    -0.047 A 
ATOM      5  C3  UNL d   1       2.039   2.272   0.387  0.00  0.00    -0.047 A 
ATOM      6  C4  UNL d   1       1.273   1.125   0.399  0.00  0.00    -0.004 A 
ENDROOT
TORSDOF 0
ENDMDL
