MODEL 1
REMARK minimizedAffinity -2.47730041
REMARK minimizedRMSD -1
REMARK  0 active torsions:
REMARK  status: ('A' for Active; 'I' for Inactive)
ROOT
ATOM      1  C   UNL d   1       0.089  -0.044   0.078  0.00  0.00     0.172 C 
ATOM      2  N   UNL d   1      -0.692   0.967   0.752  0.00  0.00    -0.070 N 
ATOM      3  C1  UNL d   1      -1.865   0.753   1.424  0.00  0.00    -0.004 A 
ATOM      4  C2  UNL d   1      -2.293   1.964   1.923  0.00  0.00    -0.047 A 
ATOM      5  C3  UNL d   1      -1.344   2.941   1.536  0.00  0.00    -0.047 A 
ATOM      6  C4  UNL d   1      -0.363   2.296   0.813  0.00  0.00    -0.004 A 
ENDROOT
TORSDOF 0
ENDMDL
