MODEL 1
REMARK minimizedAffinity -3.32653594
REMARK minimizedRMSD -1
REMARK  0 active torsions:
REMARK  status: ('A' for Active; 'I' for Inactive)
ROOT
ATOM      1  C   UNL d   1       1.490  -0.330  -0.725  0.00  0.00     0.172 C 
ATOM      2  N   UNL d   1       0.515   0.161   0.220  0.00  0.00    -0.070 N 
ATOM      3  C1  UNL d   1      -0.326   1.223   0.021  0.00  0.00    -0.004 A 
ATOM      4  C2  UNL d   1      -1.097   1.369   1.154  0.00  0.00    -0.047 A 
ATOM      5  C3  UNL d   1      -0.706   0.361   2.066  0.00  0.00    -0.047 A 
ATOM      6  C4  UNL d   1       0.294  -0.373   1.463  0.00  0.00    -0.004 A 
ENDROOT
TORSDOF 0
ENDMDL
