MODEL 1
REMARK minimizedAffinity -2.71730137
REMARK minimizedRMSD -1
REMARK  0 active torsions:
REMARK  status: ('A' for Active; 'I' for Inactive)
ROOT
ATOM      1  C   UNL d   1      -0.017   3.008  -0.841  0.00  0.00     0.172 C 
ATOM      2  N   UNL d   1      -0.348   1.997   0.135  0.00  0.00    -0.070 N 
ATOM      3  C1  UNL d   1      -0.980   2.217   1.330  0.00  0.00    -0.004 A 
ATOM      4  C2  UNL d   1      -1.111   1.002   1.968  0.00  0.00    -0.047 A 
ATOM      5  C3  UNL d   1      -0.538   0.018   1.128  0.00  0.00    -0.047 A 
ATOM      6  C4  UNL d   1      -0.073   0.661   0.000  0.00  0.00    -0.004 A 
ENDROOT
TORSDOF 0
ENDMDL
