MODEL 1
REMARK minimizedAffinity -0.535740554
REMARK minimizedRMSD -1
REMARK  0 active torsions:
REMARK  status: ('A' for Active; 'I' for Inactive)
ROOT
ATOM      1  C   UNL d   1       0.828  -0.698  -0.301  0.00  0.00     0.172 C 
ATOM      2  N   UNL d   1       0.903  -1.675  -1.362  0.00  0.00    -0.070 N 
ATOM      3  C1  UNL d   1       1.281  -2.983  -1.217  0.00  0.00    -0.004 A 
ATOM      4  C2  UNL d   1       1.221  -3.580  -2.458  0.00  0.00    -0.047 A 
ATOM      5  C3  UNL d   1       0.792  -2.596  -3.381  0.00  0.00    -0.047 A 
ATOM      6  C4  UNL d   1       0.603  -1.426  -2.675  0.00  0.00    -0.004 A 
ENDROOT
TORSDOF 0
ENDMDL
