MODEL 1
REMARK minimizedAffinity -2.68293142
REMARK minimizedRMSD -1
REMARK  0 active torsions:
REMARK  status: ('A' for Active; 'I' for Inactive)
ROOT
ATOM      1  C   UNL d   1       0.462   1.679  -0.739  0.00  0.00     0.172 C 
ATOM      2  N   UNL d   1       0.333   0.646   0.262  0.00  0.00    -0.070 N 
ATOM      3  C1  UNL d   1      -0.612   0.607   1.253  0.00  0.00    -0.004 A 
ATOM      4  C2  UNL d   1      -0.397  -0.533   1.996  0.00  0.00    -0.047 A 
ATOM      5  C3  UNL d   1       0.715  -1.203   1.433  0.00  0.00    -0.047 A 
ATOM      6  C4  UNL d   1       1.148  -0.451   0.361  0.00  0.00    -0.004 A 
ENDROOT
TORSDOF 0
ENDMDL
