MODEL 1
REMARK minimizedAffinity -4.02340984
REMARK minimizedRMSD -1
REMARK  0 active torsions:
REMARK  status: ('A' for Active; 'I' for Inactive)
ROOT
ATOM      1  C   UNL d   1       0.949  -0.214  -0.602  0.00  0.00     0.172 C 
ATOM      2  N   UNL d   1      -0.084   0.476   0.134  0.00  0.00    -0.070 N 
ATOM      3  C1  UNL d   1      -0.835   1.521  -0.334  0.00  0.00    -0.004 A 
ATOM      4  C2  UNL d   1      -1.706   1.896   0.666  0.00  0.00    -0.047 A 
ATOM      5  C3  UNL d   1      -1.470   1.047   1.774  0.00  0.00    -0.047 A 
ATOM      6  C4  UNL d   1      -0.461   0.177   1.417  0.00  0.00    -0.004 A 
ENDROOT
TORSDOF 0
ENDMDL
