MODEL 1
REMARK minimizedAffinity -4.07317066
REMARK minimizedRMSD -1
REMARK  0 active torsions:
REMARK  status: ('A' for Active; 'I' for Inactive)
ROOT
ATOM      1  C   UNL d   1       1.123  -0.324  -0.782  0.00  0.00     0.172 C 
ATOM      2  N   UNL d   1       0.032   0.271  -0.045  0.00  0.00    -0.070 N 
ATOM      3  C1  UNL d   1      -0.780   1.277  -0.495  0.00  0.00    -0.004 A 
ATOM      4  C2  UNL d   1      -1.692   1.560   0.499  0.00  0.00    -0.047 A 
ATOM      5  C3  UNL d   1      -1.417   0.695   1.584  0.00  0.00    -0.047 A 
ATOM      6  C4  UNL d   1      -0.345  -0.093   1.221  0.00  0.00    -0.004 A 
ENDROOT
TORSDOF 0
ENDMDL
