MODEL 1
REMARK minimizedAffinity -3.41012597
REMARK minimizedRMSD -1
REMARK  0 active torsions:
REMARK  status: ('A' for Active; 'I' for Inactive)
ROOT
ATOM      1  C   UNL d   1       0.002   0.389  -0.717  0.00  0.00     0.172 C 
ATOM      2  N   UNL d   1      -0.737   0.997   0.364  0.00  0.00    -0.070 N 
ATOM      3  C1  UNL d   1      -0.983   0.425   1.584  0.00  0.00    -0.004 A 
ATOM      4  C2  UNL d   1      -1.716   1.322   2.330  0.00  0.00    -0.047 A 
ATOM      5  C3  UNL d   1      -1.919   2.473   1.531  0.00  0.00    -0.047 A 
ATOM      6  C4  UNL d   1      -1.302   2.244   0.319  0.00  0.00    -0.004 A 
ENDROOT
TORSDOF 0
ENDMDL
