MODEL 1
REMARK minimizedAffinity -3.1106782
REMARK minimizedRMSD -1
REMARK  0 active torsions:
REMARK  status: ('A' for Active; 'I' for Inactive)
ROOT
ATOM      1  C   UNL d   1       0.387  -0.421  -0.433  0.00  0.00     0.172 C 
ATOM      2  N   UNL d   1       0.529  -1.439  -1.447  0.00  0.00    -0.070 N 
ATOM      3  C1  UNL d   1       1.714  -1.960  -1.894  0.00  0.00    -0.004 A 
ATOM      4  C2  UNL d   1       1.423  -2.902  -2.858  0.00  0.00    -0.047 A 
ATOM      5  C3  UNL d   1       0.016  -2.948  -2.995  0.00  0.00    -0.047 A 
ATOM      6  C4  UNL d   1      -0.513  -2.032  -2.109  0.00  0.00    -0.004 A 
ENDROOT
TORSDOF 0
ENDMDL
