MODEL 1
REMARK minimizedAffinity -3.52131748
REMARK minimizedRMSD -1
REMARK  0 active torsions:
REMARK  status: ('A' for Active; 'I' for Inactive)
ROOT
ATOM      1  C   UNL d   1       0.893  -0.802  -0.564  0.00  0.00     0.172 C 
ATOM      2  N   UNL d   1      -0.014  -0.014   0.238  0.00  0.00    -0.070 N 
ATOM      3  C1  UNL d   1      -0.242  -0.179   1.578  0.00  0.00    -0.004 A 
ATOM      4  C2  UNL d   1      -1.168   0.765   1.967  0.00  0.00    -0.047 A 
ATOM      5  C3  UNL d   1      -1.509   1.522   0.821  0.00  0.00    -0.047 A 
ATOM      6  C4  UNL d   1      -0.780   1.018  -0.235  0.00  0.00    -0.004 A 
ENDROOT
TORSDOF 0
ENDMDL
