MODEL 1
REMARK minimizedAffinity -2.76192617
REMARK minimizedRMSD -1
REMARK  0 active torsions:
REMARK  status: ('A' for Active; 'I' for Inactive)
ROOT
ATOM      1  C   UNL d   1       0.597   4.069  -0.757  0.00  0.00     0.172 C 
ATOM      2  N   UNL d   1      -0.270   3.192  -0.005  0.00  0.00    -0.070 N 
ATOM      3  C1  UNL d   1      -1.084   3.569   1.030  0.00  0.00    -0.004 A 
ATOM      4  C2  UNL d   1      -1.745   2.446   1.478  0.00  0.00    -0.047 A 
ATOM      5  C3  UNL d   1      -1.314   1.356   0.686  0.00  0.00    -0.047 A 
ATOM      6  C4  UNL d   1      -0.401   1.846  -0.225  0.00  0.00    -0.004 A 
ENDROOT
TORSDOF 0
ENDMDL
