MODEL 1
REMARK minimizedAffinity -3.89837003
REMARK minimizedRMSD -1
REMARK  0 active torsions:
REMARK  status: ('A' for Active; 'I' for Inactive)
ROOT
ATOM      1  C   UNL d   1      -0.410  -0.090   0.053  0.00  0.00     0.172 C 
ATOM      2  N   UNL d   1      -0.756   1.310   0.141  0.00  0.00    -0.070 N 
ATOM      3  C1  UNL d   1      -0.287   2.301  -0.679  0.00  0.00    -0.004 A 
ATOM      4  C2  UNL d   1      -0.852   3.490  -0.269  0.00  0.00    -0.047 A 
ATOM      5  C3  UNL d   1      -1.687   3.203   0.836  0.00  0.00    -0.047 A 
ATOM      6  C4  UNL d   1      -1.609   1.846   1.069  0.00  0.00    -0.004 A 
ENDROOT
TORSDOF 0
ENDMDL
