MODEL 1
REMARK minimizedAffinity -4.09864187
REMARK minimizedRMSD -1
REMARK  0 active torsions:
REMARK  status: ('A' for Active; 'I' for Inactive)
ROOT
ATOM      1  C   UNL d   1       0.381  -0.140   1.197  0.00  0.00     0.172 C 
ATOM      2  N   UNL d   1      -0.225   1.142   0.925  0.00  0.00    -0.070 N 
ATOM      3  C1  UNL d   1      -1.100   1.801   1.747  0.00  0.00    -0.004 A 
ATOM      4  C2  UNL d   1      -1.446   2.985   1.132  0.00  0.00    -0.047 A 
ATOM      5  C3  UNL d   1      -0.755   3.039  -0.102  0.00  0.00    -0.047 A 
ATOM      6  C4  UNL d   1      -0.007   1.886  -0.204  0.00  0.00    -0.004 A 
ENDROOT
TORSDOF 0
ENDMDL
