MODEL 1
REMARK minimizedAffinity -2.61069345
REMARK minimizedRMSD -1
REMARK  0 active torsions:
REMARK  status: ('A' for Active; 'I' for Inactive)
ROOT
ATOM      1  C   UNL d   1       1.354  -5.873  -0.498  0.00  0.00     0.172 C 
ATOM      2  N   UNL d   1       1.063  -4.678  -1.254  0.00  0.00    -0.070 N 
ATOM      3  C1  UNL d   1      -0.052  -4.471  -2.022  0.00  0.00    -0.004 A 
ATOM      4  C2  UNL d   1       0.045  -3.212  -2.576  0.00  0.00    -0.047 A 
ATOM      5  C3  UNL d   1       1.260  -2.644  -2.125  0.00  0.00    -0.047 A 
ATOM      6  C4  UNL d   1       1.870  -3.572  -1.308  0.00  0.00    -0.004 A 
ENDROOT
TORSDOF 0
ENDMDL
