MODEL 1
REMARK minimizedAffinity -1.65130758
REMARK minimizedRMSD -1
REMARK  0 active torsions:
REMARK  status: ('A' for Active; 'I' for Inactive)
ROOT
ATOM      1  C   UNL d   1       1.069  -0.661  -0.349  0.00  0.00     0.172 C 
ATOM      2  N   UNL d   1       1.017  -1.909  -1.074  0.00  0.00    -0.070 N 
ATOM      3  C1  UNL d   1       1.634  -3.074  -0.704  0.00  0.00    -0.004 A 
ATOM      4  C2  UNL d   1       1.342  -4.027  -1.655  0.00  0.00    -0.047 A 
ATOM      5  C3  UNL d   1       0.521  -3.414  -2.631  0.00  0.00    -0.047 A 
ATOM      6  C4  UNL d   1       0.336  -2.102  -2.247  0.00  0.00    -0.004 A 
ENDROOT
TORSDOF 0
ENDMDL
