MODEL 1
REMARK minimizedAffinity -3.84637046
REMARK minimizedRMSD -1
REMARK  0 active torsions:
REMARK  status: ('A' for Active; 'I' for Inactive)
ROOT
ATOM      1  C   UNL d   1       2.172   0.861  -0.763  0.00  0.00     0.078 C 
ATOM      2  C1  UNL d   1       1.447  -0.290  -0.132  0.00  0.00    -0.077 A 
ATOM      3  C2  UNL d   1       0.064  -0.442  -0.283  0.00  0.00    -0.001 A 
ATOM      4  C3  UNL d   1      -0.599  -1.514   0.318  0.00  0.00     0.003 A 
ATOM      5  C4  UNL d   1       0.113  -2.441   1.076  0.00  0.00    -0.005 A 
ATOM      6  C5  UNL d   1       1.490  -2.296   1.234  0.00  0.00     0.003 A 
ATOM      7  C6  UNL d   1       2.155  -1.226   0.634  0.00  0.00    -0.001 A 
ENDROOT
TORSDOF 0
ENDMDL
