MODEL 1
REMARK minimizedAffinity -1.45887554
REMARK minimizedRMSD -1
REMARK  0 active torsions:
REMARK  status: ('A' for Active; 'I' for Inactive)
ROOT
ATOM      1  C   UNL d   1      -0.236   5.252  -4.502  0.00  0.00     0.078 C 
ATOM      2  C1  UNL d   1      -1.078   4.189  -3.862  0.00  0.00    -0.077 A 
ATOM      3  C2  UNL d   1      -1.897   3.356  -4.633  0.00  0.00    -0.001 A 
ATOM      4  C3  UNL d   1      -2.683   2.377  -4.022  0.00  0.00     0.003 A 
ATOM      5  C4  UNL d   1      -2.658   2.223  -2.638  0.00  0.00    -0.005 A 
ATOM      6  C5  UNL d   1      -1.847   3.049  -1.862  0.00  0.00     0.003 A 
ATOM      7  C6  UNL d   1      -1.061   4.028  -2.471  0.00  0.00    -0.001 A 
ENDROOT
TORSDOF 0
ENDMDL
