MODEL 1
REMARK minimizedAffinity -4.75666285
REMARK minimizedRMSD -1
REMARK  0 active torsions:
REMARK  status: ('A' for Active; 'I' for Inactive)
ROOT
ATOM      1  C   UNL d   1      -0.479   1.396  -0.357  0.00  0.00     0.078 C 
ATOM      2  C1  UNL d   1       0.345   0.182  -0.046  0.00  0.00    -0.077 A 
ATOM      3  C2  UNL d   1       1.614   0.008  -0.610  0.00  0.00    -0.001 A 
ATOM      4  C3  UNL d   1       2.366  -1.131  -0.319  0.00  0.00     0.003 A 
ATOM      5  C4  UNL d   1       1.857  -2.106   0.536  0.00  0.00    -0.005 A 
ATOM      6  C5  UNL d   1       0.593  -1.943   1.100  0.00  0.00     0.003 A 
ATOM      7  C6  UNL d   1      -0.160  -0.805   0.811  0.00  0.00    -0.001 A 
ENDROOT
TORSDOF 0
ENDMDL
