MODEL 1
REMARK minimizedAffinity -5.32965136
REMARK minimizedRMSD -1
REMARK  0 active torsions:
REMARK  status: ('A' for Active; 'I' for Inactive)
ROOT
ATOM      1  C   UNL d   1      -0.364   1.572  -0.841  0.00  0.00     0.078 C 
ATOM      2  C1  UNL d   1      -0.396   0.371   0.056  0.00  0.00    -0.077 A 
ATOM      3  C2  UNL d   1      -1.054   0.412   1.292  0.00  0.00    -0.001 A 
ATOM      4  C3  UNL d   1      -1.068  -0.711   2.121  0.00  0.00     0.003 A 
ATOM      5  C4  UNL d   1      -0.425  -1.882   1.725  0.00  0.00    -0.005 A 
ATOM      6  C5  UNL d   1       0.234  -1.931   0.498  0.00  0.00     0.003 A 
ATOM      7  C6  UNL d   1       0.249  -0.810  -0.333  0.00  0.00    -0.001 A 
ENDROOT
TORSDOF 0
ENDMDL
