MODEL 1
REMARK minimizedAffinity -5.43970728
REMARK minimizedRMSD -1
REMARK  0 active torsions:
REMARK  status: ('A' for Active; 'I' for Inactive)
ROOT
ATOM      1  C   UNL d   1      -0.666   1.495  -0.912  0.00  0.00     0.078 C 
ATOM      2  C1  UNL d   1       0.134   0.393  -0.284  0.00  0.00    -0.077 A 
ATOM      3  C2  UNL d   1       1.480   0.199  -0.616  0.00  0.00    -0.001 A 
ATOM      4  C3  UNL d   1       2.209  -0.837  -0.031  0.00  0.00     0.003 A 
ATOM      5  C4  UNL d   1       1.601  -1.688   0.890  0.00  0.00    -0.005 A 
ATOM      6  C5  UNL d   1       0.261  -1.504   1.225  0.00  0.00     0.003 A 
ATOM      7  C6  UNL d   1      -0.470  -0.469   0.640  0.00  0.00    -0.001 A 
ENDROOT
TORSDOF 0
ENDMDL
