MODEL 1
REMARK minimizedAffinity -3.82450533
REMARK minimizedRMSD -1
REMARK  0 active torsions:
REMARK  status: ('A' for Active; 'I' for Inactive)
ROOT
ATOM      1  C   UNL d   1      -0.357   4.252  -4.149  0.00  0.00     0.078 C 
ATOM      2  C1  UNL d   1      -1.379   3.239  -3.728  0.00  0.00    -0.077 A 
ATOM      3  C2  UNL d   1      -2.748   3.529  -3.783  0.00  0.00    -0.001 A 
ATOM      4  C3  UNL d   1      -3.688   2.580  -3.379  0.00  0.00     0.003 A 
ATOM      5  C4  UNL d   1      -3.270   1.334  -2.916  0.00  0.00    -0.005 A 
ATOM      6  C5  UNL d   1      -1.910   1.037  -2.855  0.00  0.00     0.003 A 
ATOM      7  C6  UNL d   1      -0.968   1.985  -3.259  0.00  0.00    -0.001 A 
ENDROOT
TORSDOF 0
ENDMDL
