MODEL 1
REMARK minimizedAffinity -2.54480886
REMARK minimizedRMSD -1
REMARK  0 active torsions:
REMARK  status: ('A' for Active; 'I' for Inactive)
ROOT
ATOM      1  C   UNL d   1       1.556  -3.008   1.064  0.00  0.00     0.078 C 
ATOM      2  C1  UNL d   1       0.981  -1.697   0.620  0.00  0.00    -0.077 A 
ATOM      3  C2  UNL d   1       1.765  -0.760  -0.065  0.00  0.00    -0.001 A 
ATOM      4  C3  UNL d   1       1.219   0.461  -0.464  0.00  0.00     0.003 A 
ATOM      5  C4  UNL d   1      -0.113   0.757  -0.182  0.00  0.00    -0.005 A 
ATOM      6  C5  UNL d   1      -0.900  -0.167   0.501  0.00  0.00     0.003 A 
ATOM      7  C6  UNL d   1      -0.356  -1.389   0.901  0.00  0.00    -0.001 A 
ENDROOT
TORSDOF 0
ENDMDL
