MODEL 1
REMARK minimizedAffinity -4.37361526
REMARK minimizedRMSD -1
REMARK  0 active torsions:
REMARK  status: ('A' for Active; 'I' for Inactive)
ROOT
ATOM      1  C   UNL d   1       0.179  -1.974   0.576  0.00  0.00     0.078 C 
ATOM      2  C1  UNL d   1       0.353  -0.529   0.214  0.00  0.00    -0.077 A 
ATOM      3  C2  UNL d   1       1.622   0.000  -0.052  0.00  0.00    -0.001 A 
ATOM      4  C3  UNL d   1       1.770   1.350  -0.378  0.00  0.00     0.003 A 
ATOM      5  C4  UNL d   1       0.653   2.181  -0.440  0.00  0.00    -0.005 A 
ATOM      6  C5  UNL d   1      -0.613   1.664  -0.175  0.00  0.00     0.003 A 
ATOM      7  C6  UNL d   1      -0.763   0.315   0.151  0.00  0.00    -0.001 A 
ENDROOT
TORSDOF 0
ENDMDL
