MODEL 1
REMARK minimizedAffinity -5.6741724
REMARK minimizedRMSD -1
REMARK  0 active torsions:
REMARK  status: ('A' for Active; 'I' for Inactive)
ROOT
ATOM      1  C   UNL d   1       2.310   0.397  -0.947  0.00  0.00     0.078 C 
ATOM      2  C1  UNL d   1       1.319  -0.324  -0.083  0.00  0.00    -0.077 A 
ATOM      3  C2  UNL d   1       0.171   0.323   0.392  0.00  0.00    -0.001 A 
ATOM      4  C3  UNL d   1      -0.738  -0.358   1.203  0.00  0.00     0.003 A 
ATOM      5  C4  UNL d   1      -0.509  -1.688   1.547  0.00  0.00    -0.005 A 
ATOM      6  C5  UNL d   1       0.632  -2.340   1.082  0.00  0.00     0.003 A 
ATOM      7  C6  UNL d   1       1.542  -1.661   0.270  0.00  0.00    -0.001 A 
ENDROOT
TORSDOF 0
ENDMDL
