MODEL 1
REMARK minimizedAffinity -4.16840267
REMARK minimizedRMSD -1
REMARK  0 active torsions:
REMARK  status: ('A' for Active; 'I' for Inactive)
ROOT
ATOM      1  C   UNL d   1       0.742  -2.940   1.290  0.00  0.00     0.078 C 
ATOM      2  C1  UNL d   1       0.299  -1.577   0.848  0.00  0.00    -0.077 A 
ATOM      3  C2  UNL d   1       1.169  -0.725   0.156  0.00  0.00    -0.001 A 
ATOM      4  C3  UNL d   1       0.747   0.545  -0.240  0.00  0.00     0.003 A 
ATOM      5  C4  UNL d   1      -0.546   0.975   0.052  0.00  0.00    -0.005 A 
ATOM      6  C5  UNL d   1      -1.418   0.135   0.742  0.00  0.00     0.003 A 
ATOM      7  C6  UNL d   1      -0.997  -1.135   1.139  0.00  0.00    -0.001 A 
ENDROOT
TORSDOF 0
ENDMDL
