MODEL 1
REMARK minimizedAffinity -3.92252636
REMARK minimizedRMSD -1
REMARK  0 active torsions:
REMARK  status: ('A' for Active; 'I' for Inactive)
ROOT
ATOM      1  C   UNL d   1       1.289  -2.628   0.949  0.00  0.00     0.078 C 
ATOM      2  C1  UNL d   1       0.287  -1.519   0.828  0.00  0.00    -0.077 A 
ATOM      3  C2  UNL d   1       0.423  -0.528  -0.152  0.00  0.00    -0.001 A 
ATOM      4  C3  UNL d   1      -0.512   0.505  -0.247  0.00  0.00     0.003 A 
ATOM      5  C4  UNL d   1      -1.588   0.557   0.636  0.00  0.00    -0.005 A 
ATOM      6  C5  UNL d   1      -1.731  -0.424   1.616  0.00  0.00     0.003 A 
ATOM      7  C6  UNL d   1      -0.797  -1.457   1.712  0.00  0.00    -0.001 A 
ENDROOT
TORSDOF 0
ENDMDL
