MODEL 1
REMARK minimizedAffinity -3.79328227
REMARK minimizedRMSD -1
REMARK  0 active torsions:
REMARK  status: ('A' for Active; 'I' for Inactive)
ROOT
ATOM      1  C   UNL d   1      -1.039   0.746  -0.810  0.00  0.00     0.078 C 
ATOM      2  C1  UNL d   1      -0.254  -0.400  -0.245  0.00  0.00    -0.077 A 
ATOM      3  C2  UNL d   1      -0.865  -1.631   0.021  0.00  0.00    -0.001 A 
ATOM      4  C3  UNL d   1      -0.124  -2.686   0.555  0.00  0.00     0.003 A 
ATOM      5  C4  UNL d   1       1.232  -2.520   0.830  0.00  0.00    -0.005 A 
ATOM      6  C5  UNL d   1       1.848  -1.298   0.571  0.00  0.00     0.003 A 
ATOM      7  C6  UNL d   1       1.109  -0.242   0.036  0.00  0.00    -0.001 A 
ENDROOT
TORSDOF 0
ENDMDL
