MODEL 1
REMARK minimizedAffinity -2.49634671
REMARK minimizedRMSD -1
REMARK  0 active torsions:
REMARK  status: ('A' for Active; 'I' for Inactive)
ROOT
ATOM      1  C   UNL d   1       0.092  -2.640   1.324  0.00  0.00     0.078 C 
ATOM      2  C1  UNL d   1      -0.098  -1.203   0.938  0.00  0.00    -0.077 A 
ATOM      3  C2  UNL d   1      -1.197  -0.471   1.403  0.00  0.00    -0.001 A 
ATOM      4  C3  UNL d   1      -1.367   0.862   1.028  0.00  0.00     0.003 A 
ATOM      5  C4  UNL d   1      -0.443   1.475   0.185  0.00  0.00    -0.005 A 
ATOM      6  C5  UNL d   1       0.653   0.754  -0.286  0.00  0.00     0.003 A 
ATOM      7  C6  UNL d   1       0.824  -0.580   0.089  0.00  0.00    -0.001 A 
ENDROOT
TORSDOF 0
ENDMDL
