MODEL 1
REMARK minimizedAffinity -4.17674923
REMARK minimizedRMSD -1
REMARK  0 active torsions:
REMARK  status: ('A' for Active; 'I' for Inactive)
ROOT
ATOM      1  C   UNL d   1       1.451  -3.068   0.790  0.00  0.00     0.078 C 
ATOM      2  C1  UNL d   1       0.658  -1.817   0.553  0.00  0.00    -0.077 A 
ATOM      3  C2  UNL d   1       1.090  -0.852  -0.365  0.00  0.00    -0.001 A 
ATOM      4  C3  UNL d   1       0.347   0.312  -0.569  0.00  0.00     0.003 A 
ATOM      5  C4  UNL d   1      -0.833   0.522   0.143  0.00  0.00    -0.005 A 
ATOM      6  C5  UNL d   1      -1.270  -0.432   1.059  0.00  0.00     0.003 A 
ATOM      7  C6  UNL d   1      -0.528  -1.596   1.264  0.00  0.00    -0.001 A 
ENDROOT
TORSDOF 0
ENDMDL
