MODEL 1
REMARK minimizedAffinity 2.34590101
REMARK minimizedRMSD -1
REMARK  0 active torsions:
REMARK  status: ('A' for Active; 'I' for Inactive)
ROOT
ATOM      1  C   UNL d   1      -5.915   0.195  -3.686  0.00  0.00     0.172 C 
ATOM      2  N   UNL d   1      -5.945   1.469  -4.366  0.00  0.00    -0.070 N 
ATOM      3  C1  UNL d   1      -5.975   2.696  -3.760  0.00  0.00    -0.004 A 
ATOM      4  C2  UNL d   1      -5.997   3.655  -4.749  0.00  0.00    -0.047 A 
ATOM      5  C3  UNL d   1      -5.980   2.980  -5.993  0.00  0.00    -0.047 A 
ATOM      6  C4  UNL d   1      -5.948   1.628  -5.726  0.00  0.00    -0.004 A 
ENDROOT
TORSDOF 0
ENDMDL
