MODEL 1
REMARK minimizedAffinity 2.72467327
REMARK minimizedRMSD -1
REMARK  0 active torsions:
REMARK  status: ('A' for Active; 'I' for Inactive)
ROOT
ATOM      1  C   UNL d   1       2.725   0.346   2.413  0.00  0.00     0.172 C 
ATOM      2  N   UNL d   1       2.728  -0.821   3.263  0.00  0.00    -0.070 N 
ATOM      3  C1  UNL d   1       1.650  -1.626   3.519  0.00  0.00    -0.004 A 
ATOM      4  C2  UNL d   1       2.063  -2.626   4.372  0.00  0.00    -0.047 A 
ATOM      5  C3  UNL d   1       3.437  -2.415   4.639  0.00  0.00    -0.047 A 
ATOM      6  C4  UNL d   1       3.823  -1.291   3.940  0.00  0.00    -0.004 A 
ENDROOT
TORSDOF 0
ENDMDL
