MODEL 1
REMARK minimizedAffinity 9.06145191
REMARK minimizedRMSD -1
REMARK  0 active torsions:
REMARK  status: ('A' for Active; 'I' for Inactive)
ROOT
ATOM      1  C   UNL d   1      -0.895  -0.275   0.782  0.00  0.00     0.172 C 
ATOM      2  N   UNL d   1      -1.640  -0.735  -0.366  0.00  0.00    -0.070 N 
ATOM      3  C1  UNL d   1      -2.180  -1.984  -0.519  0.00  0.00    -0.004 A 
ATOM      4  C2  UNL d   1      -2.809  -2.025  -1.745  0.00  0.00    -0.047 A 
ATOM      5  C3  UNL d   1      -2.640  -0.757  -2.350  0.00  0.00    -0.047 A 
ATOM      6  C4  UNL d   1      -1.913   0.022  -1.475  0.00  0.00    -0.004 A 
ENDROOT
TORSDOF 0
ENDMDL
