MODEL 1
REMARK minimizedAffinity 0.232173011
REMARK minimizedRMSD -1
REMARK  0 active torsions:
REMARK  status: ('A' for Active; 'I' for Inactive)
ROOT
ATOM      1  C   UNL d   1       5.519  -2.390   6.000  0.00  0.00     0.172 C 
ATOM      2  N   UNL d   1       4.257  -2.309   5.304  0.00  0.00    -0.070 N 
ATOM      3  C1  UNL d   1       4.095  -2.270   3.945  0.00  0.00    -0.004 A 
ATOM      4  C2  UNL d   1       2.745  -2.195   3.682  0.00  0.00    -0.047 A 
ATOM      5  C3  UNL d   1       2.071  -2.188   4.926  0.00  0.00    -0.047 A 
ATOM      6  C4  UNL d   1       3.031  -2.260   5.913  0.00  0.00    -0.004 A 
ENDROOT
TORSDOF 0
ENDMDL
