MODEL 1
REMARK minimizedAffinity -0.355510056
REMARK minimizedRMSD -1
REMARK  0 active torsions:
REMARK  status: ('A' for Active; 'I' for Inactive)
ROOT
ATOM      1  C   UNL d   1       2.409  -2.233   4.346  0.00  0.00     0.172 C 
ATOM      2  N   UNL d   1       3.778  -2.412   4.768  0.00  0.00    -0.070 N 
ATOM      3  C1  UNL d   1       4.183  -2.885   5.988  0.00  0.00    -0.004 A 
ATOM      4  C2  UNL d   1       5.561  -2.906   5.996  0.00  0.00    -0.047 A 
ATOM      5  C3  UNL d   1       6.000  -2.429   4.738  0.00  0.00    -0.047 A 
ATOM      6  C4  UNL d   1       4.876  -2.130   3.997  0.00  0.00    -0.004 A 
ENDROOT
TORSDOF 0
ENDMDL
