MODEL 1
REMARK minimizedAffinity -1.89128757
REMARK minimizedRMSD -1
REMARK  0 active torsions:
REMARK  status: ('A' for Active; 'I' for Inactive)
ROOT
ATOM      1  C   UNL d   1       5.666  -1.958   3.829  0.00  0.00     0.172 C 
ATOM      2  N   UNL d   1       4.255  -1.909   3.526  0.00  0.00    -0.070 N 
ATOM      3  C1  UNL d   1       3.641  -0.980   2.729  0.00  0.00    -0.004 A 
ATOM      4  C2  UNL d   1       2.296  -1.277   2.693  0.00  0.00    -0.047 A 
ATOM      5  C3  UNL d   1       2.094  -2.424   3.498  0.00  0.00    -0.047 A 
ATOM      6  C4  UNL d   1       3.323  -2.794   4.001  0.00  0.00    -0.004 A 
ENDROOT
TORSDOF 0
ENDMDL
