MODEL 1
REMARK minimizedAffinity 5.19496393
REMARK minimizedRMSD -1
REMARK  0 active torsions:
REMARK  status: ('A' for Active; 'I' for Inactive)
ROOT
ATOM      1  C   UNL d   1       5.444  -1.992   5.591  0.00  0.00     0.172 C 
ATOM      2  N   UNL d   1       4.208  -2.132   4.858  0.00  0.00    -0.070 N 
ATOM      3  C1  UNL d   1       3.525  -3.303   4.661  0.00  0.00    -0.004 A 
ATOM      4  C2  UNL d   1       2.401  -3.015   3.916  0.00  0.00    -0.047 A 
ATOM      5  C3  UNL d   1       2.411  -1.624   3.655  0.00  0.00    -0.047 A 
ATOM      6  C4  UNL d   1       3.540  -1.103   4.249  0.00  0.00    -0.004 A 
ENDROOT
TORSDOF 0
ENDMDL
