MODEL 1
REMARK minimizedAffinity 4.98997593
REMARK minimizedRMSD -1
REMARK  0 active torsions:
REMARK  status: ('A' for Active; 'I' for Inactive)
ROOT
ATOM      1  C   UNL d   1       3.367  -3.753   4.265  0.00  0.00     0.172 C 
ATOM      2  N   UNL d   1       2.642  -2.871   3.381  0.00  0.00    -0.070 N 
ATOM      3  C1  UNL d   1       2.321  -3.137   2.076  0.00  0.00    -0.004 A 
ATOM      4  C2  UNL d   1       1.632  -2.050   1.582  0.00  0.00    -0.047 A 
ATOM      5  C3  UNL d   1       1.537  -1.099   2.625  0.00  0.00    -0.047 A 
ATOM      6  C4  UNL d   1       2.171  -1.633   3.727  0.00  0.00    -0.004 A 
ENDROOT
TORSDOF 0
ENDMDL
