MODEL 1
REMARK minimizedAffinity -6.58817387
REMARK minimizedRMSD -1
REMARK  3 active torsions:
REMARK  status: ('A' for Active; 'I' for Inactive)
REMARK    1  A    between atoms: C3'_2  and  C2'_3 
REMARK    2  A    between atoms: C2'_3  and  C1'_4 
REMARK    3  A    between atoms: C1'_4  and  C1_5 
ROOT
ATOM      1  C1  N4B d   1       0.269  -0.133  -0.508  0.00  0.00    -0.075 A 
ATOM      2  C2  N4B d   1       0.846   1.155  -0.537  0.00  0.00     0.002 A 
ATOM      3  C3  N4B d   1       1.527   1.578  -1.653  0.00  0.00     0.002 A 
ATOM      4  C4  N4B d   1       1.658   0.726  -2.739  0.00  0.00    -0.004 A 
ATOM      5  C5  N4B d   1       1.076  -0.507  -2.713  0.00  0.00     0.002 A 
ATOM      6  C6  N4B d   1       0.385  -0.943  -1.600  0.00  0.00     0.002 A 
ENDROOT
BRANCH   1   7
ATOM      7  C1' N4B d   1      -0.411  -0.671   0.721  0.00  0.00     0.057 C 
BRANCH   7   8
ATOM      8  C2' N4B d   1      -1.432   0.349   1.216  0.00  0.00     0.009 C 
BRANCH   8   9
ATOM      9  C3' N4B d   1      -2.819   0.082   0.658  0.00  0.00     0.004 C 
ATOM     10  C4' N4B d   1      -3.763   1.227   0.877  0.00  0.00     0.003 C 
ENDBRANCH   8   9
ENDBRANCH   7   8
ENDBRANCH   1   7
TORSDOF 3
ENDMDL
