MODEL 1
REMARK minimizedAffinity -3.66167498
REMARK minimizedRMSD -1
REMARK  3 active torsions:
REMARK  status: ('A' for Active; 'I' for Inactive)
REMARK    1  A    between atoms: C3'_2  and  C2'_3 
REMARK    2  A    between atoms: C2'_3  and  C1'_4 
REMARK    3  A    between atoms: C1'_4  and  C1_5 
ROOT
ATOM      1  C1  N4B d   1       0.425   0.061   0.056  0.00  0.00    -0.075 A 
ATOM      2  C2  N4B d   1       0.219  -1.168  -0.607  0.00  0.00     0.002 A 
ATOM      3  C3  N4B d   1       0.700  -1.350  -1.881  0.00  0.00     0.002 A 
ATOM      4  C4  N4B d   1       1.370  -0.315  -2.515  0.00  0.00    -0.004 A 
ATOM      5  C5  N4B d   1       1.587   0.861  -1.858  0.00  0.00     0.002 A 
ATOM      6  C6  N4B d   1       1.113   1.056  -0.576  0.00  0.00     0.002 A 
ENDROOT
BRANCH   1   7
ATOM      7  C1' N4B d   1      -0.156   0.337   1.416  0.00  0.00     0.057 C 
BRANCH   7   8
ATOM      8  C2' N4B d   1      -1.649   0.022   1.396  0.00  0.00     0.009 C 
BRANCH   8   9
ATOM      9  C3' N4B d   1      -2.449   1.004   2.234  0.00  0.00     0.004 C 
ATOM     10  C4' N4B d   1      -3.917   0.967   1.930  0.00  0.00     0.003 C 
ENDBRANCH   8   9
ENDBRANCH   7   8
ENDBRANCH   1   7
TORSDOF 3
ENDMDL
