MODEL 1
REMARK minimizedAffinity -2.6774714
REMARK minimizedRMSD -1
REMARK  3 active torsions:
REMARK  status: ('A' for Active; 'I' for Inactive)
REMARK    1  A    between atoms: C3'_2  and  C2'_3 
REMARK    2  A    between atoms: C2'_3  and  C1'_4 
REMARK    3  A    between atoms: C1'_4  and  C1_5 
ROOT
ATOM      1  C1  N4B d   1      -0.512  -0.133   0.463  0.00  0.00    -0.075 A 
ATOM      2  C2  N4B d   1      -0.514  -1.523   0.217  0.00  0.00     0.002 A 
ATOM      3  C3  N4B d   1       0.230  -2.039  -0.816  0.00  0.00     0.002 A 
ATOM      4  C4  N4B d   1       0.964  -1.185  -1.625  0.00  0.00    -0.004 A 
ATOM      5  C5  N4B d   1       0.980   0.154  -1.365  0.00  0.00     0.002 A 
ATOM      6  C6  N4B d   1       0.241   0.686  -0.328  0.00  0.00     0.002 A 
ENDROOT
BRANCH   1   7
ATOM      7  C1' N4B d   1      -1.376   0.487   1.527  0.00  0.00     0.057 C 
BRANCH   7   8
ATOM      8  C2' N4B d   1      -2.621   1.083   0.877  0.00  0.00     0.009 C 
BRANCH   8   9
ATOM      9  C3' N4B d   1      -3.891   0.684   1.610  0.00  0.00     0.004 C 
ATOM     10  C4' N4B d   1      -4.609  -0.455   0.949  0.00  0.00     0.003 C 
ENDBRANCH   8   9
ENDBRANCH   7   8
ENDBRANCH   1   7
TORSDOF 3
ENDMDL
