MODEL 1
REMARK minimizedAffinity -5.62403774
REMARK minimizedRMSD -1
REMARK  3 active torsions:
REMARK  status: ('A' for Active; 'I' for Inactive)
REMARK    1  A    between atoms: C3'_2  and  C2'_3 
REMARK    2  A    between atoms: C2'_3  and  C1'_4 
REMARK    3  A    between atoms: C1'_4  and  C1_5 
ROOT
ATOM      1  C1  N4B d   1       0.129   0.378  -0.190  0.00  0.00    -0.075 A 
ATOM      2  C2  N4B d   1       1.376   0.997  -0.427  0.00  0.00     0.002 A 
ATOM      3  C3  N4B d   1       1.990   0.860  -1.648  0.00  0.00     0.002 A 
ATOM      4  C4  N4B d   1       1.388   0.095  -2.636  0.00  0.00    -0.004 A 
ATOM      5  C5  N4B d   1       0.172  -0.478  -2.408  0.00  0.00     0.002 A 
ATOM      6  C6  N4B d   1      -0.459  -0.345  -1.187  0.00  0.00     0.002 A 
ENDROOT
BRANCH   1   7
ATOM      7  C1' N4B d   1      -0.540   0.429   1.156  0.00  0.00     0.057 C 
BRANCH   7   8
ATOM      8  C2' N4B d   1      -2.010   0.050   1.000  0.00  0.00     0.009 C 
BRANCH   8   9
ATOM      9  C3' N4B d   1      -2.884   0.717   2.048  0.00  0.00     0.004 C 
ATOM     10  C4' N4B d   1      -2.088   1.335   3.159  0.00  0.00     0.003 C 
ENDBRANCH   8   9
ENDBRANCH   7   8
ENDBRANCH   1   7
TORSDOF 3
ENDMDL
