MODEL 1
REMARK minimizedAffinity -5.7672801
REMARK minimizedRMSD -1
REMARK  3 active torsions:
REMARK  status: ('A' for Active; 'I' for Inactive)
REMARK    1  A    between atoms: C3'_2  and  C2'_3 
REMARK    2  A    between atoms: C2'_3  and  C1'_4 
REMARK    3  A    between atoms: C1'_4  and  C1_5 
ROOT
ATOM      1  C1  N4B d   1      -1.314   0.096   0.418  0.00  0.00    -0.075 A 
ATOM      2  C2  N4B d   1      -1.434   0.074   1.825  0.00  0.00     0.002 A 
ATOM      3  C3  N4B d   1      -2.666   0.226   2.411  0.00  0.00     0.002 A 
ATOM      4  C4  N4B d   1      -3.786   0.420   1.615  0.00  0.00    -0.004 A 
ATOM      5  C5  N4B d   1      -3.665   0.414   0.256  0.00  0.00     0.002 A 
ATOM      6  C6  N4B d   1      -2.433   0.259  -0.347  0.00  0.00     0.002 A 
ENDROOT
BRANCH   1   7
ATOM      7  C1' N4B d   1       0.024   0.020  -0.267  0.00  0.00     0.057 C 
BRANCH   7   8
ATOM      8  C2' N4B d   1      -0.158  -0.587  -1.655  0.00  0.00     0.009 C 
BRANCH   8   9
ATOM      9  C3' N4B d   1       0.508   0.250  -2.733  0.00  0.00     0.004 C 
ATOM     10  C4' N4B d   1       1.884   0.706  -2.347  0.00  0.00     0.003 C 
ENDBRANCH   8   9
ENDBRANCH   7   8
ENDBRANCH   1   7
TORSDOF 3
ENDMDL
