MODEL 1
REMARK minimizedAffinity -2.84297371
REMARK minimizedRMSD -1
REMARK  3 active torsions:
REMARK  status: ('A' for Active; 'I' for Inactive)
REMARK    1  A    between atoms: C3'_2  and  C2'_3 
REMARK    2  A    between atoms: C2'_3  and  C1'_4 
REMARK    3  A    between atoms: C1'_4  and  C1_5 
ROOT
ATOM      1  C1  N4B d   1      -1.184   0.054   0.873  0.00  0.00    -0.075 A 
ATOM      2  C2  N4B d   1      -1.642   0.999   1.817  0.00  0.00     0.002 A 
ATOM      3  C3  N4B d   1      -2.959   1.001   2.205  0.00  0.00     0.002 A 
ATOM      4  C4  N4B d   1      -3.838   0.082   1.650  0.00  0.00    -0.004 A 
ATOM      5  C5  N4B d   1      -3.383  -0.844   0.758  0.00  0.00     0.002 A 
ATOM      6  C6  N4B d   1      -2.060  -0.860   0.363  0.00  0.00     0.002 A 
ENDROOT
BRANCH   1   7
ATOM      7  C1' N4B d   1       0.228   0.069   0.355  0.00  0.00     0.057 C 
BRANCH   7   8
ATOM      8  C2' N4B d   1       0.586   1.486  -0.082  0.00  0.00     0.009 C 
BRANCH   8   9
ATOM      9  C3' N4B d   1       1.605   1.493  -1.209  0.00  0.00     0.004 C 
ATOM     10  C4' N4B d   1       1.453   0.324  -2.136  0.00  0.00     0.003 C 
ENDBRANCH   8   9
ENDBRANCH   7   8
ENDBRANCH   1   7
TORSDOF 3
ENDMDL
