MODEL 1
REMARK minimizedAffinity -5.1240654
REMARK minimizedRMSD -1
REMARK  3 active torsions:
REMARK  status: ('A' for Active; 'I' for Inactive)
REMARK    1  A    between atoms: C3'_2  and  C2'_3 
REMARK    2  A    between atoms: C2'_3  and  C1'_4 
REMARK    3  A    between atoms: C1'_4  and  C1_5 
ROOT
ATOM      1  C1  N4B d   1      -0.012  -0.063  -0.207  0.00  0.00    -0.075 A 
ATOM      2  C2  N4B d   1       0.920   0.995  -0.288  0.00  0.00     0.002 A 
ATOM      3  C3  N4B d   1       1.676   1.159  -1.423  0.00  0.00     0.002 A 
ATOM      4  C4  N4B d   1       1.530   0.271  -2.478  0.00  0.00    -0.004 A 
ATOM      5  C5  N4B d   1       0.609  -0.733  -2.402  0.00  0.00     0.002 A 
ATOM      6  C6  N4B d   1      -0.160  -0.907  -1.269  0.00  0.00     0.002 A 
ENDROOT
BRANCH   1   7
ATOM      7  C1' N4B d   1      -0.799  -0.334   1.046  0.00  0.00     0.057 C 
BRANCH   7   8
ATOM      8  C2' N4B d   1      -2.289  -0.237   0.733  0.00  0.00     0.009 C 
BRANCH   8   9
ATOM      9  C3' N4B d   1      -3.061   0.446   1.849  0.00  0.00     0.004 C 
ATOM     10  C4' N4B d   1      -4.135   1.360   1.338  0.00  0.00     0.003 C 
ENDBRANCH   8   9
ENDBRANCH   7   8
ENDBRANCH   1   7
TORSDOF 3
ENDMDL
