MODEL 1
REMARK minimizedAffinity -2.39850259
REMARK minimizedRMSD -1
REMARK  3 active torsions:
REMARK  status: ('A' for Active; 'I' for Inactive)
REMARK    1  A    between atoms: C3'_2  and  C2'_3 
REMARK    2  A    between atoms: C2'_3  and  C1'_4 
REMARK    3  A    between atoms: C1'_4  and  C1_5 
ROOT
ATOM      1  C1  N4B d   1       0.270   0.472  -0.244  0.00  0.00    -0.075 A 
ATOM      2  C2  N4B d   1       1.549   0.163  -0.757  0.00  0.00     0.002 A 
ATOM      3  C3  N4B d   1       1.764   0.170  -2.113  0.00  0.00     0.002 A 
ATOM      4  C4  N4B d   1       0.717   0.464  -2.973  0.00  0.00    -0.004 A 
ATOM      5  C5  N4B d   1      -0.509   0.787  -2.468  0.00  0.00     0.002 A 
ATOM      6  C6  N4B d   1      -0.739   0.787  -1.107  0.00  0.00     0.002 A 
ENDROOT
BRANCH   1   7
ATOM      7  C1' N4B d   1      -0.036   0.393   1.227  0.00  0.00     0.057 C 
BRANCH   7   8
ATOM      8  C2' N4B d   1      -1.538   0.197   1.416  0.00  0.00     0.009 C 
BRANCH   8   9
ATOM      9  C3' N4B d   1      -2.100   1.116   2.487  0.00  0.00     0.004 C 
ATOM     10  C4' N4B d   1      -3.552   1.429   2.281  0.00  0.00     0.003 C 
ENDBRANCH   8   9
ENDBRANCH   7   8
ENDBRANCH   1   7
TORSDOF 3
ENDMDL
