MODEL 1
REMARK minimizedAffinity 15.0967808
REMARK minimizedRMSD -1
REMARK  0 active torsions:
REMARK  status: ('A' for Active; 'I' for Inactive)
ROOT
ATOM      1  O1  BZF d   1       0.298   2.269  -1.948  0.00  0.00    -0.204 OA
ATOM      2  C2  BZF d   1       0.732   0.965  -2.091  0.00  0.00     0.174 A 
ATOM      3  C3  BZF d   1       1.445   0.578  -1.014  0.00  0.00    -0.012 A 
ATOM      4  C3A BZF d   1       1.378   1.679  -0.103  0.00  0.00    -0.107 A 
ATOM      5  C4  BZF d   1       1.878   1.893   1.150  0.00  0.00     0.055 A 
ATOM      6  C5  BZF d   1       1.696   3.105   1.736  0.00  0.00    -0.016 A 
ATOM      7  C6  BZF d   1       1.024   4.127   1.097  0.00  0.00     0.022 A 
ATOM      8  C7  BZF d   1       0.506   3.961  -0.144  0.00  0.00     0.029 A 
ATOM      9  C7A BZF d   1       0.660   2.726  -0.726  0.00  0.00     0.058 A 
ENDROOT
TORSDOF 0
ENDMDL
