MODEL 1
REMARK minimizedAffinity -1.24292266
REMARK minimizedRMSD -1
REMARK  0 active torsions:
REMARK  status: ('A' for Active; 'I' for Inactive)
ROOT
ATOM      1  O1  BZF d   1       2.951   4.143  -4.291  0.00  0.00    -0.204 OA
ATOM      2  C2  BZF d   1       3.388   5.283  -3.645  0.00  0.00     0.174 A 
ATOM      3  C3  BZF d   1       4.557   5.056  -3.013  0.00  0.00    -0.012 A 
ATOM      4  C3A BZF d   1       4.918   3.715  -3.357  0.00  0.00    -0.107 A 
ATOM      5  C4  BZF d   1       5.985   2.921  -3.048  0.00  0.00     0.055 A 
ATOM      6  C5  BZF d   1       5.999   1.634  -3.486  0.00  0.00    -0.016 A 
ATOM      7  C6  BZF d   1       4.962   1.109  -4.229  0.00  0.00     0.022 A 
ATOM      8  C7  BZF d   1       3.885   1.859  -4.564  0.00  0.00     0.029 A 
ATOM      9  C7A BZF d   1       3.883   3.169  -4.152  0.00  0.00     0.058 A 
ENDROOT
TORSDOF 0
ENDMDL
