MODEL 1
REMARK minimizedAffinity 9.96802521
REMARK minimizedRMSD -1
REMARK  0 active torsions:
REMARK  status: ('A' for Active; 'I' for Inactive)
ROOT
ATOM      1  O1  BZF d   1      -4.744  -6.000  -1.108  0.00  0.00    -0.204 OA
ATOM      2  C2  BZF d   1      -5.941  -5.450  -1.526  0.00  0.00     0.174 A 
ATOM      3  C3  BZF d   1      -5.828  -4.114  -1.671  0.00  0.00    -0.012 A 
ATOM      4  C3A BZF d   1      -4.452  -3.821  -1.410  0.00  0.00    -0.107 A 
ATOM      5  C4  BZF d   1      -3.720  -2.668  -1.413  0.00  0.00     0.055 A 
ATOM      6  C5  BZF d   1      -2.413  -2.715  -1.043  0.00  0.00    -0.016 A 
ATOM      7  C6  BZF d   1      -1.809  -3.894  -0.659  0.00  0.00     0.022 A 
ATOM      8  C7  BZF d   1      -2.492  -5.064  -0.645  0.00  0.00     0.029 A 
ATOM      9  C7A BZF d   1      -3.804  -5.026  -1.051  0.00  0.00     0.058 A 
ENDROOT
TORSDOF 0
ENDMDL
