MODEL 1
REMARK minimizedAffinity 7.87859821
REMARK minimizedRMSD -1
REMARK  0 active torsions:
REMARK  status: ('A' for Active; 'I' for Inactive)
ROOT
ATOM      1  O1  BZF d   1       0.402   2.225   1.255  0.00  0.00    -0.204 OA
ATOM      2  C2  BZF d   1       1.615   2.885   1.302  0.00  0.00     0.174 A 
ATOM      3  C3  BZF d   1       2.372   2.572   0.230  0.00  0.00    -0.012 A 
ATOM      4  C3A BZF d   1       1.545   1.731  -0.581  0.00  0.00    -0.107 A 
ATOM      5  C4  BZF d   1       1.731   1.112  -1.784  0.00  0.00     0.055 A 
ATOM      6  C5  BZF d   1       0.752   0.302  -2.268  0.00  0.00    -0.016 A 
ATOM      7  C6  BZF d   1      -0.420   0.085  -1.573  0.00  0.00     0.022 A 
ATOM      8  C7  BZF d   1      -0.651   0.682  -0.379  0.00  0.00     0.029 A 
ATOM      9  C7A BZF d   1       0.322   1.527   0.097  0.00  0.00     0.058 A 
ENDROOT
TORSDOF 0
ENDMDL
