MODEL 1
REMARK minimizedAffinity -0.580075085
REMARK minimizedRMSD -1
REMARK  0 active torsions:
REMARK  status: ('A' for Active; 'I' for Inactive)
ROOT
ATOM      1  O1  BZF d   1       0.452   1.217  -2.539  0.00  0.00    -0.204 OA
ATOM      2  C2  BZF d   1       1.306   0.904  -3.579  0.00  0.00     0.174 A 
ATOM      3  C3  BZF d   1       1.899  -0.289  -3.369  0.00  0.00    -0.012 A 
ATOM      4  C3A BZF d   1       1.313  -0.793  -2.165  0.00  0.00    -0.107 A 
ATOM      5  C4  BZF d   1       1.481  -1.945  -1.450  0.00  0.00     0.055 A 
ATOM      6  C5  BZF d   1       0.810  -2.098  -0.278  0.00  0.00    -0.016 A 
ATOM      7  C6  BZF d   1      -0.030  -1.120   0.211  0.00  0.00     0.022 A 
ATOM      8  C7  BZF d   1      -0.232   0.037  -0.465  0.00  0.00     0.029 A 
ATOM      9  C7A BZF d   1       0.418   0.181  -1.666  0.00  0.00     0.058 A 
ENDROOT
TORSDOF 0
ENDMDL
