MODEL 1
REMARK minimizedAffinity -2.89576411
REMARK minimizedRMSD -1
REMARK  0 active torsions:
REMARK  status: ('A' for Active; 'I' for Inactive)
ROOT
ATOM      1  O1  BZF d   1       0.420   1.012  -1.774  0.00  0.00    -0.204 OA
ATOM      2  C2  BZF d   1      -0.398   1.593  -0.825  0.00  0.00     0.174 A 
ATOM      3  C3  BZF d   1      -0.773   0.688   0.102  0.00  0.00    -0.012 A 
ATOM      4  C3A BZF d   1      -0.076  -0.513  -0.241  0.00  0.00    -0.107 A 
ATOM      5  C4  BZF d   1      -0.024  -1.760   0.313  0.00  0.00     0.055 A 
ATOM      6  C5  BZF d   1       0.696  -2.730  -0.308  0.00  0.00    -0.016 A 
ATOM      7  C6  BZF d   1       1.372  -2.490  -1.487  0.00  0.00     0.022 A 
ATOM      8  C7  BZF d   1       1.355  -1.268  -2.072  0.00  0.00     0.029 A 
ATOM      9  C7A BZF d   1       0.654  -0.277  -1.429  0.00  0.00     0.058 A 
ENDROOT
TORSDOF 0
ENDMDL
