MODEL 1
REMARK minimizedAffinity -4.05256367
REMARK minimizedRMSD -1
REMARK  0 active torsions:
REMARK  status: ('A' for Active; 'I' for Inactive)
ROOT
ATOM      1  O1  BZF d   1       1.750  -3.522  -3.574  0.00  0.00    -0.204 OA
ATOM      2  C2  BZF d   1       1.581  -3.474  -4.944  0.00  0.00     0.174 A 
ATOM      3  C3  BZF d   1       1.374  -2.207  -5.357  0.00  0.00    -0.012 A 
ATOM      4  C3A BZF d   1       1.510  -1.402  -4.182  0.00  0.00    -0.107 A 
ATOM      5  C4  BZF d   1       1.430  -0.058  -3.950  0.00  0.00     0.055 A 
ATOM      6  C5  BZF d   1       1.538   0.400  -2.675  0.00  0.00    -0.016 A 
ATOM      7  C6  BZF d   1       1.721  -0.457  -1.609  0.00  0.00     0.022 A 
ATOM      8  C7  BZF d   1       1.811  -1.797  -1.790  0.00  0.00     0.029 A 
ATOM      9  C7A BZF d   1       1.735  -2.260  -3.081  0.00  0.00     0.058 A 
ENDROOT
TORSDOF 0
ENDMDL
