MODEL 1
REMARK minimizedAffinity -3.77654076
REMARK minimizedRMSD -1
REMARK  0 active torsions:
REMARK  status: ('A' for Active; 'I' for Inactive)
ROOT
ATOM      1  O1  BZF d   1       0.313   1.280  -2.350  0.00  0.00    -0.204 OA
ATOM      2  C2  BZF d   1      -0.812   1.857  -1.793  0.00  0.00     0.174 A 
ATOM      3  C3  BZF d   1      -1.366   1.039  -0.876  0.00  0.00    -0.012 A 
ATOM      4  C3A BZF d   1      -0.484  -0.084  -0.792  0.00  0.00    -0.107 A 
ATOM      5  C4  BZF d   1      -0.486  -1.226  -0.043  0.00  0.00     0.055 A 
ATOM      6  C5  BZF d   1       0.482  -2.156  -0.253  0.00  0.00    -0.016 A 
ATOM      7  C6  BZF d   1       1.464  -1.980  -1.206  0.00  0.00     0.022 A 
ATOM      8  C7  BZF d   1       1.511  -0.861  -1.970  0.00  0.00     0.029 A 
ATOM      9  C7A BZF d   1       0.553   0.095  -1.737  0.00  0.00     0.058 A 
ENDROOT
TORSDOF 0
ENDMDL
