MODEL 1
REMARK minimizedAffinity 0.0959755704
REMARK minimizedRMSD -1
REMARK  0 active torsions:
REMARK  status: ('A' for Active; 'I' for Inactive)
ROOT
ATOM      1  O1  BZF d   1       0.630   1.055  -2.812  0.00  0.00    -0.204 OA
ATOM      2  C2  BZF d   1       1.349   0.785  -3.960  0.00  0.00     0.174 A 
ATOM      3  C3  BZF d   1       1.943  -0.423  -3.880  0.00  0.00    -0.012 A 
ATOM      4  C3A BZF d   1       1.496  -0.980  -2.640  0.00  0.00    -0.107 A 
ATOM      5  C4  BZF d   1       1.728  -2.168  -2.006  0.00  0.00     0.055 A 
ATOM      6  C5  BZF d   1       1.199  -2.372  -0.772  0.00  0.00    -0.016 A 
ATOM      7  C6  BZF d   1       0.438  -1.410  -0.139  0.00  0.00     0.022 A 
ATOM      8  C7  BZF d   1       0.177  -0.218  -0.730  0.00  0.00     0.029 A 
ATOM      9  C7A BZF d   1       0.683  -0.022  -1.992  0.00  0.00     0.058 A 
ENDROOT
TORSDOF 0
ENDMDL
