MODEL 1
REMARK minimizedAffinity -1.99348128
REMARK minimizedRMSD -1
REMARK  0 active torsions:
REMARK  status: ('A' for Active; 'I' for Inactive)
ROOT
ATOM      1  O1  BZF d   1      -0.832   2.552  -1.734  0.00  0.00    -0.204 OA
ATOM      2  C2  BZF d   1      -0.675   1.256  -1.282  0.00  0.00     0.174 A 
ATOM      3  C3  BZF d   1      -0.363   1.241   0.030  0.00  0.00    -0.012 A 
ATOM      4  C3A BZF d   1      -0.413   2.610   0.443  0.00  0.00    -0.107 A 
ATOM      5  C4  BZF d   1      -0.212   3.237   1.640  0.00  0.00     0.055 A 
ATOM      6  C5  BZF d   1      -0.265   4.594   1.691  0.00  0.00    -0.016 A 
ATOM      7  C6  BZF d   1      -0.509   5.355   0.566  0.00  0.00     0.022 A 
ATOM      8  C7  BZF d   1      -0.719   4.777  -0.642  0.00  0.00     0.029 A 
ATOM      9  C7A BZF d   1      -0.700   3.405  -0.690  0.00  0.00     0.058 A 
ENDROOT
TORSDOF 0
ENDMDL
