MODEL 1
REMARK minimizedAffinity -2.14673924
REMARK minimizedRMSD -1
REMARK  0 active torsions:
REMARK  status: ('A' for Active; 'I' for Inactive)
ROOT
ATOM      1  O1  BZF d   1       1.232  -0.874  -1.723  0.00  0.00    -0.204 OA
ATOM      2  C2  BZF d   1       1.049  -2.023  -0.978  0.00  0.00     0.174 A 
ATOM      3  C3  BZF d   1       0.102  -1.835  -0.036  0.00  0.00    -0.012 A 
ATOM      4  C3A BZF d   1      -0.398  -0.514  -0.262  0.00  0.00    -0.107 A 
ATOM      5  C4  BZF d   1      -1.363   0.241   0.341  0.00  0.00     0.055 A 
ATOM      6  C5  BZF d   1      -1.557   1.520  -0.074  0.00  0.00    -0.016 A 
ATOM      7  C6  BZF d   1      -0.801   2.078  -1.085  0.00  0.00     0.022 A 
ATOM      8  C7  BZF d   1       0.165   1.366  -1.716  0.00  0.00     0.029 A 
ATOM      9  C7A BZF d   1       0.340   0.063  -1.321  0.00  0.00     0.058 A 
ENDROOT
TORSDOF 0
ENDMDL
