MODEL 1
REMARK minimizedAffinity -3.34979486
REMARK minimizedRMSD -1
REMARK  0 active torsions:
REMARK  status: ('A' for Active; 'I' for Inactive)
ROOT
ATOM      1  O1  BZF d   1      -0.819  -0.278  -1.338  0.00  0.00    -0.204 OA
ATOM      2  C2  BZF d   1      -0.753  -0.929  -0.121  0.00  0.00     0.174 A 
ATOM      3  C3  BZF d   1       0.468  -1.472   0.065  0.00  0.00    -0.012 A 
ATOM      4  C3A BZF d   1       1.239  -1.061  -1.068  0.00  0.00    -0.107 A 
ATOM      5  C4  BZF d   1       2.534  -1.271  -1.448  0.00  0.00     0.055 A 
ATOM      6  C5  BZF d   1       2.955  -0.794  -2.648  0.00  0.00    -0.016 A 
ATOM      7  C6  BZF d   1       2.109  -0.108  -3.495  0.00  0.00     0.022 A 
ATOM      8  C7  BZF d   1       0.818   0.129  -3.159  0.00  0.00     0.029 A 
ATOM      9  C7A BZF d   1       0.398  -0.323  -1.932  0.00  0.00     0.058 A 
ENDROOT
TORSDOF 0
ENDMDL
