MODEL 1
REMARK minimizedAffinity -3.62959146
REMARK minimizedRMSD -1
REMARK  0 active torsions:
REMARK  status: ('A' for Active; 'I' for Inactive)
ROOT
ATOM      1  O1  BZF d   1      -1.580  -0.659   0.214  0.00  0.00    -0.204 OA
ATOM      2  C2  BZF d   1      -1.723   0.645  -0.219  0.00  0.00     0.174 A 
ATOM      3  C3  BZF d   1      -0.658   1.024  -0.956  0.00  0.00    -0.012 A 
ATOM      4  C3A BZF d   1       0.160  -0.145  -1.063  0.00  0.00    -0.107 A 
ATOM      5  C4  BZF d   1       1.346  -0.407  -1.687  0.00  0.00     0.055 A 
ATOM      6  C5  BZF d   1       1.916  -1.631  -1.536  0.00  0.00    -0.016 A 
ATOM      7  C6  BZF d   1       1.330  -2.615  -0.766  0.00  0.00     0.022 A 
ATOM      8  C7  BZF d   1       0.151  -2.404  -0.132  0.00  0.00     0.029 A 
ATOM      9  C7A BZF d   1      -0.443  -1.178  -0.309  0.00  0.00     0.058 A 
ENDROOT
TORSDOF 0
ENDMDL
