MODEL 1
REMARK minimizedAffinity -0.0318331495
REMARK minimizedRMSD -1
REMARK  0 active torsions:
REMARK  status: ('A' for Active; 'I' for Inactive)
ROOT
ATOM      1  O1  BZF d   1      -0.491   1.322  -1.459  0.00  0.00    -0.204 OA
ATOM      2  C2  BZF d   1      -1.243   1.140  -0.314  0.00  0.00     0.174 A 
ATOM      3  C3  BZF d   1      -1.044  -0.091   0.198  0.00  0.00    -0.012 A 
ATOM      4  C3A BZF d   1      -0.040  -0.685  -0.629  0.00  0.00    -0.107 A 
ATOM      5  C4  BZF d   1       0.592  -1.896  -0.616  0.00  0.00     0.055 A 
ATOM      6  C5  BZF d   1       1.472  -2.193  -1.609  0.00  0.00    -0.016 A 
ATOM      7  C6  BZF d   1       1.739  -1.306  -2.631  0.00  0.00     0.022 A 
ATOM      8  C7  BZF d   1       1.141  -0.091  -2.684  0.00  0.00     0.029 A 
ATOM      9  C7A BZF d   1       0.277   0.225  -1.664  0.00  0.00     0.058 A 
ENDROOT
TORSDOF 0
ENDMDL
