MODEL 1
REMARK minimizedAffinity -2.5463438
REMARK minimizedRMSD -1
REMARK  0 active torsions:
REMARK  status: ('A' for Active; 'I' for Inactive)
ROOT
ATOM      1  O1  BZF d   1      -0.984   1.324   2.564  0.00  0.00    -0.204 OA
ATOM      2  C2  BZF d   1      -2.077   0.663   3.089  0.00  0.00     0.174 A 
ATOM      3  C3  BZF d   1      -2.400  -0.404   2.331  0.00  0.00    -0.012 A 
ATOM      4  C3A BZF d   1      -1.392  -0.465   1.317  0.00  0.00    -0.107 A 
ATOM      5  C4  BZF d   1      -1.159  -1.315   0.275  0.00  0.00     0.055 A 
ATOM      6  C5  BZF d   1      -0.130  -1.054  -0.574  0.00  0.00    -0.016 A 
ATOM      7  C6  BZF d   1       0.681   0.050  -0.413  0.00  0.00     0.022 A 
ATOM      8  C7  BZF d   1       0.492   0.920   0.610  0.00  0.00     0.029 A 
ATOM      9  C7A BZF d   1      -0.527   0.640   1.488  0.00  0.00     0.058 A 
ENDROOT
TORSDOF 0
ENDMDL
