MODEL 1
REMARK minimizedAffinity -2.62508368
REMARK minimizedRMSD -1
REMARK  0 active torsions:
REMARK  status: ('A' for Active; 'I' for Inactive)
ROOT
ATOM      1  O1  BZF d   1      -0.436  -0.840   0.748  0.00  0.00    -0.204 OA
ATOM      2  C2  BZF d   1       0.129  -0.694  -0.505  0.00  0.00     0.174 A 
ATOM      3  C3  BZF d   1       0.443   0.596  -0.740  0.00  0.00    -0.012 A 
ATOM      4  C3A BZF d   1       0.134   1.287   0.474  0.00  0.00    -0.107 A 
ATOM      5  C4  BZF d   1       0.243   2.590   0.867  0.00  0.00     0.055 A 
ATOM      6  C5  BZF d   1      -0.215   2.950   2.094  0.00  0.00    -0.016 A 
ATOM      7  C6  BZF d   1      -0.791   2.036   2.952  0.00  0.00     0.022 A 
ATOM      8  C7  BZF d   1      -0.916   0.731   2.609  0.00  0.00     0.029 A 
ATOM      9  C7A BZF d   1      -0.425   0.357   1.382  0.00  0.00     0.058 A 
ENDROOT
TORSDOF 0
ENDMDL
