MODEL 1
REMARK minimizedAffinity 4.31022549
REMARK minimizedRMSD -1
REMARK  0 active torsions:
REMARK  status: ('A' for Active; 'I' for Inactive)
ROOT
ATOM      1  O1  BZF d   1       0.699  -0.043  -2.225  0.00  0.00    -0.204 OA
ATOM      2  C2  BZF d   1       1.682  -0.941  -2.591  0.00  0.00     0.174 A 
ATOM      3  C3  BZF d   1       1.727  -1.979  -1.731  0.00  0.00    -0.012 A 
ATOM      4  C3A BZF d   1       0.646  -1.759  -0.819  0.00  0.00    -0.107 A 
ATOM      5  C4  BZF d   1       0.166  -2.455   0.253  0.00  0.00     0.055 A 
ATOM      6  C5  BZF d   1      -0.859  -1.931   0.975  0.00  0.00    -0.016 A 
ATOM      7  C6  BZF d   1      -1.424  -0.713   0.657  0.00  0.00     0.022 A 
ATOM      8  C7  BZF d   1      -0.984   0.012  -0.401  0.00  0.00     0.029 A 
ATOM      9  C7A BZF d   1       0.029  -0.531  -1.153  0.00  0.00     0.058 A 
ENDROOT
TORSDOF 0
ENDMDL
