MODEL 1
REMARK minimizedAffinity -3.87288952
REMARK minimizedRMSD -1
REMARK  0 active torsions:
REMARK  status: ('A' for Active; 'I' for Inactive)
ROOT
ATOM      1  O1  BZF d   1       5.850  -0.238   5.998  0.00  0.00    -0.204 OA
ATOM      2  C2  BZF d   1       5.684  -1.508   5.481  0.00  0.00     0.174 A 
ATOM      3  C3  BZF d   1       5.320  -1.452   4.184  0.00  0.00    -0.012 A 
ATOM      4  C3A BZF d   1       5.344  -0.062   3.845  0.00  0.00    -0.107 A 
ATOM      5  C4  BZF d   1       5.092   0.629   2.695  0.00  0.00     0.055 A 
ATOM      6  C5  BZF d   1       5.133   1.987   2.717  0.00  0.00    -0.016 A 
ATOM      7  C6  BZF d   1       5.418   2.686   3.872  0.00  0.00     0.022 A 
ATOM      8  C7  BZF d   1       5.680   2.044   5.037  0.00  0.00     0.029 A 
ATOM      9  C7A BZF d   1       5.671   0.671   5.010  0.00  0.00     0.058 A 
ENDROOT
TORSDOF 0
ENDMDL
