MODEL 1
REMARK minimizedAffinity -3.59356356
REMARK minimizedRMSD -1
REMARK  0 active torsions:
REMARK  status: ('A' for Active; 'I' for Inactive)
ROOT
ATOM      1  O1  BZF d   1       1.520   0.245  -2.123  0.00  0.00    -0.204 OA
ATOM      2  C2  BZF d   1       2.089  -1.011  -2.207  0.00  0.00     0.174 A 
ATOM      3  C3  BZF d   1       1.568  -1.835  -1.275  0.00  0.00    -0.012 A 
ATOM      4  C3A BZF d   1       0.548  -1.072  -0.625  0.00  0.00    -0.107 A 
ATOM      5  C4  BZF d   1      -0.335  -1.348   0.379  0.00  0.00     0.055 A 
ATOM      6  C5  BZF d   1      -1.150  -0.360   0.832  0.00  0.00    -0.016 A 
ATOM      7  C6  BZF d   1      -1.106   0.916   0.308  0.00  0.00     0.022 A 
ATOM      8  C7  BZF d   1      -0.250   1.236  -0.692  0.00  0.00     0.029 A 
ATOM      9  C7A BZF d   1       0.553   0.231  -1.175  0.00  0.00     0.058 A 
ENDROOT
TORSDOF 0
ENDMDL
