MODEL 1
REMARK minimizedAffinity -4.96247292
REMARK minimizedRMSD -1
REMARK  3 active torsions:
REMARK  status: ('A' for Active; 'I' for Inactive)
REMARK    1  A    between atoms: C3'_2  and  C2'_3 
REMARK    2  A    between atoms: C2'_3  and  C1'_4 
REMARK    3  A    between atoms: C1'_4  and  C1_5 
ROOT
ATOM      1  C1  N4B d   1       2.201   4.392   4.586  0.00  0.00    -0.075 A 
ATOM      2  C2  N4B d   1       1.601   4.542   5.855  0.00  0.00     0.002 A 
ATOM      3  C3  N4B d   1       0.486   5.332   5.998  0.00  0.00     0.002 A 
ATOM      4  C4  N4B d   1      -0.033   5.993   4.895  0.00  0.00    -0.004 A 
ATOM      5  C5  N4B d   1       0.538   5.822   3.668  0.00  0.00     0.002 A 
ATOM      6  C6  N4B d   1       1.656   5.029   3.508  0.00  0.00     0.002 A 
ENDROOT
BRANCH   1   7
ATOM      7  C1' N4B d   1       3.471   3.609   4.396  0.00  0.00     0.057 C 
BRANCH   7   8
ATOM      8  C2' N4B d   1       3.974   3.809   2.969  0.00  0.00     0.009 C 
BRANCH   8   9
ATOM      9  C3' N4B d   1       5.279   4.587   2.931  0.00  0.00     0.004 C 
ATOM     10  C4' N4B d   1       5.912   4.725   4.283  0.00  0.00     0.003 C 
ENDBRANCH   8   9
ENDBRANCH   7   8
ENDBRANCH   1   7
TORSDOF 3
ENDMDL
