MODEL 1
REMARK minimizedAffinity 1.17502058
REMARK minimizedRMSD -1
REMARK  3 active torsions:
REMARK  status: ('A' for Active; 'I' for Inactive)
REMARK    1  A    between atoms: C3'_2  and  C2'_3 
REMARK    2  A    between atoms: C2'_3  and  C1'_4 
REMARK    3  A    between atoms: C1'_4  and  C1_5 
ROOT
ATOM      1  C1  N4B d   1       4.157   2.070   0.873  0.00  0.00    -0.075 A 
ATOM      2  C2  N4B d   1       3.296   0.966   1.054  0.00  0.00     0.002 A 
ATOM      3  C3  N4B d   1       2.955   0.178  -0.018  0.00  0.00     0.002 A 
ATOM      4  C4  N4B d   1       3.446   0.485  -1.278  0.00  0.00    -0.004 A 
ATOM      5  C5  N4B d   1       4.297   1.538  -1.440  0.00  0.00     0.002 A 
ATOM      6  C6  N4B d   1       4.651   2.336  -0.371  0.00  0.00     0.002 A 
ENDROOT
BRANCH   1   7
ATOM      7  C1' N4B d   1       4.489   3.011   1.998  0.00  0.00     0.057 C 
BRANCH   7   8
ATOM      8  C2' N4B d   1       4.075   2.375   3.322  0.00  0.00     0.009 C 
BRANCH   8   9
ATOM      9  C3' N4B d   1       3.366   3.364   4.231  0.00  0.00     0.004 C 
ATOM     10  C4' N4B d   1       2.827   2.726   5.476  0.00  0.00     0.003 C 
ENDBRANCH   8   9
ENDBRANCH   7   8
ENDBRANCH   1   7
TORSDOF 3
ENDMDL
