MODEL 1
REMARK minimizedAffinity 8.04165649
REMARK minimizedRMSD -1
REMARK  3 active torsions:
REMARK  status: ('A' for Active; 'I' for Inactive)
REMARK    1  A    between atoms: C3'_2  and  C2'_3 
REMARK    2  A    between atoms: C2'_3  and  C1'_4 
REMARK    3  A    between atoms: C1'_4  and  C1_5 
ROOT
ATOM      1  C1  N4B d   1      -4.250   3.790   2.346  0.00  0.00    -0.075 A 
ATOM      2  C2  N4B d   1      -5.020   4.866   1.851  0.00  0.00     0.002 A 
ATOM      3  C3  N4B d   1      -5.879   5.537   2.687  0.00  0.00     0.002 A 
ATOM      4  C4  N4B d   1      -5.997   5.141   4.010  0.00  0.00    -0.004 A 
ATOM      5  C5  N4B d   1      -5.231   4.117   4.487  0.00  0.00     0.002 A 
ATOM      6  C6  N4B d   1      -4.361   3.436   3.659  0.00  0.00     0.002 A 
ENDROOT
BRANCH   1   7
ATOM      7  C1' N4B d   1      -3.362   2.971   1.449  0.00  0.00     0.057 C 
BRANCH   7   8
ATOM      8  C2' N4B d   1      -3.823   1.517   1.481  0.00  0.00     0.009 C 
BRANCH   8   9
ATOM      9  C3' N4B d   1      -4.175   1.002   0.096  0.00  0.00     0.004 C 
ATOM     10  C4' N4B d   1      -5.466   0.240   0.071  0.00  0.00     0.003 C 
ENDBRANCH   8   9
ENDBRANCH   7   8
ENDBRANCH   1   7
TORSDOF 3
ENDMDL
