MODEL 1
REMARK minimizedAffinity 0.795306623
REMARK minimizedRMSD -1
REMARK  3 active torsions:
REMARK  status: ('A' for Active; 'I' for Inactive)
REMARK    1  A    between atoms: C3'_2  and  C2'_3 
REMARK    2  A    between atoms: C2'_3  and  C1'_4 
REMARK    3  A    between atoms: C1'_4  and  C1_5 
ROOT
ATOM      1  C1  N4B d   1       3.757   1.666   1.670  0.00  0.00    -0.075 A 
ATOM      2  C2  N4B d   1       2.984   2.226   0.628  0.00  0.00     0.002 A 
ATOM      3  C3  N4B d   1       2.442   1.413  -0.337  0.00  0.00     0.002 A 
ATOM      4  C4  N4B d   1       2.673   0.046  -0.292  0.00  0.00    -0.004 A 
ATOM      5  C5  N4B d   1       3.399  -0.489   0.732  0.00  0.00     0.002 A 
ATOM      6  C6  N4B d   1       3.947   0.315   1.711  0.00  0.00     0.002 A 
ENDROOT
BRANCH   1   7
ATOM      7  C1' N4B d   1       4.442   2.524   2.699  0.00  0.00     0.057 C 
BRANCH   7   8
ATOM      8  C2' N4B d   1       3.391   3.132   3.624  0.00  0.00     0.009 C 
BRANCH   8   9
ATOM      9  C3' N4B d   1       3.737   2.929   5.089  0.00  0.00     0.004 C 
ATOM     10  C4' N4B d   1       2.962   3.834   5.999  0.00  0.00     0.003 C 
ENDBRANCH   8   9
ENDBRANCH   7   8
ENDBRANCH   1   7
TORSDOF 3
ENDMDL
