MODEL 1
REMARK minimizedAffinity 9.30014706
REMARK minimizedRMSD -1
REMARK  3 active torsions:
REMARK  status: ('A' for Active; 'I' for Inactive)
REMARK    1  A    between atoms: C3'_2  and  C2'_3 
REMARK    2  A    between atoms: C2'_3  and  C1'_4 
REMARK    3  A    between atoms: C1'_4  and  C1_5 
ROOT
ATOM      1  C1  N4B d   1       2.286  -1.343  -1.030  0.00  0.00    -0.075 A 
ATOM      2  C2  N4B d   1       1.291  -0.502  -1.576  0.00  0.00     0.002 A 
ATOM      3  C3  N4B d   1       1.173   0.794  -1.138  0.00  0.00     0.002 A 
ATOM      4  C4  N4B d   1       2.021   1.263  -0.146  0.00  0.00    -0.004 A 
ATOM      5  C5  N4B d   1       2.995   0.453   0.357  0.00  0.00     0.002 A 
ATOM      6  C6  N4B d   1       3.129  -0.851  -0.076  0.00  0.00     0.002 A 
ENDROOT
BRANCH   1   7
ATOM      7  C1' N4B d   1       2.399  -2.793  -1.415  0.00  0.00     0.057 C 
BRANCH   7   8
ATOM      8  C2' N4B d   1       0.999  -3.380  -1.574  0.00  0.00     0.009 C 
BRANCH   8   9
ATOM      9  C3' N4B d   1       0.838  -4.680  -0.806  0.00  0.00     0.004 C 
ATOM     10  C4' N4B d   1      -0.547  -5.247  -0.907  0.00  0.00     0.003 C 
ENDBRANCH   8   9
ENDBRANCH   7   8
ENDBRANCH   1   7
TORSDOF 3
ENDMDL
