MODEL 1
REMARK minimizedAffinity 11.4665489
REMARK minimizedRMSD -1
REMARK  3 active torsions:
REMARK  status: ('A' for Active; 'I' for Inactive)
REMARK    1  A    between atoms: C3'_2  and  C2'_3 
REMARK    2  A    between atoms: C2'_3  and  C1'_4 
REMARK    3  A    between atoms: C1'_4  and  C1_5 
ROOT
ATOM      1  C1  N4B d   1       1.871   1.138   0.032  0.00  0.00    -0.075 A 
ATOM      2  C2  N4B d   1       0.944   1.858  -0.754  0.00  0.00     0.002 A 
ATOM      3  C3  N4B d   1      -0.364   1.965  -0.348  0.00  0.00     0.002 A 
ATOM      4  C4  N4B d   1      -0.770   1.347   0.826  0.00  0.00    -0.004 A 
ATOM      5  C5  N4B d   1       0.137   0.676   1.592  0.00  0.00     0.002 A 
ATOM      6  C6  N4B d   1       1.455   0.563   1.198  0.00  0.00     0.002 A 
ENDROOT
BRANCH   1   7
ATOM      7  C1' N4B d   1       3.291   0.921  -0.415  0.00  0.00     0.057 C 
BRANCH   7   8
ATOM      8  C2' N4B d   1       3.378  -0.392  -1.186  0.00  0.00     0.009 C 
BRANCH   8   9
ATOM      9  C3' N4B d   1       3.021  -1.587  -0.318  0.00  0.00     0.004 C 
ATOM     10  C4' N4B d   1       2.317  -2.669  -1.080  0.00  0.00     0.003 C 
ENDBRANCH   8   9
ENDBRANCH   7   8
ENDBRANCH   1   7
TORSDOF 3
ENDMDL
