MODEL 1
REMARK minimizedAffinity 3.04339743
REMARK minimizedRMSD -1
REMARK  3 active torsions:
REMARK  status: ('A' for Active; 'I' for Inactive)
REMARK    1  A    between atoms: C3'_2  and  C2'_3 
REMARK    2  A    between atoms: C2'_3  and  C1'_4 
REMARK    3  A    between atoms: C1'_4  and  C1_5 
ROOT
ATOM      1  C1  N4B d   1       0.795   4.203   2.186  0.00  0.00    -0.075 A 
ATOM      2  C2  N4B d   1       1.847   3.352   2.589  0.00  0.00     0.002 A 
ATOM      3  C3  N4B d   1       2.868   3.844   3.365  0.00  0.00     0.002 A 
ATOM      4  C4  N4B d   1       2.868   5.181   3.732  0.00  0.00    -0.004 A 
ATOM      5  C5  N4B d   1       1.835   5.990   3.359  0.00  0.00     0.002 A 
ATOM      6  C6  N4B d   1       0.800   5.509   2.583  0.00  0.00     0.002 A 
ENDROOT
BRANCH   1   7
ATOM      7  C1' N4B d   1      -0.299   3.733   1.266  0.00  0.00     0.057 C 
BRANCH   7   8
ATOM      8  C2' N4B d   1      -0.834   2.395   1.768  0.00  0.00     0.009 C 
BRANCH   8   9
ATOM      9  C3' N4B d   1       0.068   1.238   1.372  0.00  0.00     0.004 C 
ATOM     10  C4' N4B d   1       0.338   1.191  -0.103  0.00  0.00     0.003 C 
ENDBRANCH   8   9
ENDBRANCH   7   8
ENDBRANCH   1   7
TORSDOF 3
ENDMDL
