MODEL 1
REMARK minimizedAffinity 20.6775684
REMARK minimizedRMSD -1
REMARK  1 active torsions:
REMARK  status: ('A' for Active; 'I' for Inactive)
REMARK    1  A    between atoms: C1_2  and  C2_3 
ROOT
ATOM      1  C2  UNL d   1      -3.784  -0.576   2.574  0.00  0.00    -0.073 A 
ATOM      2  C3  UNL d   1      -4.932  -1.160   2.028  0.00  0.00    -0.002 A 
ATOM      3  C4  UNL d   1      -5.664  -2.095   2.761  0.00  0.00     0.004 A 
ATOM      4  C5  UNL d   1      -5.260  -2.450   4.048  0.00  0.00    -0.004 A 
ATOM      5  C6  UNL d   1      -4.122  -1.869   4.616  0.00  0.00    -0.075 A 
ATOM      6  C7  UNL d   1      -3.673  -2.241   5.998  0.00  0.00     0.076 C 
ATOM      7  C8  UNL d   1      -3.391  -0.932   3.872  0.00  0.00     0.001 A 
ENDROOT
BRANCH   1   8
ATOM      8  C1  UNL d   1      -2.994   0.439   1.789  0.00  0.00     0.053 C 
ATOM      9  C   UNL d   1      -1.502   0.145   1.816  0.00  0.00     0.018 C 
ENDBRANCH   1   8
TORSDOF 1
ENDMDL
