MODEL 1
REMARK minimizedAffinity 4.11505508
REMARK minimizedRMSD -1
REMARK  1 active torsions:
REMARK  status: ('A' for Active; 'I' for Inactive)
REMARK    1  A    between atoms: C1_2  and  C2_3 
ROOT
ATOM      1  C2  UNL d   1      -2.631   0.536   1.407  0.00  0.00    -0.073 A 
ATOM      2  C3  UNL d   1      -1.435  -0.186   1.491  0.00  0.00    -0.002 A 
ATOM      3  C4  UNL d   1      -1.445  -1.579   1.411  0.00  0.00     0.004 A 
ATOM      4  C5  UNL d   1      -2.648  -2.263   1.240  0.00  0.00    -0.004 A 
ATOM      5  C6  UNL d   1      -3.853  -1.559   1.143  0.00  0.00    -0.075 A 
ATOM      6  C7  UNL d   1      -5.156  -2.281   0.962  0.00  0.00     0.076 C 
ATOM      7  C8  UNL d   1      -3.834  -0.160   1.227  0.00  0.00     0.001 A 
ENDROOT
BRANCH   1   8
ATOM      8  C1  UNL d   1      -2.624   2.041   1.487  0.00  0.00     0.053 C 
ATOM      9  C   UNL d   1      -4.004   2.602   1.788  0.00  0.00     0.018 C 
ENDBRANCH   1   8
TORSDOF 1
ENDMDL
