MODEL 1
REMARK minimizedAffinity 15.2353735
REMARK minimizedRMSD -1
REMARK  1 active torsions:
REMARK  status: ('A' for Active; 'I' for Inactive)
REMARK    1  A    between atoms: C1_2  and  C2_3 
ROOT
ATOM      1  C2  UNL d   1       2.951   3.310  -3.316  0.00  0.00    -0.073 A 
ATOM      2  C3  UNL d   1       2.405   3.450  -2.035  0.00  0.00    -0.002 A 
ATOM      3  C4  UNL d   1       1.684   2.404  -1.459  0.00  0.00     0.004 A 
ATOM      4  C5  UNL d   1       1.506   1.207  -2.153  0.00  0.00    -0.004 A 
ATOM      5  C6  UNL d   1       2.055   1.044  -3.429  0.00  0.00    -0.075 A 
ATOM      6  C7  UNL d   1       1.871  -0.237  -4.190  0.00  0.00     0.076 C 
ATOM      7  C8  UNL d   1       2.776   2.100  -4.002  0.00  0.00     0.001 A 
ENDROOT
BRANCH   1   8
ATOM      8  C1  UNL d   1       3.737   4.434  -3.940  0.00  0.00     0.053 C 
ATOM      9  C   UNL d   1       4.861   3.921  -4.827  0.00  0.00     0.018 C 
ENDBRANCH   1   8
TORSDOF 1
ENDMDL
