MODEL 1
REMARK minimizedAffinity 7.6972003
REMARK minimizedRMSD -1
REMARK  1 active torsions:
REMARK  status: ('A' for Active; 'I' for Inactive)
REMARK    1  A    between atoms: C1_2  and  C2_3 
ROOT
ATOM      1  C2  UNL d   1      -0.665   1.438   2.038  0.00  0.00    -0.073 A 
ATOM      2  C3  UNL d   1      -1.039   0.143   2.415  0.00  0.00    -0.002 A 
ATOM      3  C4  UNL d   1      -2.384  -0.171   2.617  0.00  0.00     0.004 A 
ATOM      4  C5  UNL d   1      -3.367   0.802   2.438  0.00  0.00    -0.004 A 
ATOM      5  C6  UNL d   1      -3.014   2.099   2.050  0.00  0.00    -0.075 A 
ATOM      6  C7  UNL d   1      -4.059   3.158   1.856  0.00  0.00     0.076 C 
ATOM      7  C8  UNL d   1      -1.661   2.407   1.852  0.00  0.00     0.001 A 
ENDROOT
BRANCH   1   8
ATOM      8  C1  UNL d   1       0.785   1.781   1.812  0.00  0.00     0.053 C 
ATOM      9  C   UNL d   1       1.261   2.886   2.742  0.00  0.00     0.018 C 
ENDBRANCH   1   8
TORSDOF 1
ENDMDL
