MODEL 1
REMARK minimizedAffinity 17.9564037
REMARK minimizedRMSD -1
REMARK  1 active torsions:
REMARK  status: ('A' for Active; 'I' for Inactive)
REMARK    1  A    between atoms: C1_2  and  C2_3 
ROOT
ATOM      1  C2  UNL d   1      -2.314  -1.173   1.405  0.00  0.00    -0.073 A 
ATOM      2  C3  UNL d   1      -3.513  -0.717   1.965  0.00  0.00    -0.002 A 
ATOM      3  C4  UNL d   1      -3.554   0.501   2.645  0.00  0.00     0.004 A 
ATOM      4  C5  UNL d   1      -2.401   1.277   2.766  0.00  0.00    -0.004 A 
ATOM      5  C6  UNL d   1      -1.197   0.843   2.203  0.00  0.00    -0.075 A 
ATOM      6  C7  UNL d   1       0.053   1.665   2.326  0.00  0.00     0.076 C 
ATOM      7  C8  UNL d   1      -1.163  -0.382   1.524  0.00  0.00     0.001 A 
ENDROOT
BRANCH   1   8
ATOM      8  C1  UNL d   1      -2.266  -2.485   0.664  0.00  0.00     0.053 C 
ATOM      9  C   UNL d   1      -3.614  -2.848   0.060  0.00  0.00     0.018 C 
ENDBRANCH   1   8
TORSDOF 1
ENDMDL
