MODEL 1
REMARK minimizedAffinity 6.81591272
REMARK minimizedRMSD -1
REMARK  1 active torsions:
REMARK  status: ('A' for Active; 'I' for Inactive)
REMARK    1  A    between atoms: C1_2  and  C2_3 
ROOT
ATOM      1  C2  UNL d   1       2.089   1.669  -3.123  0.00  0.00    -0.073 A 
ATOM      2  C3  UNL d   1       1.418   2.237  -2.035  0.00  0.00    -0.002 A 
ATOM      3  C4  UNL d   1       1.511   3.607  -1.787  0.00  0.00     0.004 A 
ATOM      4  C5  UNL d   1       2.270   4.423  -2.626  0.00  0.00    -0.004 A 
ATOM      5  C6  UNL d   1       2.939   3.875  -3.726  0.00  0.00    -0.075 A 
ATOM      6  C7  UNL d   1       3.761   4.738  -4.637  0.00  0.00     0.076 C 
ATOM      7  C8  UNL d   1       2.842   2.498  -3.967  0.00  0.00     0.001 A 
ENDROOT
BRANCH   1   8
ATOM      8  C1  UNL d   1       1.986   0.191  -3.399  0.00  0.00     0.053 C 
ATOM      9  C   UNL d   1       2.610  -0.185  -4.734  0.00  0.00     0.018 C 
ENDBRANCH   1   8
TORSDOF 1
ENDMDL
