MODEL 1
REMARK minimizedAffinity 14.760376
REMARK minimizedRMSD -1
REMARK  1 active torsions:
REMARK  status: ('A' for Active; 'I' for Inactive)
REMARK    1  A    between atoms: C1_2  and  C2_3 
ROOT
ATOM      1  C2  UNL d   1      -0.225   1.115   1.996  0.00  0.00    -0.073 A 
ATOM      2  C3  UNL d   1      -0.598  -0.029   1.281  0.00  0.00    -0.002 A 
ATOM      3  C4  UNL d   1      -1.915  -0.193   0.851  0.00  0.00     0.004 A 
ATOM      4  C5  UNL d   1      -2.870   0.787   1.124  0.00  0.00    -0.004 A 
ATOM      5  C6  UNL d   1      -2.514   1.942   1.826  0.00  0.00    -0.075 A 
ATOM      6  C7  UNL d   1      -3.530   3.004   2.130  0.00  0.00     0.076 C 
ATOM      7  C8  UNL d   1      -1.190   2.098   2.258  0.00  0.00     0.001 A 
ENDROOT
BRANCH   1   8
ATOM      8  C1  UNL d   1       1.197   1.299   2.458  0.00  0.00     0.053 C 
ATOM      9  C   UNL d   1       1.697   2.714   2.215  0.00  0.00     0.018 C 
ENDBRANCH   1   8
TORSDOF 1
ENDMDL
