MODEL 1
REMARK minimizedAffinity 8.75086689
REMARK minimizedRMSD -1
REMARK  1 active torsions:
REMARK  status: ('A' for Active; 'I' for Inactive)
REMARK    1  A    between atoms: C1_2  and  C2_3 
ROOT
ATOM      1  C2  UNL d   1      -1.163  -2.845   0.643  0.00  0.00    -0.073 A 
ATOM      2  C3  UNL d   1      -2.324  -3.311   0.016  0.00  0.00    -0.002 A 
ATOM      3  C4  UNL d   1      -3.441  -2.484  -0.104  0.00  0.00     0.004 A 
ATOM      4  C5  UNL d   1      -3.407  -1.182   0.393  0.00  0.00    -0.004 A 
ATOM      5  C6  UNL d   1      -2.252  -0.693   1.012  0.00  0.00    -0.075 A 
ATOM      6  C7  UNL d   1      -2.199   0.705   1.555  0.00  0.00     0.076 C 
ATOM      7  C8  UNL d   1      -1.135  -1.531   1.132  0.00  0.00     0.001 A 
ENDROOT
BRANCH   1   8
ATOM      8  C1  UNL d   1       0.048  -3.733   0.769  0.00  0.00     0.053 C 
ATOM      9  C   UNL d   1       0.391  -4.026   2.221  0.00  0.00     0.018 C 
ENDBRANCH   1   8
TORSDOF 1
ENDMDL
