MODEL 1
REMARK minimizedAffinity 9.78511429
REMARK minimizedRMSD -1
REMARK  1 active torsions:
REMARK  status: ('A' for Active; 'I' for Inactive)
REMARK    1  A    between atoms: C1_2  and  C2_3 
ROOT
ATOM      1  C2  UNL d   1       3.430   2.097  -4.920  0.00  0.00    -0.073 A 
ATOM      2  C3  UNL d   1       3.483   2.016  -3.524  0.00  0.00    -0.002 A 
ATOM      3  C4  UNL d   1       3.030   0.871  -2.867  0.00  0.00     0.004 A 
ATOM      4  C5  UNL d   1       2.527  -0.205  -3.598  0.00  0.00    -0.004 A 
ATOM      5  C6  UNL d   1       2.476  -0.147  -4.994  0.00  0.00    -0.075 A 
ATOM      6  C7  UNL d   1       1.936  -1.295  -5.795  0.00  0.00     0.076 C 
ATOM      7  C8  UNL d   1       2.931   1.007  -5.647  0.00  0.00     0.001 A 
ENDROOT
BRANCH   1   8
ATOM      8  C1  UNL d   1       3.923   3.329  -5.634  0.00  0.00     0.053 C 
ATOM      9  C   UNL d   1       5.400   3.584  -5.375  0.00  0.00     0.018 C 
ENDBRANCH   1   8
TORSDOF 1
ENDMDL
