MODEL 1
REMARK minimizedAffinity 12.8514795
REMARK minimizedRMSD -1
REMARK  1 active torsions:
REMARK  status: ('A' for Active; 'I' for Inactive)
REMARK    1  A    between atoms: C1_2  and  C2_3 
ROOT
ATOM      1  C2  UNL d   1      -2.569   0.354   1.909  0.00  0.00    -0.073 A 
ATOM      2  C3  UNL d   1      -2.914   1.709   1.976  0.00  0.00    -0.002 A 
ATOM      3  C4  UNL d   1      -4.251   2.101   1.889  0.00  0.00     0.004 A 
ATOM      4  C5  UNL d   1      -5.255   1.145   1.742  0.00  0.00    -0.004 A 
ATOM      5  C6  UNL d   1      -4.931  -0.215   1.685  0.00  0.00    -0.075 A 
ATOM      6  C7  UNL d   1      -6.000  -1.256   1.524  0.00  0.00     0.076 C 
ATOM      7  C8  UNL d   1      -3.587  -0.601   1.770  0.00  0.00     0.001 A 
ENDROOT
BRANCH   1   8
ATOM      8  C1  UNL d   1      -1.128  -0.075   2.009  0.00  0.00     0.053 C 
ATOM      9  C   UNL d   1      -0.178   1.112   1.991  0.00  0.00     0.018 C 
ENDBRANCH   1   8
TORSDOF 1
ENDMDL
