MODEL 1
REMARK minimizedAffinity 7.37337923
REMARK minimizedRMSD -1
REMARK  1 active torsions:
REMARK  status: ('A' for Active; 'I' for Inactive)
REMARK    1  A    between atoms: C1_2  and  C2_3 
ROOT
ATOM      1  C2  UNL d   1       0.444   0.115   2.935  0.00  0.00    -0.073 A 
ATOM      2  C3  UNL d   1       0.791   1.247   2.189  0.00  0.00    -0.002 A 
ATOM      3  C4  UNL d   1      -0.196   1.997   1.547  0.00  0.00     0.004 A 
ATOM      4  C5  UNL d   1      -1.537   1.627   1.649  0.00  0.00    -0.004 A 
ATOM      5  C6  UNL d   1      -1.904   0.505   2.399  0.00  0.00    -0.075 A 
ATOM      6  C7  UNL d   1      -3.342   0.093   2.517  0.00  0.00     0.076 C 
ATOM      7  C8  UNL d   1      -0.907  -0.244   3.040  0.00  0.00     0.001 A 
ENDROOT
BRANCH   1   8
ATOM      8  C1  UNL d   1       1.505  -0.693   3.636  0.00  0.00     0.053 C 
ATOM      9  C   UNL d   1       2.904  -0.324   3.170  0.00  0.00     0.018 C 
ENDBRANCH   1   8
TORSDOF 1
ENDMDL
