MODEL 1
REMARK minimizedAffinity 3.75293803
REMARK minimizedRMSD -1
REMARK  1 active torsions:
REMARK  status: ('A' for Active; 'I' for Inactive)
REMARK    1  A    between atoms: C1_2  and  C2_3 
ROOT
ATOM      1  C2  UNL d   1       3.574   1.848  -5.465  0.00  0.00    -0.073 A 
ATOM      2  C3  UNL d   1       2.641   1.527  -4.472  0.00  0.00    -0.002 A 
ATOM      3  C4  UNL d   1       2.555   0.223  -3.981  0.00  0.00     0.004 A 
ATOM      4  C5  UNL d   1       3.404  -0.769  -4.471  0.00  0.00    -0.004 A 
ATOM      5  C6  UNL d   1       4.350  -0.465  -5.455  0.00  0.00    -0.075 A 
ATOM      6  C7  UNL d   1       5.269  -1.522  -5.995  0.00  0.00     0.076 C 
ATOM      7  C8  UNL d   1       4.429   0.845  -5.945  0.00  0.00     0.001 A 
ENDROOT
BRANCH   1   8
ATOM      8  C1  UNL d   1       3.675   3.255  -5.994  0.00  0.00     0.053 C 
ATOM      9  C   UNL d   1       4.086   4.242  -4.913  0.00  0.00     0.018 C 
ENDBRANCH   1   8
TORSDOF 1
ENDMDL
