MODEL 1
REMARK minimizedAffinity -2.62700677
REMARK minimizedRMSD -1
REMARK  0 active torsions:
REMARK  status: ('A' for Active; 'I' for Inactive)
ROOT
ATOM      1  C   UNL d   1      -0.709   1.793   1.707  0.00  0.00     0.020 A 
ATOM      2  C1  UNL d   1       0.558   1.829   2.289  0.00  0.00     0.020 A 
ATOM      3  C2  UNL d   1       1.571   0.996   1.810  0.00  0.00     0.034 A 
ATOM      4  C3  UNL d   1       1.320   0.124   0.745  0.00  0.00     0.017 A 
ATOM      5  C4  UNL d   1       0.048   0.088   0.161  0.00  0.00     0.017 A 
ATOM      6  C5  UNL d   1      -0.963   0.924   0.645  0.00  0.00     0.034 A 
ATOM      7 Cl   UNL d   1      -0.338  -0.962  -1.157  0.00  0.00    -0.070 Cl
ATOM      8 Cl1  UNL d   1       2.619  -0.878   0.202  0.00  0.00    -0.070 Cl
ENDROOT
TORSDOF 0
ENDMDL
