MODEL 1
REMARK minimizedAffinity 0.207037598
REMARK minimizedRMSD -1
REMARK  0 active torsions:
REMARK  status: ('A' for Active; 'I' for Inactive)
ROOT
ATOM      1  C   UNL d   1      -0.865   0.029  -0.978  0.00  0.00     0.020 A 
ATOM      2  C1  UNL d   1       0.226  -0.822  -1.148  0.00  0.00     0.020 A 
ATOM      3  C2  UNL d   1       1.257  -0.833  -0.206  0.00  0.00     0.034 A 
ATOM      4  C3  UNL d   1       1.198   0.008   0.911  0.00  0.00     0.017 A 
ATOM      5  C4  UNL d   1       0.102   0.862   1.081  0.00  0.00     0.017 A 
ATOM      6  C5  UNL d   1      -0.927   0.869   0.134  0.00  0.00     0.034 A 
ATOM      7 Cl   UNL d   1      -0.042   1.929   2.434  0.00  0.00    -0.070 Cl
ATOM      8 Cl1  UNL d   1       2.507  -0.058   2.037  0.00  0.00    -0.070 Cl
ENDROOT
TORSDOF 0
ENDMDL
