MODEL 1
REMARK minimizedAffinity 2.0556047
REMARK minimizedRMSD -1
REMARK  0 active torsions:
REMARK  status: ('A' for Active; 'I' for Inactive)
ROOT
ATOM      1  C   UNL d   1       0.379  -0.975  -0.446  0.00  0.00     0.020 A 
ATOM      2  C1  UNL d   1      -0.821  -0.280  -0.299  0.00  0.00     0.020 A 
ATOM      3  C2  UNL d   1      -0.967   0.651   0.731  0.00  0.00     0.034 A 
ATOM      4  C3  UNL d   1       0.088   0.890   1.619  0.00  0.00     0.017 A 
ATOM      5  C4  UNL d   1       1.292   0.192   1.471  0.00  0.00     0.017 A 
ATOM      6  C5  UNL d   1       1.433  -0.739   0.438  0.00  0.00     0.034 A 
ATOM      7 Cl   UNL d   1       2.639   0.433   2.528  0.00  0.00    -0.070 Cl
ATOM      8 Cl1  UNL d   1      -0.163   2.055   2.870  0.00  0.00    -0.070 Cl
ENDROOT
TORSDOF 0
ENDMDL
