MODEL 1
REMARK minimizedAffinity 1.23288047
REMARK minimizedRMSD -1
REMARK  0 active torsions:
REMARK  status: ('A' for Active; 'I' for Inactive)
ROOT
ATOM      1  C   UNL d   1       0.884   1.912   2.047  0.00  0.00     0.020 A 
ATOM      2  C1  UNL d   1      -0.386   1.993   1.479  0.00  0.00     0.020 A 
ATOM      3  C2  UNL d   1      -0.822   0.998   0.601  0.00  0.00     0.034 A 
ATOM      4  C3  UNL d   1       0.013  -0.081   0.288  0.00  0.00     0.017 A 
ATOM      5  C4  UNL d   1       1.288  -0.160   0.859  0.00  0.00     0.017 A 
ATOM      6  C5  UNL d   1       1.720   0.838   1.738  0.00  0.00     0.034 A 
ATOM      7 Cl   UNL d   1       2.375  -1.461   0.522  0.00  0.00    -0.070 Cl
ATOM      8 Cl1  UNL d   1      -0.591  -1.274  -0.805  0.00  0.00    -0.070 Cl
ENDROOT
TORSDOF 0
ENDMDL
