MODEL 1
REMARK minimizedAffinity -2.20099115
REMARK minimizedRMSD -1
REMARK  0 active torsions:
REMARK  status: ('A' for Active; 'I' for Inactive)
ROOT
ATOM      1  C   UNL d   1      -2.467  -1.746  -1.347  0.00  0.00     0.020 A 
ATOM      2  C1  UNL d   1      -1.503  -2.500  -2.014  0.00  0.00     0.020 A 
ATOM      3  C2  UNL d   1      -0.152  -2.343  -1.697  0.00  0.00     0.034 A 
ATOM      4  C3  UNL d   1       0.239  -1.429  -0.712  0.00  0.00     0.017 A 
ATOM      5  C4  UNL d   1      -0.730  -0.673  -0.043  0.00  0.00     0.017 A 
ATOM      6  C5  UNL d   1      -2.081  -0.834  -0.363  0.00  0.00     0.034 A 
ATOM      7 Cl   UNL d   1      -0.325   0.475   1.185  0.00  0.00    -0.070 Cl
ATOM      8 Cl1  UNL d   1       1.927  -1.287  -0.372  0.00  0.00    -0.070 Cl
ENDROOT
TORSDOF 0
ENDMDL
