MODEL 1
REMARK minimizedAffinity -4.60217571
REMARK minimizedRMSD -1
REMARK  0 active torsions:
REMARK  status: ('A' for Active; 'I' for Inactive)
ROOT
ATOM      1  C   UNL d   1       0.543   1.058   3.040  0.00  0.00     0.020 A 
ATOM      2  C1  UNL d   1      -0.822   0.933   3.295  0.00  0.00     0.020 A 
ATOM      3  C2  UNL d   1      -1.693   0.557   2.270  0.00  0.00     0.034 A 
ATOM      4  C3  UNL d   1      -1.200   0.305   0.985  0.00  0.00     0.017 A 
ATOM      5  C4  UNL d   1       0.171   0.431   0.729  0.00  0.00     0.017 A 
ATOM      6  C5  UNL d   1       1.038   0.808   1.759  0.00  0.00     0.034 A 
ATOM      7 Cl   UNL d   1       0.854   0.136  -0.831  0.00  0.00    -0.070 Cl
ATOM      8 Cl1  UNL d   1      -2.333  -0.157  -0.235  0.00  0.00    -0.070 Cl
ENDROOT
TORSDOF 0
ENDMDL
