MODEL 1
REMARK minimizedAffinity -5.29659271
REMARK minimizedRMSD -1
REMARK  0 active torsions:
REMARK  status: ('A' for Active; 'I' for Inactive)
ROOT
ATOM      1  C   UNL d   1       0.742   0.435   2.967  0.00  0.00     0.020 A 
ATOM      2  C1  UNL d   1      -0.551   0.833   3.305  0.00  0.00     0.020 A 
ATOM      3  C2  UNL d   1      -1.590   0.687   2.383  0.00  0.00     0.034 A 
ATOM      4  C3  UNL d   1      -1.338   0.140   1.119  0.00  0.00     0.017 A 
ATOM      5  C4  UNL d   1      -0.040  -0.259   0.782  0.00  0.00     0.017 A 
ATOM      6  C5  UNL d   1       0.997  -0.110   1.708  0.00  0.00     0.034 A 
ATOM      7 Cl   UNL d   1       0.349  -0.942  -0.758  0.00  0.00    -0.070 Cl
ATOM      8 Cl1  UNL d   1      -2.670  -0.012   0.029  0.00  0.00    -0.070 Cl
ENDROOT
TORSDOF 0
ENDMDL
