MODEL 1
REMARK minimizedAffinity -0.201645806
REMARK minimizedRMSD -1
REMARK  0 active torsions:
REMARK  status: ('A' for Active; 'I' for Inactive)
ROOT
ATOM      1  C   UNL d   1      -0.978   1.955   2.002  0.00  0.00     0.020 A 
ATOM      2  C1  UNL d   1      -0.121   1.499   3.002  0.00  0.00     0.020 A 
ATOM      3  C2  UNL d   1       0.852   0.542   2.705  0.00  0.00     0.034 A 
ATOM      4  C3  UNL d   1       0.970   0.038   1.405  0.00  0.00     0.017 A 
ATOM      5  C4  UNL d   1       0.109   0.497   0.401  0.00  0.00     0.017 A 
ATOM      6  C5  UNL d   1      -0.864   1.455   0.704  0.00  0.00     0.034 A 
ATOM      7 Cl   UNL d   1       0.193  -0.078  -1.227  0.00  0.00    -0.070 Cl
ATOM      8 Cl1  UNL d   1       2.196  -1.143   1.108  0.00  0.00    -0.070 Cl
ENDROOT
TORSDOF 0
ENDMDL
