MODEL 1
REMARK minimizedAffinity -1.60219538
REMARK minimizedRMSD -1
REMARK  0 active torsions:
REMARK  status: ('A' for Active; 'I' for Inactive)
ROOT
ATOM      1  C   UNL d   1       1.427   0.069   0.591  0.00  0.00     0.020 A 
ATOM      2  C1  UNL d   1       0.663   0.899   1.411  0.00  0.00     0.020 A 
ATOM      3  C2  UNL d   1      -0.731   0.808   1.391  0.00  0.00     0.034 A 
ATOM      4  C3  UNL d   1      -1.364  -0.114   0.550  0.00  0.00     0.017 A 
ATOM      5  C4  UNL d   1      -0.596  -0.947  -0.272  0.00  0.00     0.017 A 
ATOM      6  C5  UNL d   1       0.799  -0.851  -0.248  0.00  0.00     0.034 A 
ATOM      7 Cl   UNL d   1      -1.306  -2.109  -1.336  0.00  0.00    -0.070 Cl
ATOM      8 Cl1  UNL d   1      -3.091  -0.173   0.578  0.00  0.00    -0.070 Cl
ENDROOT
TORSDOF 0
ENDMDL
