MODEL 1
REMARK minimizedAffinity -0.66695708
REMARK minimizedRMSD -1
REMARK  0 active torsions:
REMARK  status: ('A' for Active; 'I' for Inactive)
ROOT
ATOM      1  C   UNL d   1      -1.068  -0.750  -5.039  0.00  0.00     0.020 A 
ATOM      2  C1  UNL d   1      -0.747   0.208  -5.999  0.00  0.00     0.020 A 
ATOM      3  C2  UNL d   1       0.282   1.121  -5.758  0.00  0.00     0.034 A 
ATOM      4  C3  UNL d   1       0.993   1.078  -4.553  0.00  0.00     0.017 A 
ATOM      5  C4  UNL d   1       0.669   0.115  -3.590  0.00  0.00     0.017 A 
ATOM      6  C5  UNL d   1      -0.361  -0.797  -3.837  0.00  0.00     0.034 A 
ATOM      7 Cl   UNL d   1       1.502  -0.001  -2.079  0.00  0.00    -0.070 Cl
ATOM      8 Cl1  UNL d   1       2.253   2.237  -4.321  0.00  0.00    -0.070 Cl
ENDROOT
TORSDOF 0
ENDMDL
