MODEL 1
REMARK minimizedAffinity -5.05256319
REMARK minimizedRMSD -1
REMARK  0 active torsions:
REMARK  status: ('A' for Active; 'I' for Inactive)
ROOT
ATOM      1  C   UNL d   1      -0.700   1.141   1.846  0.00  0.00     0.020 A 
ATOM      2  C1  UNL d   1       0.605   1.030   2.324  0.00  0.00     0.020 A 
ATOM      3  C2  UNL d   1       0.915   0.073   3.292  0.00  0.00     0.034 A 
ATOM      4  C3  UNL d   1      -0.081  -0.778   3.785  0.00  0.00     0.017 A 
ATOM      5  C4  UNL d   1      -1.391  -0.666   3.304  0.00  0.00     0.017 A 
ATOM      6  C5  UNL d   1      -1.696   0.294   2.335  0.00  0.00     0.034 A 
ATOM      7 Cl   UNL d   1      -2.674  -1.680   3.864  0.00  0.00    -0.070 Cl
ATOM      8 Cl1  UNL d   1       0.373  -1.939   4.981  0.00  0.00    -0.070 Cl
ENDROOT
TORSDOF 0
ENDMDL
