MODEL 1
REMARK minimizedAffinity 3.97410536
REMARK minimizedRMSD -1
REMARK  1 active torsions:
REMARK  status: ('A' for Active; 'I' for Inactive)
REMARK    1  A    between atoms: N_2  and  C1_3 
ROOT
ATOM      1  C1  UNL d   1      -1.126   2.398   0.867  0.00  0.00     0.143 A 
ATOM      2  C2  UNL d   1      -2.228   1.957   0.125  0.00  0.00    -0.057 A 
ATOM      3  C3  UNL d   1      -2.070   1.418  -1.158  0.00  0.00     0.033 A 
ATOM      4  C4  UNL d   1      -0.807   1.337  -1.735  0.00  0.00    -0.042 A 
ATOM      5  C5  UNL d   1       0.299   1.792  -1.026  0.00  0.00     0.033 A 
ATOM      6  C6  UNL d   1       0.136   2.323   0.257  0.00  0.00    -0.057 A 
ENDROOT
BRANCH   1   7
ATOM      7  N   UNL d   1      -1.228   3.033   2.107  0.00  0.00    -0.732 N 
ATOM      8  C   UNL d   1      -0.043   3.325   2.885  0.00  0.00     0.284 C 
ATOM      9  H3  UNL d   1      -1.918   3.781   2.105  0.00  0.00     0.395 HD
ENDBRANCH   1   7
TORSDOF 1
ENDMDL
