MODEL 1
REMARK minimizedAffinity 0.0865576267
REMARK minimizedRMSD -1
REMARK  1 active torsions:
REMARK  status: ('A' for Active; 'I' for Inactive)
REMARK    1  A    between atoms: N_2  and  C1_3 
ROOT
ATOM      1  C1  UNL d   1      -0.469   0.496   1.375  0.00  0.00     0.143 A 
ATOM      2  C2  UNL d   1      -0.859   0.626   0.038  0.00  0.00    -0.057 A 
ATOM      3  C3  UNL d   1      -1.530   1.769  -0.415  0.00  0.00     0.033 A 
ATOM      4  C4  UNL d   1      -1.849   2.792   0.472  0.00  0.00    -0.042 A 
ATOM      5  C5  UNL d   1      -1.494   2.672   1.811  0.00  0.00     0.033 A 
ATOM      6  C6  UNL d   1      -0.818   1.532   2.255  0.00  0.00    -0.057 A 
ENDROOT
BRANCH   1   7
ATOM      7  N   UNL d   1       0.113  -0.658   1.907  0.00  0.00    -0.732 N 
ATOM      8  C   UNL d   1       1.405  -0.599   2.557  0.00  0.00     0.284 C 
ATOM      9  H3  UNL d   1      -0.564  -1.252   2.380  0.00  0.00     0.395 HD
ENDBRANCH   1   7
TORSDOF 1
ENDMDL
