MODEL 1
REMARK minimizedAffinity -0.0477563068
REMARK minimizedRMSD -1
REMARK  1 active torsions:
REMARK  status: ('A' for Active; 'I' for Inactive)
REMARK    1  A    between atoms: N_2  and  C1_3 
ROOT
ATOM      1  C1  UNL d   1       0.005   0.143   1.700  0.00  0.00     0.143 A 
ATOM      2  C2  UNL d   1      -0.740   0.360   0.536  0.00  0.00    -0.057 A 
ATOM      3  C3  UNL d   1      -1.589   1.466   0.412  0.00  0.00     0.033 A 
ATOM      4  C4  UNL d   1      -1.730   2.364   1.466  0.00  0.00    -0.042 A 
ATOM      5  C5  UNL d   1      -1.018   2.155   2.642  0.00  0.00     0.033 A 
ATOM      6  C6  UNL d   1      -0.167   1.052   2.757  0.00  0.00    -0.057 A 
ENDROOT
BRANCH   1   7
ATOM      7  N   UNL d   1       0.790  -0.991   1.922  0.00  0.00    -0.732 N 
ATOM      8  C   UNL d   1       0.927  -1.544   3.252  0.00  0.00     0.284 C 
ATOM      9  H3  UNL d   1       0.679  -1.689   1.191  0.00  0.00     0.395 HD
ENDBRANCH   1   7
TORSDOF 1
ENDMDL
