MODEL 1
REMARK minimizedAffinity -3.45143175
REMARK minimizedRMSD -1
REMARK  1 active torsions:
REMARK  status: ('A' for Active; 'I' for Inactive)
REMARK    1  A    between atoms: N_2  and  C1_3 
ROOT
ATOM      1  C1  UNL d   1      -0.816   1.239   2.454  0.00  0.00     0.143 A 
ATOM      2  C2  UNL d   1      -1.495   2.094   1.579  0.00  0.00    -0.057 A 
ATOM      3  C3  UNL d   1      -1.597   1.803   0.213  0.00  0.00     0.033 A 
ATOM      4  C4  UNL d   1      -0.994   0.663  -0.308  0.00  0.00    -0.042 A 
ATOM      5  C5  UNL d   1      -0.292  -0.188   0.539  0.00  0.00     0.033 A 
ATOM      6  C6  UNL d   1      -0.200   0.104   1.903  0.00  0.00    -0.057 A 
ENDROOT
BRANCH   1   7
ATOM      7  N   UNL d   1      -0.596   1.523   3.804  0.00  0.00    -0.732 N 
ATOM      8  C   UNL d   1       0.386   2.510   4.200  0.00  0.00     0.284 C 
ATOM      9  H3  UNL d   1      -1.460   1.559   4.340  0.00  0.00     0.395 HD
ENDBRANCH   1   7
TORSDOF 1
ENDMDL
