MODEL 1
REMARK minimizedAffinity -3.54265571
REMARK minimizedRMSD -1
REMARK  1 active torsions:
REMARK  status: ('A' for Active; 'I' for Inactive)
REMARK    1  A    between atoms: N_2  and  C1_3 
ROOT
ATOM      1  C1  UNL d   1       0.178   0.038  -0.008  0.00  0.00     0.143 A 
ATOM      2  C2  UNL d   1      -0.441   1.120  -0.643  0.00  0.00    -0.057 A 
ATOM      3  C3  UNL d   1      -1.334   1.951   0.045  0.00  0.00     0.033 A 
ATOM      4  C4  UNL d   1      -1.647   1.695   1.375  0.00  0.00    -0.042 A 
ATOM      5  C5  UNL d   1      -1.063   0.610   2.019  0.00  0.00     0.033 A 
ATOM      6  C6  UNL d   1      -0.167  -0.212   1.329  0.00  0.00    -0.057 A 
ENDROOT
BRANCH   1   7
ATOM      7  N   UNL d   1       0.999  -0.883  -0.664  0.00  0.00    -0.732 N 
ATOM      8  C   UNL d   1       0.435  -1.854  -1.577  0.00  0.00     0.284 C 
ATOM      9  H3  UNL d   1       1.870  -0.466  -0.987  0.00  0.00     0.395 HD
ENDBRANCH   1   7
TORSDOF 1
ENDMDL
