MODEL 1
REMARK minimizedAffinity -4.00363302
REMARK minimizedRMSD -1
REMARK  1 active torsions:
REMARK  status: ('A' for Active; 'I' for Inactive)
REMARK    1  A    between atoms: N_2  and  C1_3 
ROOT
ATOM      1  C1  UNL d   1      -0.785   0.055   0.974  0.00  0.00     0.143 A 
ATOM      2  C2  UNL d   1      -0.306  -0.158  -0.323  0.00  0.00    -0.057 A 
ATOM      3  C3  UNL d   1       0.777  -1.011  -0.566  0.00  0.00     0.033 A 
ATOM      4  C4  UNL d   1       1.422  -1.645   0.491  0.00  0.00    -0.042 A 
ATOM      5  C5  UNL d   1       0.979  -1.428   1.791  0.00  0.00     0.033 A 
ATOM      6  C6  UNL d   1      -0.108  -0.581   2.027  0.00  0.00    -0.057 A 
ENDROOT
BRANCH   1   7
ATOM      7  N   UNL d   1      -1.795   0.967   1.291  0.00  0.00    -0.732 N 
ATOM      8  C   UNL d   1      -1.505   2.143   2.082  0.00  0.00     0.284 C 
ATOM      9  H3  UNL d   1      -2.424   1.136   0.509  0.00  0.00     0.395 HD
ENDBRANCH   1   7
TORSDOF 1
ENDMDL
