MODEL 1
REMARK minimizedAffinity -4.7765193
REMARK minimizedRMSD -1
REMARK  1 active torsions:
REMARK  status: ('A' for Active; 'I' for Inactive)
REMARK    1  A    between atoms: N_2  and  C1_3 
ROOT
ATOM      1  C1  UNL d   1       0.253  -0.714  -0.634  0.00  0.00     0.143 A 
ATOM      2  C2  UNL d   1       0.313  -1.162   0.690  0.00  0.00    -0.057 A 
ATOM      3  C3  UNL d   1      -0.403  -0.520   1.707  0.00  0.00     0.033 A 
ATOM      4  C4  UNL d   1      -1.171   0.604   1.422  0.00  0.00    -0.042 A 
ATOM      5  C5  UNL d   1      -1.225   1.083   0.118  0.00  0.00     0.033 A 
ATOM      6  C6  UNL d   1      -0.513   0.433  -0.895  0.00  0.00    -0.057 A 
ENDROOT
BRANCH   1   7
ATOM      7  N   UNL d   1       1.019  -1.250  -1.672  0.00  0.00    -0.732 N 
ATOM      8  C   UNL d   1       1.157  -2.682  -1.823  0.00  0.00     0.284 C 
ATOM      9  H3  UNL d   1       0.889  -0.750  -2.549  0.00  0.00     0.395 HD
ENDBRANCH   1   7
TORSDOF 1
ENDMDL
