MODEL 1
REMARK minimizedAffinity -3.94780302
REMARK minimizedRMSD -1
REMARK  1 active torsions:
REMARK  status: ('A' for Active; 'I' for Inactive)
REMARK    1  A    between atoms: N_2  and  C1_3 
ROOT
ATOM      1  C1  UNL d   1       0.745  -0.553  -0.474  0.00  0.00     0.143 A 
ATOM      2  C2  UNL d   1       0.856   0.541  -1.339  0.00  0.00    -0.057 A 
ATOM      3  C3  UNL d   1       0.081   1.693  -1.156  0.00  0.00     0.033 A 
ATOM      4  C4  UNL d   1      -0.843   1.759  -0.118  0.00  0.00    -0.042 A 
ATOM      5  C5  UNL d   1      -0.987   0.674   0.739  0.00  0.00     0.033 A 
ATOM      6  C6  UNL d   1      -0.206  -0.471   0.555  0.00  0.00    -0.057 A 
ENDROOT
BRANCH   1   7
ATOM      7  N   UNL d   1       1.416  -1.764  -0.661  0.00  0.00    -0.732 N 
ATOM      8  C   UNL d   1       1.115  -2.605  -1.800  0.00  0.00     0.284 C 
ATOM      9  H3  UNL d   1       2.408  -1.696  -0.446  0.00  0.00     0.395 HD
ENDBRANCH   1   7
TORSDOF 1
ENDMDL
