MODEL 1
REMARK minimizedAffinity -3.21629453
REMARK minimizedRMSD -1
REMARK  1 active torsions:
REMARK  status: ('A' for Active; 'I' for Inactive)
REMARK    1  A    between atoms: N_2  and  C1_3 
ROOT
ATOM      1  C1  UNL d   1       0.214  -0.288   0.083  0.00  0.00     0.143 A 
ATOM      2  C2  UNL d   1       0.246  -0.449   1.472  0.00  0.00    -0.057 A 
ATOM      3  C3  UNL d   1      -0.464   0.410   2.319  0.00  0.00     0.033 A 
ATOM      4  C4  UNL d   1      -1.197   1.468   1.791  0.00  0.00    -0.042 A 
ATOM      5  C5  UNL d   1      -1.223   1.662   0.415  0.00  0.00     0.033 A 
ATOM      6  C6  UNL d   1      -0.517   0.796  -0.426  0.00  0.00    -0.057 A 
ENDROOT
BRANCH   1   7
ATOM      7  N   UNL d   1       0.977  -1.050  -0.806  0.00  0.00    -0.732 N 
ATOM      8  C   UNL d   1       0.399  -2.190  -1.484  0.00  0.00     0.284 C 
ATOM      9  H3  UNL d   1       1.575  -0.475  -1.395  0.00  0.00     0.395 HD
ENDBRANCH   1   7
TORSDOF 1
ENDMDL
