MODEL 1
REMARK minimizedAffinity -4.70888662
REMARK minimizedRMSD -1
REMARK  1 active torsions:
REMARK  status: ('A' for Active; 'I' for Inactive)
REMARK    1  A    between atoms: N_2  and  C1_3 
ROOT
ATOM      1  C1  UNL d   1      -0.304  -0.158   0.743  0.00  0.00     0.143 A 
ATOM      2  C2  UNL d   1      -0.729  -0.075   2.074  0.00  0.00    -0.057 A 
ATOM      3  C3  UNL d   1      -1.461   1.026   2.534  0.00  0.00     0.033 A 
ATOM      4  C4  UNL d   1      -1.758   2.080   1.676  0.00  0.00    -0.042 A 
ATOM      5  C5  UNL d   1      -1.325   2.029   0.356  0.00  0.00     0.033 A 
ATOM      6  C6  UNL d   1      -0.599   0.924  -0.099  0.00  0.00    -0.057 A 
ENDROOT
BRANCH   1   7
ATOM      7  N   UNL d   1       0.512  -1.180   0.250  0.00  0.00    -0.732 N 
ATOM      8  C   UNL d   1       1.209  -1.023  -1.008  0.00  0.00     0.284 C 
ATOM      9  H3  UNL d   1       1.066  -1.621   0.980  0.00  0.00     0.395 HD
ENDBRANCH   1   7
TORSDOF 1
ENDMDL
