MODEL 1
REMARK minimizedAffinity -5.22294664
REMARK minimizedRMSD -1
REMARK  1 active torsions:
REMARK  status: ('A' for Active; 'I' for Inactive)
REMARK    1  A    between atoms: N_2  and  C1_3 
ROOT
ATOM      1  C1  UNL d   1       0.001  -0.485   0.231  0.00  0.00     0.143 A 
ATOM      2  C2  UNL d   1      -0.382  -0.531   1.576  0.00  0.00    -0.057 A 
ATOM      3  C3  UNL d   1      -1.235   0.437   2.121  0.00  0.00     0.033 A 
ATOM      4  C4  UNL d   1      -1.697   1.487   1.335  0.00  0.00    -0.042 A 
ATOM      5  C5  UNL d   1      -1.309   1.566   0.002  0.00  0.00     0.033 A 
ATOM      6  C6  UNL d   1      -0.463   0.593  -0.538  0.00  0.00    -0.057 A 
ENDROOT
BRANCH   1   7
ATOM      7  N   UNL d   1       0.924  -1.362  -0.345  0.00  0.00    -0.732 N 
ATOM      8  C   UNL d   1       0.561  -2.168  -1.490  0.00  0.00     0.284 C 
ATOM      9  H3  UNL d   1       1.859  -0.962  -0.397  0.00  0.00     0.395 HD
ENDBRANCH   1   7
TORSDOF 1
ENDMDL
