MODEL 1
REMARK minimizedAffinity -1.33644104
REMARK minimizedRMSD -1
REMARK  1 active torsions:
REMARK  status: ('A' for Active; 'I' for Inactive)
REMARK    1  A    between atoms: N_2  and  C1_3 
ROOT
ATOM      1  C1  UNL d   1       1.238  -4.244  -1.289  0.00  0.00     0.143 A 
ATOM      2  C2  UNL d   1       0.574  -4.022  -2.500  0.00  0.00    -0.057 A 
ATOM      3  C3  UNL d   1       0.268  -2.727  -2.934  0.00  0.00     0.033 A 
ATOM      4  C4  UNL d   1       0.595  -1.628  -2.147  0.00  0.00    -0.042 A 
ATOM      5  C5  UNL d   1       1.233  -1.825  -0.928  0.00  0.00     0.033 A 
ATOM      6  C6  UNL d   1       1.542  -3.121  -0.503  0.00  0.00    -0.057 A 
ENDROOT
BRANCH   1   7
ATOM      7  N   UNL d   1       1.483  -5.512  -0.756  0.00  0.00    -0.732 N 
ATOM      8  C   UNL d   1       2.642  -5.751   0.076  0.00  0.00     0.284 C 
ATOM      9  H3  UNL d   1       0.633  -5.965  -0.426  0.00  0.00     0.395 HD
ENDBRANCH   1   7
TORSDOF 1
ENDMDL
