MODEL 1
REMARK minimizedAffinity 5.6431694
REMARK minimizedRMSD -1
REMARK  1 active torsions:
REMARK  status: ('A' for Active; 'I' for Inactive)
REMARK    1  A    between atoms: C1_2  and  C2_3 
ROOT
ATOM      1  C2  UNL d   1      -5.188  -1.858   2.835  0.00  0.00    -0.081 A 
ATOM      2  C3  UNL d   1      -4.459  -2.282   3.953  0.00  0.00     0.006 A 
ATOM      3  C4  UNL d   1      -4.494  -3.619   4.355  0.00  0.00     0.002 A 
ATOM      4  C5  UNL d   1      -5.250  -4.556   3.642  0.00  0.00    -0.080 A 
ATOM      5  C6  UNL d   1      -5.272  -6.000   4.046  0.00  0.00     0.076 C 
ATOM      6  C7  UNL d   1      -5.992  -4.129   2.535  0.00  0.00     0.002 A 
ATOM      7  C8  UNL d   1      -5.958  -2.792   2.133  0.00  0.00     0.006 A 
ENDROOT
BRANCH   1   8
ATOM      8  C1  UNL d   1      -5.101  -0.430   2.360  0.00  0.00     0.054 C 
ATOM      9  C   UNL d   1      -3.701   0.135   2.557  0.00  0.00     0.018 C 
ENDBRANCH   1   8
TORSDOF 1
ENDMDL
