MODEL 1
REMARK minimizedAffinity 9.08408451
REMARK minimizedRMSD -1
REMARK  1 active torsions:
REMARK  status: ('A' for Active; 'I' for Inactive)
REMARK    1  A    between atoms: C1_2  and  C2_3 
ROOT
ATOM      1  C2  UNL d   1       3.222  -4.804  -2.093  0.00  0.00    -0.081 A 
ATOM      2  C3  UNL d   1       4.290  -4.804  -2.998  0.00  0.00     0.006 A 
ATOM      3  C4  UNL d   1       4.155  -4.204  -4.252  0.00  0.00     0.002 A 
ATOM      4  C5  UNL d   1       2.955  -3.586  -4.618  0.00  0.00    -0.080 A 
ATOM      5  C6  UNL d   1       2.807  -2.911  -5.949  0.00  0.00     0.076 C 
ATOM      6  C7  UNL d   1       1.882  -3.600  -3.720  0.00  0.00     0.002 A 
ATOM      7  C8  UNL d   1       2.015  -4.201  -2.467  0.00  0.00     0.006 A 
ENDROOT
BRANCH   1   8
ATOM      8  C1  UNL d   1       3.384  -5.394  -0.715  0.00  0.00     0.054 C 
ATOM      9  C   UNL d   1       3.908  -4.360   0.271  0.00  0.00     0.018 C 
ENDBRANCH   1   8
TORSDOF 1
ENDMDL
