MODEL 1
REMARK minimizedAffinity 6.5237546
REMARK minimizedRMSD -1
REMARK  1 active torsions:
REMARK  status: ('A' for Active; 'I' for Inactive)
REMARK    1  A    between atoms: C1_2  and  C2_3 
ROOT
ATOM      1  C2  UNL d   1       2.753  -3.802  -2.397  0.00  0.00    -0.081 A 
ATOM      2  C3  UNL d   1       3.516  -4.873  -2.877  0.00  0.00     0.006 A 
ATOM      3  C4  UNL d   1       4.382  -5.564  -2.026  0.00  0.00     0.002 A 
ATOM      4  C5  UNL d   1       4.493  -5.201  -0.680  0.00  0.00    -0.080 A 
ATOM      5  C6  UNL d   1       5.396  -5.953   0.252  0.00  0.00     0.076 C 
ATOM      6  C7  UNL d   1       3.744  -4.119  -0.204  0.00  0.00     0.002 A 
ATOM      7  C8  UNL d   1       2.879  -3.428  -1.055  0.00  0.00     0.006 A 
ENDROOT
BRANCH   1   8
ATOM      8  C1  UNL d   1       1.770  -3.097  -3.296  0.00  0.00     0.054 C 
ATOM      9  C   UNL d   1       1.471  -1.691  -2.794  0.00  0.00     0.018 C 
ENDBRANCH   1   8
TORSDOF 1
ENDMDL
