MODEL 1
REMARK minimizedAffinity 2.15869188
REMARK minimizedRMSD -1
REMARK  1 active torsions:
REMARK  status: ('A' for Active; 'I' for Inactive)
REMARK    1  A    between atoms: C1_2  and  C2_3 
ROOT
ATOM      1  C2  UNL d   1      -5.472  -3.943   2.737  0.00  0.00    -0.081 A 
ATOM      2  C3  UNL d   1      -6.000  -2.830   2.072  0.00  0.00     0.006 A 
ATOM      3  C4  UNL d   1      -5.531  -1.545   2.359  0.00  0.00     0.002 A 
ATOM      4  C5  UNL d   1      -4.522  -1.354   3.309  0.00  0.00    -0.080 A 
ATOM      5  C6  UNL d   1      -3.988   0.016   3.604  0.00  0.00     0.076 C 
ATOM      6  C7  UNL d   1      -4.006  -2.465   3.985  0.00  0.00     0.002 A 
ATOM      7  C8  UNL d   1      -4.475  -3.749   3.700  0.00  0.00     0.006 A 
ENDROOT
BRANCH   1   8
ATOM      8  C1  UNL d   1      -5.930  -5.335   2.383  0.00  0.00     0.054 C 
ATOM      9  C   UNL d   1      -6.000  -5.528   0.875  0.00  0.00     0.018 C 
ENDBRANCH   1   8
TORSDOF 1
ENDMDL
