MODEL 1
REMARK minimizedAffinity 6.96965551
REMARK minimizedRMSD -1
REMARK  1 active torsions:
REMARK  status: ('A' for Active; 'I' for Inactive)
REMARK    1  A    between atoms: C1_2  and  C2_3 
ROOT
ATOM      1  C2  UNL d   1       3.725  -4.943  -1.362  0.00  0.00    -0.081 A 
ATOM      2  C3  UNL d   1       4.490  -5.077  -2.527  0.00  0.00     0.006 A 
ATOM      3  C4  UNL d   1       3.946  -4.754  -3.773  0.00  0.00     0.002 A 
ATOM      4  C5  UNL d   1       2.632  -4.285  -3.873  0.00  0.00    -0.080 A 
ATOM      5  C6  UNL d   1       2.046  -3.906  -5.201  0.00  0.00     0.076 C 
ATOM      6  C7  UNL d   1       1.861  -4.169  -2.711  0.00  0.00     0.002 A 
ATOM      7  C8  UNL d   1       2.405  -4.492  -1.466  0.00  0.00     0.006 A 
ENDROOT
BRANCH   1   8
ATOM      8  C1  UNL d   1       4.329  -5.229  -0.011  0.00  0.00     0.054 C 
ATOM      9  C   UNL d   1       5.535  -4.339   0.255  0.00  0.00     0.018 C 
ENDBRANCH   1   8
TORSDOF 1
ENDMDL
