MODEL 1
REMARK minimizedAffinity 2.33148479
REMARK minimizedRMSD -1
REMARK  1 active torsions:
REMARK  status: ('A' for Active; 'I' for Inactive)
REMARK    1  A    between atoms: C1_2  and  C2_3 
ROOT
ATOM      1  C2  UNL d   1       3.781  -4.634  -1.926  0.00  0.00    -0.081 A 
ATOM      2  C3  UNL d   1       3.243  -3.478  -2.503  0.00  0.00     0.006 A 
ATOM      3  C4  UNL d   1       2.037  -3.533  -3.206  0.00  0.00     0.002 A 
ATOM      4  C5  UNL d   1       1.345  -4.742  -3.336  0.00  0.00    -0.080 A 
ATOM      5  C6  UNL d   1       0.035  -4.809  -4.062  0.00  0.00     0.076 C 
ATOM      6  C7  UNL d   1       1.892  -5.901  -2.774  0.00  0.00     0.002 A 
ATOM      7  C8  UNL d   1       3.098  -5.846  -2.072  0.00  0.00     0.006 A 
ENDROOT
BRANCH   1   8
ATOM      8  C1  UNL d   1       5.048  -4.566  -1.112  0.00  0.00     0.054 C 
ATOM      9  C   UNL d   1       4.750  -4.587   0.380  0.00  0.00     0.018 C 
ENDBRANCH   1   8
TORSDOF 1
ENDMDL
