MODEL 1
REMARK minimizedAffinity 17.7879086
REMARK minimizedRMSD -1
REMARK  1 active torsions:
REMARK  status: ('A' for Active; 'I' for Inactive)
REMARK    1  A    between atoms: C1_2  and  C2_3 
ROOT
ATOM      1  C2  UNL d   1       2.250  -2.170  -1.457  0.00  0.00    -0.081 A 
ATOM      2  C3  UNL d   1       3.081  -2.247  -0.332  0.00  0.00     0.006 A 
ATOM      3  C4  UNL d   1       3.528  -3.485   0.134  0.00  0.00     0.002 A 
ATOM      4  C5  UNL d   1       3.160  -4.666  -0.520  0.00  0.00    -0.080 A 
ATOM      5  C6  UNL d   1       3.659  -5.999  -0.048  0.00  0.00     0.076 C 
ATOM      6  C7  UNL d   1       2.317  -4.590  -1.634  0.00  0.00     0.002 A 
ATOM      7  C8  UNL d   1       1.868  -3.352  -2.100  0.00  0.00     0.006 A 
ENDROOT
BRANCH   1   8
ATOM      8  C1  UNL d   1       1.819  -0.832  -2.001  0.00  0.00     0.054 C 
ATOM      9  C   UNL d   1       2.196   0.298  -1.053  0.00  0.00     0.018 C 
ENDBRANCH   1   8
TORSDOF 1
ENDMDL
