MODEL 1
REMARK minimizedAffinity 8.28739357
REMARK minimizedRMSD -1
REMARK  1 active torsions:
REMARK  status: ('A' for Active; 'I' for Inactive)
REMARK    1  A    between atoms: C1_2  and  C2_3 
ROOT
ATOM      1  C2  UNL d   1      -4.624  -3.091  -5.687  0.00  0.00    -0.081 A 
ATOM      2  C3  UNL d   1      -4.403  -4.438  -5.998  0.00  0.00     0.006 A 
ATOM      3  C4  UNL d   1      -3.198  -5.057  -5.655  0.00  0.00     0.002 A 
ATOM      4  C5  UNL d   1      -2.198  -4.341  -4.987  0.00  0.00    -0.080 A 
ATOM      5  C6  UNL d   1      -0.913  -5.001  -4.585  0.00  0.00     0.076 C 
ATOM      6  C7  UNL d   1      -2.412  -2.991  -4.691  0.00  0.00     0.002 A 
ATOM      7  C8  UNL d   1      -3.616  -2.372  -5.035  0.00  0.00     0.006 A 
ENDROOT
BRANCH   1   8
ATOM      8  C1  UNL d   1      -5.946  -2.439  -5.998  0.00  0.00     0.054 C 
ATOM      9  C   UNL d   1      -5.871  -0.928  -5.833  0.00  0.00     0.018 C 
ENDBRANCH   1   8
TORSDOF 1
ENDMDL
