MODEL 1
REMARK minimizedAffinity 17.6421127
REMARK minimizedRMSD -1
REMARK  1 active torsions:
REMARK  status: ('A' for Active; 'I' for Inactive)
REMARK    1  A    between atoms: C1_2  and  C2_3 
ROOT
ATOM      1  C2  UNL d   1      -2.922  -4.284  -4.228  0.00  0.00    -0.081 A 
ATOM      2  C3  UNL d   1      -1.712  -3.885  -4.807  0.00  0.00     0.006 A 
ATOM      3  C4  UNL d   1      -0.505  -4.076  -4.130  0.00  0.00     0.002 A 
ATOM      4  C5  UNL d   1      -0.488  -4.676  -2.866  0.00  0.00    -0.080 A 
ATOM      5  C6  UNL d   1       0.803  -4.915  -2.141  0.00  0.00     0.076 C 
ATOM      6  C7  UNL d   1      -1.699  -5.059  -2.280  0.00  0.00     0.002 A 
ATOM      7  C8  UNL d   1      -2.906  -4.868  -2.956  0.00  0.00     0.006 A 
ENDROOT
BRANCH   1   8
ATOM      8  C1  UNL d   1      -4.218  -4.139  -4.983  0.00  0.00     0.054 C 
ATOM      9  C   UNL d   1      -4.143  -3.008  -5.999  0.00  0.00     0.018 C 
ENDBRANCH   1   8
TORSDOF 1
ENDMDL
