MODEL 1
REMARK minimizedAffinity -2.07911348
REMARK minimizedRMSD -1
REMARK  0 active torsions:
REMARK  status: ('A' for Active; 'I' for Inactive)
ROOT
ATOM      1  O1  BZF d   1      -0.640  -0.756  -1.079  0.00  0.00    -0.204 OA
ATOM      2  C2  BZF d   1      -1.370  -0.363   0.026  0.00  0.00     0.174 A 
ATOM      3  C3  BZF d   1      -0.559  -0.142   1.080  0.00  0.00    -0.012 A 
ATOM      4  C3A BZF d   1       0.769  -0.324   0.579  0.00  0.00    -0.107 A 
ATOM      5  C4  BZF d   1       2.007  -0.226   1.145  0.00  0.00     0.055 A 
ATOM      6  C5  BZF d   1       3.100  -0.540   0.401  0.00  0.00    -0.016 A 
ATOM      7  C6  BZF d   1       2.991  -0.959  -0.909  0.00  0.00     0.022 A 
ATOM      8  C7  BZF d   1       1.784  -1.066  -1.515  0.00  0.00     0.029 A 
ATOM      9  C7A BZF d   1       0.680  -0.719  -0.776  0.00  0.00     0.058 A 
ENDROOT
TORSDOF 0
ENDMDL
