MODEL 1
REMARK minimizedAffinity -4.36821318
REMARK minimizedRMSD -1
REMARK  0 active torsions:
REMARK  status: ('A' for Active; 'I' for Inactive)
ROOT
ATOM      1  O1  BZF d   1       0.949  -0.725   2.800  0.00  0.00    -0.204 OA
ATOM      2  C2  BZF d   1       2.263  -1.134   2.922  0.00  0.00     0.174 A 
ATOM      3  C3  BZF d   1       2.801  -1.384   1.711  0.00  0.00    -0.012 A 
ATOM      4  C3A BZF d   1       1.786  -1.026   0.767  0.00  0.00    -0.107 A 
ATOM      5  C4  BZF d   1       1.727  -1.036  -0.597  0.00  0.00     0.055 A 
ATOM      6  C5  BZF d   1       0.563  -0.695  -1.210  0.00  0.00    -0.016 A 
ATOM      7  C6  BZF d   1      -0.561  -0.344  -0.491  0.00  0.00     0.022 A 
ATOM      8  C7  BZF d   1      -0.549  -0.315   0.864  0.00  0.00     0.029 A 
ATOM      9  C7A BZF d   1       0.635  -0.627   1.486  0.00  0.00     0.058 A 
ENDROOT
TORSDOF 0
ENDMDL
