MODEL 1
REMARK minimizedAffinity -2.37679338
REMARK minimizedRMSD -1
REMARK  0 active torsions:
REMARK  status: ('A' for Active; 'I' for Inactive)
ROOT
ATOM      1  O1  BZF d   1       0.288   0.385  -0.158  0.00  0.00    -0.204 OA
ATOM      2  C2  BZF d   1      -0.975  -0.149  -0.320  0.00  0.00     0.174 A 
ATOM      3  C3  BZF d   1      -1.250  -1.034   0.661  0.00  0.00    -0.012 A 
ATOM      4  C3A BZF d   1      -0.121  -0.985   1.539  0.00  0.00    -0.107 A 
ATOM      5  C4  BZF d   1       0.191  -1.625   2.704  0.00  0.00     0.055 A 
ATOM      6  C5  BZF d   1       1.405  -1.408   3.273  0.00  0.00    -0.016 A 
ATOM      7  C6  BZF d   1       2.333  -0.561   2.702  0.00  0.00     0.022 A 
ATOM      8  C7  BZF d   1       2.067   0.100   1.549  0.00  0.00     0.029 A 
ATOM      9  C7A BZF d   1       0.828  -0.092   0.989  0.00  0.00     0.058 A 
ENDROOT
TORSDOF 0
ENDMDL
