MODEL 1
REMARK minimizedAffinity -1.69742501
REMARK minimizedRMSD -1
REMARK  0 active torsions:
REMARK  status: ('A' for Active; 'I' for Inactive)
ROOT
ATOM      1  O1  BZF d   1      -0.216  -1.501   2.643  0.00  0.00    -0.204 OA
ATOM      2  C2  BZF d   1      -0.797  -0.290   2.320  0.00  0.00     0.174 A 
ATOM      3  C3  BZF d   1      -0.306   0.181   1.155  0.00  0.00    -0.012 A 
ATOM      4  C3A BZF d   1       0.573  -0.842   0.676  0.00  0.00    -0.107 A 
ATOM      5  C4  BZF d   1       1.346  -0.967  -0.442  0.00  0.00     0.055 A 
ATOM      6  C5  BZF d   1       2.144  -2.059  -0.574  0.00  0.00    -0.016 A 
ATOM      7  C6  BZF d   1       2.198  -3.041   0.393  0.00  0.00     0.022 A 
ATOM      8  C7  BZF d   1       1.446  -2.962   1.518  0.00  0.00     0.029 A 
ATOM      9  C7A BZF d   1       0.613  -1.877   1.639  0.00  0.00     0.058 A 
ENDROOT
TORSDOF 0
ENDMDL
