MODEL 1
REMARK minimizedAffinity -0.703033686
REMARK minimizedRMSD -1
REMARK  0 active torsions:
REMARK  status: ('A' for Active; 'I' for Inactive)
ROOT
ATOM      1  O1  BZF d   1      -0.086  -0.840  -2.141  0.00  0.00    -0.204 OA
ATOM      2  C2  BZF d   1       1.238  -1.136  -1.879  0.00  0.00     0.174 A 
ATOM      3  C3  BZF d   1       1.491  -1.071  -0.556  0.00  0.00    -0.012 A 
ATOM      4  C3A BZF d   1       0.225  -0.802   0.056  0.00  0.00    -0.107 A 
ATOM      5  C4  BZF d   1      -0.176  -0.641   1.351  0.00  0.00     0.055 A 
ATOM      6  C5  BZF d   1      -1.470  -0.315   1.606  0.00  0.00    -0.016 A 
ATOM      7  C6  BZF d   1      -2.388  -0.138   0.591  0.00  0.00     0.022 A 
ATOM      8  C7  BZF d   1      -2.038  -0.292  -0.709  0.00  0.00     0.029 A 
ATOM      9  C7A BZF d   1      -0.738  -0.654  -0.968  0.00  0.00     0.058 A 
ENDROOT
TORSDOF 0
ENDMDL
