MODEL 1
REMARK minimizedAffinity 5.66495085
REMARK minimizedRMSD -1
REMARK  0 active torsions:
REMARK  status: ('A' for Active; 'I' for Inactive)
ROOT
ATOM      1  O1  BZF d   1       3.750  -0.475   0.288  0.00  0.00    -0.204 OA
ATOM      2  C2  BZF d   1       4.930  -1.175   0.121  0.00  0.00     0.174 A 
ATOM      3  C3  BZF d   1       5.994  -0.381   0.354  0.00  0.00    -0.012 A 
ATOM      4  C3A BZF d   1       5.445   0.871   0.777  0.00  0.00    -0.107 A 
ATOM      5  C4  BZF d   1       6.000   2.056   1.167  0.00  0.00     0.055 A 
ATOM      6  C5  BZF d   1       5.185   3.107   1.447  0.00  0.00    -0.016 A 
ATOM      7  C6  BZF d   1       3.812   3.008   1.344  0.00  0.00     0.022 A 
ATOM      8  C7  BZF d   1       3.216   1.852   0.966  0.00  0.00     0.029 A 
ATOM      9  C7A BZF d   1       4.035   0.779   0.714  0.00  0.00     0.058 A 
ENDROOT
TORSDOF 0
ENDMDL
