MODEL 1
REMARK minimizedAffinity -0.812987387
REMARK minimizedRMSD -1
REMARK  0 active torsions:
REMARK  status: ('A' for Active; 'I' for Inactive)
ROOT
ATOM      1  O1  BZF d   1       1.694  -3.124   0.752  0.00  0.00    -0.204 OA
ATOM      2  C2  BZF d   1       1.987  -4.469   0.863  0.00  0.00     0.174 A 
ATOM      3  C3  BZF d   1       1.148  -5.072   1.730  0.00  0.00    -0.012 A 
ATOM      4  C3A BZF d   1       0.217  -4.057   2.119  0.00  0.00    -0.107 A 
ATOM      5  C4  BZF d   1      -0.866  -4.047   2.951  0.00  0.00     0.055 A 
ATOM      6  C5  BZF d   1      -1.518  -2.875   3.171  0.00  0.00    -0.016 A 
ATOM      7  C6  BZF d   1      -1.111  -1.696   2.582  0.00  0.00     0.022 A 
ATOM      8  C7  BZF d   1      -0.045  -1.658   1.746  0.00  0.00     0.029 A 
ATOM      9  C7A BZF d   1       0.596  -2.846   1.495  0.00  0.00     0.058 A 
ENDROOT
TORSDOF 0
ENDMDL
