MODEL 1
REMARK minimizedAffinity 10.6680326
REMARK minimizedRMSD -1
REMARK  0 active torsions:
REMARK  status: ('A' for Active; 'I' for Inactive)
ROOT
ATOM      1  O1  BZF d   1       2.289  -3.064   0.226  0.00  0.00    -0.204 OA
ATOM      2  C2  BZF d   1       2.584  -4.128   1.056  0.00  0.00     0.174 A 
ATOM      3  C3  BZF d   1       1.973  -3.987   2.250  0.00  0.00    -0.012 A 
ATOM      4  C3A BZF d   1       1.176  -2.805   2.128  0.00  0.00    -0.107 A 
ATOM      5  C4  BZF d   1       0.327  -2.154   2.976  0.00  0.00     0.055 A 
ATOM      6  C5  BZF d   1      -0.238  -0.984   2.575  0.00  0.00    -0.016 A 
ATOM      7  C6  BZF d   1       0.028  -0.436   1.338  0.00  0.00     0.022 A 
ATOM      8  C7  BZF d   1       0.860  -1.048   0.461  0.00  0.00     0.029 A 
ATOM      9  C7A BZF d   1       1.407  -2.247   0.850  0.00  0.00     0.058 A 
ENDROOT
TORSDOF 0
ENDMDL
