MODEL 1
REMARK minimizedAffinity 5.4324851
REMARK minimizedRMSD -1
REMARK  0 active torsions:
REMARK  status: ('A' for Active; 'I' for Inactive)
ROOT
ATOM      1  O1  BZF d   1      -0.302  -1.387   3.073  0.00  0.00    -0.204 OA
ATOM      2  C2  BZF d   1      -0.777  -0.358   2.282  0.00  0.00     0.174 A 
ATOM      3  C3  BZF d   1      -0.177  -0.366   1.075  0.00  0.00    -0.012 A 
ATOM      4  C3A BZF d   1       0.664  -1.525   1.080  0.00  0.00    -0.107 A 
ATOM      5  C4  BZF d   1       1.503  -2.080   0.157  0.00  0.00     0.055 A 
ATOM      6  C5  BZF d   1       2.234  -3.172   0.502  0.00  0.00    -0.016 A 
ATOM      7  C6  BZF d   1       2.155  -3.731   1.761  0.00  0.00     0.022 A 
ATOM      8  C7  BZF d   1       1.332  -3.219   2.708  0.00  0.00     0.029 A 
ATOM      9  C7A BZF d   1       0.568  -2.135   2.352  0.00  0.00     0.058 A 
ENDROOT
TORSDOF 0
ENDMDL
