MODEL 1
REMARK minimizedAffinity -3.31129217
REMARK minimizedRMSD -1
REMARK  0 active torsions:
REMARK  status: ('A' for Active; 'I' for Inactive)
ROOT
ATOM      1  O1  BZF d   1       0.846  -1.939  -0.244  0.00  0.00    -0.204 OA
ATOM      2  C2  BZF d   1       1.652  -2.578   0.678  0.00  0.00     0.174 A 
ATOM      3  C3  BZF d   1       1.170  -2.417   1.927  0.00  0.00    -0.012 A 
ATOM      4  C3A BZF d   1      -0.061  -1.706   1.767  0.00  0.00    -0.107 A 
ATOM      5  C4  BZF d   1      -1.010  -1.264   2.643  0.00  0.00     0.055 A 
ATOM      6  C5  BZF d   1      -2.057  -0.537   2.171  0.00  0.00    -0.016 A 
ATOM      7  C6  BZF d   1      -2.183  -0.230   0.832  0.00  0.00     0.022 A 
ATOM      8  C7  BZF d   1      -1.269  -0.651  -0.076  0.00  0.00     0.029 A 
ATOM      9  C7A BZF d   1      -0.227  -1.414   0.394  0.00  0.00     0.058 A 
ENDROOT
TORSDOF 0
ENDMDL
