MODEL 1
REMARK minimizedAffinity -1.19200659
REMARK minimizedRMSD -1
REMARK  0 active torsions:
REMARK  status: ('A' for Active; 'I' for Inactive)
ROOT
ATOM      1  O1  BZF d   1       2.252  -3.448   0.361  0.00  0.00    -0.204 OA
ATOM      2  C2  BZF d   1       2.782  -4.037   1.493  0.00  0.00     0.174 A 
ATOM      3  C3  BZF d   1       2.304  -3.448   2.607  0.00  0.00    -0.012 A 
ATOM      4  C3A BZF d   1       1.350  -2.487   2.145  0.00  0.00    -0.107 A 
ATOM      5  C4  BZF d   1       0.529  -1.600   2.780  0.00  0.00     0.055 A 
ATOM      6  C5  BZF d   1      -0.229  -0.752   2.035  0.00  0.00    -0.016 A 
ATOM      7  C6  BZF d   1      -0.187  -0.762   0.657  0.00  0.00     0.022 A 
ATOM      8  C7  BZF d   1       0.608  -1.628  -0.018  0.00  0.00     0.029 A 
ATOM      9  C7A BZF d   1       1.350  -2.508   0.731  0.00  0.00     0.058 A 
ENDROOT
TORSDOF 0
ENDMDL
