MODEL 1
REMARK minimizedAffinity -2.22278976
REMARK minimizedRMSD -1
REMARK  0 active torsions:
REMARK  status: ('A' for Active; 'I' for Inactive)
ROOT
ATOM      1  O1  BZF d   1       0.686  -1.167  -1.580  0.00  0.00    -0.204 OA
ATOM      2  C2  BZF d   1       2.011  -0.909  -1.870  0.00  0.00     0.174 A 
ATOM      3  C3  BZF d   1       2.610  -0.270  -0.844  0.00  0.00    -0.012 A 
ATOM      4  C3A BZF d   1       1.620  -0.203   0.186  0.00  0.00    -0.107 A 
ATOM      5  C4  BZF d   1       1.619   0.303   1.455  0.00  0.00     0.055 A 
ATOM      6  C5  BZF d   1       0.467   0.275   2.176  0.00  0.00    -0.016 A 
ATOM      7  C6  BZF d   1      -0.701  -0.245   1.658  0.00  0.00     0.022 A 
ATOM      8  C7  BZF d   1      -0.748  -0.762   0.406  0.00  0.00     0.029 A 
ATOM      9  C7A BZF d   1       0.423  -0.766  -0.313  0.00  0.00     0.058 A 
ENDROOT
TORSDOF 0
ENDMDL
