MODEL 1
REMARK minimizedAffinity 8.61045456
REMARK minimizedRMSD -1
REMARK  0 active torsions:
REMARK  status: ('A' for Active; 'I' for Inactive)
ROOT
ATOM      1  C4' PXY d   1       1.364   3.022  -2.994  0.00  0.00     0.077 C 
ATOM      2  C1' PXY d   1       3.600   0.244   1.556  0.00  0.00     0.077 C 
ATOM      3  C1  PXY d   1       3.026   0.977   0.360  0.00  0.00    -0.082 A 
ATOM      4  C2  PXY d   1       1.737   1.276   0.333  0.00  0.00     0.003 A 
ATOM      5  C3  PXY d   1       1.195   1.911  -0.755  0.00  0.00     0.003 A 
ATOM      6  C4  PXY d   1       1.990   2.291  -1.803  0.00  0.00    -0.082 A 
ATOM      7  C5  PXY d   1       3.307   1.999  -1.778  0.00  0.00     0.003 A 
ATOM      8  C6  PXY d   1       3.831   1.318  -0.683  0.00  0.00     0.003 A 
ENDROOT
TORSDOF 0
ENDMDL
