MODEL 1
REMARK minimizedAffinity 8.62071991
REMARK minimizedRMSD -1
REMARK  0 active torsions:
REMARK  status: ('A' for Active; 'I' for Inactive)
ROOT
ATOM      1  C4' PXY d   1      -2.322   0.920   4.977  0.00  0.00     0.077 C 
ATOM      2  C1' PXY d   1      -1.563  -2.206   0.174  0.00  0.00     0.077 C 
ATOM      3  C1  PXY d   1      -1.749  -1.388   1.436  0.00  0.00    -0.082 A 
ATOM      4  C2  PXY d   1      -2.945  -1.313   1.996  0.00  0.00     0.003 A 
ATOM      5  C3  PXY d   1      -3.139  -0.551   3.120  0.00  0.00     0.003 A 
ATOM      6  C4  PXY d   1      -2.085   0.098   3.707  0.00  0.00    -0.082 A 
ATOM      7  C5  PXY d   1      -0.859   0.017   3.148  0.00  0.00     0.003 A 
ATOM      8  C6  PXY d   1      -0.693  -0.728   1.984  0.00  0.00     0.003 A 
ENDROOT
TORSDOF 0
ENDMDL
