MODEL 1
REMARK minimizedAffinity 0.2685256
REMARK minimizedRMSD -1
REMARK  0 active torsions:
REMARK  status: ('A' for Active; 'I' for Inactive)
ROOT
ATOM      1  C4' PXY d   1      -0.252  -0.320   2.952  0.00  0.00     0.077 C 
ATOM      2  C1' PXY d   1      -5.998  -0.880   3.249  0.00  0.00     0.077 C 
ATOM      3  C1  PXY d   1      -4.490  -0.746   3.168  0.00  0.00    -0.082 A 
ATOM      4  C2  PXY d   1      -3.879   0.199   3.864  0.00  0.00     0.003 A 
ATOM      5  C3  PXY d   1      -2.519   0.355   3.777  0.00  0.00     0.003 A 
ATOM      6  C4  PXY d   1      -1.772  -0.499   3.011  0.00  0.00    -0.082 A 
ATOM      7  C5  PXY d   1      -2.387  -1.472   2.306  0.00  0.00     0.003 A 
ATOM      8  C6  PXY d   1      -3.772  -1.587   2.376  0.00  0.00     0.003 A 
ENDROOT
TORSDOF 0
ENDMDL
