MODEL 1
REMARK minimizedAffinity 2.31095767
REMARK minimizedRMSD -1
REMARK  0 active torsions:
REMARK  status: ('A' for Active; 'I' for Inactive)
ROOT
ATOM      1  C4' PXY d   1       0.791   4.027  -3.303  0.00  0.00     0.077 C 
ATOM      2  C1' PXY d   1      -3.933   5.997  -5.991  0.00  0.00     0.077 C 
ATOM      3  C1  PXY d   1      -2.689   5.476  -5.298  0.00  0.00    -0.082 A 
ATOM      4  C2  PXY d   1      -2.746   5.138  -4.020  0.00  0.00     0.003 A 
ATOM      5  C3  PXY d   1      -1.623   4.696  -3.369  0.00  0.00     0.003 A 
ATOM      6  C4  PXY d   1      -0.442   4.548  -4.047  0.00  0.00    -0.082 A 
ATOM      7  C5  PXY d   1      -0.379   4.881  -5.353  0.00  0.00     0.003 A 
ATOM      8  C6  PXY d   1      -1.520   5.367  -5.985  0.00  0.00     0.003 A 
ENDROOT
TORSDOF 0
ENDMDL
