MODEL 1
REMARK minimizedAffinity 5.86771202
REMARK minimizedRMSD -1
REMARK  0 active torsions:
REMARK  status: ('A' for Active; 'I' for Inactive)
ROOT
ATOM      1  C4' PXY d   1       1.843   0.751   0.356  0.00  0.00     0.077 C 
ATOM      2  C1' PXY d   1       6.000   4.646   1.338  0.00  0.00     0.077 C 
ATOM      3  C1  PXY d   1       4.904   3.628   1.092  0.00  0.00    -0.082 A 
ATOM      4  C2  PXY d   1       5.129   2.609   0.279  0.00  0.00     0.003 A 
ATOM      5  C3  PXY d   1       4.139   1.696   0.020  0.00  0.00     0.003 A 
ATOM      6  C4  PXY d   1       2.923   1.798   0.641  0.00  0.00    -0.082 A 
ATOM      7  C5  PXY d   1       2.689   2.829   1.480  0.00  0.00     0.003 A 
ATOM      8  C6  PXY d   1       3.694   3.768   1.698  0.00  0.00     0.003 A 
ENDROOT
TORSDOF 0
ENDMDL
