MODEL 1
REMARK minimizedAffinity 9.67558575
REMARK minimizedRMSD -1
REMARK  0 active torsions:
REMARK  status: ('A' for Active; 'I' for Inactive)
ROOT
ATOM      1  C4' PXY d   1      -2.175   1.199   2.669  0.00  0.00     0.077 C 
ATOM      2  C1' PXY d   1       0.567  -3.372   4.906  0.00  0.00     0.077 C 
ATOM      3  C1  PXY d   1      -0.147  -2.176   4.308  0.00  0.00    -0.082 A 
ATOM      4  C2  PXY d   1      -0.518  -1.176   5.092  0.00  0.00     0.003 A 
ATOM      5  C3  PXY d   1      -1.193  -0.101   4.572  0.00  0.00     0.003 A 
ATOM      6  C4  PXY d   1      -1.444  -0.024   3.229  0.00  0.00    -0.082 A 
ATOM      7  C5  PXY d   1      -1.059  -1.035   2.421  0.00  0.00     0.003 A 
ATOM      8  C6  PXY d   1      -0.411  -2.136   2.974  0.00  0.00     0.003 A 
ENDROOT
TORSDOF 0
ENDMDL
