MODEL 1
REMARK minimizedAffinity 6.61850548
REMARK minimizedRMSD -1
REMARK  0 active torsions:
REMARK  status: ('A' for Active; 'I' for Inactive)
ROOT
ATOM      1  C4' PXY d   1      -1.614   1.285   2.361  0.00  0.00     0.077 C 
ATOM      2  C1' PXY d   1      -1.004   5.999  -0.929  0.00  0.00     0.077 C 
ATOM      3  C1  PXY d   1      -1.177   4.765  -0.065  0.00  0.00    -0.082 A 
ATOM      4  C2  PXY d   1      -0.138   4.276   0.593  0.00  0.00     0.003 A 
ATOM      5  C3  PXY d   1      -0.269   3.143   1.354  0.00  0.00     0.003 A 
ATOM      6  C4  PXY d   1      -1.488   2.534   1.484  0.00  0.00    -0.082 A 
ATOM      7  C5  PXY d   1      -2.555   3.032   0.825  0.00  0.00     0.003 A 
ATOM      8  C6  PXY d   1      -2.392   4.160   0.026  0.00  0.00     0.003 A 
ENDROOT
TORSDOF 0
ENDMDL
