MODEL 1
REMARK minimizedAffinity 11.7681761
REMARK minimizedRMSD -1
REMARK  0 active torsions:
REMARK  status: ('A' for Active; 'I' for Inactive)
ROOT
ATOM      1  C4' PXY d   1       3.519   4.009  -1.074  0.00  0.00     0.077 C 
ATOM      2  C1' PXY d   1       2.657  -0.963  -3.893  0.00  0.00     0.077 C 
ATOM      3  C1  PXY d   1       2.877   0.348  -3.163  0.00  0.00    -0.082 A 
ATOM      4  C2  PXY d   1       3.830   0.435  -2.249  0.00  0.00     0.003 A 
ATOM      5  C3  PXY d   1       4.023   1.603  -1.558  0.00  0.00     0.003 A 
ATOM      6  C4  PXY d   1       3.267   2.709  -1.842  0.00  0.00    -0.082 A 
ATOM      7  C5  PXY d   1       2.300   2.631  -2.780  0.00  0.00     0.003 A 
ATOM      8  C6  PXY d   1       2.093   1.424  -3.442  0.00  0.00     0.003 A 
ENDROOT
TORSDOF 0
ENDMDL
