MODEL 1
REMARK minimizedAffinity 4.59867573
REMARK minimizedRMSD -1
REMARK  0 active torsions:
REMARK  status: ('A' for Active; 'I' for Inactive)
ROOT
ATOM      1  C4' PXY d   1       2.865  -0.677   0.969  0.00  0.00     0.077 C 
ATOM      2  C1' PXY d   1       4.641  -5.975  -0.513  0.00  0.00     0.077 C 
ATOM      3  C1  PXY d   1       4.163  -4.589  -0.127  0.00  0.00    -0.082 A 
ATOM      4  C2  PXY d   1       5.005  -3.570  -0.174  0.00  0.00     0.003 A 
ATOM      5  C3  PXY d   1       4.598  -2.316   0.203  0.00  0.00     0.003 A 
ATOM      6  C4  PXY d   1       3.301  -2.092   0.580  0.00  0.00    -0.082 A 
ATOM      7  C5  PXY d   1       2.433  -3.125   0.619  0.00  0.00     0.003 A 
ATOM      8  C6  PXY d   1       2.876  -4.398   0.273  0.00  0.00     0.003 A 
ENDROOT
TORSDOF 0
ENDMDL
