MODEL 1
REMARK minimizedAffinity 5.80613136
REMARK minimizedRMSD -1
REMARK  0 active torsions:
REMARK  status: ('A' for Active; 'I' for Inactive)
ROOT
ATOM      1  C4' PXY d   1       0.634  -3.030  -0.209  0.00  0.00     0.077 C 
ATOM      2  C1' PXY d   1       5.997  -5.178  -0.013  0.00  0.00     0.077 C 
ATOM      3  C1  PXY d   1       4.594  -4.605  -0.057  0.00  0.00    -0.082 A 
ATOM      4  C2  PXY d   1       3.565  -5.408  -0.272  0.00  0.00     0.003 A 
ATOM      5  C3  PXY d   1       2.293  -4.902  -0.347  0.00  0.00     0.003 A 
ATOM      6  C4  PXY d   1       2.066  -3.567  -0.147  0.00  0.00    -0.082 A 
ATOM      7  C5  PXY d   1       3.110  -2.742   0.084  0.00  0.00     0.003 A 
ATOM      8  C6  PXY d   1       4.397  -3.269   0.115  0.00  0.00     0.003 A 
ENDROOT
TORSDOF 0
ENDMDL
