MODEL 1
REMARK minimizedAffinity 1.74772286
REMARK minimizedRMSD -1
REMARK  0 active torsions:
REMARK  status: ('A' for Active; 'I' for Inactive)
ROOT
ATOM      1  C4' PXY d   1      -4.109   2.363   0.165  0.00  0.00     0.077 C 
ATOM      2  C1' PXY d   1      -0.697   0.530   4.456  0.00  0.00     0.077 C 
ATOM      3  C1  PXY d   1      -1.593   1.022   3.337  0.00  0.00    -0.082 A 
ATOM      4  C2  PXY d   1      -2.252   0.148   2.594  0.00  0.00     0.003 A 
ATOM      5  C3  PXY d   1      -3.041   0.574   1.557  0.00  0.00     0.003 A 
ATOM      6  C4  PXY d   1      -3.200   1.912   1.312  0.00  0.00    -0.082 A 
ATOM      7  C5  PXY d   1      -2.540   2.811   2.072  0.00  0.00     0.003 A 
ATOM      8  C6  PXY d   1      -1.711   2.356   3.093  0.00  0.00     0.003 A 
ENDROOT
TORSDOF 0
ENDMDL
