MODEL 1
REMARK minimizedAffinity 6.18784523
REMARK minimizedRMSD -1
REMARK  0 active torsions:
REMARK  status: ('A' for Active; 'I' for Inactive)
ROOT
ATOM      1  C4' PXY d   1       5.234  -5.282  -0.105  0.00  0.00     0.077 C 
ATOM      2  C1' PXY d   1       0.125  -2.643   0.493  0.00  0.00     0.077 C 
ATOM      3  C1  PXY d   1       1.470  -3.324   0.332  0.00  0.00    -0.082 A 
ATOM      4  C2  PXY d   1       1.522  -4.630   0.129  0.00  0.00     0.003 A 
ATOM      5  C3  PXY d   1       2.731  -5.267   0.014  0.00  0.00     0.003 A 
ATOM      6  C4  PXY d   1       3.898  -4.551   0.053  0.00  0.00    -0.082 A 
ATOM      7  C5  PXY d   1       3.853  -3.216   0.249  0.00  0.00     0.003 A 
ATOM      8  C6  PXY d   1       2.617  -2.595   0.405  0.00  0.00     0.003 A 
ENDROOT
TORSDOF 0
ENDMDL
