MODEL 1
REMARK minimizedAffinity 7.33862782
REMARK minimizedRMSD -1
REMARK  0 active torsions:
REMARK  status: ('A' for Active; 'I' for Inactive)
ROOT
ATOM      1  C4' PXY d   1       0.928  -3.639  -0.451  0.00  0.00     0.077 C 
ATOM      2  C1' PXY d   1       6.000  -1.119   0.708  0.00  0.00     0.077 C 
ATOM      3  C1  PXY d   1       4.676  -1.788   0.395  0.00  0.00    -0.082 A 
ATOM      4  C2  PXY d   1       3.545  -1.139   0.623  0.00  0.00     0.003 A 
ATOM      5  C3  PXY d   1       2.338  -1.740   0.376  0.00  0.00     0.003 A 
ATOM      6  C4  PXY d   1       2.288  -2.999  -0.159  0.00  0.00    -0.082 A 
ATOM      7  C5  PXY d   1       3.437  -3.664  -0.405  0.00  0.00     0.003 A 
ATOM      8  C6  PXY d   1       4.652  -3.052  -0.108  0.00  0.00     0.003 A 
ENDROOT
TORSDOF 0
ENDMDL
