MODEL 1
REMARK minimizedAffinity 4.74685574
REMARK minimizedRMSD -1
REMARK  0 active torsions:
REMARK  status: ('A' for Active; 'I' for Inactive)
ROOT
ATOM      1  C4' PXY d   1       4.744  -4.862  -0.376  0.00  0.00     0.077 C 
ATOM      2  C1' PXY d   1      -0.244  -2.464   1.292  0.00  0.00     0.077 C 
ATOM      3  C1  PXY d   1       1.067  -3.082   0.847  0.00  0.00    -0.082 A 
ATOM      4  C2  PXY d   1       1.227  -4.394   0.913  0.00  0.00     0.003 A 
ATOM      5  C3  PXY d   1       2.417  -4.967   0.545  0.00  0.00     0.003 A 
ATOM      6  C4  PXY d   1       3.435  -4.195   0.053  0.00  0.00    -0.082 A 
ATOM      7  C5  PXY d   1       3.276  -2.857  -0.027  0.00  0.00     0.003 A 
ATOM      8  C6  PXY d   1       2.075  -2.291   0.390  0.00  0.00     0.003 A 
ENDROOT
TORSDOF 0
ENDMDL
