MODEL 1
REMARK minimizedAffinity 7.86786556
REMARK minimizedRMSD -1
REMARK  0 active torsions:
REMARK  status: ('A' for Active; 'I' for Inactive)
ROOT
ATOM      1  C4' PXY d   1       4.868  -6.000   0.006  0.00  0.00     0.077 C 
ATOM      2  C1' PXY d   1       2.904  -0.579   0.424  0.00  0.00     0.077 C 
ATOM      3  C1  PXY d   1       3.409  -2.005   0.322  0.00  0.00    -0.082 A 
ATOM      4  C2  PXY d   1       4.692  -2.229   0.086  0.00  0.00     0.003 A 
ATOM      5  C3  PXY d   1       5.160  -3.512  -0.041  0.00  0.00     0.003 A 
ATOM      6  C4  PXY d   1       4.316  -4.577   0.127  0.00  0.00    -0.082 A 
ATOM      7  C5  PXY d   1       3.008  -4.357   0.378  0.00  0.00     0.003 A 
ATOM      8  C6  PXY d   1       2.545  -3.047   0.463  0.00  0.00     0.003 A 
ENDROOT
TORSDOF 0
ENDMDL
