MODEL 1
REMARK minimizedAffinity -1.12483597
REMARK minimizedRMSD -1
REMARK  0 active torsions:
REMARK  status: ('A' for Active; 'I' for Inactive)
ROOT
ATOM      1  C4' PXY d   1       2.622  -4.174  -0.187  0.00  0.00     0.077 C 
ATOM      2  C1' PXY d   1      -2.803  -2.592   1.030  0.00  0.00     0.077 C 
ATOM      3  C1  PXY d   1      -1.385  -3.018   0.705  0.00  0.00    -0.082 A 
ATOM      4  C2  PXY d   1      -0.379  -2.544   1.423  0.00  0.00     0.003 A 
ATOM      5  C3  PXY d   1       0.912  -2.894   1.123  0.00  0.00     0.003 A 
ATOM      6  C4  PXY d   1       1.173  -3.779   0.111  0.00  0.00    -0.082 A 
ATOM      7  C5  PXY d   1       0.151  -4.275  -0.619  0.00  0.00     0.003 A 
ATOM      8  C6  PXY d   1      -1.149  -3.875  -0.324  0.00  0.00     0.003 A 
ENDROOT
TORSDOF 0
ENDMDL
