MODEL 1
REMARK minimizedAffinity 4.1325388
REMARK minimizedRMSD -1
REMARK  0 active torsions:
REMARK  status: ('A' for Active; 'I' for Inactive)
ROOT
ATOM      1  C4' PXY d   1       5.253  -4.841  -0.204  0.00  0.00     0.077 C 
ATOM      2  C1' PXY d   1       0.136  -2.255   0.534  0.00  0.00     0.077 C 
ATOM      3  C1  PXY d   1       1.484  -2.921   0.340  0.00  0.00    -0.082 A 
ATOM      4  C2  PXY d   1       1.542  -4.151  -0.145  0.00  0.00     0.003 A 
ATOM      5  C3  PXY d   1       2.750  -4.780  -0.297  0.00  0.00     0.003 A 
ATOM      6  C4  PXY d   1       3.915  -4.125   0.000  0.00  0.00    -0.082 A 
ATOM      7  C5  PXY d   1       3.865  -2.866   0.486  0.00  0.00     0.003 A 
ATOM      8  C6  PXY d   1       2.626  -2.260   0.672  0.00  0.00     0.003 A 
ENDROOT
TORSDOF 0
ENDMDL
