MODEL 1
REMARK minimizedAffinity 12.5050812
REMARK minimizedRMSD -1
REMARK  0 active torsions:
REMARK  status: ('A' for Active; 'I' for Inactive)
ROOT
ATOM      1  C4' PXY d   1       3.950   4.819   1.592  0.00  0.00     0.077 C 
ATOM      2  C1' PXY d   1       3.235   0.890  -2.588  0.00  0.00     0.077 C 
ATOM      3  C1  PXY d   1       3.412   1.916  -1.486  0.00  0.00    -0.082 A 
ATOM      4  C2  PXY d   1       4.086   3.028  -1.729  0.00  0.00     0.003 A 
ATOM      5  C3  PXY d   1       4.283   3.952  -0.735  0.00  0.00     0.003 A 
ATOM      6  C4  PXY d   1       3.739   3.759   0.507  0.00  0.00    -0.082 A 
ATOM      7  C5  PXY d   1       3.041   2.632   0.760  0.00  0.00     0.003 A 
ATOM      8  C6  PXY d   1       2.888   1.688  -0.251  0.00  0.00     0.003 A 
ENDROOT
TORSDOF 0
ENDMDL
