MODEL 1
REMARK minimizedAffinity 3.84971476
REMARK minimizedRMSD -1
REMARK  0 active torsions:
REMARK  status: ('A' for Active; 'I' for Inactive)
ROOT
ATOM      1  C4' PXY d   1       2.959   4.585   1.706  0.00  0.00     0.077 C 
ATOM      2  C1' PXY d   1       3.197   0.842  -2.692  0.00  0.00     0.077 C 
ATOM      3  C1  PXY d   1       3.147   1.827  -1.542  0.00  0.00    -0.082 A 
ATOM      4  C2  PXY d   1       2.315   1.615  -0.534  0.00  0.00     0.003 A 
ATOM      5  C3  PXY d   1       2.234   2.513   0.499  0.00  0.00     0.003 A 
ATOM      6  C4  PXY d   1       3.050   3.612   0.527  0.00  0.00    -0.082 A 
ATOM      7  C5  PXY d   1       3.908   3.830  -0.492  0.00  0.00     0.003 A 
ATOM      8  C6  PXY d   1       3.946   2.928  -1.551  0.00  0.00     0.003 A 
ENDROOT
TORSDOF 0
ENDMDL
