MODEL 1
REMARK minimizedAffinity -4.38166332
REMARK minimizedRMSD -1
REMARK  0 active torsions:
REMARK  status: ('A' for Active; 'I' for Inactive)
ROOT
ATOM      1  C   UNL d   1       0.345  -0.694   3.207  0.00  0.00     0.077 C 
ATOM      2  C1  UNL d   1       0.665  -0.732   1.742  0.00  0.00    -0.074 A 
ATOM      3  C2  UNL d   1       1.796  -1.406   1.271  0.00  0.00    -0.005 A 
ATOM      4  C3  UNL d   1       2.075  -1.441  -0.095  0.00  0.00     0.006 A 
ATOM      5  C4  UNL d   1       1.227  -0.804  -1.002  0.00  0.00    -0.005 A 
ATOM      6  C5  UNL d   1       0.091  -0.126  -0.549  0.00  0.00    -0.074 A 
ATOM      7  C6  UNL d   1      -0.836   0.556  -1.511  0.00  0.00     0.077 C 
ATOM      8  C7  UNL d   1      -0.187  -0.101   0.824  0.00  0.00    -0.001 A 
ENDROOT
TORSDOF 0
ENDMDL
