MODEL 1
REMARK minimizedAffinity -3.40645027
REMARK minimizedRMSD -1
REMARK  0 active torsions:
REMARK  status: ('A' for Active; 'I' for Inactive)
ROOT
ATOM      1  C   UNL d   1      -0.464   0.935  -1.544  0.00  0.00     0.077 C 
ATOM      2  C1  UNL d   1      -0.495   0.374  -0.153  0.00  0.00    -0.074 A 
ATOM      3  C2  UNL d   1      -1.709   0.119   0.492  0.00  0.00    -0.005 A 
ATOM      4  C3  UNL d   1      -1.723  -0.411   1.782  0.00  0.00     0.006 A 
ATOM      5  C4  UNL d   1      -0.524  -0.691   2.439  0.00  0.00    -0.005 A 
ATOM      6  C5  UNL d   1       0.700  -0.444   1.809  0.00  0.00    -0.074 A 
ATOM      7  C6  UNL d   1       1.998  -0.749   2.497  0.00  0.00     0.077 C 
ATOM      8  C7  UNL d   1       0.705   0.083   0.510  0.00  0.00    -0.001 A 
ENDROOT
TORSDOF 0
ENDMDL
