MODEL 1
REMARK minimizedAffinity -2.7226367
REMARK minimizedRMSD -1
REMARK  0 active torsions:
REMARK  status: ('A' for Active; 'I' for Inactive)
ROOT
ATOM      1  C   UNL d   1       0.095   0.668  -1.703  0.00  0.00     0.077 C 
ATOM      2  C1  UNL d   1      -0.276   0.425  -0.270  0.00  0.00    -0.074 A 
ATOM      3  C2  UNL d   1      -1.575   0.666   0.188  0.00  0.00    -0.005 A 
ATOM      4  C3  UNL d   1      -1.907   0.427   1.521  0.00  0.00     0.006 A 
ATOM      5  C4  UNL d   1      -0.945  -0.056   2.409  0.00  0.00    -0.005 A 
ATOM      6  C5  UNL d   1       0.359  -0.303   1.970  0.00  0.00    -0.074 A 
ATOM      7  C6  UNL d   1       1.403  -0.831   2.909  0.00  0.00     0.077 C 
ATOM      8  C7  UNL d   1       0.683  -0.067   0.627  0.00  0.00    -0.001 A 
ENDROOT
TORSDOF 0
ENDMDL
