MODEL 1
REMARK minimizedAffinity -4.9735136
REMARK minimizedRMSD -1
REMARK  0 active torsions:
REMARK  status: ('A' for Active; 'I' for Inactive)
ROOT
ATOM      1  C   UNL d   1       0.736  -0.455  -2.136  0.00  0.00     0.077 C 
ATOM      2  C1  UNL d   1       0.275  -0.269  -0.721  0.00  0.00    -0.074 A 
ATOM      3  C2  UNL d   1      -1.059   0.040  -0.434  0.00  0.00    -0.005 A 
ATOM      4  C3  UNL d   1      -1.475   0.200   0.887  0.00  0.00     0.006 A 
ATOM      5  C4  UNL d   1      -0.564   0.053   1.934  0.00  0.00    -0.005 A 
ATOM      6  C5  UNL d   1       0.773  -0.257   1.666  0.00  0.00    -0.074 A 
ATOM      7  C6  UNL d   1       1.763  -0.428   2.780  0.00  0.00     0.077 C 
ATOM      8  C7  UNL d   1       1.182  -0.423   0.336  0.00  0.00    -0.001 A 
ENDROOT
TORSDOF 0
ENDMDL
