MODEL 1
REMARK minimizedAffinity -1.65913665
REMARK minimizedRMSD -1
REMARK  0 active torsions:
REMARK  status: ('A' for Active; 'I' for Inactive)
ROOT
ATOM      1  C   UNL d   1      -0.023   0.591  -1.642  0.00  0.00     0.077 C 
ATOM      2  C1  UNL d   1      -0.273   0.089  -0.251  0.00  0.00    -0.074 A 
ATOM      3  C2  UNL d   1      -1.575  -0.124   0.212  0.00  0.00    -0.005 A 
ATOM      4  C3  UNL d   1      -1.792  -0.601   1.505  0.00  0.00     0.006 A 
ATOM      5  C4  UNL d   1      -0.711  -0.868   2.346  0.00  0.00    -0.005 A 
ATOM      6  C5  UNL d   1       0.598  -0.662   1.900  0.00  0.00    -0.074 A 
ATOM      7  C6  UNL d   1       1.772  -0.953   2.787  0.00  0.00     0.077 C 
ATOM      8  C7  UNL d   1       0.808  -0.189   0.597  0.00  0.00    -0.001 A 
ENDROOT
TORSDOF 0
ENDMDL
