MODEL 1
REMARK minimizedAffinity -2.71821451
REMARK minimizedRMSD -1
REMARK  0 active torsions:
REMARK  status: ('A' for Active; 'I' for Inactive)
ROOT
ATOM      1  C   UNL d   1       1.485  -0.773  -1.712  0.00  0.00     0.077 C 
ATOM      2  C1  UNL d   1       0.760  -0.378  -0.460  0.00  0.00    -0.074 A 
ATOM      3  C2  UNL d   1      -0.459   0.306  -0.521  0.00  0.00    -0.005 A 
ATOM      4  C3  UNL d   1      -1.127   0.658   0.652  0.00  0.00     0.006 A 
ATOM      5  C4  UNL d   1      -0.584   0.331   1.895  0.00  0.00    -0.005 A 
ATOM      6  C5  UNL d   1       0.632  -0.354   1.976  0.00  0.00    -0.074 A 
ATOM      7  C6  UNL d   1       1.224  -0.722   3.304  0.00  0.00     0.077 C 
ATOM      8  C7  UNL d   1       1.294  -0.710   0.793  0.00  0.00    -0.001 A 
ENDROOT
TORSDOF 0
ENDMDL
