MODEL 1
REMARK minimizedAffinity 10.3736248
REMARK minimizedRMSD -1
REMARK  0 active torsions:
REMARK  status: ('A' for Active; 'I' for Inactive)
ROOT
ATOM      1  C   UNL d   1       3.117  -4.850   1.953  0.00  0.00    -0.002 A 
ATOM      2  C1  UNL d   1       3.501  -4.200   3.117  0.00  0.00     0.010 A 
ATOM      3  C2  UNL d   1       2.948  -2.963   3.455  0.00  0.00     0.041 A 
ATOM      4  C3  UNL d   1       1.993  -2.386   2.595  0.00  0.00    -0.075 A 
ATOM      5  S   UNL d   1       1.181  -0.880   2.805  0.00  0.00     0.015 SA
ATOM      6  C4  UNL d   1       0.305  -1.065   1.355  0.00  0.00     0.022 A 
ATOM      7  C5  UNL d   1       0.613  -2.241   0.713  0.00  0.00     0.026 A 
ATOM      8  C6  UNL d   1       1.590  -3.022   1.417  0.00  0.00    -0.082 A 
ATOM      9  C7  UNL d   1       2.170  -4.275   1.103  0.00  0.00     0.045 A 
ENDROOT
TORSDOF 0
ENDMDL
