MODEL 1
REMARK minimizedAffinity 4.00511456
REMARK minimizedRMSD -1
REMARK  0 active torsions:
REMARK  status: ('A' for Active; 'I' for Inactive)
ROOT
ATOM      1  C   UNL d   1       3.061  -3.977   0.808  0.00  0.00    -0.002 A 
ATOM      2  C1  UNL d   1       2.433  -5.196   1.020  0.00  0.00     0.010 A 
ATOM      3  C2  UNL d   1       1.196  -5.256   1.665  0.00  0.00     0.041 A 
ATOM      4  C3  UNL d   1       0.595  -4.057   2.097  0.00  0.00    -0.075 A 
ATOM      5  S   UNL d   1      -0.917  -3.886   2.909  0.00  0.00     0.015 SA
ATOM      6  C4  UNL d   1      -0.765  -2.191   2.993  0.00  0.00     0.022 A 
ATOM      7  C5  UNL d   1       0.405  -1.749   2.421  0.00  0.00     0.026 A 
ATOM      8  C6  UNL d   1       1.207  -2.817   1.895  0.00  0.00    -0.082 A 
ATOM      9  C7  UNL d   1       2.461  -2.790   1.238  0.00  0.00     0.045 A 
ENDROOT
TORSDOF 0
ENDMDL
