MODEL 1
REMARK minimizedAffinity 13.5059156
REMARK minimizedRMSD -1
REMARK  0 active torsions:
REMARK  status: ('A' for Active; 'I' for Inactive)
ROOT
ATOM      1  C   UNL d   1      -0.024  -2.389   2.946  0.00  0.00    -0.002 A 
ATOM      2  C1  UNL d   1       0.986  -1.773   2.220  0.00  0.00     0.010 A 
ATOM      3  C2  UNL d   1       0.725  -1.232   0.960  0.00  0.00     0.041 A 
ATOM      4  C3  UNL d   1      -0.580  -1.319   0.437  0.00  0.00    -0.075 A 
ATOM      5  S   UNL d   1      -1.132  -0.726  -1.085  0.00  0.00     0.015 SA
ATOM      6  C4  UNL d   1      -2.721  -1.275  -0.806  0.00  0.00     0.022 A 
ATOM      7  C5  UNL d   1      -2.845  -1.899   0.413  0.00  0.00     0.026 A 
ATOM      8  C6  UNL d   1      -1.613  -1.933   1.150  0.00  0.00    -0.082 A 
ATOM      9  C7  UNL d   1      -1.317  -2.473   2.425  0.00  0.00     0.045 A 
ENDROOT
TORSDOF 0
ENDMDL
