MODEL 1
REMARK minimizedAffinity 10.4055481
REMARK minimizedRMSD -1
REMARK  0 active torsions:
REMARK  status: ('A' for Active; 'I' for Inactive)
ROOT
ATOM      1  C   UNL d   1       5.126  -5.148   0.644  0.00  0.00    -0.002 A 
ATOM      2  C1  UNL d   1       5.671  -3.995   1.191  0.00  0.00     0.010 A 
ATOM      3  C2  UNL d   1       4.847  -3.006   1.730  0.00  0.00     0.041 A 
ATOM      4  C3  UNL d   1       3.451  -3.198   1.713  0.00  0.00    -0.075 A 
ATOM      5  S   UNL d   1       2.246  -2.123   2.318  0.00  0.00     0.015 SA
ATOM      6  C4  UNL d   1       0.979  -3.170   1.866  0.00  0.00     0.022 A 
ATOM      7  C5  UNL d   1       1.446  -4.316   1.267  0.00  0.00     0.026 A 
ATOM      8  C6  UNL d   1       2.878  -4.351   1.169  0.00  0.00    -0.082 A 
ATOM      9  C7  UNL d   1       3.741  -5.335   0.629  0.00  0.00     0.045 A 
ENDROOT
TORSDOF 0
ENDMDL
