MODEL 1
REMARK minimizedAffinity 13.936739
REMARK minimizedRMSD -1
REMARK  0 active torsions:
REMARK  status: ('A' for Active; 'I' for Inactive)
ROOT
ATOM      1  C   UNL d   1       5.840  -1.853  -4.935  0.00  0.00    -0.002 A 
ATOM      2  C1  UNL d   1       5.841  -0.843  -5.886  0.00  0.00     0.010 A 
ATOM      3  C2  UNL d   1       5.881   0.498  -5.499  0.00  0.00     0.041 A 
ATOM      4  C3  UNL d   1       5.922   0.809  -4.126  0.00  0.00    -0.075 A 
ATOM      5  S   UNL d   1       5.976   2.380  -3.417  0.00  0.00     0.015 SA
ATOM      6  C4  UNL d   1       5.999   1.748  -1.835  0.00  0.00     0.022 A 
ATOM      7  C5  UNL d   1       5.966   0.373  -1.829  0.00  0.00     0.026 A 
ATOM      8  C6  UNL d   1       5.922  -0.190  -3.149  0.00  0.00    -0.082 A 
ATOM      9  C7  UNL d   1       5.880  -1.540  -3.573  0.00  0.00     0.045 A 
ENDROOT
TORSDOF 0
ENDMDL
