MODEL 1
REMARK minimizedAffinity 5.20879841
REMARK minimizedRMSD -1
REMARK  0 active torsions:
REMARK  status: ('A' for Active; 'I' for Inactive)
ROOT
ATOM      1  C   UNL d   1      -0.379  -1.441   3.650  0.00  0.00    -0.002 A 
ATOM      2  C1  UNL d   1      -1.440  -0.999   2.873  0.00  0.00     0.010 A 
ATOM      3  C2  UNL d   1      -1.326  -0.943   1.482  0.00  0.00     0.041 A 
ATOM      4  C3  UNL d   1      -0.117  -1.345   0.880  0.00  0.00    -0.075 A 
ATOM      5  S   UNL d   1       0.250  -1.362  -0.804  0.00  0.00     0.015 SA
ATOM      6  C4  UNL d   1       1.823  -1.958  -0.531  0.00  0.00     0.022 A 
ATOM      7  C5  UNL d   1       2.079  -2.144   0.807  0.00  0.00     0.026 A 
ATOM      8  C6  UNL d   1       0.965  -1.795   1.642  0.00  0.00    -0.082 A 
ATOM      9  C7  UNL d   1       0.818  -1.839   3.050  0.00  0.00     0.045 A 
ENDROOT
TORSDOF 0
ENDMDL
