MODEL 1
REMARK minimizedAffinity 11.8168755
REMARK minimizedRMSD -1
REMARK  0 active torsions:
REMARK  status: ('A' for Active; 'I' for Inactive)
ROOT
ATOM      1  C   UNL d   1      -4.037  -1.460  -1.896  0.00  0.00    -0.002 A 
ATOM      2  C1  UNL d   1      -4.835  -1.688  -3.008  0.00  0.00     0.010 A 
ATOM      3  C2  UNL d   1      -5.090  -0.664  -3.922  0.00  0.00     0.041 A 
ATOM      4  C3  UNL d   1      -4.522   0.606  -3.698  0.00  0.00    -0.075 A 
ATOM      5  S   UNL d   1      -4.696   2.010  -4.683  0.00  0.00     0.015 SA
ATOM      6  C4  UNL d   1      -3.713   2.946  -3.652  0.00  0.00     0.022 A 
ATOM      7  C5  UNL d   1      -3.255   2.221  -2.577  0.00  0.00     0.026 A 
ATOM      8  C6  UNL d   1      -3.714   0.860  -2.587  0.00  0.00    -0.082 A 
ATOM      9  C7  UNL d   1      -3.475  -0.199  -1.678  0.00  0.00     0.045 A 
ENDROOT
TORSDOF 0
ENDMDL
