MODEL 1
REMARK minimizedAffinity -3.43386245
REMARK minimizedRMSD -1
REMARK  1 active torsions:
REMARK  status: ('A' for Active; 'I' for Inactive)
REMARK    1  A    between atoms: N_2  and  C1_3 
ROOT
ATOM      1  C1  UNL d   1       0.091  -1.950  -2.834  0.00  0.00     0.143 A 
ATOM      2  C2  UNL d   1      -0.502  -1.522  -4.027  0.00  0.00    -0.057 A 
ATOM      3  C3  UNL d   1      -0.113  -0.327  -4.644  0.00  0.00     0.033 A 
ATOM      4  C4  UNL d   1       0.859   0.479  -4.061  0.00  0.00    -0.042 A 
ATOM      5  C5  UNL d   1       1.444   0.086  -2.862  0.00  0.00     0.033 A 
ATOM      6  C6  UNL d   1       1.056  -1.112  -2.255  0.00  0.00    -0.057 A 
ENDROOT
BRANCH   1   7
ATOM      7  N   UNL d   1      -0.321  -3.078  -2.121  0.00  0.00    -0.732 N 
ATOM      8  C   UNL d   1      -1.714  -3.261  -1.771  0.00  0.00     0.284 C 
ATOM      9  H3  UNL d   1       0.143  -3.927  -2.435  0.00  0.00     0.395 HD
ENDBRANCH   1   7
TORSDOF 1
ENDMDL
