MODEL 1
REMARK minimizedAffinity -2.63757372
REMARK minimizedRMSD -1
REMARK  1 active torsions:
REMARK  status: ('A' for Active; 'I' for Inactive)
REMARK    1  A    between atoms: N_2  and  C1_3 
ROOT
ATOM      1  C1  UNL d   1      -0.001   0.082   0.416  0.00  0.00     0.143 A 
ATOM      2  C2  UNL d   1       0.851   0.934   1.127  0.00  0.00    -0.057 A 
ATOM      3  C3  UNL d   1       0.391   1.669   2.226  0.00  0.00     0.033 A 
ATOM      4  C4  UNL d   1      -0.942   1.586   2.617  0.00  0.00    -0.042 A 
ATOM      5  C5  UNL d   1      -1.812   0.765   1.910  0.00  0.00     0.033 A 
ATOM      6  C6  UNL d   1      -1.345   0.028   0.817  0.00  0.00    -0.057 A 
ENDROOT
BRANCH   1   7
ATOM      7  N   UNL d   1       0.373  -0.599  -0.745  0.00  0.00    -0.732 N 
ATOM      8  C   UNL d   1      -0.450  -1.668  -1.270  0.00  0.00     0.284 C 
ATOM      9  H3  UNL d   1       0.749   0.023  -1.457  0.00  0.00     0.395 HD
ENDBRANCH   1   7
TORSDOF 1
ENDMDL
