MODEL 1
REMARK minimizedAffinity -0.187034339
REMARK minimizedRMSD -1
REMARK  1 active torsions:
REMARK  status: ('A' for Active; 'I' for Inactive)
REMARK    1  A    between atoms: N_2  and  C1_3 
ROOT
ATOM      1  C1  UNL d   1       0.545  -0.431  -1.202  0.00  0.00     0.143 A 
ATOM      2  C2  UNL d   1      -0.306   0.203  -0.290  0.00  0.00    -0.057 A 
ATOM      3  C3  UNL d   1      -0.007   0.239   1.077  0.00  0.00     0.033 A 
ATOM      4  C4  UNL d   1       1.137  -0.386   1.562  0.00  0.00    -0.042 A 
ATOM      5  C5  UNL d   1       1.984  -1.043   0.677  0.00  0.00     0.033 A 
ATOM      6  C6  UNL d   1       1.684  -1.070  -0.688  0.00  0.00    -0.057 A 
ENDROOT
BRANCH   1   7
ATOM      7  N   UNL d   1       0.254  -0.585  -2.560  0.00  0.00    -0.732 N 
ATOM      8  C   UNL d   1       0.767   0.353  -3.535  0.00  0.00     0.284 C 
ATOM      9  H3  UNL d   1       0.293  -1.558  -2.857  0.00  0.00     0.395 HD
ENDBRANCH   1   7
TORSDOF 1
ENDMDL
