MODEL 1
REMARK minimizedAffinity -3.00867462
REMARK minimizedRMSD -1
REMARK  1 active torsions:
REMARK  status: ('A' for Active; 'I' for Inactive)
REMARK    1  A    between atoms: N_2  and  C1_3 
ROOT
ATOM      1  C1  UNL d   1      -1.280  -0.919  -0.080  0.00  0.00     0.143 A 
ATOM      2  C2  UNL d   1      -2.321  -0.590   0.795  0.00  0.00    -0.057 A 
ATOM      3  C3  UNL d   1      -2.163   0.402   1.770  0.00  0.00     0.033 A 
ATOM      4  C4  UNL d   1      -0.948   1.065   1.906  0.00  0.00    -0.042 A 
ATOM      5  C5  UNL d   1       0.108   0.737   1.064  0.00  0.00     0.033 A 
ATOM      6  C6  UNL d   1      -0.058  -0.250   0.087  0.00  0.00    -0.057 A 
ENDROOT
BRANCH   1   7
ATOM      7  N   UNL d   1      -1.343  -1.964  -1.006  0.00  0.00    -0.732 N 
ATOM      8  C   UNL d   1      -2.354  -2.992  -0.889  0.00  0.00     0.284 C 
ATOM      9  H3  UNL d   1      -1.178  -1.649  -1.959  0.00  0.00     0.395 HD
ENDBRANCH   1   7
TORSDOF 1
ENDMDL
