MODEL 1
REMARK minimizedAffinity -1.20766997
REMARK minimizedRMSD -1
REMARK  1 active torsions:
REMARK  status: ('A' for Active; 'I' for Inactive)
REMARK    1  A    between atoms: N_2  and  C1_3 
ROOT
ATOM      1  C1  UNL d   1      -0.966  -0.627  -0.156  0.00  0.00     0.143 A 
ATOM      2  C2  UNL d   1      -0.320   0.398  -0.855  0.00  0.00    -0.057 A 
ATOM      3  C3  UNL d   1       0.539   1.292  -0.203  0.00  0.00     0.033 A 
ATOM      4  C4  UNL d   1       0.744   1.193   1.169  0.00  0.00    -0.042 A 
ATOM      5  C5  UNL d   1       0.092   0.197   1.888  0.00  0.00     0.033 A 
ATOM      6  C6  UNL d   1      -0.759  -0.696   1.231  0.00  0.00    -0.057 A 
ENDROOT
BRANCH   1   7
ATOM      7  N   UNL d   1      -1.908  -1.485  -0.729  0.00  0.00    -0.732 N 
ATOM      8  C   UNL d   1      -1.487  -2.590  -1.564  0.00  0.00     0.284 C 
ATOM      9  H3  UNL d   1      -2.666  -1.713  -0.090  0.00  0.00     0.395 HD
ENDBRANCH   1   7
TORSDOF 1
ENDMDL
