MODEL 1
REMARK minimizedAffinity -2.39545918
REMARK minimizedRMSD -1
REMARK  1 active torsions:
REMARK  status: ('A' for Active; 'I' for Inactive)
REMARK    1  A    between atoms: N_2  and  C1_3 
ROOT
ATOM      1  C1  UNL d   1      -0.096   0.437   1.456  0.00  0.00     0.143 A 
ATOM      2  C2  UNL d   1       1.163  -0.088   1.767  0.00  0.00    -0.057 A 
ATOM      3  C3  UNL d   1       1.864  -0.883   0.852  0.00  0.00     0.033 A 
ATOM      4  C4  UNL d   1       1.304  -1.192  -0.383  0.00  0.00    -0.042 A 
ATOM      5  C5  UNL d   1       0.042  -0.703  -0.703  0.00  0.00     0.033 A 
ATOM      6  C6  UNL d   1      -0.650   0.096   0.212  0.00  0.00    -0.057 A 
ENDROOT
BRANCH   1   7
ATOM      7  N   UNL d   1      -0.886   1.151   2.360  0.00  0.00    -0.732 N 
ATOM      8  C   UNL d   1      -2.015   0.522   3.010  0.00  0.00     0.284 C 
ATOM      9  H3  UNL d   1      -0.333   1.747   2.972  0.00  0.00     0.395 HD
ENDBRANCH   1   7
TORSDOF 1
ENDMDL
