MODEL 1
REMARK minimizedAffinity 3.34276843
REMARK minimizedRMSD -1
REMARK  1 active torsions:
REMARK  status: ('A' for Active; 'I' for Inactive)
REMARK    1  A    between atoms: C1_2  and  C2_3 
ROOT
ATOM      1  C2  UNL d   1       4.088   4.841   2.397  0.00  0.00    -0.073 A 
ATOM      2  C3  UNL d   1       3.477   5.891   1.702  0.00  0.00    -0.002 A 
ATOM      3  C4  UNL d   1       3.621   5.998   0.318  0.00  0.00     0.004 A 
ATOM      4  C5  UNL d   1       4.370   5.055  -0.385  0.00  0.00    -0.004 A 
ATOM      5  C6  UNL d   1       4.979   3.992   0.290  0.00  0.00    -0.075 A 
ATOM      6  C7  UNL d   1       5.790   2.970  -0.451  0.00  0.00     0.076 C 
ATOM      7  C8  UNL d   1       4.831   3.893   1.680  0.00  0.00     0.001 A 
ENDROOT
BRANCH   1   8
ATOM      8  C1  UNL d   1       3.929   4.717   3.890  0.00  0.00     0.053 C 
ATOM      9  C   UNL d   1       3.400   5.998   4.515  0.00  0.00     0.018 C 
ENDBRANCH   1   8
TORSDOF 1
ENDMDL
