MODEL 1
REMARK minimizedAffinity -4.49686575
REMARK minimizedRMSD -1
REMARK  1 active torsions:
REMARK  status: ('A' for Active; 'I' for Inactive)
REMARK    1  A    between atoms: C1_2  and  C2_3 
ROOT
ATOM      1  C2  UNL d   1      -2.384  -4.470  -0.315  0.00  0.00    -0.073 A 
ATOM      2  C3  UNL d   1      -1.047  -4.566  -0.719  0.00  0.00    -0.002 A 
ATOM      3  C4  UNL d   1      -0.142  -3.551  -0.407  0.00  0.00     0.004 A 
ATOM      4  C5  UNL d   1      -0.562  -2.434   0.316  0.00  0.00    -0.004 A 
ATOM      5  C6  UNL d   1      -1.890  -2.326   0.739  0.00  0.00    -0.075 A 
ATOM      6  C7  UNL d   1      -2.358  -1.130   1.516  0.00  0.00     0.076 C 
ATOM      7  C8  UNL d   1      -2.794  -3.348   0.419  0.00  0.00     0.001 A 
ENDROOT
BRANCH   1   8
ATOM      8  C1  UNL d   1      -3.363  -5.567  -0.644  0.00  0.00     0.053 C 
ATOM      9  C   UNL d   1      -4.456  -5.689   0.406  0.00  0.00     0.018 C 
ENDBRANCH   1   8
TORSDOF 1
ENDMDL
