MODEL 1
REMARK minimizedAffinity 6.66771793
REMARK minimizedRMSD -1
REMARK  1 active torsions:
REMARK  status: ('A' for Active; 'I' for Inactive)
REMARK    1  A    between atoms: C1_2  and  C2_3 
ROOT
ATOM      1  C2  UNL d   1       3.708   2.843   1.883  0.00  0.00    -0.073 A 
ATOM      2  C3  UNL d   1       3.099   1.723   1.306  0.00  0.00    -0.002 A 
ATOM      3  C4  UNL d   1       1.725   1.518   1.443  0.00  0.00     0.004 A 
ATOM      4  C5  UNL d   1       0.946   2.434   2.150  0.00  0.00    -0.004 A 
ATOM      5  C6  UNL d   1       1.535   3.566   2.723  0.00  0.00    -0.075 A 
ATOM      6  C7  UNL d   1       0.711   4.560   3.489  0.00  0.00     0.076 C 
ATOM      7  C8  UNL d   1       2.915   3.763   2.584  0.00  0.00     0.001 A 
ENDROOT
BRANCH   1   8
ATOM      8  C1  UNL d   1       5.190   3.071   1.732  0.00  0.00     0.053 C 
ATOM      9  C   UNL d   1       5.995   2.272   2.745  0.00  0.00     0.018 C 
ENDBRANCH   1   8
TORSDOF 1
ENDMDL
