MODEL 1
REMARK minimizedAffinity 9.50899506
REMARK minimizedRMSD -1
REMARK  1 active torsions:
REMARK  status: ('A' for Active; 'I' for Inactive)
REMARK    1  A    between atoms: C1_2  and  C2_3 
ROOT
ATOM      1  C2  UNL d   1       2.349   2.820   3.182  0.00  0.00    -0.073 A 
ATOM      2  C3  UNL d   1       0.992   2.592   3.438  0.00  0.00    -0.002 A 
ATOM      3  C4  UNL d   1       0.282   3.441   4.288  0.00  0.00     0.004 A 
ATOM      4  C5  UNL d   1       0.919   4.530   4.884  0.00  0.00    -0.004 A 
ATOM      5  C6  UNL d   1       2.271   4.781   4.631  0.00  0.00    -0.075 A 
ATOM      6  C7  UNL d   1       2.971   5.946   5.267  0.00  0.00     0.076 C 
ATOM      7  C8  UNL d   1       2.978   3.922   3.779  0.00  0.00     0.001 A 
ENDROOT
BRANCH   1   8
ATOM      8  C1  UNL d   1       3.117   1.909   2.260  0.00  0.00     0.053 C 
ATOM      9  C   UNL d   1       2.313   1.540   1.023  0.00  0.00     0.018 C 
ENDBRANCH   1   8
TORSDOF 1
ENDMDL
