MODEL 1
REMARK minimizedAffinity 9.24403286
REMARK minimizedRMSD -1
REMARK  1 active torsions:
REMARK  status: ('A' for Active; 'I' for Inactive)
REMARK    1  A    between atoms: C1_2  and  C2_3 
ROOT
ATOM      1  C2  UNL d   1      -4.231   0.631   0.267  0.00  0.00    -0.073 A 
ATOM      2  C3  UNL d   1      -2.882   0.748  -0.086  0.00  0.00    -0.002 A 
ATOM      3  C4  UNL d   1      -1.903   0.063   0.634  0.00  0.00     0.004 A 
ATOM      4  C5  UNL d   1      -2.262  -0.749   1.710  0.00  0.00    -0.004 A 
ATOM      5  C6  UNL d   1      -3.606  -0.888   2.071  0.00  0.00    -0.075 A 
ATOM      6  C7  UNL d   1      -4.008  -1.757   3.227  0.00  0.00     0.076 C 
ATOM      7  C8  UNL d   1      -4.583  -0.196   1.344  0.00  0.00     0.001 A 
ENDROOT
BRANCH   1   8
ATOM      8  C1  UNL d   1      -5.293   1.363  -0.512  0.00  0.00     0.053 C 
ATOM      9  C   UNL d   1      -5.372   2.831  -0.126  0.00  0.00     0.018 C 
ENDBRANCH   1   8
TORSDOF 1
ENDMDL
