MODEL 1
REMARK minimizedAffinity 4.34683752
REMARK minimizedRMSD -1
REMARK  1 active torsions:
REMARK  status: ('A' for Active; 'I' for Inactive)
REMARK    1  A    between atoms: C1_2  and  C2_3 
ROOT
ATOM      1  C2  UNL d   1       3.169   4.513   2.974  0.00  0.00    -0.073 A 
ATOM      2  C3  UNL d   1       4.297   3.824   2.516  0.00  0.00    -0.002 A 
ATOM      3  C4  UNL d   1       4.182   2.514   2.049  0.00  0.00     0.004 A 
ATOM      4  C5  UNL d   1       2.938   1.883   2.029  0.00  0.00    -0.004 A 
ATOM      5  C6  UNL d   1       1.796   2.559   2.471  0.00  0.00    -0.075 A 
ATOM      6  C7  UNL d   1       0.452   1.894   2.458  0.00  0.00     0.076 C 
ATOM      7  C8  UNL d   1       1.921   3.874   2.941  0.00  0.00     0.001 A 
ENDROOT
BRANCH   1   8
ATOM      8  C1  UNL d   1       3.287   5.930   3.472  0.00  0.00     0.053 C 
ATOM      9  C   UNL d   1       3.746   5.988   4.921  0.00  0.00     0.018 C 
ENDBRANCH   1   8
TORSDOF 1
ENDMDL
