MODEL 1
REMARK minimizedAffinity 3.0935626
REMARK minimizedRMSD -1
REMARK  1 active torsions:
REMARK  status: ('A' for Active; 'I' for Inactive)
REMARK    1  A    between atoms: C1_2  and  C2_3 
ROOT
ATOM      1  C2  UNL d   1       0.752  -4.170  -0.045  0.00  0.00    -0.073 A 
ATOM      2  C3  UNL d   1       0.979  -5.422  -0.627  0.00  0.00    -0.002 A 
ATOM      3  C4  UNL d   1       0.019  -5.997  -1.460  0.00  0.00     0.004 A 
ATOM      4  C5  UNL d   1      -1.174  -5.325  -1.724  0.00  0.00    -0.004 A 
ATOM      5  C6  UNL d   1      -1.415  -4.068  -1.161  0.00  0.00    -0.075 A 
ATOM      6  C7  UNL d   1      -2.695  -3.333  -1.434  0.00  0.00     0.076 C 
ATOM      7  C8  UNL d   1      -0.447  -3.498  -0.324  0.00  0.00     0.001 A 
ENDROOT
BRANCH   1   8
ATOM      8  C1  UNL d   1       1.788  -3.542   0.850  0.00  0.00     0.053 C 
ATOM      9  C   UNL d   1       2.307  -2.228   0.287  0.00  0.00     0.018 C 
ENDBRANCH   1   8
TORSDOF 1
ENDMDL
