MODEL 1
REMARK minimizedAffinity 10.0737391
REMARK minimizedRMSD -1
REMARK  1 active torsions:
REMARK  status: ('A' for Active; 'I' for Inactive)
REMARK    1  A    between atoms: C1_2  and  C2_3 
ROOT
ATOM      1  C2  UNL d   1       4.089   3.473   3.283  0.00  0.00    -0.073 A 
ATOM      2  C3  UNL d   1       5.047   2.475   3.491  0.00  0.00    -0.002 A 
ATOM      3  C4  UNL d   1       6.000   2.612   4.502  0.00  0.00     0.004 A 
ATOM      4  C5  UNL d   1       6.000   3.744   5.318  0.00  0.00    -0.004 A 
ATOM      5  C6  UNL d   1       5.042   4.746   5.133  0.00  0.00    -0.075 A 
ATOM      6  C7  UNL d   1       5.030   5.971   6.000  0.00  0.00     0.076 C 
ATOM      7  C8  UNL d   1       4.091   4.602   4.114  0.00  0.00     0.001 A 
ENDROOT
BRANCH   1   8
ATOM      8  C1  UNL d   1       3.054   3.326   2.197  0.00  0.00     0.053 C 
ATOM      9  C   UNL d   1       3.127   4.456   1.183  0.00  0.00     0.018 C 
ENDBRANCH   1   8
TORSDOF 1
ENDMDL
