MODEL 1
REMARK minimizedAffinity 7.14774323
REMARK minimizedRMSD -1
REMARK  0 active torsions:
REMARK  status: ('A' for Active; 'I' for Inactive)
ROOT
ATOM      1  N1  IND d   1      -3.365   3.002   3.787  0.00  0.00    -0.196 N 
ATOM      2  C2  IND d   1      -4.190   1.992   4.197  0.00  0.00     0.054 A 
ATOM      3  C3  IND d   1      -3.767   0.808   3.699  0.00  0.00    -0.031 A 
ATOM      4  C4  IND d   1      -1.688   0.282   2.275  0.00  0.00     0.051 A 
ATOM      5  C5  IND d   1      -0.650   0.883   1.619  0.00  0.00    -0.031 A 
ATOM      6  C6  IND d   1      -0.459   2.250   1.656  0.00  0.00     0.015 A 
ATOM      7  C7  IND d   1      -1.296   3.067   2.362  0.00  0.00    -0.016 A 
ATOM      8  C8  IND d   1      -2.354   2.460   3.023  0.00  0.00    -0.047 A 
ATOM      9  C9  IND d   1      -2.578   1.079   2.954  0.00  0.00    -0.096 A 
ATOM     10  HN1 IND d   1      -3.461   3.835   3.975  0.00  0.00     0.298 HD
ENDROOT
TORSDOF 0
ENDMDL
