MODEL 1
REMARK minimizedAffinity -6.53671694
REMARK minimizedRMSD -1
REMARK  0 active torsions:
REMARK  status: ('A' for Active; 'I' for Inactive)
ROOT
ATOM      1  N1  IND d   1      -1.973   1.953   3.021  0.00  0.00    -0.196 N 
ATOM      2  C2  IND d   1      -3.110   1.270   3.351  0.00  0.00     0.054 A 
ATOM      3  C3  IND d   1      -3.136   0.071   2.728  0.00  0.00    -0.031 A 
ATOM      4  C4  IND d   1      -1.371  -1.018   1.203  0.00  0.00     0.051 A 
ATOM      5  C5  IND d   1      -0.180  -0.765   0.582  0.00  0.00    -0.031 A 
ATOM      6  C6  IND d   1       0.490   0.430   0.749  0.00  0.00     0.015 A 
ATOM      7  C7  IND d   1      -0.004   1.417   1.554  0.00  0.00    -0.016 A 
ATOM      8  C8  IND d   1      -1.217   1.166   2.180  0.00  0.00    -0.047 A 
ATOM      9  C9  IND d   1      -1.922  -0.028   1.982  0.00  0.00    -0.096 A 
ATOM     10  HN1 IND d   1      -1.765   2.742   3.293  0.00  0.00     0.298 HD
ENDROOT
TORSDOF 0
ENDMDL
