MODEL 1
REMARK minimizedAffinity -1.60092342
REMARK minimizedRMSD -1
REMARK  0 active torsions:
REMARK  status: ('A' for Active; 'I' for Inactive)
ROOT
ATOM      1  N1  IND d   1       0.563   0.077   1.784  0.00  0.00    -0.196 N 
ATOM      2  C2  IND d   1       0.880   1.343   1.375  0.00  0.00     0.054 A 
ATOM      3  C3  IND d   1      -0.189   2.160   1.504  0.00  0.00    -0.031 A 
ATOM      4  C4  IND d   1      -2.526   1.659   2.460  0.00  0.00     0.051 A 
ATOM      5  C5  IND d   1      -3.302   0.636   2.928  0.00  0.00    -0.031 A 
ATOM      6  C6  IND d   1      -2.818  -0.652   3.043  0.00  0.00     0.015 A 
ATOM      7  C7  IND d   1      -1.532  -0.963   2.704  0.00  0.00    -0.016 A 
ATOM      8  C8  IND d   1      -0.744   0.073   2.222  0.00  0.00    -0.047 A 
ATOM      9  C9  IND d   1      -1.242   1.372   2.063  0.00  0.00    -0.096 A 
ATOM     10  HN1 IND d   1       1.090  -0.601   1.770  0.00  0.00     0.298 HD
ENDROOT
TORSDOF 0
ENDMDL
