MODEL 1
REMARK minimizedAffinity -3.04202843
REMARK minimizedRMSD -1
REMARK  0 active torsions:
REMARK  status: ('A' for Active; 'I' for Inactive)
ROOT
ATOM      1  N1  IND d   1      -2.577   0.535   3.021  0.00  0.00    -0.196 N 
ATOM      2  C2  IND d   1      -2.945   1.842   3.174  0.00  0.00     0.054 A 
ATOM      3  C3  IND d   1      -2.098   2.651   2.499  0.00  0.00    -0.031 A 
ATOM      4  C4  IND d   1      -0.101   2.038   0.995  0.00  0.00     0.051 A 
ATOM      5  C5  IND d   1       0.646   0.973   0.578  0.00  0.00    -0.031 A 
ATOM      6  C6  IND d   1       0.350  -0.320   0.959  0.00  0.00     0.015 A 
ATOM      7  C7  IND d   1      -0.717  -0.597   1.767  0.00  0.00    -0.016 A 
ATOM      8  C8  IND d   1      -1.474   0.483   2.198  0.00  0.00    -0.047 A 
ATOM      9  C9  IND d   1      -1.152   1.801   1.849  0.00  0.00    -0.096 A 
ATOM     10  HN1 IND d   1      -2.968  -0.142   3.380  0.00  0.00     0.298 HD
ENDROOT
TORSDOF 0
ENDMDL
