MODEL 1
REMARK minimizedAffinity 1.82522082
REMARK minimizedRMSD -1
REMARK  0 active torsions:
REMARK  status: ('A' for Active; 'I' for Inactive)
ROOT
ATOM      1  N1  IND d   1      -2.530   0.783   3.234  0.00  0.00    -0.196 N 
ATOM      2  C2  IND d   1      -2.756   2.131   3.217  0.00  0.00     0.054 A 
ATOM      3  C3  IND d   1      -1.843   2.752   2.436  0.00  0.00    -0.031 A 
ATOM      4  C4  IND d   1       0.047   1.741   1.010  0.00  0.00     0.051 A 
ATOM      5  C5  IND d   1       0.670   0.557   0.730  0.00  0.00    -0.031 A 
ATOM      6  C6  IND d   1       0.248  -0.637   1.279  0.00  0.00     0.015 A 
ATOM      7  C7  IND d   1      -0.825  -0.692   2.124  0.00  0.00    -0.016 A 
ATOM      8  C8  IND d   1      -1.455   0.509   2.416  0.00  0.00    -0.047 A 
ATOM      9  C9  IND d   1      -1.005   1.729   1.895  0.00  0.00    -0.096 A 
ATOM     10  HN1 IND d   1      -2.982   0.204   3.680  0.00  0.00     0.298 HD
ENDROOT
TORSDOF 0
ENDMDL
