MODEL 1
REMARK minimizedAffinity -1.44151807
REMARK minimizedRMSD -1
REMARK  0 active torsions:
REMARK  status: ('A' for Active; 'I' for Inactive)
ROOT
ATOM      1  N1  IND d   1      -2.658   2.308   2.985  0.00  0.00    -0.196 N 
ATOM      2  C2  IND d   1      -3.403   1.162   3.006  0.00  0.00     0.054 A 
ATOM      3  C3  IND d   1      -2.708   0.139   2.461  0.00  0.00    -0.031 A 
ATOM      4  C4  IND d   1      -0.295   0.095   1.566  0.00  0.00     0.051 A 
ATOM      5  C5  IND d   1       0.772   0.908   1.305  0.00  0.00    -0.031 A 
ATOM      6  C6  IND d   1       0.751   2.256   1.599  0.00  0.00     0.015 A 
ATOM      7  C7  IND d   1      -0.339   2.841   2.178  0.00  0.00    -0.016 A 
ATOM      8  C8  IND d   1      -1.427   2.020   2.438  0.00  0.00    -0.047 A 
ATOM      9  C9  IND d   1      -1.427   0.660   2.103  0.00  0.00    -0.096 A 
ATOM     10  HN1 IND d   1      -2.915   3.079   3.267  0.00  0.00     0.298 HD
ENDROOT
TORSDOF 0
ENDMDL
