MODEL 1
REMARK minimizedAffinity -1.07758141
REMARK minimizedRMSD -1
REMARK  0 active torsions:
REMARK  status: ('A' for Active; 'I' for Inactive)
ROOT
ATOM      1  N1  IND d   1      -1.666   1.431   2.862  0.00  0.00    -0.196 N 
ATOM      2  C2  IND d   1      -2.009   2.679   2.424  0.00  0.00     0.054 A 
ATOM      3  C3  IND d   1      -1.109   3.124   1.518  0.00  0.00    -0.031 A 
ATOM      4  C4  IND d   1       0.947   1.927   0.533  0.00  0.00     0.051 A 
ATOM      5  C5  IND d   1       1.687   0.785   0.652  0.00  0.00    -0.031 A 
ATOM      6  C6  IND d   1       1.340  -0.222   1.529  0.00  0.00     0.015 A 
ATOM      7  C7  IND d   1       0.227  -0.129   2.315  0.00  0.00    -0.016 A 
ATOM      8  C8  IND d   1      -0.524   1.033   2.203  0.00  0.00    -0.047 A 
ATOM      9  C9  IND d   1      -0.152   2.077   1.346  0.00  0.00    -0.096 A 
ATOM     10  HN1 IND d   1      -2.092   0.971   3.451  0.00  0.00     0.298 HD
ENDROOT
TORSDOF 0
ENDMDL
