MODEL 1
REMARK minimizedAffinity 3.57864714
REMARK minimizedRMSD -1
REMARK  0 active torsions:
REMARK  status: ('A' for Active; 'I' for Inactive)
ROOT
ATOM      1  N1  IND d   1       0.015  -2.101   2.457  0.00  0.00    -0.196 N 
ATOM      2  C2  IND d   1      -1.301  -2.035   2.819  0.00  0.00     0.054 A 
ATOM      3  C3  IND d   1      -1.848  -0.875   2.393  0.00  0.00    -0.031 A 
ATOM      4  C4  IND d   1      -0.796   1.015   0.998  0.00  0.00     0.051 A 
ATOM      5  C5  IND d   1       0.392   1.423   0.459  0.00  0.00    -0.031 A 
ATOM      6  C6  IND d   1       1.538   0.660   0.559  0.00  0.00     0.015 A 
ATOM      7  C7  IND d   1       1.535  -0.550   1.193  0.00  0.00    -0.016 A 
ATOM      8  C8  IND d   1       0.332  -0.964   1.748  0.00  0.00    -0.047 A 
ATOM      9  C9  IND d   1      -0.823  -0.174   1.687  0.00  0.00    -0.096 A 
ATOM     10  HN1 IND d   1       0.555  -2.745   2.641  0.00  0.00     0.298 HD
ENDROOT
TORSDOF 0
ENDMDL
