MODEL 1
REMARK minimizedAffinity 6.59056282
REMARK minimizedRMSD -1
REMARK  0 active torsions:
REMARK  status: ('A' for Active; 'I' for Inactive)
ROOT
ATOM      1  N1  IND d   1      -2.268   1.717   2.604  0.00  0.00    -0.196 N 
ATOM      2  C2  IND d   1      -2.482   3.064   2.516  0.00  0.00     0.054 A 
ATOM      3  C3  IND d   1      -1.425   3.671   1.932  0.00  0.00    -0.031 A 
ATOM      4  C4  IND d   1       0.718   2.635   0.951  0.00  0.00     0.051 A 
ATOM      5  C5  IND d   1       1.382   1.447   0.828  0.00  0.00    -0.031 A 
ATOM      6  C6  IND d   1       0.851   0.263   1.299  0.00  0.00     0.015 A 
ATOM      7  C7  IND d   1      -0.374   0.222   1.902  0.00  0.00    -0.016 A 
ATOM      8  C8  IND d   1      -1.048   1.428   2.034  0.00  0.00    -0.047 A 
ATOM      9  C9  IND d   1      -0.495   2.639   1.597  0.00  0.00    -0.096 A 
ATOM     10  HN1 IND d   1      -2.806   1.145   2.957  0.00  0.00     0.298 HD
ENDROOT
TORSDOF 0
ENDMDL
