MODEL 1
REMARK minimizedAffinity -0.535467148
REMARK minimizedRMSD -1
REMARK  0 active torsions:
REMARK  status: ('A' for Active; 'I' for Inactive)
ROOT
ATOM      1  N1  IND d   1      -2.833   1.647   2.961  0.00  0.00    -0.196 N 
ATOM      2  C2  IND d   1      -2.417   2.941   3.107  0.00  0.00     0.054 A 
ATOM      3  C3  IND d   1      -1.181   3.100   2.583  0.00  0.00    -0.031 A 
ATOM      4  C4  IND d   1       0.302   1.398   1.347  0.00  0.00     0.051 A 
ATOM      5  C5  IND d   1       0.367   0.078   0.999  0.00  0.00    -0.031 A 
ATOM      6  C6  IND d   1      -0.653  -0.804   1.291  0.00  0.00     0.015 A 
ATOM      7  C7  IND d   1      -1.786  -0.394   1.935  0.00  0.00    -0.016 A 
ATOM      8  C8  IND d   1      -1.853   0.944   2.296  0.00  0.00    -0.047 A 
ATOM      9  C9  IND d   1      -0.802   1.835   2.040  0.00  0.00    -0.096 A 
ATOM     10  HN1 IND d   1      -3.581   1.326   3.239  0.00  0.00     0.298 HD
ENDROOT
TORSDOF 0
ENDMDL
