MODEL 1
REMARK minimizedAffinity -4.87564182
REMARK minimizedRMSD -1
REMARK  0 active torsions:
REMARK  status: ('A' for Active; 'I' for Inactive)
ROOT
ATOM      1  N1  IND d   1       0.498  -0.842   0.821  0.00  0.00    -0.196 N 
ATOM      2  C2  IND d   1       1.341   0.132   0.363  0.00  0.00     0.054 A 
ATOM      3  C3  IND d   1       0.792   1.354   0.548  0.00  0.00    -0.031 A 
ATOM      4  C4  IND d   1      -1.433   1.995   1.673  0.00  0.00     0.051 A 
ATOM      5  C5  IND d   1      -2.562   1.449   2.215  0.00  0.00    -0.031 A 
ATOM      6  C6  IND d   1      -2.732   0.084   2.325  0.00  0.00     0.015 A 
ATOM      7  C7  IND d   1      -1.769  -0.789   1.905  0.00  0.00    -0.016 A 
ATOM      8  C8  IND d   1      -0.623  -0.239   1.348  0.00  0.00    -0.047 A 
ATOM      9  C9  IND d   1      -0.464   1.145   1.195  0.00  0.00    -0.096 A 
ATOM     10  HN1 IND d   1       0.643  -1.688   0.786  0.00  0.00     0.298 HD
ENDROOT
TORSDOF 0
ENDMDL
