MODEL 1
REMARK minimizedAffinity 0.0804967806
REMARK minimizedRMSD -1
REMARK  0 active torsions:
REMARK  status: ('A' for Active; 'I' for Inactive)
ROOT
ATOM      1  N1  IND d   1      -2.326   2.779   3.162  0.00  0.00    -0.196 N 
ATOM      2  C2  IND d   1      -3.265   1.975   3.745  0.00  0.00     0.054 A 
ATOM      3  C3  IND d   1      -3.081   0.689   3.371  0.00  0.00    -0.031 A 
ATOM      4  C4  IND d   1      -1.241  -0.337   1.892  0.00  0.00     0.051 A 
ATOM      5  C5  IND d   1      -0.179   0.004   1.102  0.00  0.00    -0.031 A 
ATOM      6  C6  IND d   1       0.231   1.313   0.957  0.00  0.00     0.015 A 
ATOM      7  C7  IND d   1      -0.401   2.334   1.610  0.00  0.00    -0.016 A 
ATOM      8  C8  IND d   1      -1.484   1.992   2.407  0.00  0.00    -0.047 A 
ATOM      9  C9  IND d   1      -1.931   0.670   2.524  0.00  0.00    -0.096 A 
ATOM     10  HN1 IND d   1      -2.271   3.632   3.251  0.00  0.00     0.298 HD
ENDROOT
TORSDOF 0
ENDMDL
