MODEL 1
REMARK minimizedAffinity -2.64030933
REMARK minimizedRMSD -1
REMARK  0 active torsions:
REMARK  status: ('A' for Active; 'I' for Inactive)
ROOT
ATOM      1  N1  IND d   1      -2.034   1.420   3.037  0.00  0.00    -0.196 N 
ATOM      2  C2  IND d   1      -2.845   0.351   2.773  0.00  0.00     0.054 A 
ATOM      3  C3  IND d   1      -2.305  -0.423   1.806  0.00  0.00    -0.031 A 
ATOM      4  C4  IND d   1      -0.049  -0.183   0.589  0.00  0.00     0.051 A 
ATOM      5  C5  IND d   1       1.024   0.655   0.464  0.00  0.00    -0.031 A 
ATOM      6  C6  IND d   1       1.135   1.812   1.207  0.00  0.00     0.015 A 
ATOM      7  C7  IND d   1       0.180   2.171   2.115  0.00  0.00    -0.016 A 
ATOM      8  C8  IND d   1      -0.914   1.326   2.240  0.00  0.00    -0.047 A 
ATOM      9  C9  IND d   1      -1.054   0.172   1.458  0.00  0.00    -0.096 A 
ATOM     10  HN1 IND d   1      -2.196   2.045   3.604  0.00  0.00     0.298 HD
ENDROOT
TORSDOF 0
ENDMDL
