MODEL 1
REMARK minimizedAffinity -3.40027785
REMARK minimizedRMSD -1
REMARK  0 active torsions:
REMARK  status: ('A' for Active; 'I' for Inactive)
ROOT
ATOM      1  N1  IND d   1      -0.299   2.843   1.082  0.00  0.00    -0.196 N 
ATOM      2  C2  IND d   1       0.645   2.070   0.464  0.00  0.00     0.054 A 
ATOM      3  C3  IND d   1       0.375   0.759   0.651  0.00  0.00    -0.031 A 
ATOM      4  C4  IND d   1      -1.617  -0.347   1.849  0.00  0.00     0.051 A 
ATOM      5  C5  IND d   1      -2.720  -0.053   2.601  0.00  0.00    -0.031 A 
ATOM      6  C6  IND d   1      -3.081   1.247   2.888  0.00  0.00     0.015 A 
ATOM      7  C7  IND d   1      -2.356   2.307   2.423  0.00  0.00    -0.016 A 
ATOM      8  C8  IND d   1      -1.231   2.013   1.665  0.00  0.00    -0.047 A 
ATOM      9  C9  IND d   1      -0.836   0.694   1.406  0.00  0.00    -0.096 A 
ATOM     10  HN1 IND d   1      -0.309   3.702   1.103  0.00  0.00     0.298 HD
ENDROOT
TORSDOF 0
ENDMDL
