MODEL 1
REMARK minimizedAffinity -1.77694535
REMARK minimizedRMSD -1
REMARK  0 active torsions:
REMARK  status: ('A' for Active; 'I' for Inactive)
ROOT
ATOM      1  N1  IND d   1      -0.024  -3.378  -4.713  0.00  0.00    -0.196 N 
ATOM      2  C2  IND d   1       1.034  -4.189  -4.410  0.00  0.00     0.054 A 
ATOM      3  C3  IND d   1       0.958  -4.598  -3.123  0.00  0.00    -0.031 A 
ATOM      4  C4  IND d   1      -0.866  -4.141  -1.366  0.00  0.00     0.051 A 
ATOM      5  C5  IND d   1      -2.012  -3.424  -1.164  0.00  0.00    -0.031 A 
ATOM      6  C6  IND d   1      -2.566  -2.641  -2.156  0.00  0.00     0.015 A 
ATOM      7  C7  IND d   1      -1.999  -2.555  -3.396  0.00  0.00    -0.016 A 
ATOM      8  C8  IND d   1      -0.832  -3.276  -3.602  0.00  0.00    -0.047 A 
ATOM      9  C9  IND d   1      -0.241  -4.039  -2.586  0.00  0.00    -0.096 A 
ATOM     10  HN1 IND d   1      -0.161  -2.995  -5.471  0.00  0.00     0.298 HD
ENDROOT
TORSDOF 0
ENDMDL
