MODEL 1
REMARK minimizedAffinity 0.998216391
REMARK minimizedRMSD -1
REMARK  0 active torsions:
REMARK  status: ('A' for Active; 'I' for Inactive)
ROOT
ATOM      1  N1  IND d   1       0.107  -0.848   1.096  0.00  0.00    -0.196 N 
ATOM      2  C2  IND d   1      -1.156  -1.224   1.461  0.00  0.00     0.054 A 
ATOM      3  C3  IND d   1      -1.871  -0.147   1.857  0.00  0.00    -0.031 A 
ATOM      4  C4  IND d   1      -1.202   2.339   1.889  0.00  0.00     0.051 A 
ATOM      5  C5  IND d   1      -0.137   3.170   1.681  0.00  0.00    -0.031 A 
ATOM      6  C6  IND d   1       1.087   2.696   1.256  0.00  0.00     0.015 A 
ATOM      7  C7  IND d   1       1.289   1.367   1.011  0.00  0.00    -0.016 A 
ATOM      8  C8  IND d   1       0.213   0.519   1.228  0.00  0.00    -0.047 A 
ATOM      9  C9  IND d   1      -1.019   0.989   1.701  0.00  0.00    -0.096 A 
ATOM     10  HN1 IND d   1       0.730  -1.377   0.829  0.00  0.00     0.298 HD
ENDROOT
TORSDOF 0
ENDMDL
