MODEL 1
REMARK minimizedAffinity 1.42630482
REMARK minimizedRMSD -1
REMARK  0 active torsions:
REMARK  status: ('A' for Active; 'I' for Inactive)
ROOT
ATOM      1  N1  IND d   1      -3.107   2.757   3.129  0.00  0.00    -0.196 N 
ATOM      2  C2  IND d   1      -3.549   1.656   3.807  0.00  0.00     0.054 A 
ATOM      3  C3  IND d   1      -2.845   0.562   3.437  0.00  0.00    -0.031 A 
ATOM      4  C4  IND d   1      -0.859   0.369   1.811  0.00  0.00     0.051 A 
ATOM      5  C5  IND d   1      -0.119   1.098   0.923  0.00  0.00    -0.031 A 
ATOM      6  C6  IND d   1      -0.340   2.445   0.723  0.00  0.00     0.015 A 
ATOM      7  C7  IND d   1      -1.306   3.119   1.415  0.00  0.00    -0.016 A 
ATOM      8  C8  IND d   1      -2.064   2.380   2.312  0.00  0.00    -0.047 A 
ATOM      9  C9  IND d   1      -1.873   1.004   2.489  0.00  0.00    -0.096 A 
ATOM     10  HN1 IND d   1      -3.428   3.552   3.201  0.00  0.00     0.298 HD
ENDROOT
TORSDOF 0
ENDMDL
