MODEL 1
REMARK minimizedAffinity -5.40473843
REMARK minimizedRMSD -1
REMARK  2 active torsions:
REMARK  status: ('A' for Active; 'I' for Inactive)
REMARK    1  A    between atoms: C1_2  and  C2_3 
REMARK    2  A    between atoms: C2_3  and  C3_4 
ROOT
ATOM      1  C3  UNL d   1       0.075  -0.118   0.201  0.00  0.00    -0.075 A 
ATOM      2  C4  UNL d   1       1.476  -0.163   0.173  0.00  0.00     0.002 A 
ATOM      3  C5  UNL d   1       2.201  -0.414   1.339  0.00  0.00     0.002 A 
ATOM      4  C6  UNL d   1       1.535  -0.614   2.546  0.00  0.00    -0.004 A 
ATOM      5  C7  UNL d   1       0.144  -0.556   2.589  0.00  0.00     0.002 A 
ATOM      6  C8  UNL d   1      -0.583  -0.308   1.424  0.00  0.00     0.002 A 
ENDROOT
BRANCH   1   7
ATOM      7  C2  UNL d   1      -0.716   0.124  -1.062  0.00  0.00     0.056 C 
BRANCH   7   8
ATOM      8  C1  UNL d   1      -0.019   1.049  -2.066  0.00  0.00     0.007 C 
ATOM      9  C   UNL d   1      -0.852   2.268  -2.438  0.00  0.00     0.009 C 
ENDBRANCH   7   8
ENDBRANCH   1   7
TORSDOF 2
ENDMDL
