MODEL 1
REMARK minimizedAffinity -5.51984262
REMARK minimizedRMSD -1
REMARK  2 active torsions:
REMARK  status: ('A' for Active; 'I' for Inactive)
REMARK    1  A    between atoms: C1_2  and  C2_3 
REMARK    2  A    between atoms: C2_3  and  C3_4 
ROOT
ATOM      1  C3  UNL d   1       0.839  -0.453  -0.151  0.00  0.00    -0.075 A 
ATOM      2  C4  UNL d   1       2.094  -1.044   0.051  0.00  0.00     0.002 A 
ATOM      3  C5  UNL d   1       2.513  -1.397   1.334  0.00  0.00     0.002 A 
ATOM      4  C6  UNL d   1       1.689  -1.154   2.430  0.00  0.00    -0.004 A 
ATOM      5  C7  UNL d   1       0.447  -0.552   2.244  0.00  0.00     0.002 A 
ATOM      6  C8  UNL d   1       0.023  -0.202   0.961  0.00  0.00     0.002 A 
ENDROOT
BRANCH   1   7
ATOM      7  C2  UNL d   1       0.367  -0.096  -1.540  0.00  0.00     0.056 C 
BRANCH   7   8
ATOM      8  C1  UNL d   1      -0.679   1.023  -1.575  0.00  0.00     0.007 C 
ATOM      9  C   UNL d   1      -0.204   2.267  -2.314  0.00  0.00     0.009 C 
ENDBRANCH   7   8
ENDBRANCH   1   7
TORSDOF 2
ENDMDL
