MODEL 1
REMARK minimizedAffinity -5.12738895
REMARK minimizedRMSD -1
REMARK  2 active torsions:
REMARK  status: ('A' for Active; 'I' for Inactive)
REMARK    1  A    between atoms: C1_2  and  C2_3 
REMARK    2  A    between atoms: C2_3  and  C3_4 
ROOT
ATOM      1  C3  UNL d   1       0.283  -0.484   0.003  0.00  0.00    -0.075 A 
ATOM      2  C4  UNL d   1      -0.367  -0.511   1.245  0.00  0.00     0.002 A 
ATOM      3  C5  UNL d   1       0.260  -1.069   2.360  0.00  0.00     0.002 A 
ATOM      4  C6  UNL d   1       1.537  -1.614   2.246  0.00  0.00    -0.004 A 
ATOM      5  C7  UNL d   1       2.185  -1.607   1.012  0.00  0.00     0.002 A 
ATOM      6  C8  UNL d   1       1.562  -1.046  -0.104  0.00  0.00     0.002 A 
ENDROOT
BRANCH   1   7
ATOM      7  C2  UNL d   1      -0.377   0.144  -1.201  0.00  0.00     0.056 C 
BRANCH   7   8
ATOM      8  C1  UNL d   1       0.158   1.537  -1.550  0.00  0.00     0.007 C 
ATOM      9  C   UNL d   1      -0.860   2.407  -2.276  0.00  0.00     0.009 C 
ENDBRANCH   7   8
ENDBRANCH   1   7
TORSDOF 2
ENDMDL
