MODEL 1
REMARK minimizedAffinity -5.22017336
REMARK minimizedRMSD -1
REMARK  2 active torsions:
REMARK  status: ('A' for Active; 'I' for Inactive)
REMARK    1  A    between atoms: C1_2  and  C2_3 
REMARK    2  A    between atoms: C2_3  and  C3_4 
ROOT
ATOM      1  C3  UNL d   1       0.465  -0.364   0.543  0.00  0.00    -0.075 A 
ATOM      2  C4  UNL d   1      -0.059   0.120   1.750  0.00  0.00     0.002 A 
ATOM      3  C5  UNL d   1       0.581  -0.154   2.960  0.00  0.00     0.002 A 
ATOM      4  C6  UNL d   1       1.743  -0.921   2.979  0.00  0.00    -0.004 A 
ATOM      5  C7  UNL d   1       2.263  -1.422   1.787  0.00  0.00     0.002 A 
ATOM      6  C8  UNL d   1       1.627  -1.146   0.574  0.00  0.00     0.002 A 
ENDROOT
BRANCH   1   7
ATOM      7  C2  UNL d   1      -0.206  -0.047  -0.773  0.00  0.00     0.056 C 
BRANCH   7   8
ATOM      8  C1  UNL d   1      -0.829   1.351  -0.834  0.00  0.00     0.007 C 
ATOM      9  C   UNL d   1      -0.089   2.297  -1.770  0.00  0.00     0.009 C 
ENDBRANCH   7   8
ENDBRANCH   1   7
TORSDOF 2
ENDMDL
