MODEL 1
REMARK minimizedAffinity -5.36449528
REMARK minimizedRMSD -1
REMARK  0 active torsions:
REMARK  status: ('A' for Active; 'I' for Inactive)
ROOT
ATOM      1  C   UNL d   1      -1.147   2.875   2.242  0.00  0.00     0.078 C 
ATOM      2  C1  UNL d   1      -0.694   1.783   1.319  0.00  0.00    -0.077 A 
ATOM      3  C2  UNL d   1       0.140   0.754   1.773  0.00  0.00    -0.001 A 
ATOM      4  C3  UNL d   1       0.562  -0.250   0.900  0.00  0.00     0.003 A 
ATOM      5  C4  UNL d   1       0.156  -0.234  -0.433  0.00  0.00    -0.005 A 
ATOM      6  C5  UNL d   1      -0.671   0.788  -0.895  0.00  0.00     0.003 A 
ATOM      7  C6  UNL d   1      -1.094   1.792  -0.023  0.00  0.00    -0.001 A 
ENDROOT
TORSDOF 0
ENDMDL
