MODEL 1
REMARK minimizedAffinity -3.21817589
REMARK minimizedRMSD -1
REMARK  0 active torsions:
REMARK  status: ('A' for Active; 'I' for Inactive)
ROOT
ATOM      1  C   UNL d   1       1.696  -1.498   3.488  0.00  0.00     0.078 C 
ATOM      2  C1  UNL d   1       0.952  -0.338   2.896  0.00  0.00    -0.077 A 
ATOM      3  C2  UNL d   1       1.255   0.135   1.613  0.00  0.00    -0.001 A 
ATOM      4  C3  UNL d   1       0.560   1.222   1.079  0.00  0.00     0.003 A 
ATOM      5  C4  UNL d   1      -0.440   1.846   1.822  0.00  0.00    -0.005 A 
ATOM      6  C5  UNL d   1      -0.747   1.384   3.100  0.00  0.00     0.003 A 
ATOM      7  C6  UNL d   1      -0.054   0.297   3.635  0.00  0.00    -0.001 A 
ENDROOT
TORSDOF 0
ENDMDL
