MODEL 1
REMARK minimizedAffinity -4.92702532
REMARK minimizedRMSD -1
REMARK  0 active torsions:
REMARK  status: ('A' for Active; 'I' for Inactive)
ROOT
ATOM      1  C   UNL d   1      -0.593   2.320  -1.771  0.00  0.00     0.078 C 
ATOM      2  C1  UNL d   1      -0.446   1.675  -0.426  0.00  0.00    -0.077 A 
ATOM      3  C2  UNL d   1      -0.836   2.343   0.741  0.00  0.00    -0.001 A 
ATOM      4  C3  UNL d   1      -0.685   1.734   1.988  0.00  0.00     0.003 A 
ATOM      5  C4  UNL d   1      -0.141   0.454   2.079  0.00  0.00    -0.005 A 
ATOM      6  C5  UNL d   1       0.253  -0.218   0.924  0.00  0.00     0.003 A 
ATOM      7  C6  UNL d   1       0.102   0.390  -0.324  0.00  0.00    -0.001 A 
ENDROOT
TORSDOF 0
ENDMDL
