MODEL 1
REMARK minimizedAffinity -5.5545063
REMARK minimizedRMSD -1
REMARK  0 active torsions:
REMARK  status: ('A' for Active; 'I' for Inactive)
ROOT
ATOM      1  C   UNL d   1      -1.342   2.036   1.915  0.00  0.00     0.078 C 
ATOM      2  C1  UNL d   1      -0.719   1.344   0.740  0.00  0.00    -0.077 A 
ATOM      3  C2  UNL d   1      -0.700   1.945  -0.524  0.00  0.00    -0.001 A 
ATOM      4  C3  UNL d   1      -0.126   1.284  -1.611  0.00  0.00     0.003 A 
ATOM      5  C4  UNL d   1       0.433   0.018  -1.445  0.00  0.00    -0.005 A 
ATOM      6  C5  UNL d   1       0.417  -0.589  -0.191  0.00  0.00     0.003 A 
ATOM      7  C6  UNL d   1      -0.158   0.070   0.897  0.00  0.00    -0.001 A 
ENDROOT
TORSDOF 0
ENDMDL
