MODEL 1
REMARK minimizedAffinity -4.88146687
REMARK minimizedRMSD -1
REMARK  0 active torsions:
REMARK  status: ('A' for Active; 'I' for Inactive)
ROOT
ATOM      1  C   UNL d   1      -1.412   2.906   1.431  0.00  0.00     0.078 C 
ATOM      2  C1  UNL d   1      -0.752   1.662   0.916  0.00  0.00    -0.077 A 
ATOM      3  C2  UNL d   1      -0.928   1.248  -0.410  0.00  0.00    -0.001 A 
ATOM      4  C3  UNL d   1      -0.316   0.082  -0.872  0.00  0.00     0.003 A 
ATOM      5  C4  UNL d   1       0.476  -0.680  -0.015  0.00  0.00    -0.005 A 
ATOM      6  C5  UNL d   1       0.655  -0.277   1.306  0.00  0.00     0.003 A 
ATOM      7  C6  UNL d   1       0.044   0.888   1.771  0.00  0.00    -0.001 A 
ENDROOT
TORSDOF 0
ENDMDL
