MODEL 1
REMARK minimizedAffinity -3.30777431
REMARK minimizedRMSD -1
REMARK  3 active torsions:
REMARK  status: ('A' for Active; 'I' for Inactive)
REMARK    1  A    between atoms: C3'_2  and  C2'_3 
REMARK    2  A    between atoms: C2'_3  and  C1'_4 
REMARK    3  A    between atoms: C1'_4  and  C1_5 
ROOT
ATOM      1  C1  N4B d   1       0.169   0.364   0.987  0.00  0.00    -0.075 A 
ATOM      2  C2  N4B d   1       0.920   1.257   1.784  0.00  0.00     0.002 A 
ATOM      3  C3  N4B d   1       0.358   1.814   2.906  0.00  0.00     0.002 A 
ATOM      4  C4  N4B d   1      -0.953   1.510   3.240  0.00  0.00    -0.004 A 
ATOM      5  C5  N4B d   1      -1.663   0.627   2.480  0.00  0.00     0.002 A 
ATOM      6  C6  N4B d   1      -1.110   0.056   1.351  0.00  0.00     0.002 A 
ENDROOT
BRANCH   1   7
ATOM      7  C1' N4B d   1       0.712  -0.204  -0.296  0.00  0.00     0.057 C 
BRANCH   7   8
ATOM      8  C2' N4B d   1       0.343   0.725  -1.449  0.00  0.00     0.009 C 
BRANCH   8   9
ATOM      9  C3' N4B d   1       1.390   0.706  -2.550  0.00  0.00     0.004 C 
ATOM     10  C4' N4B d   1       0.835   1.102  -3.886  0.00  0.00     0.003 C 
ENDBRANCH   8   9
ENDBRANCH   7   8
ENDBRANCH   1   7
TORSDOF 3
ENDMDL
