MODEL 1
REMARK minimizedAffinity -4.59111166
REMARK minimizedRMSD -1
REMARK  3 active torsions:
REMARK  status: ('A' for Active; 'I' for Inactive)
REMARK    1  A    between atoms: C3'_2  and  C2'_3 
REMARK    2  A    between atoms: C2'_3  and  C1'_4 
REMARK    3  A    between atoms: C1'_4  and  C1_5 
ROOT
ATOM      1  C1  N4B d   1      -0.003  -0.062  -0.418  0.00  0.00    -0.075 A 
ATOM      2  C2  N4B d   1      -1.405   0.074  -0.524  0.00  0.00     0.002 A 
ATOM      3  C3  N4B d   1      -2.152   0.369   0.590  0.00  0.00     0.002 A 
ATOM      4  C4  N4B d   1      -1.525   0.514   1.818  0.00  0.00    -0.004 A 
ATOM      5  C5  N4B d   1      -0.168   0.407   1.907  0.00  0.00     0.002 A 
ATOM      6  C6  N4B d   1       0.597   0.115   0.795  0.00  0.00     0.002 A 
ENDROOT
BRANCH   1   7
ATOM      7  C1' N4B d   1       0.847  -0.468  -1.591  0.00  0.00     0.057 C 
BRANCH   7   8
ATOM      8  C2' N4B d   1       0.136  -0.078  -2.883  0.00  0.00     0.009 C 
BRANCH   8   9
ATOM      9  C3' N4B d   1       1.091   0.530  -3.896  0.00  0.00     0.004 C 
ATOM     10  C4' N4B d   1       2.526   0.194  -3.616  0.00  0.00     0.003 C 
ENDBRANCH   8   9
ENDBRANCH   7   8
ENDBRANCH   1   7
TORSDOF 3
ENDMDL
