MODEL 1
REMARK minimizedAffinity -5.51140642
REMARK minimizedRMSD -1
REMARK  3 active torsions:
REMARK  status: ('A' for Active; 'I' for Inactive)
REMARK    1  A    between atoms: C3'_2  and  C2'_3 
REMARK    2  A    between atoms: C2'_3  and  C1'_4 
REMARK    3  A    between atoms: C1'_4  and  C1_5 
ROOT
ATOM      1  C1  N4B d   1       0.071  -0.438  -0.030  0.00  0.00    -0.075 A 
ATOM      2  C2  N4B d   1       0.529   0.573   0.843  0.00  0.00     0.002 A 
ATOM      3  C3  N4B d   1      -0.351   1.195   1.695  0.00  0.00     0.002 A 
ATOM      4  C4  N4B d   1      -1.690   0.836   1.679  0.00  0.00    -0.004 A 
ATOM      5  C5  N4B d   1      -2.120  -0.159   0.851  0.00  0.00     0.002 A 
ATOM      6  C6  N4B d   1      -1.246  -0.795  -0.008  0.00  0.00     0.002 A 
ENDROOT
BRANCH   1   7
ATOM      7  C1' N4B d   1       0.978  -1.086  -1.040  0.00  0.00     0.057 C 
BRANCH   7   8
ATOM      8  C2' N4B d   1       0.561  -0.649  -2.441  0.00  0.00     0.009 C 
BRANCH   8   9
ATOM      9  C3' N4B d   1       1.405   0.507  -2.951  0.00  0.00     0.004 C 
ATOM     10  C4' N4B d   1       0.898   1.069  -4.245  0.00  0.00     0.003 C 
ENDBRANCH   8   9
ENDBRANCH   7   8
ENDBRANCH   1   7
TORSDOF 3
ENDMDL
