MODEL 1
REMARK minimizedAffinity -2.20471907
REMARK minimizedRMSD -1
REMARK  3 active torsions:
REMARK  status: ('A' for Active; 'I' for Inactive)
REMARK    1  A    between atoms: C3'_2  and  C2'_3 
REMARK    2  A    between atoms: C2'_3  and  C1'_4 
REMARK    3  A    between atoms: C1'_4  and  C1_5 
ROOT
ATOM      1  C1  N4B d   1      -0.177   1.068   0.432  0.00  0.00    -0.075 A 
ATOM      2  C2  N4B d   1      -0.982  -0.091   0.382  0.00  0.00     0.002 A 
ATOM      3  C3  N4B d   1      -1.650  -0.512   1.505  0.00  0.00     0.002 A 
ATOM      4  C4  N4B d   1      -1.515   0.197   2.690  0.00  0.00    -0.004 A 
ATOM      5  C5  N4B d   1      -0.756   1.330   2.723  0.00  0.00     0.002 A 
ATOM      6  C6  N4B d   1      -0.082   1.767   1.600  0.00  0.00     0.002 A 
ENDROOT
BRANCH   1   7
ATOM      7  C1' N4B d   1       0.641   1.518  -0.748  0.00  0.00     0.057 C 
BRANCH   7   8
ATOM      8  C2' N4B d   1      -0.232   1.500  -1.999  0.00  0.00     0.009 C 
BRANCH   8   9
ATOM      9  C3' N4B d   1       0.559   1.848  -3.248  0.00  0.00     0.004 C 
ATOM     10  C4' N4B d   1       0.983   0.637  -4.024  0.00  0.00     0.003 C 
ENDBRANCH   8   9
ENDBRANCH   7   8
ENDBRANCH   1   7
TORSDOF 3
ENDMDL
