MODEL 1
REMARK minimizedAffinity -4.83506584
REMARK minimizedRMSD -1
REMARK  3 active torsions:
REMARK  status: ('A' for Active; 'I' for Inactive)
REMARK    1  A    between atoms: C3'_2  and  C2'_3 
REMARK    2  A    between atoms: C2'_3  and  C1'_4 
REMARK    3  A    between atoms: C1'_4  and  C1_5 
ROOT
ATOM      1  C1  N4B d   1       0.164  -0.015   0.456  0.00  0.00    -0.075 A 
ATOM      2  C2  N4B d   1       1.178   0.174   1.420  0.00  0.00     0.002 A 
ATOM      3  C3  N4B d   1       0.850   0.579   2.691  0.00  0.00     0.002 A 
ATOM      4  C4  N4B d   1      -0.477   0.820   3.013  0.00  0.00    -0.004 A 
ATOM      5  C5  N4B d   1      -1.453   0.610   2.083  0.00  0.00     0.002 A 
ATOM      6  C6  N4B d   1      -1.139   0.199   0.803  0.00  0.00     0.002 A 
ENDROOT
BRANCH   1   7
ATOM      7  C1' N4B d   1       0.481  -0.375  -0.970  0.00  0.00     0.057 C 
BRANCH   7   8
ATOM      8  C2' N4B d   1       1.096   0.835  -1.667  0.00  0.00     0.009 C 
BRANCH   8   9
ATOM      9  C3' N4B d   1       1.483   0.528  -3.103  0.00  0.00     0.004 C 
ATOM     10  C4' N4B d   1       0.347   0.716  -4.064  0.00  0.00     0.003 C 
ENDBRANCH   8   9
ENDBRANCH   7   8
ENDBRANCH   1   7
TORSDOF 3
ENDMDL
