MODEL 1
REMARK minimizedAffinity -5.18337059
REMARK minimizedRMSD -1
REMARK  0 active torsions:
REMARK  status: ('A' for Active; 'I' for Inactive)
ROOT
ATOM      1  C1  DEN d   1       1.591  -0.776   0.924  0.00  0.00     0.130 A 
ATOM      2  C2  DEN d   1       2.693  -0.673  -0.029  0.00  0.00    -0.031 A 
ATOM      3  C3  DEN d   1       2.288   0.266  -1.095  0.00  0.00     0.027 A 
ATOM      4  C4  DEN d   1       0.076   1.567  -1.357  0.00  0.00     0.027 A 
ATOM      5  C5  DEN d   1      -1.164   1.795  -0.803  0.00  0.00    -0.003 A 
ATOM      6  C6  DEN d   1      -1.583   1.162   0.337  0.00  0.00     0.001 A 
ATOM      7  C7  DEN d   1      -0.736   0.303   0.986  0.00  0.00     0.017 A 
ATOM      8  C8  DEN d   1       0.514   0.062   0.430  0.00  0.00    -0.094 A 
ATOM      9  C9  DEN d   1       0.923   0.721  -0.717  0.00  0.00    -0.072 A 
ENDROOT
TORSDOF 0
ENDMDL
