MODEL 1
REMARK minimizedAffinity -4.88715315
REMARK minimizedRMSD -1
REMARK  0 active torsions:
REMARK  status: ('A' for Active; 'I' for Inactive)
ROOT
ATOM      1  C1  DEN d   1       2.505   0.652  -0.995  0.00  0.00     0.130 A 
ATOM      2  C2  DEN d   1       2.988  -0.712  -1.189  0.00  0.00    -0.031 A 
ATOM      3  C3  DEN d   1       1.876  -1.636  -0.888  0.00  0.00     0.027 A 
ATOM      4  C4  DEN d   1      -0.534  -1.089  -0.150  0.00  0.00     0.027 A 
ATOM      5  C5  DEN d   1      -1.410  -0.072   0.161  0.00  0.00    -0.003 A 
ATOM      6  C6  DEN d   1      -1.035   1.245   0.141  0.00  0.00     0.001 A 
ATOM      7  C7  DEN d   1       0.237   1.584  -0.241  0.00  0.00     0.017 A 
ATOM      8  C8  DEN d   1       1.127   0.563  -0.548  0.00  0.00    -0.094 A 
ATOM      9  C9  DEN d   1       0.726  -0.762  -0.534  0.00  0.00    -0.072 A 
ENDROOT
TORSDOF 0
ENDMDL
