MODEL 1
REMARK minimizedAffinity -1.62477899
REMARK minimizedRMSD -1
REMARK  0 active torsions:
REMARK  status: ('A' for Active; 'I' for Inactive)
ROOT
ATOM      1  C1  DEN d   1       0.465  -1.908  -1.874  0.00  0.00     0.130 A 
ATOM      2  C2  DEN d   1       1.893  -1.652  -2.042  0.00  0.00    -0.031 A 
ATOM      3  C3  DEN d   1       2.287  -0.608  -1.075  0.00  0.00     0.027 A 
ATOM      4  C4  DEN d   1       0.834   0.626   0.662  0.00  0.00     0.027 A 
ATOM      5  C5  DEN d   1      -0.440   0.756   1.171  0.00  0.00    -0.003 A 
ATOM      6  C6  DEN d   1      -1.499   0.038   0.682  0.00  0.00     0.001 A 
ATOM      7  C7  DEN d   1      -1.295  -0.877  -0.317  0.00  0.00     0.017 A 
ATOM      8  C8  DEN d   1      -0.015  -1.008  -0.840  0.00  0.00    -0.094 A 
ATOM      9  C9  DEN d   1       1.045  -0.282  -0.324  0.00  0.00    -0.072 A 
ENDROOT
TORSDOF 0
ENDMDL
