MODEL 1
REMARK minimizedAffinity -2.22112465
REMARK minimizedRMSD -1
REMARK  0 active torsions:
REMARK  status: ('A' for Active; 'I' for Inactive)
ROOT
ATOM      1  C1  DEN d   1      -0.827  -1.113  -0.457  0.00  0.00     0.130 A 
ATOM      2  C2  DEN d   1      -0.423  -2.495  -0.212  0.00  0.00    -0.031 A 
ATOM      3  C3  DEN d   1       1.048  -2.525  -0.088  0.00  0.00     0.027 A 
ATOM      4  C4  DEN d   1       2.731  -0.577  -0.247  0.00  0.00     0.027 A 
ATOM      5  C5  DEN d   1       2.862   0.778  -0.456  0.00  0.00    -0.003 A 
ATOM      6  C6  DEN d   1       1.786   1.586  -0.712  0.00  0.00     0.001 A 
ATOM      7  C7  DEN d   1       0.524   1.052  -0.721  0.00  0.00     0.017 A 
ATOM      8  C8  DEN d   1       0.384  -0.314  -0.518  0.00  0.00    -0.094 A 
ATOM      9  C9  DEN d   1       1.483  -1.112  -0.248  0.00  0.00    -0.072 A 
ENDROOT
TORSDOF 0
ENDMDL
