MODEL 1
REMARK minimizedAffinity -3.95105267
REMARK minimizedRMSD -1
REMARK  0 active torsions:
REMARK  status: ('A' for Active; 'I' for Inactive)
ROOT
ATOM      1  C1  DEN d   1      -0.687   1.358  -0.525  0.00  0.00     0.130 A 
ATOM      2  C2  DEN d   1      -0.766   0.261   0.437  0.00  0.00    -0.031 A 
ATOM      3  C3  DEN d   1       0.365  -0.652   0.181  0.00  0.00     0.027 A 
ATOM      4  C4  DEN d   1       2.225  -0.475  -1.597  0.00  0.00     0.027 A 
ATOM      5  C5  DEN d   1       2.705   0.275  -2.648  0.00  0.00    -0.003 A 
ATOM      6  C6  DEN d   1       2.074   1.410  -3.083  0.00  0.00     0.001 A 
ATOM      7  C7  DEN d   1       0.952   1.854  -2.435  0.00  0.00     0.017 A 
ATOM      8  C8  DEN d   1       0.457   1.099  -1.380  0.00  0.00    -0.094 A 
ATOM      9  C9  DEN d   1       1.116  -0.039  -0.947  0.00  0.00    -0.072 A 
ENDROOT
TORSDOF 0
ENDMDL
