MODEL 1
REMARK minimizedAffinity -4.35129642
REMARK minimizedRMSD -1
REMARK  0 active torsions:
REMARK  status: ('A' for Active; 'I' for Inactive)
ROOT
ATOM      1  C1  DEN d   1      -0.992   0.563  -0.447  0.00  0.00     0.130 A 
ATOM      2  C2  DEN d   1      -0.883  -0.731   0.220  0.00  0.00    -0.031 A 
ATOM      3  C3  DEN d   1       0.301  -1.427  -0.323  0.00  0.00     0.027 A 
ATOM      4  C4  DEN d   1       1.971  -0.627  -2.119  0.00  0.00     0.027 A 
ATOM      5  C5  DEN d   1       2.284   0.399  -2.983  0.00  0.00    -0.003 A 
ATOM      6  C6  DEN d   1       1.515   1.528  -3.086  0.00  0.00     0.001 A 
ATOM      7  C7  DEN d   1       0.418   1.677  -2.279  0.00  0.00     0.017 A 
ATOM      8  C8  DEN d   1       0.091   0.644  -1.411  0.00  0.00    -0.094 A 
ATOM      9  C9  DEN d   1       0.888  -0.484  -1.312  0.00  0.00    -0.072 A 
ENDROOT
TORSDOF 0
ENDMDL
