MODEL 1
REMARK minimizedAffinity -3.01329327
REMARK minimizedRMSD -1
REMARK  0 active torsions:
REMARK  status: ('A' for Active; 'I' for Inactive)
ROOT
ATOM      1  C1  DEN d   1      -0.186   0.689   0.232  0.00  0.00     0.130 A 
ATOM      2  C2  DEN d   1      -1.013  -0.510   0.333  0.00  0.00    -0.031 A 
ATOM      3  C3  DEN d   1      -0.293  -1.618  -0.325  0.00  0.00     0.027 A 
ATOM      4  C4  DEN d   1       2.012  -1.595  -1.481  0.00  0.00     0.027 A 
ATOM      5  C5  DEN d   1       3.086  -0.805  -1.828  0.00  0.00    -0.003 A 
ATOM      6  C6  DEN d   1       3.129   0.534  -1.545  0.00  0.00     0.001 A 
ATOM      7  C7  DEN d   1       2.098   1.116  -0.856  0.00  0.00     0.017 A 
ATOM      8  C8  DEN d   1       1.009   0.327  -0.509  0.00  0.00    -0.094 A 
ATOM      9  C9  DEN d   1       0.989  -1.027  -0.793  0.00  0.00    -0.072 A 
ENDROOT
TORSDOF 0
ENDMDL
