MODEL 1
REMARK minimizedAffinity -3.60074139
REMARK minimizedRMSD -1
REMARK  0 active torsions:
REMARK  status: ('A' for Active; 'I' for Inactive)
ROOT
ATOM      1  C1  DEN d   1      -0.816  -1.033   0.705  0.00  0.00     0.130 A 
ATOM      2  C2  DEN d   1      -1.460   0.276   0.640  0.00  0.00    -0.031 A 
ATOM      3  C3  DEN d   1      -0.540   1.203  -0.050  0.00  0.00     0.027 A 
ATOM      4  C4  DEN d   1       1.804   0.739  -1.022  0.00  0.00     0.027 A 
ATOM      5  C5  DEN d   1       2.777  -0.220  -1.196  0.00  0.00    -0.003 A 
ATOM      6  C6  DEN d   1       2.636  -1.498  -0.723  0.00  0.00     0.001 A 
ATOM      7  C7  DEN d   1       1.477  -1.864  -0.091  0.00  0.00     0.017 A 
ATOM      8  C8  DEN d   1       0.494  -0.901   0.095  0.00  0.00    -0.094 A 
ATOM      9  C9  DEN d   1       0.650   0.382  -0.402  0.00  0.00    -0.072 A 
ENDROOT
TORSDOF 0
ENDMDL
