MODEL 1
REMARK minimizedAffinity -5.98702908
REMARK minimizedRMSD -1
REMARK  0 active torsions:
REMARK  status: ('A' for Active; 'I' for Inactive)
ROOT
ATOM      1  C1  DEN d   1       2.050   0.954  -2.117  0.00  0.00     0.130 A 
ATOM      2  C2  DEN d   1       2.847  -0.264  -2.237  0.00  0.00    -0.031 A 
ATOM      3  C3  DEN d   1       2.204  -1.312  -1.420  0.00  0.00     0.027 A 
ATOM      4  C4  DEN d   1       0.060  -1.171   0.007  0.00  0.00     0.027 A 
ATOM      5  C5  DEN d   1      -0.955  -0.341   0.428  0.00  0.00    -0.003 A 
ATOM      6  C6  DEN d   1      -1.020   0.977   0.061  0.00  0.00     0.001 A 
ATOM      7  C7  DEN d   1      -0.078   1.492  -0.788  0.00  0.00     0.017 A 
ATOM      8  C8  DEN d   1       0.953   0.664  -1.211  0.00  0.00    -0.094 A 
ATOM      9  C9  DEN d   1       0.995  -0.669  -0.839  0.00  0.00    -0.072 A 
ENDROOT
TORSDOF 0
ENDMDL
