MODEL 1
REMARK minimizedAffinity -4.5955987
REMARK minimizedRMSD -1
REMARK  0 active torsions:
REMARK  status: ('A' for Active; 'I' for Inactive)
ROOT
ATOM      1  C1  DEN d   1      -0.596  -1.298   0.137  0.00  0.00     0.130 A 
ATOM      2  C2  DEN d   1      -1.291  -0.026   0.318  0.00  0.00    -0.031 A 
ATOM      3  C3  DEN d   1      -0.346   1.061  -0.006  0.00  0.00     0.027 A 
ATOM      4  C4  DEN d   1       2.112   0.899  -0.772  0.00  0.00     0.027 A 
ATOM      5  C5  DEN d   1       3.144   0.033  -1.058  0.00  0.00    -0.003 A 
ATOM      6  C6  DEN d   1       3.013  -1.325  -0.934  0.00  0.00     0.001 A 
ATOM      7  C7  DEN d   1       1.809  -1.859  -0.556  0.00  0.00     0.017 A 
ATOM      8  C8  DEN d   1       0.766  -0.992  -0.259  0.00  0.00    -0.094 A 
ATOM      9  C9  DEN d   1       0.915   0.377  -0.402  0.00  0.00    -0.072 A 
ENDROOT
TORSDOF 0
ENDMDL
