MODEL 1
REMARK minimizedAffinity 3.23852897
REMARK minimizedRMSD -1
REMARK  0 active torsions:
REMARK  status: ('A' for Active; 'I' for Inactive)
ROOT
ATOM      1  C1  DEN d   1       1.365   0.454  -1.192  0.00  0.00     0.130 A 
ATOM      2  C2  DEN d   1       0.850   1.810  -1.358  0.00  0.00    -0.031 A 
ATOM      3  C3  DEN d   1      -0.526   1.845  -0.823  0.00  0.00     0.027 A 
ATOM      4  C4  DEN d   1      -1.900  -0.059   0.244  0.00  0.00     0.027 A 
ATOM      5  C5  DEN d   1      -1.891  -1.392   0.592  0.00  0.00    -0.003 A 
ATOM      6  C6  DEN d   1      -0.817  -2.205   0.340  0.00  0.00     0.001 A 
ATOM      7  C7  DEN d   1       0.310  -1.681  -0.235  0.00  0.00     0.017 A 
ATOM      8  C8  DEN d   1       0.305  -0.340  -0.595  0.00  0.00    -0.094 A 
ATOM      9  C9  DEN d   1      -0.785   0.468  -0.322  0.00  0.00    -0.072 A 
ENDROOT
TORSDOF 0
ENDMDL
