MODEL 1
REMARK minimizedAffinity -2.48951554
REMARK minimizedRMSD -1
REMARK  0 active torsions:
REMARK  status: ('A' for Active; 'I' for Inactive)
ROOT
ATOM      1  C1  DEN d   1      -1.930   0.430   3.271  0.00  0.00     0.130 A 
ATOM      2  C2  DEN d   1      -2.345   1.759   3.712  0.00  0.00    -0.031 A 
ATOM      3  C3  DEN d   1      -2.192   2.687   2.574  0.00  0.00     0.027 A 
ATOM      4  C4  DEN d   1      -1.363   2.197   0.181  0.00  0.00     0.027 A 
ATOM      5  C5  DEN d   1      -0.887   1.219  -0.663  0.00  0.00    -0.003 A 
ATOM      6  C6  DEN d   1      -0.694  -0.073  -0.250  0.00  0.00     0.001 A 
ATOM      7  C7  DEN d   1      -1.022  -0.431   1.031  0.00  0.00     0.017 A 
ATOM      8  C8  DEN d   1      -1.496   0.551   1.890  0.00  0.00    -0.094 A 
ATOM      9  C9  DEN d   1      -1.695   1.848   1.450  0.00  0.00    -0.072 A 
ENDROOT
TORSDOF 0
ENDMDL
