MODEL 1
REMARK minimizedAffinity -1.95561862
REMARK minimizedRMSD -1
REMARK  1 active torsions:
REMARK  status: ('A' for Active; 'I' for Inactive)
REMARK    1  A    between atoms: C1_2  and  C2_3 
ROOT
ATOM      1  C2  UNL d   1       0.572   4.701  -0.604  0.00  0.00    -0.073 A 
ATOM      2  C3  UNL d   1       1.462   4.580   0.470  0.00  0.00    -0.002 A 
ATOM      3  C4  UNL d   1       1.570   3.374   1.164  0.00  0.00     0.004 A 
ATOM      4  C5  UNL d   1       0.797   2.276   0.788  0.00  0.00    -0.004 A 
ATOM      5  C6  UNL d   1      -0.089   2.373  -0.290  0.00  0.00    -0.075 A 
ATOM      6  C7  UNL d   1      -0.930   1.202  -0.706  0.00  0.00     0.076 C 
ATOM      7  C8  UNL d   1      -0.195   3.588  -0.980  0.00  0.00     0.001 A 
ENDROOT
BRANCH   1   8
ATOM      8  C1  UNL d   1       0.456   5.999  -1.360  0.00  0.00     0.053 C 
ATOM      9  C   UNL d   1       0.850   5.845  -2.820  0.00  0.00     0.018 C 
ENDBRANCH   1   8
TORSDOF 1
ENDMDL
