MODEL 1
REMARK minimizedAffinity -1.76328015
REMARK minimizedRMSD -1
REMARK  1 active torsions:
REMARK  status: ('A' for Active; 'I' for Inactive)
REMARK    1  A    between atoms: C1_2  and  C2_3 
ROOT
ATOM      1  C2  UNL d   1       2.750  -3.718  -0.980  0.00  0.00    -0.073 A 
ATOM      2  C3  UNL d   1       2.346  -2.381  -1.067  0.00  0.00    -0.002 A 
ATOM      3  C4  UNL d   1       3.111  -1.459  -1.783  0.00  0.00     0.004 A 
ATOM      4  C5  UNL d   1       4.282  -1.865  -2.423  0.00  0.00    -0.004 A 
ATOM      5  C6  UNL d   1       4.696  -3.199  -2.357  0.00  0.00    -0.075 A 
ATOM      6  C7  UNL d   1       5.954  -3.652  -3.038  0.00  0.00     0.076 C 
ATOM      7  C8  UNL d   1       3.923  -4.119  -1.634  0.00  0.00     0.001 A 
ENDROOT
BRANCH   1   8
ATOM      8  C1  UNL d   1       1.923  -4.719  -0.214  0.00  0.00     0.053 C 
ATOM      9  C   UNL d   1       0.475  -4.736  -0.677  0.00  0.00     0.018 C 
ENDBRANCH   1   8
TORSDOF 1
ENDMDL
