MODEL 1
REMARK minimizedAffinity 6.39416027
REMARK minimizedRMSD -1
REMARK  1 active torsions:
REMARK  status: ('A' for Active; 'I' for Inactive)
REMARK    1  A    between atoms: C1_2  and  C2_3 
ROOT
ATOM      1  C2  UNL d   1       3.366  -5.148  -2.427  0.00  0.00    -0.073 A 
ATOM      2  C3  UNL d   1       2.185  -5.328  -1.698  0.00  0.00    -0.002 A 
ATOM      3  C4  UNL d   1       1.961  -4.600  -0.528  0.00  0.00     0.004 A 
ATOM      4  C5  UNL d   1       2.910  -3.682  -0.080  0.00  0.00    -0.004 A 
ATOM      5  C6  UNL d   1       4.091  -3.479  -0.801  0.00  0.00    -0.075 A 
ATOM      6  C7  UNL d   1       5.123  -2.497  -0.330  0.00  0.00     0.076 C 
ATOM      7  C8  UNL d   1       4.310  -4.215  -1.973  0.00  0.00     0.001 A 
ENDROOT
BRANCH   1   8
ATOM      8  C1  UNL d   1       3.610  -5.926  -3.694  0.00  0.00     0.053 C 
ATOM      9  C   UNL d   1       5.052  -5.813  -4.163  0.00  0.00     0.018 C 
ENDBRANCH   1   8
TORSDOF 1
ENDMDL
