MODEL 1
REMARK minimizedAffinity -1.83492541
REMARK minimizedRMSD -1
REMARK  1 active torsions:
REMARK  status: ('A' for Active; 'I' for Inactive)
REMARK    1  A    between atoms: C1_2  and  C2_3 
ROOT
ATOM      1  C2  UNL d   1       4.287  -3.470  -1.326  0.00  0.00    -0.073 A 
ATOM      2  C3  UNL d   1       4.771  -4.085  -2.486  0.00  0.00    -0.002 A 
ATOM      3  C4  UNL d   1       4.043  -5.105  -3.100  0.00  0.00     0.004 A 
ATOM      4  C5  UNL d   1       2.823  -5.516  -2.564  0.00  0.00    -0.004 A 
ATOM      5  C6  UNL d   1       2.316  -4.905  -1.412  0.00  0.00    -0.075 A 
ATOM      6  C7  UNL d   1       1.006  -5.337  -0.823  0.00  0.00     0.076 C 
ATOM      7  C8  UNL d   1       3.055  -3.883  -0.801  0.00  0.00     0.001 A 
ENDROOT
BRANCH   1   8
ATOM      8  C1  UNL d   1       5.067  -2.363  -0.664  0.00  0.00     0.053 C 
ATOM      9  C   UNL d   1       4.164  -1.408   0.100  0.00  0.00     0.018 C 
ENDBRANCH   1   8
TORSDOF 1
ENDMDL
