MODEL 1
REMARK minimizedAffinity 0.804026783
REMARK minimizedRMSD -1
REMARK  0 active torsions:
REMARK  status: ('A' for Active; 'I' for Inactive)
ROOT
ATOM      1  C   UNL d   1       2.405  -1.306   2.890  0.00  0.00     0.172 C 
ATOM      2  N   UNL d   1       2.613  -0.032   2.244  0.00  0.00    -0.070 N 
ATOM      3  C1  UNL d   1       2.652   0.180   0.891  0.00  0.00    -0.004 A 
ATOM      4  C2  UNL d   1       2.868   1.524   0.681  0.00  0.00    -0.047 A 
ATOM      5  C3  UNL d   1       2.964   2.142   1.950  0.00  0.00    -0.047 A 
ATOM      6  C4  UNL d   1       2.802   1.155   2.900  0.00  0.00    -0.004 A 
ENDROOT
TORSDOF 0
ENDMDL
