MODEL 1
REMARK minimizedAffinity 1.98743927
REMARK minimizedRMSD -1
REMARK  0 active torsions:
REMARK  status: ('A' for Active; 'I' for Inactive)
ROOT
ATOM      1  C   UNL d   1       1.894  -1.303   3.157  0.00  0.00     0.172 C 
ATOM      2  N   UNL d   1       2.306  -2.327   4.088  0.00  0.00    -0.070 N 
ATOM      3  C1  UNL d   1       2.748  -3.579   3.754  0.00  0.00    -0.004 A 
ATOM      4  C2  UNL d   1       3.042  -4.249   4.922  0.00  0.00    -0.047 A 
ATOM      5  C3  UNL d   1       2.765  -3.370   5.995  0.00  0.00    -0.047 A 
ATOM      6  C4  UNL d   1       2.311  -2.187   5.451  0.00  0.00    -0.004 A 
ENDROOT
TORSDOF 0
ENDMDL
