MODEL 1
REMARK minimizedAffinity -1.19537604
REMARK minimizedRMSD -1
REMARK  0 active torsions:
REMARK  status: ('A' for Active; 'I' for Inactive)
ROOT
ATOM      1  C   UNL d   1       0.217  -1.845   0.546  0.00  0.00     0.172 C 
ATOM      2  N   UNL d   1       1.091  -1.944   1.691  0.00  0.00    -0.070 N 
ATOM      3  C1  UNL d   1       2.044  -1.028   2.049  0.00  0.00    -0.004 A 
ATOM      4  C2  UNL d   1       2.660  -1.485   3.194  0.00  0.00    -0.047 A 
ATOM      5  C3  UNL d   1       2.057  -2.719   3.535  0.00  0.00    -0.047 A 
ATOM      6  C4  UNL d   1       1.089  -2.979   2.588  0.00  0.00    -0.004 A 
ENDROOT
TORSDOF 0
ENDMDL
