MODEL 1
REMARK minimizedAffinity 2.17256808
REMARK minimizedRMSD -1
REMARK  0 active torsions:
REMARK  status: ('A' for Active; 'I' for Inactive)
ROOT
ATOM      1  C   UNL d   1       2.292   0.916   1.968  0.00  0.00     0.172 C 
ATOM      2  N   UNL d   1       2.200  -0.398   2.560  0.00  0.00    -0.070 N 
ATOM      3  C1  UNL d   1       1.626  -0.691   3.768  0.00  0.00    -0.004 A 
ATOM      4  C2  UNL d   1       1.741  -2.049   3.972  0.00  0.00    -0.047 A 
ATOM      5  C3  UNL d   1       2.407  -2.591   2.847  0.00  0.00    -0.047 A 
ATOM      6  C4  UNL d   1       2.680  -1.547   1.989  0.00  0.00    -0.004 A 
ENDROOT
TORSDOF 0
ENDMDL
