MODEL 1
REMARK minimizedAffinity -0.139708087
REMARK minimizedRMSD -1
REMARK  0 active torsions:
REMARK  status: ('A' for Active; 'I' for Inactive)
ROOT
ATOM      1  C   UNL d   1      -6.000   3.142  -1.142  0.00  0.00     0.172 C 
ATOM      2  N   UNL d   1      -5.534   2.812  -2.469  0.00  0.00    -0.070 N 
ATOM      3  C1  UNL d   1      -4.567   1.890  -2.768  0.00  0.00    -0.004 A 
ATOM      4  C2  UNL d   1      -4.413   1.870  -4.138  0.00  0.00    -0.047 A 
ATOM      5  C3  UNL d   1      -5.319   2.813  -4.680  0.00  0.00    -0.047 A 
ATOM      6  C4  UNL d   1      -6.000   3.381  -3.624  0.00  0.00    -0.004 A 
ENDROOT
TORSDOF 0
ENDMDL
