MODEL 1
REMARK minimizedAffinity 1.10193741
REMARK minimizedRMSD -1
REMARK  0 active torsions:
REMARK  status: ('A' for Active; 'I' for Inactive)
ROOT
ATOM      1  C   UNL d   1       2.610  -1.710   3.710  0.00  0.00     0.172 C 
ATOM      2  N   UNL d   1       2.227  -0.869   2.600  0.00  0.00    -0.070 N 
ATOM      3  C1  UNL d   1       1.039  -0.935   1.922  0.00  0.00    -0.004 A 
ATOM      4  C2  UNL d   1       1.061   0.030   0.938  0.00  0.00    -0.047 A 
ATOM      5  C3  UNL d   1       2.305   0.698   1.028  0.00  0.00    -0.047 A 
ATOM      6  C4  UNL d   1       3.007   0.121   2.066  0.00  0.00    -0.004 A 
ENDROOT
TORSDOF 0
ENDMDL
