MODEL 1
REMARK minimizedAffinity 3.06782198
REMARK minimizedRMSD -1
REMARK  0 active torsions:
REMARK  status: ('A' for Active; 'I' for Inactive)
ROOT
ATOM      1  C   UNL d   1       2.823   1.267   1.530  0.00  0.00     0.172 C 
ATOM      2  N   UNL d   1       2.386   0.025   2.123  0.00  0.00    -0.070 N 
ATOM      3  C1  UNL d   1       1.291  -0.701   1.739  0.00  0.00    -0.004 A 
ATOM      4  C2  UNL d   1       1.218  -1.815   2.548  0.00  0.00    -0.047 A 
ATOM      5  C3  UNL d   1       2.307  -1.755   3.449  0.00  0.00    -0.047 A 
ATOM      6  C4  UNL d   1       3.014  -0.606   3.164  0.00  0.00    -0.004 A 
ENDROOT
TORSDOF 0
ENDMDL
