MODEL 1
REMARK minimizedAffinity 2.69620347
REMARK minimizedRMSD -1
REMARK  0 active torsions:
REMARK  status: ('A' for Active; 'I' for Inactive)
ROOT
ATOM      1  C   UNL d   1       1.807  -0.906   2.343  0.00  0.00     0.172 C 
ATOM      2  N   UNL d   1       1.905   0.382   1.698  0.00  0.00    -0.070 N 
ATOM      3  C1  UNL d   1       0.990   1.396   1.796  0.00  0.00    -0.004 A 
ATOM      4  C2  UNL d   1       1.447   2.452   1.037  0.00  0.00    -0.047 A 
ATOM      5  C3  UNL d   1       2.679   2.059   0.463  0.00  0.00    -0.047 A 
ATOM      6  C4  UNL d   1       2.939   0.774   0.888  0.00  0.00    -0.004 A 
ENDROOT
TORSDOF 0
ENDMDL
