MODEL 1
REMARK minimizedAffinity -1.70621037
REMARK minimizedRMSD -1
REMARK  0 active torsions:
REMARK  status: ('A' for Active; 'I' for Inactive)
ROOT
ATOM      1  O1  BZF d   1       2.078  -2.623   1.032  0.00  0.00    -0.204 OA
ATOM      2  C2  BZF d   1       1.731  -1.292   0.901  0.00  0.00     0.174 A 
ATOM      3  C3  BZF d   1       0.686  -0.989   1.697  0.00  0.00    -0.012 A 
ATOM      4  C3A BZF d   1       0.417  -2.184   2.436  0.00  0.00    -0.107 A 
ATOM      5  C4  BZF d   1      -0.496  -2.507   3.399  0.00  0.00     0.055 A 
ATOM      6  C5  BZF d   1      -0.542  -3.783   3.864  0.00  0.00    -0.016 A 
ATOM      7  C6  BZF d   1       0.306  -4.761   3.387  0.00  0.00     0.022 A 
ATOM      8  C7  BZF d   1       1.232  -4.487   2.436  0.00  0.00     0.029 A 
ATOM      9  C7A BZF d   1       1.303  -3.191   1.987  0.00  0.00     0.058 A 
ENDROOT
TORSDOF 0
ENDMDL
