MODEL 1
REMARK minimizedAffinity -2.67244291
REMARK minimizedRMSD -1
REMARK  0 active torsions:
REMARK  status: ('A' for Active; 'I' for Inactive)
ROOT
ATOM      1  O1  BZF d   1      -0.057  -0.339   3.155  0.00  0.00    -0.204 OA
ATOM      2  C2  BZF d   1       1.284  -0.016   3.239  0.00  0.00     0.174 A 
ATOM      3  C3  BZF d   1       1.821   0.117   2.009  0.00  0.00    -0.012 A 
ATOM      4  C3A BZF d   1       0.728  -0.047   1.101  0.00  0.00    -0.107 A 
ATOM      5  C4  BZF d   1       0.624  -0.008  -0.261  0.00  0.00     0.055 A 
ATOM      6  C5  BZF d   1      -0.574  -0.283  -0.840  0.00  0.00    -0.016 A 
ATOM      7  C6  BZF d   1      -1.686  -0.605  -0.090  0.00  0.00     0.022 A 
ATOM      8  C7  BZF d   1      -1.633  -0.651   1.264  0.00  0.00     0.029 A 
ATOM      9  C7A BZF d   1      -0.432  -0.342   1.853  0.00  0.00     0.058 A 
ENDROOT
TORSDOF 0
ENDMDL
