MODEL 1
REMARK minimizedAffinity -3.80477953
REMARK minimizedRMSD -1
REMARK  0 active torsions:
REMARK  status: ('A' for Active; 'I' for Inactive)
ROOT
ATOM      1  O1  BZF d   1      -1.717  -0.959   0.529  0.00  0.00    -0.204 OA
ATOM      2  C2  BZF d   1      -1.525  -0.529  -0.770  0.00  0.00     0.174 A 
ATOM      3  C3  BZF d   1      -0.267  -0.075  -0.942  0.00  0.00    -0.012 A 
ATOM      4  C3A BZF d   1       0.394  -0.316   0.303  0.00  0.00    -0.107 A 
ATOM      5  C4  BZF d   1       1.666  -0.096   0.749  0.00  0.00     0.055 A 
ATOM      6  C5  BZF d   1       1.971  -0.379   2.043  0.00  0.00    -0.016 A 
ATOM      7  C6  BZF d   1       1.028  -0.876   2.919  0.00  0.00     0.022 A 
ATOM      8  C7  BZF d   1      -0.245  -1.116   2.521  0.00  0.00     0.029 A 
ATOM      9  C7A BZF d   1      -0.547  -0.863   1.205  0.00  0.00     0.058 A 
ENDROOT
TORSDOF 0
ENDMDL
