MODEL 1
REMARK minimizedAffinity -0.298302919
REMARK minimizedRMSD -1
REMARK  0 active torsions:
REMARK  status: ('A' for Active; 'I' for Inactive)
ROOT
ATOM      1  O1  BZF d   1      -1.769  -1.385   1.468  0.00  0.00    -0.204 OA
ATOM      2  C2  BZF d   1      -2.088  -0.663   0.334  0.00  0.00     0.174 A 
ATOM      3  C3  BZF d   1      -1.035   0.073  -0.077  0.00  0.00    -0.012 A 
ATOM      4  C3A BZF d   1       0.036  -0.278   0.805  0.00  0.00    -0.107 A 
ATOM      5  C4  BZF d   1       1.343   0.107   0.894  0.00  0.00     0.055 A 
ATOM      6  C5  BZF d   1       2.104  -0.368   1.915  0.00  0.00    -0.016 A 
ATOM      7  C6  BZF d   1       1.589  -1.225   2.866  0.00  0.00     0.022 A 
ATOM      8  C7  BZF d   1       0.300  -1.639   2.816  0.00  0.00     0.029 A 
ATOM      9  C7A BZF d   1      -0.462  -1.187   1.767  0.00  0.00     0.058 A 
ENDROOT
TORSDOF 0
ENDMDL
