MODEL 1
REMARK minimizedAffinity -3.6790061
REMARK minimizedRMSD -1
REMARK  0 active torsions:
REMARK  status: ('A' for Active; 'I' for Inactive)
ROOT
ATOM      1  O1  BZF d   1       1.591   0.791  -0.263  0.00  0.00    -0.204 OA
ATOM      2  C2  BZF d   1       0.458   1.113  -0.985  0.00  0.00     0.174 A 
ATOM      3  C3  BZF d   1      -0.639   0.569  -0.420  0.00  0.00    -0.012 A 
ATOM      4  C3A BZF d   1      -0.173  -0.060   0.778  0.00  0.00    -0.107 A 
ATOM      5  C4  BZF d   1      -0.794  -0.755   1.776  0.00  0.00     0.055 A 
ATOM      6  C5  BZF d   1      -0.042  -1.301   2.767  0.00  0.00    -0.016 A 
ATOM      7  C6  BZF d   1       1.331  -1.175   2.790  0.00  0.00     0.022 A 
ATOM      8  C7  BZF d   1       1.992  -0.490   1.824  0.00  0.00     0.029 A 
ATOM      9  C7A BZF d   1       1.231   0.091   0.839  0.00  0.00     0.058 A 
ENDROOT
TORSDOF 0
ENDMDL
