MODEL 1
REMARK minimizedAffinity 0.510145545
REMARK minimizedRMSD -1
REMARK  0 active torsions:
REMARK  status: ('A' for Active; 'I' for Inactive)
ROOT
ATOM      1  O1  BZF d   1      -1.218  -2.594   2.415  0.00  0.00    -0.204 OA
ATOM      2  C2  BZF d   1      -1.670  -3.785   2.951  0.00  0.00     0.174 A 
ATOM      3  C3  BZF d   1      -0.658  -4.666   3.082  0.00  0.00    -0.012 A 
ATOM      4  C3A BZF d   1       0.517  -3.952   2.684  0.00  0.00    -0.107 A 
ATOM      5  C4  BZF d   1       1.839  -4.285   2.612  0.00  0.00     0.055 A 
ATOM      6  C5  BZF d   1       2.722  -3.380   2.112  0.00  0.00    -0.016 A 
ATOM      7  C6  BZF d   1       2.316  -2.137   1.671  0.00  0.00     0.022 A 
ATOM      8  C7  BZF d   1       1.016  -1.760   1.728  0.00  0.00     0.029 A 
ATOM      9  C7A BZF d   1       0.127  -2.659   2.263  0.00  0.00     0.058 A 
ENDROOT
TORSDOF 0
ENDMDL
