MODEL 1
REMARK minimizedAffinity -2.70178437
REMARK minimizedRMSD -1
REMARK  0 active torsions:
REMARK  status: ('A' for Active; 'I' for Inactive)
ROOT
ATOM      1  O1  BZF d   1       0.430  -1.222  -0.796  0.00  0.00    -0.204 OA
ATOM      2  C2  BZF d   1       1.764  -1.409  -1.103  0.00  0.00     0.174 A 
ATOM      3  C3  BZF d   1       2.545  -1.114  -0.044  0.00  0.00    -0.012 A 
ATOM      4  C3A BZF d   1       1.637  -0.806   1.018  0.00  0.00    -0.107 A 
ATOM      5  C4  BZF d   1       1.808  -0.452   2.326  0.00  0.00     0.055 A 
ATOM      6  C5  BZF d   1       0.717  -0.149   3.076  0.00  0.00    -0.016 A 
ATOM      7  C6  BZF d   1      -0.558  -0.185   2.551  0.00  0.00     0.022 A 
ATOM      8  C7  BZF d   1      -0.778  -0.536   1.260  0.00  0.00     0.029 A 
ATOM      9  C7A BZF d   1       0.320  -0.875   0.509  0.00  0.00     0.058 A 
ENDROOT
TORSDOF 0
ENDMDL
