MODEL 1
REMARK minimizedAffinity -1.57686877
REMARK minimizedRMSD -1
REMARK  0 active torsions:
REMARK  status: ('A' for Active; 'I' for Inactive)
ROOT
ATOM      1  O1  BZF d   1      -3.136   4.185  -3.085  0.00  0.00    -0.204 OA
ATOM      2  C2  BZF d   1      -4.141   3.414  -2.532  0.00  0.00     0.174 A 
ATOM      3  C3  BZF d   1      -3.629   2.319  -1.934  0.00  0.00    -0.012 A 
ATOM      4  C3A BZF d   1      -2.210   2.458  -2.044  0.00  0.00    -0.107 A 
ATOM      5  C4  BZF d   1      -1.156   1.696  -1.627  0.00  0.00     0.055 A 
ATOM      6  C5  BZF d   1       0.106   2.076  -1.959  0.00  0.00    -0.016 A 
ATOM      7  C6  BZF d   1       0.350   3.207  -2.710  0.00  0.00     0.022 A 
ATOM      8  C7  BZF d   1      -0.662   3.997  -3.142  0.00  0.00     0.029 A 
ATOM      9  C7A BZF d   1      -1.937   3.635  -2.781  0.00  0.00     0.058 A 
ENDROOT
TORSDOF 0
ENDMDL
