MODEL 1
REMARK minimizedAffinity 8.45630932
REMARK minimizedRMSD -1
REMARK  1 active torsions:
REMARK  status: ('A' for Active; 'I' for Inactive)
REMARK    1  A    between atoms: C1_2  and  C2_3 
ROOT
ATOM      1  C2  UNL d   1      -4.574   5.833   4.035  0.00  0.00    -0.081 A 
ATOM      2  C3  UNL d   1      -3.274   5.801   3.517  0.00  0.00     0.006 A 
ATOM      3  C4  UNL d   1      -3.061   5.806   2.136  0.00  0.00     0.002 A 
ATOM      4  C5  UNL d   1      -4.143   5.850   1.252  0.00  0.00    -0.080 A 
ATOM      5  C6  UNL d   1      -3.928   5.887  -0.232  0.00  0.00     0.076 C 
ATOM      6  C7  UNL d   1      -5.443   5.865   1.768  0.00  0.00     0.002 A 
ATOM      7  C8  UNL d   1      -5.657   5.859   3.149  0.00  0.00     0.006 A 
ENDROOT
BRANCH   1   8
ATOM      8  C1  UNL d   1      -4.805   5.893   5.523  0.00  0.00     0.054 C 
ATOM      9  C   UNL d   1      -5.914   4.942   5.950  0.00  0.00     0.018 C 
ENDBRANCH   1   8
TORSDOF 1
ENDMDL
