MODEL 1
REMARK minimizedAffinity 13.6244965
REMARK minimizedRMSD -1
REMARK  1 active torsions:
REMARK  status: ('A' for Active; 'I' for Inactive)
REMARK    1  A    between atoms: C1_2  and  C2_3 
ROOT
ATOM      1  C2  UNL d   1       2.446   2.353   1.419  0.00  0.00    -0.081 A 
ATOM      2  C3  UNL d   1       3.113   2.283   0.189  0.00  0.00     0.006 A 
ATOM      3  C4  UNL d   1       3.096   1.103  -0.559  0.00  0.00     0.002 A 
ATOM      4  C5  UNL d   1       2.407  -0.022  -0.095  0.00  0.00    -0.080 A 
ATOM      5  C6  UNL d   1       2.356  -1.285  -0.902  0.00  0.00     0.076 C 
ATOM      6  C7  UNL d   1       1.756   0.042   1.142  0.00  0.00     0.002 A 
ATOM      7  C8  UNL d   1       1.773   1.221   1.891  0.00  0.00     0.006 A 
ENDROOT
BRANCH   1   8
ATOM      8  C1  UNL d   1       2.408   3.643   2.198  0.00  0.00     0.054 C 
ATOM      9  C   UNL d   1       1.526   3.518   3.432  0.00  0.00     0.018 C 
ENDBRANCH   1   8
TORSDOF 1
ENDMDL
