MODEL 1
REMARK minimizedAffinity 1.83416378
REMARK minimizedRMSD -1
REMARK  1 active torsions:
REMARK  status: ('A' for Active; 'I' for Inactive)
REMARK    1  A    between atoms: C1_2  and  C2_3 
ROOT
ATOM      1  C2  UNL d   1      -4.905   5.625   4.038  0.00  0.00    -0.081 A 
ATOM      2  C3  UNL d   1      -5.998   5.317   3.220  0.00  0.00     0.006 A 
ATOM      3  C4  UNL d   1      -5.851   5.266   1.831  0.00  0.00     0.002 A 
ATOM      4  C5  UNL d   1      -4.608   5.515   1.239  0.00  0.00    -0.080 A 
ATOM      5  C6  UNL d   1      -4.430   5.434  -0.248  0.00  0.00     0.076 C 
ATOM      6  C7  UNL d   1      -3.520   5.840   2.056  0.00  0.00     0.002 A 
ATOM      7  C8  UNL d   1      -3.667   5.892   3.444  0.00  0.00     0.006 A 
ENDROOT
BRANCH   1   8
ATOM      8  C1  UNL d   1      -5.045   5.617   5.539  0.00  0.00     0.054 C 
ATOM      9  C   UNL d   1      -5.999   4.525   6.000  0.00  0.00     0.018 C 
ENDBRANCH   1   8
TORSDOF 1
ENDMDL
