MODEL 1
REMARK minimizedAffinity -0.647841811
REMARK minimizedRMSD -1
REMARK  1 active torsions:
REMARK  status: ('A' for Active; 'I' for Inactive)
REMARK    1  A    between atoms: C1_2  and  C2_3 
ROOT
ATOM      1  C2  UNL d   1      -3.525   5.908   2.463  0.00  0.00    -0.081 A 
ATOM      2  C3  UNL d   1      -2.939   5.961   3.734  0.00  0.00     0.006 A 
ATOM      3  C4  UNL d   1      -3.737   5.998   4.880  0.00  0.00     0.002 A 
ATOM      4  C5  UNL d   1      -5.132   5.975   4.775  0.00  0.00    -0.080 A 
ATOM      5  C6  UNL d   1      -6.000   5.983   5.998  0.00  0.00     0.076 C 
ATOM      6  C7  UNL d   1      -5.717   5.940   3.505  0.00  0.00     0.002 A 
ATOM      7  C8  UNL d   1      -4.920   5.904   2.359  0.00  0.00     0.006 A 
ENDROOT
BRANCH   1   8
ATOM      8  C1  UNL d   1      -2.667   5.803   1.228  0.00  0.00     0.054 C 
ATOM      9  C   UNL d   1      -3.065   4.605   0.378  0.00  0.00     0.018 C 
ENDBRANCH   1   8
TORSDOF 1
ENDMDL
