MODEL 1
REMARK minimizedAffinity 0.686317027
REMARK minimizedRMSD -1
REMARK  1 active torsions:
REMARK  status: ('A' for Active; 'I' for Inactive)
REMARK    1  A    between atoms: C1_2  and  C2_3 
ROOT
ATOM      1  C2  UNL d   1      -3.972   5.937   2.057  0.00  0.00    -0.081 A 
ATOM      2  C3  UNL d   1      -5.362   5.869   2.211  0.00  0.00     0.006 A 
ATOM      3  C4  UNL d   1      -5.935   5.872   3.486  0.00  0.00     0.002 A 
ATOM      4  C5  UNL d   1      -5.128   5.949   4.626  0.00  0.00    -0.080 A 
ATOM      5  C6  UNL d   1      -5.731   5.983   5.999  0.00  0.00     0.076 C 
ATOM      6  C7  UNL d   1      -3.738   5.999   4.473  0.00  0.00     0.002 A 
ATOM      7  C8  UNL d   1      -3.165   5.996   3.199  0.00  0.00     0.006 A 
ENDROOT
BRANCH   1   8
ATOM      8  C1  UNL d   1      -3.356   6.000   0.683  0.00  0.00     0.054 C 
ATOM      9  C   UNL d   1      -4.288   5.417  -0.369  0.00  0.00     0.018 C 
ENDBRANCH   1   8
TORSDOF 1
ENDMDL
