MODEL 1
REMARK minimizedAffinity 5.65149403
REMARK minimizedRMSD -1
REMARK  1 active torsions:
REMARK  status: ('A' for Active; 'I' for Inactive)
REMARK    1  A    between atoms: C1_2  and  C2_3 
ROOT
ATOM      1  C2  UNL d   1       2.753  -1.333  -0.589  0.00  0.00    -0.081 A 
ATOM      2  C3  UNL d   1       1.626  -0.695  -0.056  0.00  0.00     0.006 A 
ATOM      3  C4  UNL d   1       1.684   0.650   0.317  0.00  0.00     0.002 A 
ATOM      4  C5  UNL d   1       2.866   1.381   0.156  0.00  0.00    -0.080 A 
ATOM      5  C6  UNL d   1       2.932   2.834   0.524  0.00  0.00     0.076 C 
ATOM      6  C7  UNL d   1       3.996   0.740  -0.361  0.00  0.00     0.002 A 
ATOM      7  C8  UNL d   1       3.939  -0.605  -0.734  0.00  0.00     0.006 A 
ENDROOT
BRANCH   1   8
ATOM      8  C1  UNL d   1       2.676  -2.765  -1.053  0.00  0.00     0.054 C 
ATOM      9  C   UNL d   1       3.069  -2.895  -2.517  0.00  0.00     0.018 C 
ENDBRANCH   1   8
TORSDOF 1
ENDMDL
