MODEL 1
REMARK minimizedAffinity 12.3607073
REMARK minimizedRMSD -1
REMARK  1 active torsions:
REMARK  status: ('A' for Active; 'I' for Inactive)
REMARK    1  A    between atoms: C1_2  and  C2_3 
ROOT
ATOM      1  C2  UNL d   1       2.699   0.338  -0.001  0.00  0.00    -0.081 A 
ATOM      2  C3  UNL d   1       3.956   0.577  -0.569  0.00  0.00     0.006 A 
ATOM      3  C4  UNL d   1       4.476   1.872  -0.619  0.00  0.00     0.002 A 
ATOM      4  C5  UNL d   1       3.752   2.949  -0.095  0.00  0.00    -0.080 A 
ATOM      5  C6  UNL d   1       4.313   4.340  -0.116  0.00  0.00     0.076 C 
ATOM      6  C7  UNL d   1       2.489   2.713   0.457  0.00  0.00     0.002 A 
ATOM      7  C8  UNL d   1       1.968   1.418   0.507  0.00  0.00     0.006 A 
ENDROOT
BRANCH   1   8
ATOM      8  C1  UNL d   1       2.163  -1.066   0.113  0.00  0.00     0.054 C 
ATOM      9  C   UNL d   1       2.610  -1.725   1.410  0.00  0.00     0.018 C 
ENDBRANCH   1   8
TORSDOF 1
ENDMDL
