MODEL 1
REMARK minimizedAffinity 8.98112011
REMARK minimizedRMSD -1
REMARK  1 active torsions:
REMARK  status: ('A' for Active; 'I' for Inactive)
REMARK    1  A    between atoms: C1_2  and  C2_3 
ROOT
ATOM      1  C2  UNL d   1      -4.733   3.423   0.876  0.00  0.00    -0.081 A 
ATOM      2  C3  UNL d   1      -5.255   2.876   2.055  0.00  0.00     0.006 A 
ATOM      3  C4  UNL d   1      -5.652   3.706   3.106  0.00  0.00     0.002 A 
ATOM      4  C5  UNL d   1      -5.542   5.096   2.994  0.00  0.00    -0.080 A 
ATOM      5  C6  UNL d   1      -5.993   5.999   4.103  0.00  0.00     0.076 C 
ATOM      6  C7  UNL d   1      -5.005   5.642   1.823  0.00  0.00     0.002 A 
ATOM      7  C8  UNL d   1      -4.607   4.813   0.772  0.00  0.00     0.006 A 
ENDROOT
BRANCH   1   8
ATOM      8  C1  UNL d   1      -4.365   2.535  -0.284  0.00  0.00     0.054 C 
ATOM      9  C   UNL d   1      -4.803   1.098  -0.042  0.00  0.00     0.018 C 
ENDBRANCH   1   8
TORSDOF 1
ENDMDL
