MODEL 1
REMARK minimizedAffinity 0.502333045
REMARK minimizedRMSD -1
REMARK  1 active torsions:
REMARK  status: ('A' for Active; 'I' for Inactive)
REMARK    1  A    between atoms: C1_2  and  C2_3 
ROOT
ATOM      1  C2  UNL d   1      -4.107   5.978   1.800  0.00  0.00    -0.081 A 
ATOM      2  C3  UNL d   1      -3.095   5.999   2.768  0.00  0.00     0.006 A 
ATOM      3  C4  UNL d   1      -3.413   5.963   4.127  0.00  0.00     0.002 A 
ATOM      4  C5  UNL d   1      -4.748   5.896   4.542  0.00  0.00    -0.080 A 
ATOM      5  C6  UNL d   1      -5.102   5.826   5.998  0.00  0.00     0.076 C 
ATOM      6  C7  UNL d   1      -5.760   5.892   3.576  0.00  0.00     0.002 A 
ATOM      7  C8  UNL d   1      -5.442   5.929   2.217  0.00  0.00     0.006 A 
ENDROOT
BRANCH   1   8
ATOM      8  C1  UNL d   1      -3.765   5.952   0.333  0.00  0.00     0.054 C 
ATOM      9  C   UNL d   1      -4.540   4.864  -0.397  0.00  0.00     0.018 C 
ENDBRANCH   1   8
TORSDOF 1
ENDMDL
