MODEL 1
REMARK minimizedAffinity -2.10275602
REMARK minimizedRMSD -1
REMARK  0 active torsions:
REMARK  status: ('A' for Active; 'I' for Inactive)
ROOT
ATOM      1  O1  BZF d   1      -1.009   2.602  -1.019  0.00  0.00    -0.204 OA
ATOM      2  C2  BZF d   1      -0.442   3.562  -1.834  0.00  0.00     0.174 A 
ATOM      3  C3  BZF d   1       0.388   4.359  -1.130  0.00  0.00    -0.012 A 
ATOM      4  C3A BZF d   1       0.406   3.809   0.191  0.00  0.00    -0.107 A 
ATOM      5  C4  BZF d   1       1.058   4.150   1.341  0.00  0.00     0.055 A 
ATOM      6  C5  BZF d   1       0.802   3.451   2.478  0.00  0.00    -0.016 A 
ATOM      7  C6  BZF d   1      -0.103   2.410   2.502  0.00  0.00     0.022 A 
ATOM      8  C7  BZF d   1      -0.770   2.032   1.385  0.00  0.00     0.029 A 
ATOM      9  C7A BZF d   1      -0.489   2.715   0.227  0.00  0.00     0.058 A 
ENDROOT
TORSDOF 0
ENDMDL
