MODEL 1
REMARK minimizedAffinity -0.13951996
REMARK minimizedRMSD -1
REMARK  0 active torsions:
REMARK  status: ('A' for Active; 'I' for Inactive)
ROOT
ATOM      1  O1  BZF d   1      -1.006   1.518   0.004  0.00  0.00    -0.204 OA
ATOM      2  C2  BZF d   1      -0.924   1.571   1.382  0.00  0.00     0.174 A 
ATOM      3  C3  BZF d   1      -0.376   2.736   1.784  0.00  0.00    -0.012 A 
ATOM      4  C3A BZF d   1      -0.184   3.494   0.586  0.00  0.00    -0.107 A 
ATOM      5  C4  BZF d   1       0.310   4.743   0.335  0.00  0.00     0.055 A 
ATOM      6  C5  BZF d   1       0.430   5.158  -0.954  0.00  0.00    -0.016 A 
ATOM      7  C6  BZF d   1       0.073   4.350  -2.013  0.00  0.00     0.022 A 
ATOM      8  C7  BZF d   1      -0.426   3.106  -1.813  0.00  0.00     0.029 A 
ATOM      9  C7A BZF d   1      -0.580   2.696  -0.511  0.00  0.00     0.058 A 
ENDROOT
TORSDOF 0
ENDMDL
