MODEL 1
REMARK minimizedAffinity 0.166686043
REMARK minimizedRMSD -1
REMARK  0 active torsions:
REMARK  status: ('A' for Active; 'I' for Inactive)
ROOT
ATOM      1  O1  BZF d   1      -0.097   4.713   2.107  0.00  0.00    -0.204 OA
ATOM      2  C2  BZF d   1       0.071   3.556   2.844  0.00  0.00     0.174 A 
ATOM      3  C3  BZF d   1       0.125   2.478   2.036  0.00  0.00    -0.012 A 
ATOM      4  C3A BZF d   1       0.075   3.002   0.705  0.00  0.00    -0.107 A 
ATOM      5  C4  BZF d   1       0.107   2.426  -0.532  0.00  0.00     0.055 A 
ATOM      6  C5  BZF d   1      -0.035   3.213  -1.631  0.00  0.00    -0.016 A 
ATOM      7  C6  BZF d   1      -0.218   4.576  -1.529  0.00  0.00     0.022 A 
ATOM      8  C7  BZF d   1      -0.252   5.194  -0.323  0.00  0.00     0.029 A 
ATOM      9  C7A BZF d   1      -0.075   4.405   0.788  0.00  0.00     0.058 A 
ENDROOT
TORSDOF 0
ENDMDL
