MODEL 1
REMARK minimizedAffinity 0.747258067
REMARK minimizedRMSD -1
REMARK  0 active torsions:
REMARK  status: ('A' for Active; 'I' for Inactive)
ROOT
ATOM      1  O1  BZF d   1       1.337   4.396  -0.115  0.00  0.00    -0.204 OA
ATOM      2  C2  BZF d   1       0.638   4.117  -1.273  0.00  0.00     0.174 A 
ATOM      3  C3  BZF d   1      -0.285   3.158  -1.055  0.00  0.00    -0.012 A 
ATOM      4  C3A BZF d   1      -0.218   2.883   0.347  0.00  0.00    -0.107 A 
ATOM      5  C4  BZF d   1      -0.900   2.034   1.171  0.00  0.00     0.055 A 
ATOM      6  C5  BZF d   1      -0.541   1.953   2.480  0.00  0.00    -0.016 A 
ATOM      7  C6  BZF d   1       0.496   2.702   2.996  0.00  0.00     0.022 A 
ATOM      8  C7  BZF d   1       1.199   3.562   2.218  0.00  0.00     0.029 A 
ATOM      9  C7A BZF d   1       0.817   3.670   0.903  0.00  0.00     0.058 A 
ENDROOT
TORSDOF 0
ENDMDL
