MODEL 1
REMARK minimizedAffinity -2.12049723
REMARK minimizedRMSD -1
REMARK  0 active torsions:
REMARK  status: ('A' for Active; 'I' for Inactive)
ROOT
ATOM      1  O1  BZF d   1      -1.147   2.418  -0.579  0.00  0.00    -0.204 OA
ATOM      2  C2  BZF d   1      -0.352   3.202  -1.393  0.00  0.00     0.174 A 
ATOM      3  C3  BZF d   1       0.576   3.857  -0.668  0.00  0.00    -0.012 A 
ATOM      4  C3A BZF d   1       0.407   3.387   0.673  0.00  0.00    -0.107 A 
ATOM      5  C4  BZF d   1       1.046   3.655   1.850  0.00  0.00     0.055 A 
ATOM      6  C5  BZF d   1       0.589   3.084   2.995  0.00  0.00    -0.016 A 
ATOM      7  C6  BZF d   1      -0.506   2.244   3.000  0.00  0.00     0.022 A 
ATOM      8  C7  BZF d   1      -1.168   1.943   1.857  0.00  0.00     0.029 A 
ATOM      9  C7A BZF d   1      -0.689   2.493   0.693  0.00  0.00     0.058 A 
ENDROOT
TORSDOF 0
ENDMDL
