MODEL 1
REMARK minimizedAffinity 13.0043592
REMARK minimizedRMSD -1
REMARK  0 active torsions:
REMARK  status: ('A' for Active; 'I' for Inactive)
ROOT
ATOM      1  O1  BZF d   1       4.490  -2.613  -5.939  0.00  0.00    -0.204 OA
ATOM      2  C2  BZF d   1       3.174  -2.194  -5.998  0.00  0.00     0.174 A 
ATOM      3  C3  BZF d   1       2.512  -2.539  -4.874  0.00  0.00    -0.012 A 
ATOM      4  C3A BZF d   1       3.497  -3.133  -4.024  0.00  0.00    -0.107 A 
ATOM      5  C4  BZF d   1       3.456  -3.660  -2.765  0.00  0.00     0.055 A 
ATOM      6  C5  BZF d   1       4.578  -4.227  -2.249  0.00  0.00    -0.016 A 
ATOM      7  C6  BZF d   1       5.756  -4.289  -2.965  0.00  0.00     0.022 A 
ATOM      8  C7  BZF d   1       5.847  -3.775  -4.216  0.00  0.00     0.029 A 
ATOM      9  C7A BZF d   1       4.723  -3.172  -4.728  0.00  0.00     0.058 A 
ENDROOT
TORSDOF 0
ENDMDL
