MODEL 1
REMARK minimizedAffinity 12.5390701
REMARK minimizedRMSD -1
REMARK  0 active torsions:
REMARK  status: ('A' for Active; 'I' for Inactive)
ROOT
ATOM      1  O1  BZF d   1       0.459   2.370   1.720  0.00  0.00    -0.204 OA
ATOM      2  C2  BZF d   1      -0.294   1.214   1.642  0.00  0.00     0.174 A 
ATOM      3  C3  BZF d   1      -0.862   1.094   0.425  0.00  0.00    -0.012 A 
ATOM      4  C3A BZF d   1      -0.364   2.201  -0.333  0.00  0.00    -0.107 A 
ATOM      5  C4  BZF d   1      -0.554   2.619  -1.620  0.00  0.00     0.055 A 
ATOM      6  C5  BZF d   1       0.020   3.781  -2.028  0.00  0.00    -0.016 A 
ATOM      7  C6  BZF d   1       0.784   4.552  -1.176  0.00  0.00     0.022 A 
ATOM      8  C7  BZF d   1       1.004   4.176   0.107  0.00  0.00     0.029 A 
ATOM      9  C7A BZF d   1       0.453   2.985   0.513  0.00  0.00     0.058 A 
ENDROOT
TORSDOF 0
ENDMDL
