MODEL 1
REMARK minimizedAffinity 3.00460553
REMARK minimizedRMSD -1
REMARK  0 active torsions:
REMARK  status: ('A' for Active; 'I' for Inactive)
ROOT
ATOM      1  O1  BZF d   1      -3.767  -2.170   3.759  0.00  0.00    -0.204 OA
ATOM      2  C2  BZF d   1      -3.380  -1.570   4.942  0.00  0.00     0.174 A 
ATOM      3  C3  BZF d   1      -3.933  -2.197   6.000  0.00  0.00    -0.012 A 
ATOM      4  C3A BZF d   1      -4.639  -3.313   5.449  0.00  0.00    -0.107 A 
ATOM      5  C4  BZF d   1      -5.378  -4.321   6.000  0.00  0.00     0.055 A 
ATOM      6  C5  BZF d   1      -5.995  -5.211   5.179  0.00  0.00    -0.016 A 
ATOM      7  C6  BZF d   1      -5.900  -5.120   3.806  0.00  0.00     0.022 A 
ATOM      8  C7  BZF d   1      -5.174  -4.141   3.214  0.00  0.00     0.029 A 
ATOM      9  C7A BZF d   1      -4.522  -3.259   4.041  0.00  0.00     0.058 A 
ENDROOT
TORSDOF 0
ENDMDL
