MODEL 1
REMARK minimizedAffinity 9.97166157
REMARK minimizedRMSD -1
REMARK  0 active torsions:
REMARK  status: ('A' for Active; 'I' for Inactive)
ROOT
ATOM      1  O1  BZF d   1      -5.138  -2.093   5.999  0.00  0.00    -0.204 OA
ATOM      2  C2  BZF d   1      -5.987  -3.178   5.897  0.00  0.00     0.174 A 
ATOM      3  C3  BZF d   1      -5.426  -4.157   5.160  0.00  0.00    -0.012 A 
ATOM      4  C3A BZF d   1      -4.108  -3.690   4.854  0.00  0.00    -0.107 A 
ATOM      5  C4  BZF d   1      -3.060  -4.224   4.161  0.00  0.00     0.055 A 
ATOM      6  C5  BZF d   1      -1.937  -3.479   3.983  0.00  0.00    -0.016 A 
ATOM      7  C6  BZF d   1      -1.831  -2.196   4.479  0.00  0.00     0.022 A 
ATOM      8  C7  BZF d   1      -2.843  -1.625   5.177  0.00  0.00     0.029 A 
ATOM      9  C7A BZF d   1      -3.966  -2.388   5.387  0.00  0.00     0.058 A 
ENDROOT
TORSDOF 0
ENDMDL
