MODEL 1
REMARK minimizedAffinity 7.53580427
REMARK minimizedRMSD -1
REMARK  0 active torsions:
REMARK  status: ('A' for Active; 'I' for Inactive)
ROOT
ATOM      1  O1  BZF d   1      -1.343   1.211   1.071  0.00  0.00    -0.204 OA
ATOM      2  C2  BZF d   1      -1.101   1.549   2.388  0.00  0.00     0.174 A 
ATOM      3  C3  BZF d   1      -0.445   2.725   2.468  0.00  0.00    -0.012 A 
ATOM      4  C3A BZF d   1      -0.347   3.193   1.119  0.00  0.00    -0.107 A 
ATOM      5  C4  BZF d   1       0.185   4.315   0.551  0.00  0.00     0.055 A 
ATOM      6  C5  BZF d   1       0.182   4.435  -0.803  0.00  0.00    -0.016 A 
ATOM      7  C6  BZF d   1      -0.340   3.452  -1.617  0.00  0.00     0.022 A 
ATOM      8  C7  BZF d   1      -0.884   2.324  -1.100  0.00  0.00     0.029 A 
ATOM      9  C7A BZF d   1      -0.912   2.214   0.269  0.00  0.00     0.058 A 
ENDROOT
TORSDOF 0
ENDMDL
