MODEL 1
REMARK minimizedAffinity 17.7734833
REMARK minimizedRMSD -1
REMARK  0 active torsions:
REMARK  status: ('A' for Active; 'I' for Inactive)
ROOT
ATOM      1  O1  BZF d   1      -2.414  -3.551   4.041  0.00  0.00    -0.204 OA
ATOM      2  C2  BZF d   1      -2.082  -2.302   4.529  0.00  0.00     0.174 A 
ATOM      3  C3  BZF d   1      -3.074  -1.811   5.300  0.00  0.00    -0.012 A 
ATOM      4  C3A BZF d   1      -4.050  -2.855   5.368  0.00  0.00    -0.107 A 
ATOM      5  C4  BZF d   1      -5.255  -2.973   6.000  0.00  0.00     0.055 A 
ATOM      6  C5  BZF d   1      -5.995  -4.096   5.805  0.00  0.00    -0.016 A 
ATOM      7  C6  BZF d   1      -5.564  -5.116   4.982  0.00  0.00     0.022 A 
ATOM      8  C7  BZF d   1      -4.373  -5.046   4.339  0.00  0.00     0.029 A 
ATOM      9  C7A BZF d   1      -3.608  -3.927   4.560  0.00  0.00     0.058 A 
ENDROOT
TORSDOF 0
ENDMDL
