MODEL 1
REMARK minimizedAffinity 1.84519684
REMARK minimizedRMSD -1
REMARK  0 active torsions:
REMARK  status: ('A' for Active; 'I' for Inactive)
ROOT
ATOM      1  O1  BZF d   1       0.971   2.588   1.445  0.00  0.00    -0.204 OA
ATOM      2  C2  BZF d   1       0.344   3.200   0.377  0.00  0.00     0.174 A 
ATOM      3  C3  BZF d   1      -0.981   2.951   0.394  0.00  0.00    -0.012 A 
ATOM      4  C3A BZF d   1      -1.209   2.210   1.596  0.00  0.00    -0.107 A 
ATOM      5  C4  BZF d   1      -2.328   1.686   2.178  0.00  0.00     0.055 A 
ATOM      6  C5  BZF d   1      -2.200   0.953   3.315  0.00  0.00    -0.016 A 
ATOM      7  C6  BZF d   1      -0.970   0.720   3.894  0.00  0.00     0.022 A 
ATOM      8  C7  BZF d   1       0.168   1.223   3.356  0.00  0.00     0.029 A 
ATOM      9  C7A BZF d   1       0.038   1.991   2.225  0.00  0.00     0.058 A 
ENDROOT
TORSDOF 0
ENDMDL
