MODEL 1
REMARK minimizedAffinity 14.7795897
REMARK minimizedRMSD -1
REMARK  0 active torsions:
REMARK  status: ('A' for Active; 'I' for Inactive)
ROOT
ATOM      1  O1  BZF d   1      -3.204   3.857   0.975  0.00  0.00    -0.204 OA
ATOM      2  C2  BZF d   1      -3.560   5.177   1.177  0.00  0.00     0.174 A 
ATOM      3  C3  BZF d   1      -2.523   5.998   0.917  0.00  0.00    -0.012 A 
ATOM      4  C3A BZF d   1      -1.478   5.145   0.439  0.00  0.00    -0.107 A 
ATOM      5  C4  BZF d   1      -0.204   5.374   0.004  0.00  0.00     0.055 A 
ATOM      6  C5  BZF d   1       0.582   4.315  -0.324  0.00  0.00    -0.016 A 
ATOM      7  C6  BZF d   1       0.129   3.016  -0.224  0.00  0.00     0.022 A 
ATOM      8  C7  BZF d   1      -1.129   2.739   0.198  0.00  0.00     0.029 A 
ATOM      9  C7A BZF d   1      -1.937   3.808   0.499  0.00  0.00     0.058 A 
ENDROOT
TORSDOF 0
ENDMDL
