MODEL 1
REMARK minimizedAffinity -2.53723502
REMARK minimizedRMSD -1
REMARK  0 active torsions:
REMARK  status: ('A' for Active; 'I' for Inactive)
ROOT
ATOM      1  O1  BZF d   1      -5.971  -3.818   4.786  0.00  0.00    -0.204 OA
ATOM      2  C2  BZF d   1      -5.938  -4.568   3.626  0.00  0.00     0.174 A 
ATOM      3  C3  BZF d   1      -4.727  -4.487   3.039  0.00  0.00    -0.012 A 
ATOM      4  C3A BZF d   1      -3.927  -3.707   3.932  0.00  0.00    -0.107 A 
ATOM      5  C4  BZF d   1      -2.626  -3.293   3.908  0.00  0.00     0.055 A 
ATOM      6  C5  BZF d   1      -2.173  -2.481   4.900  0.00  0.00    -0.016 A 
ATOM      7  C6  BZF d   1      -2.994  -2.061   5.925  0.00  0.00     0.022 A 
ATOM      8  C7  BZF d   1      -4.290  -2.449   5.994  0.00  0.00     0.029 A 
ATOM      9  C7A BZF d   1      -4.742  -3.296   5.012  0.00  0.00     0.058 A 
ENDROOT
TORSDOF 0
ENDMDL
