MODEL 1
REMARK minimizedAffinity -3.59395933
REMARK minimizedRMSD -1
REMARK  0 active torsions:
REMARK  status: ('A' for Active; 'I' for Inactive)
ROOT
ATOM      1  O1  BZF d   1      -4.129  -1.410   0.061  0.00  0.00    -0.204 OA
ATOM      2  C2  BZF d   1      -5.088  -2.394   0.205  0.00  0.00     0.174 A 
ATOM      3  C3  BZF d   1      -5.999  -2.321  -0.787  0.00  0.00    -0.012 A 
ATOM      4  C3A BZF d   1      -5.532  -1.282  -1.653  0.00  0.00    -0.107 A 
ATOM      5  C4  BZF d   1      -6.000  -0.752  -2.821  0.00  0.00     0.055 A 
ATOM      6  C5  BZF d   1      -5.348   0.304  -3.375  0.00  0.00    -0.016 A 
ATOM      7  C6  BZF d   1      -4.229   0.857  -2.786  0.00  0.00     0.022 A 
ATOM      8  C7  BZF d   1      -3.725   0.361  -1.630  0.00  0.00     0.029 A 
ATOM      9  C7A BZF d   1      -4.362  -0.727  -1.085  0.00  0.00     0.058 A 
ENDROOT
TORSDOF 0
ENDMDL
