MODEL 1
REMARK minimizedAffinity 1.04491901
REMARK minimizedRMSD -1
REMARK  0 active torsions:
REMARK  status: ('A' for Active; 'I' for Inactive)
ROOT
ATOM      1  O1  BZF d   1       0.676   3.556   1.540  0.00  0.00    -0.204 OA
ATOM      2  C2  BZF d   1       0.429   3.345   0.197  0.00  0.00     0.174 A 
ATOM      3  C3  BZF d   1      -0.359   2.265   0.020  0.00  0.00    -0.012 A 
ATOM      4  C3A BZF d   1      -0.696   1.825   1.339  0.00  0.00    -0.107 A 
ATOM      5  C4  BZF d   1      -1.466   0.805   1.819  0.00  0.00     0.055 A 
ATOM      6  C5  BZF d   1      -1.531   0.603   3.162  0.00  0.00    -0.016 A 
ATOM      7  C6  BZF d   1      -0.836   1.397   4.050  0.00  0.00     0.022 A 
ATOM      8  C7  BZF d   1      -0.063   2.424   3.621  0.00  0.00     0.029 A 
ATOM      9  C7A BZF d   1      -0.022   2.651   2.267  0.00  0.00     0.058 A 
ENDROOT
TORSDOF 0
ENDMDL
