MODEL 1
REMARK minimizedAffinity 3.67628932
REMARK minimizedRMSD -1
REMARK  0 active torsions:
REMARK  status: ('A' for Active; 'I' for Inactive)
ROOT
ATOM      1  O1  BZF d   1       0.537   3.540   0.157  0.00  0.00    -0.204 OA
ATOM      2  C2  BZF d   1       0.120   2.922  -1.006  0.00  0.00     0.174 A 
ATOM      3  C3  BZF d   1      -0.569   1.796  -0.729  0.00  0.00    -0.012 A 
ATOM      4  C3A BZF d   1      -0.662   1.754   0.698  0.00  0.00    -0.107 A 
ATOM      5  C4  BZF d   1      -1.243   0.884   1.576  0.00  0.00     0.055 A 
ATOM      6  C5  BZF d   1      -1.090   1.090   2.910  0.00  0.00    -0.016 A 
ATOM      7  C6  BZF d   1      -0.359   2.152   3.401  0.00  0.00     0.022 A 
ATOM      8  C7  BZF d   1       0.232   3.044   2.570  0.00  0.00     0.029 A 
ATOM      9  C7A BZF d   1       0.051   2.857   1.221  0.00  0.00     0.058 A 
ENDROOT
TORSDOF 0
ENDMDL
