MODEL 1
REMARK minimizedAffinity -4.2155838
REMARK minimizedRMSD -1
REMARK  1 active torsions:
REMARK  status: ('A' for Active; 'I' for Inactive)
REMARK    1  A    between atoms: N_2  and  C1_3 
ROOT
ATOM      1  C1  UNL d   1       0.421  -1.465   0.448  0.00  0.00     0.143 A 
ATOM      2  C2  UNL d   1      -0.666  -0.726   0.926  0.00  0.00    -0.057 A 
ATOM      3  C3  UNL d   1      -0.859   0.608   0.548  0.00  0.00     0.033 A 
ATOM      4  C4  UNL d   1       0.051   1.237  -0.295  0.00  0.00    -0.042 A 
ATOM      5  C5  UNL d   1       1.153   0.530  -0.762  0.00  0.00     0.033 A 
ATOM      6  C6  UNL d   1       1.337  -0.805  -0.386  0.00  0.00    -0.057 A 
ENDROOT
BRANCH   1   7
ATOM      7  N   UNL d   1       0.722  -2.765   0.865  0.00  0.00    -0.732 N 
ATOM      8  C   UNL d   1       1.967  -3.051   1.544  0.00  0.00     0.284 C 
ATOM      9  H3  UNL d   1      -0.086  -3.243   1.257  0.00  0.00     0.395 HD
ENDBRANCH   1   7
TORSDOF 1
ENDMDL
