MODEL 1
REMARK minimizedAffinity -2.65204525
REMARK minimizedRMSD -1
REMARK  1 active torsions:
REMARK  status: ('A' for Active; 'I' for Inactive)
REMARK    1  A    between atoms: N_2  and  C1_3 
ROOT
ATOM      1  C1  UNL d   1       0.819  -1.517   0.316  0.00  0.00     0.143 A 
ATOM      2  C2  UNL d   1       0.625  -1.144  -1.019  0.00  0.00    -0.057 A 
ATOM      3  C3  UNL d   1      -0.209  -0.072  -1.359  0.00  0.00     0.033 A 
ATOM      4  C4  UNL d   1      -0.888   0.630  -0.369  0.00  0.00    -0.042 A 
ATOM      5  C5  UNL d   1      -0.730   0.261   0.962  0.00  0.00     0.033 A 
ATOM      6  C6  UNL d   1       0.110  -0.806   1.296  0.00  0.00    -0.057 A 
ENDROOT
BRANCH   1   7
ATOM      7  N   UNL d   1       1.557  -2.635   0.711  0.00  0.00    -0.732 N 
ATOM      8  C   UNL d   1       1.707  -2.961   2.113  0.00  0.00     0.284 C 
ATOM      9  H3  UNL d   1       1.393  -3.441   0.112  0.00  0.00     0.395 HD
ENDBRANCH   1   7
TORSDOF 1
ENDMDL
