MODEL 1
REMARK minimizedAffinity -2.08809376
REMARK minimizedRMSD -1
REMARK  1 active torsions:
REMARK  status: ('A' for Active; 'I' for Inactive)
REMARK    1  A    between atoms: N_2  and  C1_3 
ROOT
ATOM      1  C1  UNL d   1      -1.273   1.167  -1.407  0.00  0.00     0.143 A 
ATOM      2  C2  UNL d   1      -1.031   2.247  -2.263  0.00  0.00    -0.057 A 
ATOM      3  C3  UNL d   1      -1.659   2.339  -3.511  0.00  0.00     0.033 A 
ATOM      4  C4  UNL d   1      -2.520   1.334  -3.939  0.00  0.00    -0.042 A 
ATOM      5  C5  UNL d   1      -2.756   0.239  -3.115  0.00  0.00     0.033 A 
ATOM      6  C6  UNL d   1      -2.131   0.156  -1.867  0.00  0.00    -0.057 A 
ENDROOT
BRANCH   1   7
ATOM      7  N   UNL d   1      -0.604   0.970  -0.196  0.00  0.00    -0.732 N 
ATOM      8  C   UNL d   1       0.441  -0.026  -0.085  0.00  0.00     0.284 C 
ATOM      9  H3  UNL d   1      -0.397   1.844   0.280  0.00  0.00     0.395 HD
ENDBRANCH   1   7
TORSDOF 1
ENDMDL
