MODEL 1
REMARK minimizedAffinity -2.93130946
REMARK minimizedRMSD -1
REMARK  1 active torsions:
REMARK  status: ('A' for Active; 'I' for Inactive)
REMARK    1  A    between atoms: N_2  and  C1_3 
ROOT
ATOM      1  C1  UNL d   1       0.182  -0.695  -0.161  0.00  0.00     0.143 A 
ATOM      2  C2  UNL d   1       1.448  -0.441  -0.699  0.00  0.00    -0.057 A 
ATOM      3  C3  UNL d   1       2.569  -1.180  -0.300  0.00  0.00     0.033 A 
ATOM      4  C4  UNL d   1       2.447  -2.170   0.669  0.00  0.00    -0.042 A 
ATOM      5  C5  UNL d   1       1.203  -2.424   1.235  0.00  0.00     0.033 A 
ATOM      6  C6  UNL d   1       0.086  -1.687   0.828  0.00  0.00    -0.057 A 
ENDROOT
BRANCH   1   7
ATOM      7  N   UNL d   1      -0.951   0.071  -0.445  0.00  0.00    -0.732 N 
ATOM      8  C   UNL d   1      -1.560   0.028  -1.757  0.00  0.00     0.284 C 
ATOM      9  H3  UNL d   1      -1.619   0.076   0.323  0.00  0.00     0.395 HD
ENDBRANCH   1   7
TORSDOF 1
ENDMDL
