MODEL 1
REMARK minimizedAffinity -2.95046663
REMARK minimizedRMSD -1
REMARK  1 active torsions:
REMARK  status: ('A' for Active; 'I' for Inactive)
REMARK    1  A    between atoms: N_2  and  C1_3 
ROOT
ATOM      1  C1  UNL d   1       0.679  -0.704   0.366  0.00  0.00     0.143 A 
ATOM      2  C2  UNL d   1       2.019  -1.087   0.255  0.00  0.00    -0.057 A 
ATOM      3  C3  UNL d   1       2.529  -2.166   0.987  0.00  0.00     0.033 A 
ATOM      4  C4  UNL d   1       1.711  -2.865   1.869  0.00  0.00    -0.042 A 
ATOM      5  C5  UNL d   1       0.381  -2.486   2.014  0.00  0.00     0.033 A 
ATOM      6  C6  UNL d   1      -0.124  -1.411   1.275  0.00  0.00    -0.057 A 
ENDROOT
BRANCH   1   7
ATOM      7  N   UNL d   1       0.137   0.421  -0.260  0.00  0.00    -0.732 N 
ATOM      8  C   UNL d   1      -0.320   1.551   0.520  0.00  0.00     0.284 C 
ATOM      9  H3  UNL d   1       0.643   0.676  -1.105  0.00  0.00     0.395 HD
ENDBRANCH   1   7
TORSDOF 1
ENDMDL
