MODEL 1
REMARK minimizedAffinity -4.08727932
REMARK minimizedRMSD -1
REMARK  1 active torsions:
REMARK  status: ('A' for Active; 'I' for Inactive)
REMARK    1  A    between atoms: N_2  and  C1_3 
ROOT
ATOM      1  C1  UNL d   1       0.015  -0.991   0.633  0.00  0.00     0.143 A 
ATOM      2  C2  UNL d   1      -0.762  -1.057   1.794  0.00  0.00    -0.057 A 
ATOM      3  C3  UNL d   1      -1.502   0.046   2.237  0.00  0.00     0.033 A 
ATOM      4  C4  UNL d   1      -1.454   1.248   1.540  0.00  0.00    -0.042 A 
ATOM      5  C5  UNL d   1      -0.668   1.345   0.397  0.00  0.00     0.033 A 
ATOM      6  C6  UNL d   1       0.063   0.238  -0.044  0.00  0.00    -0.057 A 
ENDROOT
BRANCH   1   7
ATOM      7  N   UNL d   1       0.850  -2.022   0.195  0.00  0.00    -0.732 N 
ATOM      8  C   UNL d   1       1.835  -2.600   1.084  0.00  0.00     0.284 C 
ATOM      9  H3  UNL d   1       0.358  -2.702  -0.380  0.00  0.00     0.395 HD
ENDBRANCH   1   7
TORSDOF 1
ENDMDL
