MODEL 1
REMARK minimizedAffinity -4.67752934
REMARK minimizedRMSD -1
REMARK  1 active torsions:
REMARK  status: ('A' for Active; 'I' for Inactive)
REMARK    1  A    between atoms: N_2  and  C1_3 
ROOT
ATOM      1  C1  UNL d   1      -0.139  -0.166  -0.828  0.00  0.00     0.143 A 
ATOM      2  C2  UNL d   1      -0.568   0.824   0.062  0.00  0.00    -0.057 A 
ATOM      3  C3  UNL d   1      -1.627   1.682  -0.261  0.00  0.00     0.033 A 
ATOM      4  C4  UNL d   1      -2.257   1.583  -1.497  0.00  0.00    -0.042 A 
ATOM      5  C5  UNL d   1      -1.830   0.622  -2.408  0.00  0.00     0.033 A 
ATOM      6  C6  UNL d   1      -0.777  -0.236  -2.076  0.00  0.00    -0.057 A 
ENDROOT
BRANCH   1   7
ATOM      7  N   UNL d   1       0.971  -0.984  -0.605  0.00  0.00    -0.732 N 
ATOM      8  C   UNL d   1       1.346  -1.367   0.739  0.00  0.00     0.284 C 
ATOM      9  H3  UNL d   1       1.043  -1.736  -1.286  0.00  0.00     0.395 HD
ENDBRANCH   1   7
TORSDOF 1
ENDMDL
