MODEL 1
REMARK minimizedAffinity -4.73405027
REMARK minimizedRMSD -1
REMARK  1 active torsions:
REMARK  status: ('A' for Active; 'I' for Inactive)
REMARK    1  A    between atoms: N_2  and  C1_3 
ROOT
ATOM      1  C1  UNL d   1       0.075  -0.846   0.273  0.00  0.00     0.143 A 
ATOM      2  C2  UNL d   1       1.347  -1.285  -0.111  0.00  0.00    -0.057 A 
ATOM      3  C3  UNL d   1       2.061  -2.209   0.662  0.00  0.00     0.033 A 
ATOM      4  C4  UNL d   1       1.525  -2.690   1.852  0.00  0.00    -0.042 A 
ATOM      5  C5  UNL d   1       0.274  -2.249   2.266  0.00  0.00     0.033 A 
ATOM      6  C6  UNL d   1      -0.437  -1.331   1.487  0.00  0.00    -0.057 A 
ENDROOT
BRANCH   1   7
ATOM      7  N   UNL d   1      -0.643   0.145  -0.401  0.00  0.00    -0.732 N 
ATOM      8  C   UNL d   1      -0.562   1.527   0.018  0.00  0.00     0.284 C 
ATOM      9  H3  UNL d   1      -0.631   0.015  -1.410  0.00  0.00     0.395 HD
ENDBRANCH   1   7
TORSDOF 1
ENDMDL
