MODEL 1
REMARK minimizedAffinity -4.90120554
REMARK minimizedRMSD -1
REMARK  1 active torsions:
REMARK  status: ('A' for Active; 'I' for Inactive)
REMARK    1  A    between atoms: N_2  and  C1_3 
ROOT
ATOM      1  C1  UNL d   1       0.457  -0.966   0.346  0.00  0.00     0.143 A 
ATOM      2  C2  UNL d   1       1.595  -1.757   0.543  0.00  0.00    -0.057 A 
ATOM      3  C3  UNL d   1       1.587  -2.827   1.445  0.00  0.00     0.033 A 
ATOM      4  C4  UNL d   1       0.447  -3.109   2.190  0.00  0.00    -0.042 A 
ATOM      5  C5  UNL d   1      -0.687  -2.321   2.029  0.00  0.00     0.033 A 
ATOM      6  C6  UNL d   1      -0.675  -1.257   1.122  0.00  0.00    -0.057 A 
ENDROOT
BRANCH   1   7
ATOM      7  N   UNL d   1       0.432   0.173  -0.463  0.00  0.00    -0.732 N 
ATOM      8  C   UNL d   1      -0.671   1.106  -0.388  0.00  0.00     0.284 C 
ATOM      9  H3  UNL d   1       1.346   0.614  -0.541  0.00  0.00     0.395 HD
ENDBRANCH   1   7
TORSDOF 1
ENDMDL
