MODEL 1
REMARK minimizedAffinity -2.84673762
REMARK minimizedRMSD -1
REMARK  1 active torsions:
REMARK  status: ('A' for Active; 'I' for Inactive)
REMARK    1  A    between atoms: N_2  and  C1_3 
ROOT
ATOM      1  C1  UNL d   1      -1.570   0.341  -1.988  0.00  0.00     0.143 A 
ATOM      2  C2  UNL d   1      -0.921  -0.837  -1.605  0.00  0.00    -0.057 A 
ATOM      3  C3  UNL d   1      -0.227  -0.923  -0.391  0.00  0.00     0.033 A 
ATOM      4  C4  UNL d   1      -0.146   0.182   0.450  0.00  0.00    -0.042 A 
ATOM      5  C5  UNL d   1      -0.762   1.371   0.077  0.00  0.00     0.033 A 
ATOM      6  C6  UNL d   1      -1.459   1.448  -1.132  0.00  0.00    -0.057 A 
ENDROOT
BRANCH   1   7
ATOM      7  N   UNL d   1      -2.192   0.519  -3.226  0.00  0.00    -0.732 N 
ATOM      8  C   UNL d   1      -2.463   1.848  -3.731  0.00  0.00     0.284 C 
ATOM      9  H3  UNL d   1      -1.849  -0.131  -3.930  0.00  0.00     0.395 HD
ENDBRANCH   1   7
TORSDOF 1
ENDMDL
