MODEL 1
REMARK minimizedAffinity 13.5425291
REMARK minimizedRMSD -1
REMARK  1 active torsions:
REMARK  status: ('A' for Active; 'I' for Inactive)
REMARK    1  A    between atoms: C1_2  and  C2_3 
ROOT
ATOM      1  C2  UNL d   1       3.134   0.775  -1.297  0.00  0.00    -0.076 A 
ATOM      2  C3  UNL d   1       4.442   0.398  -0.946  0.00  0.00     0.004 A 
ATOM      3  C4  UNL d   1       5.389   0.099  -1.923  0.00  0.00    -0.003 A 
ATOM      4  C5  UNL d   1       5.045   0.174  -3.268  0.00  0.00     0.000 A 
ATOM      5  C6  UNL d   1       3.757   0.564  -3.635  0.00  0.00     0.000 A 
ATOM      6  C7  UNL d   1       2.795   0.884  -2.662  0.00  0.00    -0.073 A 
ATOM      7  C8  UNL d   1       1.419   1.293  -3.115  0.00  0.00     0.078 C 
ENDROOT
BRANCH   1   8
ATOM      8  C1  UNL d   1       2.142   1.061  -0.193  0.00  0.00     0.053 C 
ATOM      9  C   UNL d   1       2.803   1.635   1.051  0.00  0.00     0.018 C 
ENDBRANCH   1   8
TORSDOF 1
ENDMDL
