MODEL 1
REMARK minimizedAffinity 15.7471018
REMARK minimizedRMSD -1
REMARK  1 active torsions:
REMARK  status: ('A' for Active; 'I' for Inactive)
REMARK    1  A    between atoms: C1_2  and  C2_3 
ROOT
ATOM      1  C2  UNL d   1      -3.435  -1.443  -2.066  0.00  0.00    -0.076 A 
ATOM      2  C3  UNL d   1      -3.704  -2.409  -3.051  0.00  0.00     0.004 A 
ATOM      3  C4  UNL d   1      -4.690  -2.198  -4.014  0.00  0.00    -0.003 A 
ATOM      4  C5  UNL d   1      -5.423  -1.016  -4.007  0.00  0.00     0.000 A 
ATOM      5  C6  UNL d   1      -5.157  -0.039  -3.048  0.00  0.00     0.000 A 
ATOM      6  C7  UNL d   1      -4.156  -0.230  -2.080  0.00  0.00    -0.073 A 
ATOM      7  C8  UNL d   1      -3.916   0.855  -1.066  0.00  0.00     0.078 C 
ENDROOT
BRANCH   1   8
ATOM      8  C1  UNL d   1      -2.373  -1.740  -1.032  0.00  0.00     0.053 C 
ATOM      9  C   UNL d   1      -0.987  -1.298  -1.477  0.00  0.00     0.018 C 
ENDBRANCH   1   8
TORSDOF 1
ENDMDL
