MODEL 1
REMARK minimizedAffinity 16.6261253
REMARK minimizedRMSD -1
REMARK  1 active torsions:
REMARK  status: ('A' for Active; 'I' for Inactive)
REMARK    1  A    between atoms: C1_2  and  C2_3 
ROOT
ATOM      1  C2  UNL d   1       1.029  -0.842   0.644  0.00  0.00    -0.076 A 
ATOM      2  C3  UNL d   1       2.011   0.099   0.999  0.00  0.00     0.004 A 
ATOM      3  C4  UNL d   1       2.375   1.122   0.125  0.00  0.00    -0.003 A 
ATOM      4  C5  UNL d   1       1.761   1.221  -1.118  0.00  0.00     0.000 A 
ATOM      5  C6  UNL d   1       0.772   0.308  -1.481  0.00  0.00     0.000 A 
ATOM      6  C7  UNL d   1       0.382  -0.720  -0.605  0.00  0.00    -0.073 A 
ATOM      7  C8  UNL d   1      -0.686  -1.681  -1.049  0.00  0.00     0.078 C 
ENDROOT
BRANCH   1   8
ATOM      8  C1  UNL d   1       0.695  -1.945   1.622  0.00  0.00     0.053 C 
ATOM      9  C   UNL d   1       1.914  -2.769   2.009  0.00  0.00     0.018 C 
ENDBRANCH   1   8
TORSDOF 1
ENDMDL
