MODEL 1
REMARK minimizedAffinity 11.2153854
REMARK minimizedRMSD -1
REMARK  1 active torsions:
REMARK  status: ('A' for Active; 'I' for Inactive)
REMARK    1  A    between atoms: C1_2  and  C2_3 
ROOT
ATOM      1  C2  UNL d   1       3.610  -3.558   5.274  0.00  0.00    -0.076 A 
ATOM      2  C3  UNL d   1       2.900  -4.770   5.231  0.00  0.00     0.004 A 
ATOM      3  C4  UNL d   1       3.519  -5.976   5.555  0.00  0.00    -0.003 A 
ATOM      4  C5  UNL d   1       4.859  -5.990   5.926  0.00  0.00     0.000 A 
ATOM      5  C6  UNL d   1       5.575  -4.795   5.991  0.00  0.00     0.000 A 
ATOM      6  C7  UNL d   1       4.961  -3.568   5.684  0.00  0.00    -0.073 A 
ATOM      7  C8  UNL d   1       5.782  -2.310   5.764  0.00  0.00     0.078 C 
ENDROOT
BRANCH   1   8
ATOM      8  C1  UNL d   1       2.893  -2.284   4.886  0.00  0.00     0.053 C 
ATOM      9  C   UNL d   1       2.243  -2.376   3.515  0.00  0.00     0.018 C 
ENDBRANCH   1   8
TORSDOF 1
ENDMDL
