MODEL 1
REMARK minimizedAffinity 11.8864765
REMARK minimizedRMSD -1
REMARK  1 active torsions:
REMARK  status: ('A' for Active; 'I' for Inactive)
REMARK    1  A    between atoms: C1_2  and  C2_3 
ROOT
ATOM      1  C2  UNL d   1      -3.923  -0.445  -3.191  0.00  0.00    -0.076 A 
ATOM      2  C3  UNL d   1      -3.429   0.654  -3.915  0.00  0.00     0.004 A 
ATOM      3  C4  UNL d   1      -3.337   0.615  -5.305  0.00  0.00    -0.003 A 
ATOM      4  C5  UNL d   1      -3.737  -0.525  -5.994  0.00  0.00     0.000 A 
ATOM      5  C6  UNL d   1      -4.245  -1.618  -5.294  0.00  0.00     0.000 A 
ATOM      6  C7  UNL d   1      -4.360  -1.589  -3.893  0.00  0.00    -0.073 A 
ATOM      7  C8  UNL d   1      -4.910  -2.798  -3.188  0.00  0.00     0.078 C 
ENDROOT
BRANCH   1   8
ATOM      8  C1  UNL d   1      -3.974  -0.355  -1.683  0.00  0.00     0.053 C 
ATOM      9  C   UNL d   1      -3.070  -1.374  -1.007  0.00  0.00     0.018 C 
ENDBRANCH   1   8
TORSDOF 1
ENDMDL
