MODEL 1
REMARK minimizedAffinity 15.6581106
REMARK minimizedRMSD -1
REMARK  1 active torsions:
REMARK  status: ('A' for Active; 'I' for Inactive)
REMARK    1  A    between atoms: C1_2  and  C2_3 
ROOT
ATOM      1  C2  UNL d   1       0.691  -0.958   0.425  0.00  0.00    -0.076 A 
ATOM      2  C3  UNL d   1       1.842  -0.160   0.546  0.00  0.00     0.004 A 
ATOM      3  C4  UNL d   1       2.193   0.748  -0.451  0.00  0.00    -0.003 A 
ATOM      4  C5  UNL d   1       1.399   0.873  -1.586  0.00  0.00     0.000 A 
ATOM      5  C6  UNL d   1       0.245   0.101  -1.714  0.00  0.00     0.000 A 
ATOM      6  C7  UNL d   1      -0.133  -0.807  -0.710  0.00  0.00    -0.073 A 
ATOM      7  C8  UNL d   1      -1.385  -1.618  -0.904  0.00  0.00     0.078 C 
ENDROOT
BRANCH   1   8
ATOM      8  C1  UNL d   1       0.375  -1.945   1.527  0.00  0.00     0.053 C 
ATOM      9  C   UNL d   1       1.604  -2.709   1.994  0.00  0.00     0.018 C 
ENDBRANCH   1   8
TORSDOF 1
ENDMDL
