MODEL 1
REMARK minimizedAffinity 13.2995148
REMARK minimizedRMSD -1
REMARK  1 active torsions:
REMARK  status: ('A' for Active; 'I' for Inactive)
REMARK    1  A    between atoms: C1_2  and  C2_3 
ROOT
ATOM      1  C2  UNL d   1       2.516  -0.873   0.933  0.00  0.00    -0.076 A 
ATOM      2  C3  UNL d   1       1.192  -1.323   1.076  0.00  0.00     0.004 A 
ATOM      3  C4  UNL d   1       0.918  -2.647   1.414  0.00  0.00    -0.003 A 
ATOM      4  C5  UNL d   1       1.962  -3.542   1.615  0.00  0.00     0.000 A 
ATOM      5  C6  UNL d   1       3.282  -3.109   1.494  0.00  0.00     0.000 A 
ATOM      6  C7  UNL d   1       3.577  -1.773   1.170  0.00  0.00    -0.073 A 
ATOM      7  C8  UNL d   1       5.018  -1.361   1.047  0.00  0.00     0.078 C 
ENDROOT
BRANCH   1   8
ATOM      8  C1  UNL d   1       2.752   0.568   0.539  0.00  0.00     0.053 C 
ATOM      9  C   UNL d   1       1.756   1.058  -0.501  0.00  0.00     0.018 C 
ENDBRANCH   1   8
TORSDOF 1
ENDMDL
