MODEL 1
REMARK minimizedAffinity 14.9495621
REMARK minimizedRMSD -1
REMARK  0 active torsions:
REMARK  status: ('A' for Active; 'I' for Inactive)
ROOT
ATOM      1  C   UNL d   1       2.602  -2.777   0.767  0.00  0.00     0.124 A 
ATOM      2  C1  UNL d   1       1.936  -3.974   0.543  0.00  0.00     0.062 A 
ATOM      3  C2  UNL d   1       0.608  -4.119   0.931  0.00  0.00     0.162 A 
ATOM      4  C3  UNL d   1      -0.065  -3.064   1.547  0.00  0.00    -0.034 A 
ATOM      5  C4  UNL d   1       0.612  -1.863   1.770  0.00  0.00     0.162 A 
ATOM      6  C5  UNL d   1       1.940  -1.723   1.380  0.00  0.00     0.062 A 
ATOM      7  F   UNL d   1       2.581  -0.566   1.598  0.00  0.00    -0.097 F 
ATOM      8  F1  UNL d   1      -0.005  -0.828   2.360  0.00  0.00    -0.096 F 
ATOM      9  I   UNL d   1      -2.052  -3.277   2.129  0.00  0.00    -0.060 I 
ATOM     10  F2  UNL d   1      -0.011  -5.287   0.702  0.00  0.00    -0.096 F 
ATOM     11  F3  UNL d   1       2.575  -4.994  -0.048  0.00  0.00    -0.097 F 
ATOM     12  F4  UNL d   1       3.881  -2.641   0.394  0.00  0.00    -0.092 F 
ENDROOT
TORSDOF 0
ENDMDL
