MODEL 1
REMARK minimizedAffinity 6.31127644
REMARK minimizedRMSD -1
REMARK  0 active torsions:
REMARK  status: ('A' for Active; 'I' for Inactive)
ROOT
ATOM      1  C   UNL d   1      -4.260   2.377   5.977  0.00  0.00     0.124 A 
ATOM      2  C1  UNL d   1      -4.677   3.701   5.983  0.00  0.00     0.062 A 
ATOM      3  C2  UNL d   1      -3.741   4.730   5.988  0.00  0.00     0.162 A 
ATOM      4  C3  UNL d   1      -2.376   4.440   5.988  0.00  0.00    -0.034 A 
ATOM      5  C4  UNL d   1      -1.964   3.107   5.983  0.00  0.00     0.162 A 
ATOM      6  C5  UNL d   1      -2.904   2.081   5.977  0.00  0.00     0.062 A 
ATOM      7  F   UNL d   1      -2.499   0.803   5.972  0.00  0.00    -0.097 F 
ATOM      8  F1  UNL d   1      -0.660   2.792   5.982  0.00  0.00    -0.096 F 
ATOM      9  I   UNL d   1      -0.973   5.977   5.996  0.00  0.00    -0.060 I 
ATOM     10  F2  UNL d   1      -4.173   6.000   5.994  0.00  0.00    -0.096 F 
ATOM     11  F3  UNL d   1      -5.987   3.989   5.983  0.00  0.00    -0.097 F 
ATOM     12  F4  UNL d   1      -5.163   1.388   5.973  0.00  0.00    -0.092 F 
ENDROOT
TORSDOF 0
ENDMDL
