MODEL 1
REMARK minimizedAffinity 24.8052635
REMARK minimizedRMSD -1
REMARK  0 active torsions:
REMARK  status: ('A' for Active; 'I' for Inactive)
ROOT
ATOM      1  C   UNL d   1       2.219  -2.024   0.869  0.00  0.00     0.124 A 
ATOM      2  C1  UNL d   1       1.591  -1.090   1.682  0.00  0.00     0.062 A 
ATOM      3  C2  UNL d   1       0.366  -1.387   2.271  0.00  0.00     0.162 A 
ATOM      4  C3  UNL d   1      -0.240  -2.624   2.052  0.00  0.00    -0.034 A 
ATOM      5  C4  UNL d   1       0.397  -3.558   1.233  0.00  0.00     0.162 A 
ATOM      6  C5  UNL d   1       1.622  -3.257   0.645  0.00  0.00     0.062 A 
ATOM      7  F   UNL d   1       2.227  -4.160  -0.139  0.00  0.00    -0.097 F 
ATOM      8  F1  UNL d   1      -0.157  -4.757   1.000  0.00  0.00    -0.096 F 
ATOM      9  I   UNL d   1      -2.072  -3.072   2.932  0.00  0.00    -0.060 I 
ATOM     10  F2  UNL d   1      -0.218  -0.466   3.052  0.00  0.00    -0.096 F 
ATOM     11  F3  UNL d   1       2.166   0.102   1.898  0.00  0.00    -0.097 F 
ATOM     12  F4  UNL d   1       3.398  -1.736   0.302  0.00  0.00    -0.092 F 
ENDROOT
TORSDOF 0
ENDMDL
