MODEL 1
REMARK minimizedAffinity 17.1877747
REMARK minimizedRMSD -1
REMARK  0 active torsions:
REMARK  status: ('A' for Active; 'I' for Inactive)
ROOT
ATOM      1  C   UNL d   1      -3.696   0.015  -2.071  0.00  0.00     0.124 A 
ATOM      2  C1  UNL d   1      -3.011   1.221  -2.114  0.00  0.00     0.062 A 
ATOM      3  C2  UNL d   1      -3.330   2.174  -3.077  0.00  0.00     0.162 A 
ATOM      4  C3  UNL d   1      -4.339   1.924  -4.007  0.00  0.00    -0.034 A 
ATOM      5  C4  UNL d   1      -5.023   0.708  -3.958  0.00  0.00     0.162 A 
ATOM      6  C5  UNL d   1      -4.701  -0.241  -2.993  0.00  0.00     0.062 A 
ATOM      7  F   UNL d   1      -5.364  -1.406  -2.954  0.00  0.00    -0.097 F 
ATOM      8  F1  UNL d   1      -6.000   0.436  -4.837  0.00  0.00    -0.096 F 
ATOM      9  I   UNL d   1      -4.819   3.346  -5.449  0.00  0.00    -0.060 I 
ATOM     10  F2  UNL d   1      -2.651   3.331  -3.094  0.00  0.00    -0.096 F 
ATOM     11  F3  UNL d   1      -2.039   1.470  -1.224  0.00  0.00    -0.097 F 
ATOM     12  F4  UNL d   1      -3.387  -0.900  -1.144  0.00  0.00    -0.092 F 
ENDROOT
TORSDOF 0
ENDMDL
