MODEL 1
REMARK minimizedAffinity 15.2917747
REMARK minimizedRMSD -1
REMARK  0 active torsions:
REMARK  status: ('A' for Active; 'I' for Inactive)
ROOT
ATOM      1  C   UNL d   1       3.473  -3.326   0.857  0.00  0.00     0.124 A 
ATOM      2  C1  UNL d   1       2.980  -2.094   1.265  0.00  0.00     0.062 A 
ATOM      3  C2  UNL d   1       1.628  -1.944   1.557  0.00  0.00     0.162 A 
ATOM      4  C3  UNL d   1       0.758  -3.029   1.443  0.00  0.00    -0.034 A 
ATOM      5  C4  UNL d   1       1.261  -4.264   1.031  0.00  0.00     0.162 A 
ATOM      6  C5  UNL d   1       2.614  -4.409   0.740  0.00  0.00     0.062 A 
ATOM      7  F   UNL d   1       3.089  -5.600   0.346  0.00  0.00    -0.097 F 
ATOM      8  F1  UNL d   1       0.453  -5.328   0.911  0.00  0.00    -0.096 F 
ATOM      9  I   UNL d   1      -1.265  -2.808   1.879  0.00  0.00    -0.060 I 
ATOM     10  F2  UNL d   1       1.179  -0.742   1.949  0.00  0.00    -0.096 F 
ATOM     11  F3  UNL d   1       3.808  -1.046   1.378  0.00  0.00    -0.097 F 
ATOM     12  F4  UNL d   1       4.775  -3.468   0.576  0.00  0.00    -0.092 F 
ENDROOT
TORSDOF 0
ENDMDL
