MODEL 1
REMARK minimizedAffinity 15.7911997
REMARK minimizedRMSD -1
REMARK  0 active torsions:
REMARK  status: ('A' for Active; 'I' for Inactive)
ROOT
ATOM      1  C   UNL d   1       4.468  -1.788   3.988  0.00  0.00     0.124 A 
ATOM      2  C1  UNL d   1       3.196  -1.296   4.246  0.00  0.00     0.062 A 
ATOM      3  C2  UNL d   1       2.225  -1.310   3.249  0.00  0.00     0.162 A 
ATOM      4  C3  UNL d   1       2.521  -1.819   1.984  0.00  0.00    -0.034 A 
ATOM      5  C4  UNL d   1       3.803  -2.311   1.732  0.00  0.00     0.162 A 
ATOM      6  C5  UNL d   1       4.771  -2.295   2.732  0.00  0.00     0.062 A 
ATOM      7  F   UNL d   1       5.999  -2.770   2.481  0.00  0.00    -0.097 F 
ATOM      8  F1  UNL d   1       4.122  -2.808   0.528  0.00  0.00    -0.096 F 
ATOM      9  I   UNL d   1       1.072  -1.842   0.491  0.00  0.00    -0.060 I 
ATOM     10  F2  UNL d   1       1.004  -0.829   3.526  0.00  0.00    -0.096 F 
ATOM     11  F3  UNL d   1       2.902  -0.805   5.458  0.00  0.00    -0.097 F 
ATOM     12  F4  UNL d   1       5.401  -1.772   4.949  0.00  0.00    -0.092 F 
ENDROOT
TORSDOF 0
ENDMDL
