MODEL 1
REMARK minimizedAffinity 15.5690117
REMARK minimizedRMSD -1
REMARK  0 active torsions:
REMARK  status: ('A' for Active; 'I' for Inactive)
ROOT
ATOM      1  C   UNL d   1       3.065  -2.742   0.829  0.00  0.00     0.124 A 
ATOM      2  C1  UNL d   1       1.882  -2.503   0.144  0.00  0.00     0.062 A 
ATOM      3  C2  UNL d   1       0.816  -1.876   0.783  0.00  0.00     0.162 A 
ATOM      4  C3  UNL d   1       0.929  -1.482   2.117  0.00  0.00    -0.034 A 
ATOM      5  C4  UNL d   1       2.122  -1.727   2.800  0.00  0.00     0.162 A 
ATOM      6  C5  UNL d   1       3.184  -2.354   2.156  0.00  0.00     0.062 A 
ATOM      7  F   UNL d   1       4.326  -2.584   2.820  0.00  0.00    -0.097 F 
ATOM      8  F1  UNL d   1       2.264  -1.362   4.083  0.00  0.00    -0.096 F 
ATOM      9  I   UNL d   1      -0.662  -0.545   3.077  0.00  0.00    -0.060 I 
ATOM     10  F2  UNL d   1      -0.315  -1.657   0.096  0.00  0.00    -0.096 F 
ATOM     11  F3  UNL d   1       1.764  -2.877  -1.138  0.00  0.00    -0.097 F 
ATOM     12  F4  UNL d   1       4.088  -3.346   0.211  0.00  0.00    -0.092 F 
ENDROOT
TORSDOF 0
ENDMDL
