MODEL 1
REMARK minimizedAffinity 5.38232136
REMARK minimizedRMSD -1
REMARK  1 active torsions:
REMARK  status: ('A' for Active; 'I' for Inactive)
REMARK    1  A    between atoms: C1_2  and  C2_3 
ROOT
ATOM      1  C2  UNL d   1       0.728   3.101  -1.412  0.00  0.00    -0.081 A 
ATOM      2  C3  UNL d   1       0.563   3.407  -0.056  0.00  0.00     0.006 A 
ATOM      3  C4  UNL d   1       1.177   2.626   0.926  0.00  0.00     0.002 A 
ATOM      4  C5  UNL d   1       1.973   1.533   0.568  0.00  0.00    -0.080 A 
ATOM      5  C6  UNL d   1       2.663   0.705   1.612  0.00  0.00     0.076 C 
ATOM      6  C7  UNL d   1       2.125   1.217  -0.786  0.00  0.00     0.002 A 
ATOM      7  C8  UNL d   1       1.510   1.996  -1.768  0.00  0.00     0.006 A 
ENDROOT
BRANCH   1   8
ATOM      8  C1  UNL d   1       0.120   3.979  -2.476  0.00  0.00     0.054 C 
ATOM      9  C   UNL d   1      -1.294   3.532  -2.820  0.00  0.00     0.018 C 
ENDBRANCH   1   8
TORSDOF 1
ENDMDL
