MODEL 1
REMARK minimizedAffinity 4.05333996
REMARK minimizedRMSD -1
REMARK  1 active torsions:
REMARK  status: ('A' for Active; 'I' for Inactive)
REMARK    1  A    between atoms: C1_2  and  C2_3 
ROOT
ATOM      1  C2  UNL d   1      -2.961   1.942   4.236  0.00  0.00    -0.081 A 
ATOM      2  C3  UNL d   1      -4.006   1.414   3.469  0.00  0.00     0.006 A 
ATOM      3  C4  UNL d   1      -4.056   1.637   2.091  0.00  0.00     0.002 A 
ATOM      4  C5  UNL d   1      -3.057   2.383   1.456  0.00  0.00    -0.080 A 
ATOM      5  C6  UNL d   1      -3.082   2.604  -0.027  0.00  0.00     0.076 C 
ATOM      6  C7  UNL d   1      -2.022   2.925   2.225  0.00  0.00     0.002 A 
ATOM      7  C8  UNL d   1      -1.972   2.704   3.603  0.00  0.00     0.006 A 
ENDROOT
BRANCH   1   8
ATOM      8  C1  UNL d   1      -2.870   1.649   5.712  0.00  0.00     0.054 C 
ATOM      9  C   UNL d   1      -1.833   0.572   6.000  0.00  0.00     0.018 C 
ENDBRANCH   1   8
TORSDOF 1
ENDMDL
