MODEL 1
REMARK minimizedAffinity -3.53720903
REMARK minimizedRMSD -1
REMARK  1 active torsions:
REMARK  status: ('A' for Active; 'I' for Inactive)
REMARK    1  A    between atoms: C1_2  and  C2_3 
ROOT
ATOM      1  C2  UNL d   1       0.995   0.401  -0.140  0.00  0.00    -0.081 A 
ATOM      2  C3  UNL d   1       1.111   0.905  -1.441  0.00  0.00     0.006 A 
ATOM      3  C4  UNL d   1       1.116   2.283  -1.669  0.00  0.00     0.002 A 
ATOM      4  C5  UNL d   1       1.013   3.180  -0.600  0.00  0.00    -0.080 A 
ATOM      5  C6  UNL d   1       1.048   4.662  -0.828  0.00  0.00     0.076 C 
ATOM      6  C7  UNL d   1       0.879   2.676   0.698  0.00  0.00     0.002 A 
ATOM      7  C8  UNL d   1       0.873   1.298   0.927  0.00  0.00     0.006 A 
ENDROOT
BRANCH   1   8
ATOM      8  C1  UNL d   1       1.054  -1.083   0.115  0.00  0.00     0.054 C 
ATOM      9  C   UNL d   1       0.101  -1.840  -0.799  0.00  0.00     0.018 C 
ENDBRANCH   1   8
TORSDOF 1
ENDMDL
