MODEL 1
REMARK minimizedAffinity 5.14728022
REMARK minimizedRMSD -1
REMARK  1 active torsions:
REMARK  status: ('A' for Active; 'I' for Inactive)
REMARK    1  A    between atoms: C1_2  and  C2_3 
ROOT
ATOM      1  C2  UNL d   1       1.051   3.660  -0.249  0.00  0.00    -0.081 A 
ATOM      2  C3  UNL d   1       1.385   2.699   0.713  0.00  0.00     0.006 A 
ATOM      3  C4  UNL d   1       1.489   1.351   0.361  0.00  0.00     0.002 A 
ATOM      4  C5  UNL d   1       1.268   0.943  -0.959  0.00  0.00    -0.080 A 
ATOM      5  C6  UNL d   1       1.407  -0.497  -1.356  0.00  0.00     0.076 C 
ATOM      6  C7  UNL d   1       0.917   1.901  -1.916  0.00  0.00     0.002 A 
ATOM      7  C8  UNL d   1       0.813   3.249  -1.565  0.00  0.00     0.006 A 
ENDROOT
BRANCH   1   8
ATOM      8  C1  UNL d   1       1.001   5.122   0.114  0.00  0.00     0.054 C 
ATOM      9  C   UNL d   1       1.816   5.962  -0.860  0.00  0.00     0.018 C 
ENDBRANCH   1   8
TORSDOF 1
ENDMDL
