MODEL 1
REMARK minimizedAffinity 5.62242508
REMARK minimizedRMSD -1
REMARK  1 active torsions:
REMARK  status: ('A' for Active; 'I' for Inactive)
REMARK    1  A    between atoms: C1_2  and  C2_3 
ROOT
ATOM      1  C2  UNL d   1       1.350   3.751  -1.147  0.00  0.00    -0.081 A 
ATOM      2  C3  UNL d   1       0.692   3.429  -2.340  0.00  0.00     0.006 A 
ATOM      3  C4  UNL d   1       0.594   2.100  -2.758  0.00  0.00     0.002 A 
ATOM      4  C5  UNL d   1       1.146   1.071  -1.988  0.00  0.00    -0.080 A 
ATOM      5  C6  UNL d   1       1.022  -0.363  -2.410  0.00  0.00     0.076 C 
ATOM      6  C7  UNL d   1       1.820   1.395  -0.805  0.00  0.00     0.002 A 
ATOM      7  C8  UNL d   1       1.918   2.723  -0.386  0.00  0.00     0.006 A 
ENDROOT
BRANCH   1   8
ATOM      8  C1  UNL d   1       1.401   5.177  -0.661  0.00  0.00     0.054 C 
ATOM      9  C   UNL d   1       2.401   6.000  -1.460  0.00  0.00     0.018 C 
ENDBRANCH   1   8
TORSDOF 1
ENDMDL
