MODEL 1
REMARK minimizedAffinity 4.41136885
REMARK minimizedRMSD -1
REMARK  1 active torsions:
REMARK  status: ('A' for Active; 'I' for Inactive)
REMARK    1  A    between atoms: C1_2  and  C2_3 
ROOT
ATOM      1  C2  UNL d   1       0.881   1.701  -1.317  0.00  0.00    -0.081 A 
ATOM      2  C3  UNL d   1       1.066   1.805   0.067  0.00  0.00     0.006 A 
ATOM      3  C4  UNL d   1       1.019   0.667   0.876  0.00  0.00     0.002 A 
ATOM      4  C5  UNL d   1       0.795  -0.594   0.314  0.00  0.00    -0.080 A 
ATOM      5  C6  UNL d   1       0.772  -1.828   1.167  0.00  0.00     0.076 C 
ATOM      6  C7  UNL d   1       0.592  -0.697  -1.067  0.00  0.00     0.002 A 
ATOM      7  C8  UNL d   1       0.638   0.441  -1.876  0.00  0.00     0.006 A 
ENDROOT
BRANCH   1   8
ATOM      8  C1  UNL d   1       0.996   2.917  -2.199  0.00  0.00     0.054 C 
ATOM      9  C   UNL d   1       1.596   4.094  -1.444  0.00  0.00     0.018 C 
ENDBRANCH   1   8
TORSDOF 1
ENDMDL
