MODEL 1
REMARK minimizedAffinity -0.737448037
REMARK minimizedRMSD -1
REMARK  1 active torsions:
REMARK  status: ('A' for Active; 'I' for Inactive)
REMARK    1  A    between atoms: C1_2  and  C2_3 
ROOT
ATOM      1  C2  UNL d   1       1.262  -0.818  -1.000  0.00  0.00    -0.081 A 
ATOM      2  C3  UNL d   1       0.525  -1.016  -2.174  0.00  0.00     0.006 A 
ATOM      3  C4  UNL d   1      -0.275  -2.151  -2.325  0.00  0.00     0.002 A 
ATOM      4  C5  UNL d   1      -0.358  -3.102  -1.302  0.00  0.00    -0.080 A 
ATOM      5  C6  UNL d   1      -1.237  -4.309  -1.440  0.00  0.00     0.076 C 
ATOM      6  C7  UNL d   1       0.391  -2.913  -0.136  0.00  0.00     0.002 A 
ATOM      7  C8  UNL d   1       1.192  -1.779   0.015  0.00  0.00     0.006 A 
ENDROOT
BRANCH   1   8
ATOM      8  C1  UNL d   1       2.075   0.437  -0.808  0.00  0.00     0.054 C 
ATOM      9  C   UNL d   1       1.368   1.650  -1.396  0.00  0.00     0.018 C 
ENDBRANCH   1   8
TORSDOF 1
ENDMDL
