MODEL 1
REMARK minimizedAffinity 4.29272699
REMARK minimizedRMSD -1
REMARK  1 active torsions:
REMARK  status: ('A' for Active; 'I' for Inactive)
REMARK    1  A    between atoms: C1_2  and  C2_3 
ROOT
ATOM      1  C2  UNL d   1       1.220   3.686  -0.451  0.00  0.00    -0.081 A 
ATOM      2  C3  UNL d   1       1.471   2.784   0.591  0.00  0.00     0.006 A 
ATOM      3  C4  UNL d   1       1.672   1.429   0.321  0.00  0.00     0.002 A 
ATOM      4  C5  UNL d   1       1.632   0.953  -0.994  0.00  0.00    -0.080 A 
ATOM      5  C6  UNL d   1       1.876  -0.495  -1.300  0.00  0.00     0.076 C 
ATOM      6  C7  UNL d   1       1.363   1.851  -2.033  0.00  0.00     0.002 A 
ATOM      7  C8  UNL d   1       1.162   3.206  -1.764  0.00  0.00     0.006 A 
ENDROOT
BRANCH   1   8
ATOM      8  C1  UNL d   1       1.068   5.159  -0.169  0.00  0.00     0.054 C 
ATOM      9  C   UNL d   1       1.805   5.999  -1.203  0.00  0.00     0.018 C 
ENDBRANCH   1   8
TORSDOF 1
ENDMDL
