MODEL 1
REMARK minimizedAffinity 3.13445616
REMARK minimizedRMSD -1
REMARK  1 active torsions:
REMARK  status: ('A' for Active; 'I' for Inactive)
REMARK    1  A    between atoms: C1_2  and  C2_3 
ROOT
ATOM      1  C2  UNL d   1       0.974   3.337  -0.688  0.00  0.00    -0.081 A 
ATOM      2  C3  UNL d   1       1.372   2.183  -0.002  0.00  0.00     0.006 A 
ATOM      3  C4  UNL d   1       1.429   0.952  -0.660  0.00  0.00     0.002 A 
ATOM      4  C5  UNL d   1       1.096   0.856  -2.016  0.00  0.00    -0.080 A 
ATOM      5  C6  UNL d   1       1.182  -0.454  -2.742  0.00  0.00     0.076 C 
ATOM      6  C7  UNL d   1       0.681   2.006  -2.696  0.00  0.00     0.002 A 
ATOM      7  C8  UNL d   1       0.624   3.236  -2.039  0.00  0.00     0.006 A 
ENDROOT
BRANCH   1   8
ATOM      8  C1  UNL d   1       0.974   4.677   0.003  0.00  0.00     0.054 C 
ATOM      9  C   UNL d   1       1.759   5.709  -0.793  0.00  0.00     0.018 C 
ENDBRANCH   1   8
TORSDOF 1
ENDMDL
