MODEL 1
REMARK minimizedAffinity 11.7575274
REMARK minimizedRMSD -1
REMARK  1 active torsions:
REMARK  status: ('A' for Active; 'I' for Inactive)
REMARK    1  A    between atoms: C1_2  and  C2_3 
ROOT
ATOM      1  C2  UNL d   1       0.776   1.510  -1.533  0.00  0.00    -0.081 A 
ATOM      2  C3  UNL d   1      -0.598   1.260  -1.442  0.00  0.00     0.006 A 
ATOM      3  C4  UNL d   1      -1.523   2.235  -1.825  0.00  0.00     0.002 A 
ATOM      4  C5  UNL d   1      -1.088   3.473  -2.311  0.00  0.00    -0.080 A 
ATOM      5  C6  UNL d   1      -2.070   4.517  -2.754  0.00  0.00     0.076 C 
ATOM      6  C7  UNL d   1       0.285   3.730  -2.385  0.00  0.00     0.002 A 
ATOM      7  C8  UNL d   1       1.209   2.755  -2.002  0.00  0.00     0.006 A 
ENDROOT
BRANCH   1   8
ATOM      8  C1  UNL d   1       1.776   0.438  -1.182  0.00  0.00     0.054 C 
ATOM      9  C   UNL d   1       1.225  -0.950  -1.478  0.00  0.00     0.018 C 
ENDBRANCH   1   8
TORSDOF 1
ENDMDL
