MODEL 1
REMARK minimizedAffinity 5.72294521
REMARK minimizedRMSD -1
REMARK  1 active torsions:
REMARK  status: ('A' for Active; 'I' for Inactive)
REMARK    1  A    between atoms: C1_2  and  C2_3 
ROOT
ATOM      1  C2  UNL d   1       1.042   3.913  -0.548  0.00  0.00    -0.081 A 
ATOM      2  C3  UNL d   1       1.197   2.887   0.392  0.00  0.00     0.006 A 
ATOM      3  C4  UNL d   1       1.062   1.550   0.011  0.00  0.00     0.002 A 
ATOM      4  C5  UNL d   1       0.777   1.217  -1.318  0.00  0.00    -0.080 A 
ATOM      5  C6  UNL d   1       0.659  -0.216  -1.747  0.00  0.00     0.076 C 
ATOM      6  C7  UNL d   1       0.604   2.242  -2.254  0.00  0.00     0.002 A 
ATOM      7  C8  UNL d   1       0.739   3.579  -1.873  0.00  0.00     0.006 A 
ENDROOT
BRANCH   1   8
ATOM      8  C1  UNL d   1       1.251   5.353  -0.153  0.00  0.00     0.054 C 
ATOM      9  C   UNL d   1       2.350   6.000  -0.984  0.00  0.00     0.018 C 
ENDBRANCH   1   8
TORSDOF 1
ENDMDL
