MODEL 1
REMARK minimizedAffinity 12.6422777
REMARK minimizedRMSD -1
REMARK  1 active torsions:
REMARK  status: ('A' for Active; 'I' for Inactive)
REMARK    1  A    between atoms: C1_2  and  C2_3 
ROOT
ATOM      1  C2  UNL d   1       0.842   3.974  -1.462  0.00  0.00    -0.081 A 
ATOM      2  C3  UNL d   1       1.621   3.034  -0.777  0.00  0.00     0.006 A 
ATOM      3  C4  UNL d   1       1.560   1.681  -1.117  0.00  0.00     0.002 A 
ATOM      4  C5  UNL d   1       0.725   1.246  -2.152  0.00  0.00    -0.080 A 
ATOM      5  C6  UNL d   1       0.673  -0.200  -2.547  0.00  0.00     0.076 C 
ATOM      6  C7  UNL d   1      -0.067   2.182  -2.825  0.00  0.00     0.002 A 
ATOM      7  C8  UNL d   1      -0.006   3.536  -2.485  0.00  0.00     0.006 A 
ENDROOT
BRANCH   1   8
ATOM      8  C1  UNL d   1       0.954   5.443  -1.142  0.00  0.00     0.054 C 
ATOM      9  C   UNL d   1       2.306   6.000  -1.564  0.00  0.00     0.018 C 
ENDBRANCH   1   8
TORSDOF 1
ENDMDL
