MODEL 1
REMARK minimizedAffinity 0.137810811
REMARK minimizedRMSD -1
REMARK  1 active torsions:
REMARK  status: ('A' for Active; 'I' for Inactive)
REMARK    1  A    between atoms: C1_2  and  C2_3 
ROOT
ATOM      1  C2  UNL d   1       1.084  -1.120  -0.276  0.00  0.00    -0.081 A 
ATOM      2  C3  UNL d   1       0.961  -0.063   0.634  0.00  0.00     0.006 A 
ATOM      3  C4  UNL d   1       0.918   1.258   0.184  0.00  0.00     0.002 A 
ATOM      4  C5  UNL d   1       0.989   1.545  -1.183  0.00  0.00    -0.080 A 
ATOM      5  C6  UNL d   1       0.914   2.958  -1.682  0.00  0.00     0.076 C 
ATOM      6  C7  UNL d   1       1.129   0.491  -2.092  0.00  0.00     0.002 A 
ATOM      7  C8  UNL d   1       1.173  -0.831  -1.642  0.00  0.00     0.006 A 
ENDROOT
BRANCH   1   8
ATOM      8  C1  UNL d   1       1.065  -2.549   0.201  0.00  0.00     0.054 C 
ATOM      9  C   UNL d   1       2.416  -3.219  -0.005  0.00  0.00     0.018 C 
ENDBRANCH   1   8
TORSDOF 1
ENDMDL
