MODEL 1
REMARK minimizedAffinity 0.291434258
REMARK minimizedRMSD -1
REMARK  0 active torsions:
REMARK  status: ('A' for Active; 'I' for Inactive)
ROOT
ATOM      1  C   UNL d   1       0.065   1.896   0.759  0.00  0.00     0.172 C 
ATOM      2  N   UNL d   1      -1.336   1.572   0.626  0.00  0.00    -0.070 N 
ATOM      3  C1  UNL d   1      -2.266   2.314  -0.053  0.00  0.00    -0.004 A 
ATOM      4  C2  UNL d   1      -3.480   1.670   0.056  0.00  0.00    -0.047 A 
ATOM      5  C3  UNL d   1      -3.272   0.502   0.828  0.00  0.00    -0.047 A 
ATOM      6  C4  UNL d   1      -1.936   0.467   1.168  0.00  0.00    -0.004 A 
ENDROOT
TORSDOF 0
ENDMDL
