MODEL 1
REMARK minimizedAffinity -0.827876687
REMARK minimizedRMSD -1
REMARK  0 active torsions:
REMARK  status: ('A' for Active; 'I' for Inactive)
ROOT
ATOM      1  C   UNL d   1      -3.230   1.803  -0.373  0.00  0.00     0.172 C 
ATOM      2  N   UNL d   1      -1.916   1.485   0.134  0.00  0.00    -0.070 N 
ATOM      3  C1  UNL d   1      -1.579   0.350   0.821  0.00  0.00    -0.004 A 
ATOM      4  C2  UNL d   1      -0.237   0.424   1.127  0.00  0.00    -0.047 A 
ATOM      5  C3  UNL d   1       0.248   1.648   0.607  0.00  0.00    -0.047 A 
ATOM      6  C4  UNL d   1      -0.812   2.284  -0.003  0.00  0.00    -0.004 A 
ENDROOT
TORSDOF 0
ENDMDL
