MODEL 1
REMARK minimizedAffinity -0.54032588
REMARK minimizedRMSD -1
REMARK  0 active torsions:
REMARK  status: ('A' for Active; 'I' for Inactive)
ROOT
ATOM      1  C   UNL d   1       0.116   1.500   1.200  0.00  0.00     0.172 C 
ATOM      2  N   UNL d   1      -1.284   1.365   0.873  0.00  0.00    -0.070 N 
ATOM      3  C1  UNL d   1      -2.082   2.351   0.356  0.00  0.00    -0.004 A 
ATOM      4  C2  UNL d   1      -3.345   1.826   0.186  0.00  0.00    -0.047 A 
ATOM      5  C3  UNL d   1      -3.305   0.478   0.618  0.00  0.00    -0.047 A 
ATOM      6  C4  UNL d   1      -2.017   0.220   1.038  0.00  0.00    -0.004 A 
ENDROOT
TORSDOF 0
ENDMDL
