MODEL 1
REMARK minimizedAffinity 2.00672174
REMARK minimizedRMSD -1
REMARK  0 active torsions:
REMARK  status: ('A' for Active; 'I' for Inactive)
ROOT
ATOM      1  C   UNL d   1      -2.021  -0.635   2.041  0.00  0.00     0.172 C 
ATOM      2  N   UNL d   1      -1.556   0.533   1.331  0.00  0.00    -0.070 N 
ATOM      3  C1  UNL d   1      -0.250   0.928   1.213  0.00  0.00    -0.004 A 
ATOM      4  C2  UNL d   1      -0.224   2.084   0.463  0.00  0.00    -0.047 A 
ATOM      5  C3  UNL d   1      -1.561   2.395   0.119  0.00  0.00    -0.047 A 
ATOM      6  C4  UNL d   1      -2.365   1.419   0.669  0.00  0.00    -0.004 A 
ENDROOT
TORSDOF 0
ENDMDL
