MODEL 1
REMARK minimizedAffinity -3.66682625
REMARK minimizedRMSD -1
REMARK  0 active torsions:
REMARK  status: ('A' for Active; 'I' for Inactive)
ROOT
ATOM      1  C   UNL d   1      -4.009   2.238  -0.005  0.00  0.00     0.172 C 
ATOM      2  N   UNL d   1      -2.648   1.774   0.131  0.00  0.00    -0.070 N 
ATOM      3  C1  UNL d   1      -1.532   2.429  -0.318  0.00  0.00    -0.004 A 
ATOM      4  C2  UNL d   1      -0.434   1.662   0.005  0.00  0.00    -0.047 A 
ATOM      5  C3  UNL d   1      -0.906   0.505   0.670  0.00  0.00    -0.047 A 
ATOM      6  C4  UNL d   1      -2.280   0.600   0.734  0.00  0.00    -0.004 A 
ENDROOT
TORSDOF 0
ENDMDL
