MODEL 1
REMARK minimizedAffinity -0.476424754
REMARK minimizedRMSD -1
REMARK  0 active torsions:
REMARK  status: ('A' for Active; 'I' for Inactive)
ROOT
ATOM      1  C   UNL d   1       5.136   5.967   3.550  0.00  0.00     0.172 C 
ATOM      2  N   UNL d   1       4.690   5.979   2.177  0.00  0.00    -0.070 N 
ATOM      3  C1  UNL d   1       3.385   5.989   1.761  0.00  0.00    -0.004 A 
ATOM      4  C2  UNL d   1       3.381   6.000   0.383  0.00  0.00    -0.047 A 
ATOM      5  C3  UNL d   1       4.730   5.996  -0.045  0.00  0.00    -0.047 A 
ATOM      6  C4  UNL d   1       5.519   5.983   1.086  0.00  0.00    -0.004 A 
ENDROOT
TORSDOF 0
ENDMDL
