MODEL 1
REMARK minimizedAffinity 0.805579782
REMARK minimizedRMSD -1
REMARK  0 active torsions:
REMARK  status: ('A' for Active; 'I' for Inactive)
ROOT
ATOM      1  C   UNL d   1       0.623  -6.000   4.515  0.00  0.00     0.172 C 
ATOM      2  N   UNL d   1      -0.140  -5.361   3.468  0.00  0.00    -0.070 N 
ATOM      3  C1  UNL d   1      -0.747  -5.999   2.420  0.00  0.00    -0.004 A 
ATOM      4  C2  UNL d   1      -1.370  -5.042   1.648  0.00  0.00    -0.047 A 
ATOM      5  C3  UNL d   1      -1.128  -3.786   2.252  0.00  0.00    -0.047 A 
ATOM      6  C4  UNL d   1      -0.364  -4.012   3.378  0.00  0.00    -0.004 A 
ENDROOT
TORSDOF 0
ENDMDL
