MODEL 1
REMARK minimizedAffinity 2.71621633
REMARK minimizedRMSD -1
REMARK  0 active torsions:
REMARK  status: ('A' for Active; 'I' for Inactive)
ROOT
ATOM      1  C   UNL d   1       1.448   0.841   0.642  0.00  0.00     0.172 C 
ATOM      2  N   UNL d   1       0.884   1.861   1.495  0.00  0.00    -0.070 N 
ATOM      3  C1  UNL d   1       1.181   3.197   1.446  0.00  0.00    -0.004 A 
ATOM      4  C2  UNL d   1       0.437   3.830   2.419  0.00  0.00    -0.047 A 
ATOM      5  C3  UNL d   1      -0.331   2.840   3.076  0.00  0.00    -0.047 A 
ATOM      6  C4  UNL d   1      -0.035   1.630   2.484  0.00  0.00    -0.004 A 
ENDROOT
TORSDOF 0
ENDMDL
