MODEL 1
REMARK minimizedAffinity 1.36672974
REMARK minimizedRMSD -1
REMARK  0 active torsions:
REMARK  status: ('A' for Active; 'I' for Inactive)
ROOT
ATOM      1  C   UNL d   1       1.146   1.009   0.587  0.00  0.00     0.172 C 
ATOM      2  N   UNL d   1       0.670   1.882   1.635  0.00  0.00    -0.070 N 
ATOM      3  C1  UNL d   1       1.452   2.508   2.568  0.00  0.00    -0.004 A 
ATOM      4  C2  UNL d   1       0.624   3.246   3.386  0.00  0.00    -0.047 A 
ATOM      5  C3  UNL d   1      -0.702   3.055   2.929  0.00  0.00    -0.047 A 
ATOM      6  C4  UNL d   1      -0.644   2.206   1.844  0.00  0.00    -0.004 A 
ENDROOT
TORSDOF 0
ENDMDL
