MODEL 1
REMARK minimizedAffinity 0.663566768
REMARK minimizedRMSD -1
REMARK  0 active torsions:
REMARK  status: ('A' for Active; 'I' for Inactive)
ROOT
ATOM      1  C   UNL d   1       2.383   5.875   1.530  0.00  0.00     0.172 C 
ATOM      2  N   UNL d   1       1.571   4.769   1.983  0.00  0.00    -0.070 N 
ATOM      3  C1  UNL d   1       1.553   4.260   3.254  0.00  0.00    -0.004 A 
ATOM      4  C2  UNL d   1       0.652   3.217   3.277  0.00  0.00    -0.047 A 
ATOM      5  C3  UNL d   1       0.111   3.095   1.976  0.00  0.00    -0.047 A 
ATOM      6  C4  UNL d   1       0.697   4.068   1.194  0.00  0.00    -0.004 A 
ENDROOT
TORSDOF 0
ENDMDL
