MODEL 1
REMARK minimizedAffinity -0.224382386
REMARK minimizedRMSD -1
REMARK  0 active torsions:
REMARK  status: ('A' for Active; 'I' for Inactive)
ROOT
ATOM      1  C   UNL d   1      -1.377   3.240   2.863  0.00  0.00     0.172 C 
ATOM      2  N   UNL d   1      -0.186   2.617   2.335  0.00  0.00    -0.070 N 
ATOM      3  C1  UNL d   1       1.094   2.854   2.759  0.00  0.00    -0.004 A 
ATOM      4  C2  UNL d   1       1.940   2.067   2.008  0.00  0.00    -0.047 A 
ATOM      5  C3  UNL d   1       1.140   1.332   1.101  0.00  0.00    -0.047 A 
ATOM      6  C4  UNL d   1      -0.172   1.692   1.325  0.00  0.00    -0.004 A 
ENDROOT
TORSDOF 0
ENDMDL
