MODEL 1
REMARK minimizedAffinity 2.61574793
REMARK minimizedRMSD -1
REMARK  0 active torsions:
REMARK  status: ('A' for Active; 'I' for Inactive)
ROOT
ATOM      1  C   UNL d   1       0.004   0.582   0.430  0.00  0.00     0.172 C 
ATOM      2  N   UNL d   1       0.113   1.642   1.406  0.00  0.00    -0.070 N 
ATOM      3  C1  UNL d   1       1.239   1.960   2.116  0.00  0.00    -0.004 A 
ATOM      4  C2  UNL d   1       0.934   3.024   2.937  0.00  0.00    -0.047 A 
ATOM      5  C3  UNL d   1      -0.424   3.356   2.713  0.00  0.00    -0.047 A 
ATOM      6  C4  UNL d   1      -0.907   2.484   1.760  0.00  0.00    -0.004 A 
ENDROOT
TORSDOF 0
ENDMDL
