MODEL 1
REMARK minimizedAffinity 4.93030691
REMARK minimizedRMSD -1
REMARK  0 active torsions:
REMARK  status: ('A' for Active; 'I' for Inactive)
ROOT
ATOM      1  C   UNL d   1       0.204   1.501   0.144  0.00  0.00     0.172 C 
ATOM      2  N   UNL d   1      -0.889   1.108   1.003  0.00  0.00    -0.070 N 
ATOM      3  C1  UNL d   1      -1.077   1.520   2.295  0.00  0.00    -0.004 A 
ATOM      4  C2  UNL d   1      -2.228   0.924   2.764  0.00  0.00    -0.047 A 
ATOM      5  C3  UNL d   1      -2.748   0.125   1.718  0.00  0.00    -0.047 A 
ATOM      6  C4  UNL d   1      -1.899   0.257   0.640  0.00  0.00    -0.004 A 
ENDROOT
TORSDOF 0
ENDMDL
