MODEL 1
REMARK minimizedAffinity -2.24961591
REMARK minimizedRMSD -1
REMARK  0 active torsions:
REMARK  status: ('A' for Active; 'I' for Inactive)
ROOT
ATOM      1  C   UNL d   1      -2.237   0.347   0.162  0.00  0.00     0.172 C 
ATOM      2  N   UNL d   1      -1.043   0.891   0.766  0.00  0.00    -0.070 N 
ATOM      3  C1  UNL d   1      -1.009   1.795   1.794  0.00  0.00    -0.004 A 
ATOM      4  C2  UNL d   1       0.313   2.061   2.079  0.00  0.00    -0.047 A 
ATOM      5  C3  UNL d   1       1.101   1.291   1.191  0.00  0.00    -0.047 A 
ATOM      6  C4  UNL d   1       0.236   0.576   0.389  0.00  0.00    -0.004 A 
ENDROOT
TORSDOF 0
ENDMDL
