MODEL 1
REMARK minimizedAffinity -0.558737993
REMARK minimizedRMSD -1
REMARK  0 active torsions:
REMARK  status: ('A' for Active; 'I' for Inactive)
ROOT
ATOM      1  C   UNL d   1      -1.522  -6.000   2.242  0.00  0.00     0.172 C 
ATOM      2  N   UNL d   1      -0.366  -5.999   3.108  0.00  0.00    -0.070 N 
ATOM      3  C1  UNL d   1      -0.394  -5.997   4.477  0.00  0.00    -0.004 A 
ATOM      4  C2  UNL d   1       0.909  -5.997   4.925  0.00  0.00    -0.047 A 
ATOM      5  C3  UNL d   1       1.749  -5.998   3.786  0.00  0.00    -0.047 A 
ATOM      6  C4  UNL d   1       0.933  -6.000   2.675  0.00  0.00    -0.004 A 
ENDROOT
TORSDOF 0
ENDMDL
