MODEL 1
REMARK minimizedAffinity 0.522637844
REMARK minimizedRMSD -1
REMARK  0 active torsions:
REMARK  status: ('A' for Active; 'I' for Inactive)
ROOT
ATOM      1  C   UNL d   1      -1.272   1.201   0.037  0.00  0.00     0.172 C 
ATOM      2  N   UNL d   1      -0.102   1.603   0.782  0.00  0.00    -0.070 N 
ATOM      3  C1  UNL d   1      -0.104   2.341   1.935  0.00  0.00    -0.004 A 
ATOM      4  C2  UNL d   1       1.205   2.510   2.331  0.00  0.00    -0.047 A 
ATOM      5  C3  UNL d   1       2.023   1.851   1.383  0.00  0.00    -0.047 A 
ATOM      6  C4  UNL d   1       1.188   1.298   0.434  0.00  0.00    -0.004 A 
ENDROOT
TORSDOF 0
ENDMDL
