MODEL 1
REMARK minimizedAffinity 4.73409224
REMARK minimizedRMSD -1
REMARK  0 active torsions:
REMARK  status: ('A' for Active; 'I' for Inactive)
ROOT
ATOM      1  C   UNL d   1      -2.621  -6.000  -0.018  0.00  0.00     0.172 C 
ATOM      2  N   UNL d   1      -2.650  -5.081  -1.132  0.00  0.00    -0.070 N 
ATOM      3  C1  UNL d   1      -1.937  -5.214  -2.294  0.00  0.00    -0.004 A 
ATOM      4  C2  UNL d   1      -2.240  -4.137  -3.099  0.00  0.00    -0.047 A 
ATOM      5  C3  UNL d   1      -3.165  -3.329  -2.396  0.00  0.00    -0.047 A 
ATOM      6  C4  UNL d   1      -3.401  -3.937  -1.181  0.00  0.00    -0.004 A 
ENDROOT
TORSDOF 0
ENDMDL
