MODEL 1
REMARK minimizedAffinity -0.810075939
REMARK minimizedRMSD -1
REMARK  0 active torsions:
REMARK  status: ('A' for Active; 'I' for Inactive)
ROOT
ATOM      1  C   UNL d   1      -1.159   3.101   3.009  0.00  0.00     0.172 C 
ATOM      2  N   UNL d   1      -0.256   2.357   2.163  0.00  0.00    -0.070 N 
ATOM      3  C1  UNL d   1      -0.619   1.581   1.095  0.00  0.00    -0.004 A 
ATOM      4  C2  UNL d   1       0.529   1.043   0.554  0.00  0.00    -0.047 A 
ATOM      5  C3  UNL d   1       1.620   1.512   1.324  0.00  0.00    -0.047 A 
ATOM      6  C4  UNL d   1       1.106   2.323   2.314  0.00  0.00    -0.004 A 
ENDROOT
TORSDOF 0
ENDMDL
