MODEL 1
REMARK minimizedAffinity 5.49289179
REMARK minimizedRMSD -1
REMARK  3 active torsions:
REMARK  status: ('A' for Active; 'I' for Inactive)
REMARK    1  A    between atoms: C3'_2  and  C2'_3 
REMARK    2  A    between atoms: C2'_3  and  C1'_4 
REMARK    3  A    between atoms: C1'_4  and  C1_5 
ROOT
ATOM      1  C1  N4B d   1      -5.415   3.983   2.730  0.00  0.00    -0.075 A 
ATOM      2  C2  N4B d   1      -5.861   4.252   4.043  0.00  0.00     0.002 A 
ATOM      3  C3  N4B d   1      -5.253   5.233   4.787  0.00  0.00     0.002 A 
ATOM      4  C4  N4B d   1      -4.189   5.942   4.249  0.00  0.00    -0.004 A 
ATOM      5  C5  N4B d   1      -3.781   5.693   2.971  0.00  0.00     0.002 A 
ATOM      6  C6  N4B d   1      -4.386   4.713   2.210  0.00  0.00     0.002 A 
ENDROOT
BRANCH   1   7
ATOM      7  C1' N4B d   1      -5.993   2.863   1.909  0.00  0.00     0.057 C 
BRANCH   7   8
ATOM      8  C2' N4B d   1      -5.440   2.946   0.489  0.00  0.00     0.009 C 
BRANCH   8   9
ATOM      9  C3' N4B d   1      -5.988   1.842  -0.399  0.00  0.00     0.004 C 
ATOM     10  C4' N4B d   1      -5.999   0.504   0.279  0.00  0.00     0.003 C 
ENDBRANCH   8   9
ENDBRANCH   7   8
ENDBRANCH   1   7
TORSDOF 3
ENDMDL
