MODEL 1
REMARK minimizedAffinity 8.35567856
REMARK minimizedRMSD -1
REMARK  3 active torsions:
REMARK  status: ('A' for Active; 'I' for Inactive)
REMARK    1  A    between atoms: C3'_2  and  C2'_3 
REMARK    2  A    between atoms: C2'_3  and  C1'_4 
REMARK    3  A    between atoms: C1'_4  and  C1_5 
ROOT
ATOM      1  C1  N4B d   1       1.031  -2.177   5.296  0.00  0.00    -0.075 A 
ATOM      2  C2  N4B d   1       1.943  -3.201   5.634  0.00  0.00     0.002 A 
ATOM      3  C3  N4B d   1       1.478  -4.448   5.973  0.00  0.00     0.002 A 
ATOM      4  C4  N4B d   1       0.112  -4.688   5.998  0.00  0.00    -0.004 A 
ATOM      5  C5  N4B d   1      -0.760  -3.700   5.646  0.00  0.00     0.002 A 
ATOM      6  C6  N4B d   1      -0.307  -2.443   5.299  0.00  0.00     0.002 A 
ENDROOT
BRANCH   1   7
ATOM      7  C1' N4B d   1       1.488  -0.773   5.002  0.00  0.00     0.057 C 
BRANCH   7   8
ATOM      8  C2' N4B d   1       0.293   0.055   4.540  0.00  0.00     0.009 C 
BRANCH   8   9
ATOM      9  C3' N4B d   1       0.503   1.540   4.782  0.00  0.00     0.004 C 
ATOM     10  C4' N4B d   1       1.498   2.147   3.839  0.00  0.00     0.003 C 
ENDBRANCH   8   9
ENDBRANCH   7   8
ENDBRANCH   1   7
TORSDOF 3
ENDMDL
