MODEL 1
REMARK minimizedAffinity 9.85155106
REMARK minimizedRMSD -1
REMARK  3 active torsions:
REMARK  status: ('A' for Active; 'I' for Inactive)
REMARK    1  A    between atoms: C3'_2  and  C2'_3 
REMARK    2  A    between atoms: C2'_3  and  C1'_4 
REMARK    3  A    between atoms: C1'_4  and  C1_5 
ROOT
ATOM      1  C1  N4B d   1       4.889   3.307   1.150  0.00  0.00    -0.075 A 
ATOM      2  C2  N4B d   1       6.000   2.435   1.123  0.00  0.00     0.002 A 
ATOM      3  C3  N4B d   1       5.963   1.301   0.350  0.00  0.00     0.002 A 
ATOM      4  C4  N4B d   1       4.825   1.008  -0.386  0.00  0.00    -0.004 A 
ATOM      5  C5  N4B d   1       3.766   1.868  -0.374  0.00  0.00     0.002 A 
ATOM      6  C6  N4B d   1       3.790   3.014   0.395  0.00  0.00     0.002 A 
ENDROOT
BRANCH   1   7
ATOM      7  C1' N4B d   1       4.848   4.514   2.047  0.00  0.00     0.057 C 
BRANCH   7   8
ATOM      8  C2' N4B d   1       4.241   4.120   3.390  0.00  0.00     0.009 C 
BRANCH   8   9
ATOM      9  C3' N4B d   1       5.307   3.772   4.415  0.00  0.00     0.004 C 
ATOM     10  C4' N4B d   1       5.930   4.985   5.040  0.00  0.00     0.003 C 
ENDBRANCH   8   9
ENDBRANCH   7   8
ENDBRANCH   1   7
TORSDOF 3
ENDMDL
