MODEL 1
REMARK minimizedAffinity 6.76956987
REMARK minimizedRMSD -1
REMARK  3 active torsions:
REMARK  status: ('A' for Active; 'I' for Inactive)
REMARK    1  A    between atoms: C3'_2  and  C2'_3 
REMARK    2  A    between atoms: C2'_3  and  C1'_4 
REMARK    3  A    between atoms: C1'_4  and  C1_5 
ROOT
ATOM      1  C1  N4B d   1      -4.852   5.895   3.315  0.00  0.00    -0.075 A 
ATOM      2  C2  N4B d   1      -3.509   5.893   3.750  0.00  0.00     0.002 A 
ATOM      3  C3  N4B d   1      -2.493   5.715   2.843  0.00  0.00     0.002 A 
ATOM      4  C4  N4B d   1      -2.797   5.518   1.504  0.00  0.00    -0.004 A 
ATOM      5  C5  N4B d   1      -4.095   5.546   1.088  0.00  0.00     0.002 A 
ATOM      6  C6  N4B d   1      -5.126   5.728   1.988  0.00  0.00     0.002 A 
ENDROOT
BRANCH   1   7
ATOM      7  C1' N4B d   1      -6.000   6.000   4.282  0.00  0.00     0.057 C 
BRANCH   7   8
ATOM      8  C2' N4B d   1      -5.992   4.784   5.203  0.00  0.00     0.009 C 
BRANCH   8   9
ATOM      9  C3' N4B d   1      -5.944   3.481   4.424  0.00  0.00     0.004 C 
ATOM     10  C4' N4B d   1      -5.961   2.272   5.312  0.00  0.00     0.003 C 
ENDBRANCH   8   9
ENDBRANCH   7   8
ENDBRANCH   1   7
TORSDOF 3
ENDMDL
