MODEL 1
REMARK minimizedAffinity 2.54388595
REMARK minimizedRMSD -1
REMARK  3 active torsions:
REMARK  status: ('A' for Active; 'I' for Inactive)
REMARK    1  A    between atoms: C3'_2  and  C2'_3 
REMARK    2  A    between atoms: C2'_3  and  C1'_4 
REMARK    3  A    between atoms: C1'_4  and  C1_5 
ROOT
ATOM      1  C1  N4B d   1       0.603  -3.762   5.240  0.00  0.00    -0.075 A 
ATOM      2  C2  N4B d   1      -0.773  -3.723   4.923  0.00  0.00     0.002 A 
ATOM      3  C3  N4B d   1      -1.561  -4.824   5.150  0.00  0.00     0.002 A 
ATOM      4  C4  N4B d   1      -0.994  -5.977   5.673  0.00  0.00    -0.004 A 
ATOM      5  C5  N4B d   1       0.330  -5.999   5.999  0.00  0.00     0.002 A 
ATOM      6  C6  N4B d   1       1.133  -4.898   5.780  0.00  0.00     0.002 A 
ENDROOT
BRANCH   1   7
ATOM      7  C1' N4B d   1       1.522  -2.612   4.930  0.00  0.00     0.057 C 
BRANCH   7   8
ATOM      8  C2' N4B d   1       0.690  -1.406   4.506  0.00  0.00     0.009 C 
BRANCH   8   9
ATOM      9  C3' N4B d   1       1.355  -0.622   3.387  0.00  0.00     0.004 C 
ATOM     10  C4' N4B d   1       1.818  -1.497   2.261  0.00  0.00     0.003 C 
ENDBRANCH   8   9
ENDBRANCH   7   8
ENDBRANCH   1   7
TORSDOF 3
ENDMDL
