MODEL 1
REMARK minimizedAffinity 0.680888593
REMARK minimizedRMSD -1
REMARK  0 active torsions:
REMARK  status: ('A' for Active; 'I' for Inactive)
ROOT
ATOM      1  O1  BZF d   1       1.489  -3.209   3.337  0.00  0.00    -0.204 OA
ATOM      2  C2  BZF d   1       0.987  -3.757   4.501  0.00  0.00     0.174 A 
ATOM      3  C3  BZF d   1      -0.219  -3.232   4.796  0.00  0.00    -0.012 A 
ATOM      4  C3A BZF d   1      -0.530  -2.365   3.701  0.00  0.00    -0.107 A 
ATOM      5  C4  BZF d   1      -1.602  -1.571   3.407  0.00  0.00     0.055 A 
ATOM      6  C5  BZF d   1      -1.562  -0.794   2.293  0.00  0.00    -0.016 A 
ATOM      7  C6  BZF d   1      -0.466  -0.781   1.455  0.00  0.00     0.022 A 
ATOM      8  C7  BZF d   1       0.618  -1.556   1.703  0.00  0.00     0.029 A 
ATOM      9  C7A BZF d   1       0.568  -2.367   2.810  0.00  0.00     0.058 A 
ENDROOT
TORSDOF 0
ENDMDL
