MODEL 1
REMARK minimizedAffinity -0.178665206
REMARK minimizedRMSD -1
REMARK  0 active torsions:
REMARK  status: ('A' for Active; 'I' for Inactive)
ROOT
ATOM      1  O1  BZF d   1       1.497  -3.391   2.292  0.00  0.00    -0.204 OA
ATOM      2  C2  BZF d   1       0.617  -3.457   3.354  0.00  0.00     0.174 A 
ATOM      3  C3  BZF d   1      -0.296  -2.466   3.282  0.00  0.00    -0.012 A 
ATOM      4  C3A BZF d   1      -0.021  -1.791   2.050  0.00  0.00    -0.107 A 
ATOM      5  C4  BZF d   1      -0.597  -0.730   1.413  0.00  0.00     0.055 A 
ATOM      6  C5  BZF d   1      -0.043  -0.272   0.259  0.00  0.00    -0.016 A 
ATOM      7  C6  BZF d   1       1.089  -0.847  -0.280  0.00  0.00     0.022 A 
ATOM      8  C7  BZF d   1       1.693  -1.905   0.314  0.00  0.00     0.029 A 
ATOM      9  C7A BZF d   1       1.116  -2.391   1.461  0.00  0.00     0.058 A 
ENDROOT
TORSDOF 0
ENDMDL
