MODEL 1
REMARK minimizedAffinity 2.85552955
REMARK minimizedRMSD -1
REMARK  0 active torsions:
REMARK  status: ('A' for Active; 'I' for Inactive)
ROOT
ATOM      1  O1  BZF d   1       1.050  -3.169   2.912  0.00  0.00    -0.204 OA
ATOM      2  C2  BZF d   1      -0.115  -2.972   3.628  0.00  0.00     0.174 A 
ATOM      3  C3  BZF d   1      -0.844  -1.974   3.089  0.00  0.00    -0.012 A 
ATOM      4  C3A BZF d   1      -0.131  -1.580   1.913  0.00  0.00    -0.107 A 
ATOM      5  C4  BZF d   1      -0.362  -0.644   0.945  0.00  0.00     0.055 A 
ATOM      6  C5  BZF d   1       0.567  -0.461  -0.030  0.00  0.00    -0.016 A 
ATOM      7  C6  BZF d   1       1.737  -1.190  -0.065  0.00  0.00     0.022 A 
ATOM      8  C7  BZF d   1       2.008  -2.133   0.871  0.00  0.00     0.029 A 
ATOM      9  C7A BZF d   1       1.056  -2.344   1.838  0.00  0.00     0.058 A 
ENDROOT
TORSDOF 0
ENDMDL
