MODEL 1
REMARK minimizedAffinity -1.25955892
REMARK minimizedRMSD -1
REMARK  0 active torsions:
REMARK  status: ('A' for Active; 'I' for Inactive)
ROOT
ATOM      1  O1  BZF d   1      -3.449  -4.136  -3.757  0.00  0.00    -0.204 OA
ATOM      2  C2  BZF d   1      -4.073  -3.801  -4.943  0.00  0.00     0.174 A 
ATOM      3  C3  BZF d   1      -3.324  -4.175  -6.000  0.00  0.00    -0.012 A 
ATOM      4  C3A BZF d   1      -2.201  -4.864  -5.441  0.00  0.00    -0.107 A 
ATOM      5  C4  BZF d   1      -1.114  -5.484  -5.986  0.00  0.00     0.055 A 
ATOM      6  C5  BZF d   1      -0.163  -5.997  -5.161  0.00  0.00    -0.016 A 
ATOM      7  C6  BZF d   1      -0.266  -5.904  -3.789  0.00  0.00     0.022 A 
ATOM      8  C7  BZF d   1      -1.329  -5.302  -3.201  0.00  0.00     0.029 A 
ATOM      9  C7A BZF d   1      -2.307  -4.812  -4.032  0.00  0.00     0.058 A 
ENDROOT
TORSDOF 0
ENDMDL
