MODEL 1
REMARK minimizedAffinity 4.49730062
REMARK minimizedRMSD -1
REMARK  0 active torsions:
REMARK  status: ('A' for Active; 'I' for Inactive)
ROOT
ATOM      1  O1  BZF d   1      -1.049  -4.311  -5.837  0.00  0.00    -0.204 OA
ATOM      2  C2  BZF d   1      -1.214  -5.674  -5.995  0.00  0.00     0.174 A 
ATOM      3  C3  BZF d   1      -2.523  -6.000  -6.000  0.00  0.00    -0.012 A 
ATOM      4  C3A BZF d   1      -3.221  -4.753  -5.928  0.00  0.00    -0.107 A 
ATOM      5  C4  BZF d   1      -4.545  -4.419  -5.913  0.00  0.00     0.055 A 
ATOM      6  C5  BZF d   1      -4.895  -3.114  -5.761  0.00  0.00    -0.016 A 
ATOM      7  C6  BZF d   1      -3.949  -2.121  -5.617  0.00  0.00     0.022 A 
ATOM      8  C7  BZF d   1      -2.623  -2.404  -5.631  0.00  0.00     0.029 A 
ATOM      9  C7A BZF d   1      -2.266  -3.717  -5.817  0.00  0.00     0.058 A 
ENDROOT
TORSDOF 0
ENDMDL
