MODEL 1
REMARK minimizedAffinity 4.33625078
REMARK minimizedRMSD -1
REMARK  0 active torsions:
REMARK  status: ('A' for Active; 'I' for Inactive)
ROOT
ATOM      1  O1  BZF d   1       1.702   0.074   0.958  0.00  0.00    -0.204 OA
ATOM      2  C2  BZF d   1       0.727  -0.768   0.458  0.00  0.00     0.174 A 
ATOM      3  C3  BZF d   1       1.252  -1.966   0.132  0.00  0.00    -0.012 A 
ATOM      4  C3A BZF d   1       2.624  -1.898   0.532  0.00  0.00    -0.107 A 
ATOM      5  C4  BZF d   1       3.661  -2.785   0.484  0.00  0.00     0.055 A 
ATOM      6  C5  BZF d   1       4.894  -2.382   0.889  0.00  0.00    -0.016 A 
ATOM      7  C6  BZF d   1       5.126  -1.100   1.344  0.00  0.00     0.022 A 
ATOM      8  C7  BZF d   1       4.127  -0.187   1.415  0.00  0.00     0.029 A 
ATOM      9  C7A BZF d   1       2.874  -0.601   1.037  0.00  0.00     0.058 A 
ENDROOT
TORSDOF 0
ENDMDL
