MODEL 1
REMARK minimizedAffinity 2.98884559
REMARK minimizedRMSD -1
REMARK  0 active torsions:
REMARK  status: ('A' for Active; 'I' for Inactive)
ROOT
ATOM      1  O1  BZF d   1      -1.798  -2.476  -1.046  0.00  0.00    -0.204 OA
ATOM      2  C2  BZF d   1      -2.961  -1.747  -0.888  0.00  0.00     0.174 A 
ATOM      3  C3  BZF d   1      -2.748  -0.670  -0.105  0.00  0.00    -0.012 A 
ATOM      4  C3A BZF d   1      -1.345  -0.679   0.173  0.00  0.00    -0.107 A 
ATOM      5  C4  BZF d   1      -0.524   0.146   0.888  0.00  0.00     0.055 A 
ATOM      6  C5  BZF d   1       0.787  -0.183   1.025  0.00  0.00    -0.016 A 
ATOM      7  C6  BZF d   1       1.310  -1.331   0.466  0.00  0.00     0.022 A 
ATOM      8  C7  BZF d   1       0.536  -2.178  -0.257  0.00  0.00     0.029 A 
ATOM      9  C7A BZF d   1      -0.782  -1.830  -0.424  0.00  0.00     0.058 A 
ENDROOT
TORSDOF 0
ENDMDL
