MODEL 1
REMARK minimizedAffinity 4.8578558
REMARK minimizedRMSD -1
REMARK  0 active torsions:
REMARK  status: ('A' for Active; 'I' for Inactive)
ROOT
ATOM      1  O1  BZF d   1       0.895   1.608  -4.705  0.00  0.00    -0.204 OA
ATOM      2  C2  BZF d   1      -0.102   2.297  -4.041  0.00  0.00     0.174 A 
ATOM      3  C3  BZF d   1       0.376   2.863  -2.914  0.00  0.00    -0.012 A 
ATOM      4  C3A BZF d   1       1.779   2.583  -2.918  0.00  0.00    -0.107 A 
ATOM      5  C4  BZF d   1       2.801   2.896  -2.068  0.00  0.00     0.055 A 
ATOM      6  C5  BZF d   1       4.044   2.408  -2.322  0.00  0.00    -0.016 A 
ATOM      7  C6  BZF d   1       4.299   1.601  -3.412  0.00  0.00     0.022 A 
ATOM      8  C7  BZF d   1       3.318   1.268  -4.285  0.00  0.00     0.029 A 
ATOM      9  C7A BZF d   1       2.068   1.786  -4.050  0.00  0.00     0.058 A 
ENDROOT
TORSDOF 0
ENDMDL
