MODEL 1
REMARK minimizedAffinity 5.95629501
REMARK minimizedRMSD -1
REMARK  0 active torsions:
REMARK  status: ('A' for Active; 'I' for Inactive)
ROOT
ATOM      1  O1  BZF d   1       1.341  -3.423   3.330  0.00  0.00    -0.204 OA
ATOM      2  C2  BZF d   1       0.641  -3.478   4.520  0.00  0.00     0.174 A 
ATOM      3  C3  BZF d   1      -0.375  -2.591   4.518  0.00  0.00    -0.012 A 
ATOM      4  C3A BZF d   1      -0.362  -2.006   3.213  0.00  0.00    -0.107 A 
ATOM      5  C4  BZF d   1      -1.140  -1.067   2.597  0.00  0.00     0.055 A 
ATOM      6  C5  BZF d   1      -0.817  -0.663   1.341  0.00  0.00    -0.016 A 
ATOM      7  C6  BZF d   1       0.278  -1.172   0.673  0.00  0.00     0.022 A 
ATOM      8  C7  BZF d   1       1.076  -2.109   1.241  0.00  0.00     0.029 A 
ATOM      9  C7A BZF d   1       0.733  -2.543   2.498  0.00  0.00     0.058 A 
ENDROOT
TORSDOF 0
ENDMDL
