MODEL 1
REMARK minimizedAffinity 9.71427822
REMARK minimizedRMSD -1
REMARK  0 active torsions:
REMARK  status: ('A' for Active; 'I' for Inactive)
ROOT
ATOM      1  O1  BZF d   1       1.765  -3.056   2.841  0.00  0.00    -0.204 OA
ATOM      2  C2  BZF d   1       1.344  -3.430   4.102  0.00  0.00     0.174 A 
ATOM      3  C3  BZF d   1       0.105  -2.959   4.353  0.00  0.00    -0.012 A 
ATOM      4  C3A BZF d   1      -0.309  -2.325   3.139  0.00  0.00    -0.107 A 
ATOM      5  C4  BZF d   1      -1.452  -1.682   2.758  0.00  0.00     0.055 A 
ATOM      6  C5  BZF d   1      -1.509  -1.110   1.527  0.00  0.00    -0.016 A 
ATOM      7  C6  BZF d   1      -0.442  -1.158   0.654  0.00  0.00     0.022 A 
ATOM      8  C7  BZF d   1       0.711  -1.788   0.985  0.00  0.00     0.029 A 
ATOM      9  C7A BZF d   1       0.761  -2.395   2.216  0.00  0.00     0.058 A 
ENDROOT
TORSDOF 0
ENDMDL
