MODEL 1
REMARK minimizedAffinity 6.48452473
REMARK minimizedRMSD -1
REMARK  0 active torsions:
REMARK  status: ('A' for Active; 'I' for Inactive)
ROOT
ATOM      1  O1  BZF d   1       0.031   2.446  -4.613  0.00  0.00    -0.204 OA
ATOM      2  C2  BZF d   1       1.248   2.318  -3.971  0.00  0.00     0.174 A 
ATOM      3  C3  BZF d   1       1.085   2.319  -2.632  0.00  0.00    -0.012 A 
ATOM      4  C3A BZF d   1      -0.330   2.362  -2.425  0.00  0.00    -0.107 A 
ATOM      5  C4  BZF d   1      -1.116   2.368  -1.308  0.00  0.00     0.055 A 
ATOM      6  C5  BZF d   1      -2.462   2.490  -1.448  0.00  0.00    -0.016 A 
ATOM      7  C6  BZF d   1      -3.055   2.614  -2.688  0.00  0.00     0.022 A 
ATOM      8  C7  BZF d   1      -2.317   2.608  -3.825  0.00  0.00     0.029 A 
ATOM      9  C7A BZF d   1      -0.959   2.451  -3.688  0.00  0.00     0.058 A 
ENDROOT
TORSDOF 0
ENDMDL
