MODEL 1
REMARK minimizedAffinity 9.94066334
REMARK minimizedRMSD -1
REMARK  0 active torsions:
REMARK  status: ('A' for Active; 'I' for Inactive)
ROOT
ATOM      1  O1  BZF d   1       1.851  -3.156   3.502  0.00  0.00    -0.204 OA
ATOM      2  C2  BZF d   1       0.830  -3.462   4.381  0.00  0.00     0.174 A 
ATOM      3  C3  BZF d   1      -0.344  -2.963   3.944  0.00  0.00    -0.012 A 
ATOM      4  C3A BZF d   1      -0.054  -2.383   2.668  0.00  0.00    -0.107 A 
ATOM      5  C4  BZF d   1      -0.817  -1.744   1.733  0.00  0.00     0.055 A 
ATOM      6  C5  BZF d   1      -0.214  -1.232   0.627  0.00  0.00    -0.016 A 
ATOM      7  C6  BZF d   1       1.147  -1.337   0.428  0.00  0.00     0.022 A 
ATOM      8  C7  BZF d   1       1.943  -1.966   1.326  0.00  0.00     0.029 A 
ATOM      9  C7A BZF d   1       1.333  -2.513   2.428  0.00  0.00     0.058 A 
ENDROOT
TORSDOF 0
ENDMDL
