MODEL 1
REMARK minimizedAffinity 8.08780289
REMARK minimizedRMSD -1
REMARK  0 active torsions:
REMARK  status: ('A' for Active; 'I' for Inactive)
ROOT
ATOM      1  O1  BZF d   1       2.249   0.234  -2.681  0.00  0.00    -0.204 OA
ATOM      2  C2  BZF d   1       3.363   1.039  -2.821  0.00  0.00     0.174 A 
ATOM      3  C3  BZF d   1       3.654   1.660  -1.660  0.00  0.00    -0.012 A 
ATOM      4  C3A BZF d   1       2.715   1.144  -0.712  0.00  0.00    -0.107 A 
ATOM      5  C4  BZF d   1       2.508   1.365   0.620  0.00  0.00     0.055 A 
ATOM      6  C5  BZF d   1       1.460   0.758   1.235  0.00  0.00    -0.016 A 
ATOM      7  C6  BZF d   1       0.597  -0.072   0.550  0.00  0.00     0.022 A 
ATOM      8  C7  BZF d   1       0.765  -0.326  -0.771  0.00  0.00     0.029 A 
ATOM      9  C7A BZF d   1       1.843   0.261  -1.388  0.00  0.00     0.058 A 
ENDROOT
TORSDOF 0
ENDMDL
