MODEL 1
REMARK minimizedAffinity 13.3124971
REMARK minimizedRMSD -1
REMARK  0 active torsions:
REMARK  status: ('A' for Active; 'I' for Inactive)
ROOT
ATOM      1  O1  BZF d   1      -2.968   3.774  -0.806  0.00  0.00    -0.204 OA
ATOM      2  C2  BZF d   1      -4.132   4.487  -1.021  0.00  0.00     0.174 A 
ATOM      3  C3  BZF d   1      -4.369   4.630  -2.341  0.00  0.00    -0.012 A 
ATOM      4  C3A BZF d   1      -3.335   3.885  -2.991  0.00  0.00    -0.107 A 
ATOM      5  C4  BZF d   1      -3.041   3.633  -4.301  0.00  0.00     0.055 A 
ATOM      6  C5  BZF d   1      -1.918   2.930  -4.602  0.00  0.00    -0.016 A 
ATOM      7  C6  BZF d   1      -1.065   2.468  -3.621  0.00  0.00     0.022 A 
ATOM      8  C7  BZF d   1      -1.318   2.688  -2.308  0.00  0.00     0.029 A 
ATOM      9  C7A BZF d   1      -2.469   3.370  -1.999  0.00  0.00     0.058 A 
ENDROOT
TORSDOF 0
ENDMDL
