MODEL 1
REMARK minimizedAffinity -6.15431499
REMARK minimizedRMSD -1
REMARK  0 active torsions:
REMARK  status: ('A' for Active; 'I' for Inactive)
ROOT
ATOM      1  O1  BZF d   1      -4.314  -2.169   2.181  0.00  0.00    -0.204 OA
ATOM      2  C2  BZF d   1      -4.523  -2.202   3.546  0.00  0.00     0.174 A 
ATOM      3  C3  BZF d   1      -3.351  -2.275   4.208  0.00  0.00    -0.012 A 
ATOM      4  C3A BZF d   1      -2.342  -2.195   3.197  0.00  0.00    -0.107 A 
ATOM      5  C4  BZF d   1      -0.976  -2.198   3.230  0.00  0.00     0.055 A 
ATOM      6  C5  BZF d   1      -0.287  -2.180   2.059  0.00  0.00    -0.016 A 
ATOM      7  C6  BZF d   1      -0.930  -2.163   0.839  0.00  0.00     0.022 A 
ATOM      8  C7  BZF d   1      -2.282  -2.154   0.755  0.00  0.00     0.029 A 
ATOM      9  C7A BZF d   1      -2.982  -2.139   1.937  0.00  0.00     0.058 A 
ENDROOT
TORSDOF 0
ENDMDL
