MODEL 1
REMARK minimizedAffinity -0.36255464
REMARK minimizedRMSD -1
REMARK  0 active torsions:
REMARK  status: ('A' for Active; 'I' for Inactive)
ROOT
ATOM      1  O1  BZF d   1       2.056   1.499  -3.587  0.00  0.00    -0.204 OA
ATOM      2  C2  BZF d   1       3.068   1.988  -2.783  0.00  0.00     0.174 A 
ATOM      3  C3  BZF d   1       2.783   3.237  -2.361  0.00  0.00    -0.012 A 
ATOM      4  C3A BZF d   1       1.471   3.513  -2.861  0.00  0.00    -0.107 A 
ATOM      5  C4  BZF d   1       0.635   4.587  -2.761  0.00  0.00     0.055 A 
ATOM      6  C5  BZF d   1      -0.549   4.568  -3.427  0.00  0.00    -0.016 A 
ATOM      7  C6  BZF d   1      -0.926   3.493  -4.206  0.00  0.00     0.022 A 
ATOM      8  C7  BZF d   1      -0.132   2.402  -4.332  0.00  0.00     0.029 A 
ATOM      9  C7A BZF d   1       1.050   2.405  -3.633  0.00  0.00     0.058 A 
ENDROOT
TORSDOF 0
ENDMDL
