MODEL 1
REMARK minimizedAffinity -2.51089382
REMARK minimizedRMSD -1
REMARK  0 active torsions:
REMARK  status: ('A' for Active; 'I' for Inactive)
ROOT
ATOM      1  O1  BZF d   1      -5.266  -2.646  -5.968  0.00  0.00    -0.204 OA
ATOM      2  C2  BZF d   1      -4.440  -1.539  -5.979  0.00  0.00     0.174 A 
ATOM      3  C3  BZF d   1      -3.144  -1.908  -5.938  0.00  0.00    -0.012 A 
ATOM      4  C3A BZF d   1      -3.158  -3.338  -5.991  0.00  0.00    -0.107 A 
ATOM      5  C4  BZF d   1      -2.176  -4.287  -5.999  0.00  0.00     0.055 A 
ATOM      6  C5  BZF d   1      -2.526  -5.600  -5.983  0.00  0.00    -0.016 A 
ATOM      7  C6  BZF d   1      -3.847  -5.999  -5.953  0.00  0.00     0.022 A 
ATOM      8  C7  BZF d   1      -4.856  -5.094  -5.949  0.00  0.00     0.029 A 
ATOM      9  C7A BZF d   1      -4.505  -3.767  -5.999  0.00  0.00     0.058 A 
ENDROOT
TORSDOF 0
ENDMDL
