MODEL 1
REMARK minimizedAffinity -0.26690495
REMARK minimizedRMSD -1
REMARK  0 active torsions:
REMARK  status: ('A' for Active; 'I' for Inactive)
ROOT
ATOM      1  O1  BZF d   1       1.472  -1.720   0.929  0.00  0.00    -0.204 OA
ATOM      2  C2  BZF d   1       0.480  -0.878   0.465  0.00  0.00     0.174 A 
ATOM      3  C3  BZF d   1      -0.557  -0.841   1.326  0.00  0.00    -0.012 A 
ATOM      4  C3A BZF d   1      -0.150  -1.641   2.440  0.00  0.00    -0.107 A 
ATOM      5  C4  BZF d   1      -0.745  -1.975   3.623  0.00  0.00     0.055 A 
ATOM      6  C5  BZF d   1      -0.110  -2.836   4.462  0.00  0.00    -0.016 A 
ATOM      7  C6  BZF d   1       1.115  -3.385   4.147  0.00  0.00     0.022 A 
ATOM      8  C7  BZF d   1       1.747  -3.080   2.987  0.00  0.00     0.029 A 
ATOM      9  C7A BZF d   1       1.123  -2.185   2.152  0.00  0.00     0.058 A 
ENDROOT
TORSDOF 0
ENDMDL
