MODEL 1
REMARK minimizedAffinity -0.655343831
REMARK minimizedRMSD -1
REMARK  0 active torsions:
REMARK  status: ('A' for Active; 'I' for Inactive)
ROOT
ATOM      1  O1  BZF d   1      -1.972  -6.000  -5.787  0.00  0.00    -0.204 OA
ATOM      2  C2  BZF d   1      -1.019  -5.007  -5.671  0.00  0.00     0.174 A 
ATOM      3  C3  BZF d   1      -1.593  -3.787  -5.699  0.00  0.00    -0.012 A 
ATOM      4  C3A BZF d   1      -3.002  -4.035  -5.749  0.00  0.00    -0.107 A 
ATOM      5  C4  BZF d   1      -4.098  -3.221  -5.778  0.00  0.00     0.055 A 
ATOM      6  C5  BZF d   1      -5.331  -3.779  -5.899  0.00  0.00    -0.016 A 
ATOM      7  C6  BZF d   1      -5.504  -5.144  -5.997  0.00  0.00     0.022 A 
ATOM      8  C7  BZF d   1      -4.447  -5.992  -5.967  0.00  0.00     0.029 A 
ATOM      9  C7A BZF d   1      -3.202  -5.433  -5.812  0.00  0.00     0.058 A 
ENDROOT
TORSDOF 0
ENDMDL
