MODEL 1
REMARK minimizedAffinity -3.1278441
REMARK minimizedRMSD -1
REMARK  0 active torsions:
REMARK  status: ('A' for Active; 'I' for Inactive)
ROOT
ATOM      1  C1  DEN d   1       2.835   0.303  -0.168  0.00  0.00     0.130 A 
ATOM      2  C2  DEN d   1       3.663   1.179   0.657  0.00  0.00    -0.031 A 
ATOM      3  C3  DEN d   1       2.791   1.817   1.663  0.00  0.00     0.027 A 
ATOM      4  C4  DEN d   1       0.253   1.534   2.025  0.00  0.00     0.027 A 
ATOM      5  C5  DEN d   1      -0.883   0.906   1.565  0.00  0.00    -0.003 A 
ATOM      6  C6  DEN d   1      -0.866   0.066   0.483  0.00  0.00     0.001 A 
ATOM      7  C7  DEN d   1       0.319  -0.204  -0.148  0.00  0.00     0.017 A 
ATOM      8  C8  DEN d   1       1.468   0.431   0.306  0.00  0.00    -0.094 A 
ATOM      9  C9  DEN d   1       1.432   1.267   1.409  0.00  0.00    -0.072 A 
ENDROOT
TORSDOF 0
ENDMDL
