MODEL 1
REMARK minimizedAffinity 2.02278948
REMARK minimizedRMSD -1
REMARK  0 active torsions:
REMARK  status: ('A' for Active; 'I' for Inactive)
ROOT
ATOM      1  C1  DEN d   1       3.348   1.465   1.658  0.00  0.00     0.130 A 
ATOM      2  C2  DEN d   1       4.022   0.732   0.590  0.00  0.00    -0.031 A 
ATOM      3  C3  DEN d   1       2.987   0.103  -0.255  0.00  0.00     0.027 A 
ATOM      4  C4  DEN d   1       0.421   0.195  -0.017  0.00  0.00     0.027 A 
ATOM      5  C5  DEN d   1      -0.619   0.684   0.742  0.00  0.00    -0.003 A 
ATOM      6  C6  DEN d   1      -0.411   1.433   1.869  0.00  0.00     0.001 A 
ATOM      7  C7  DEN d   1       0.867   1.753   2.245  0.00  0.00     0.017 A 
ATOM      8  C8  DEN d   1       1.921   1.257   1.489  0.00  0.00    -0.094 A 
ATOM      9  C9  DEN d   1       1.689   0.512   0.346  0.00  0.00    -0.072 A 
ENDROOT
TORSDOF 0
ENDMDL
