MODEL 1
REMARK minimizedAffinity -4.18663359
REMARK minimizedRMSD -1
REMARK  0 active torsions:
REMARK  status: ('A' for Active; 'I' for Inactive)
ROOT
ATOM      1  C1  DEN d   1      -3.893  -3.302  -0.164  0.00  0.00     0.130 A 
ATOM      2  C2  DEN d   1      -5.294  -3.412  -0.560  0.00  0.00    -0.031 A 
ATOM      3  C3  DEN d   1      -5.463  -2.702  -1.844  0.00  0.00     0.027 A 
ATOM      4  C4  DEN d   1      -3.699  -1.454  -3.252  0.00  0.00     0.027 A 
ATOM      5  C5  DEN d   1      -2.375  -1.080  -3.318  0.00  0.00    -0.003 A 
ATOM      6  C6  DEN d   1      -1.479  -1.388  -2.329  0.00  0.00     0.001 A 
ATOM      7  C7  DEN d   1      -1.886  -2.130  -1.252  0.00  0.00     0.017 A 
ATOM      8  C8  DEN d   1      -3.221  -2.505  -1.175  0.00  0.00    -0.094 A 
ATOM      9  C9  DEN d   1      -4.108  -2.194  -2.191  0.00  0.00    -0.072 A 
ENDROOT
TORSDOF 0
ENDMDL
