MODEL 1
REMARK minimizedAffinity -6.32897663
REMARK minimizedRMSD -1
REMARK  0 active torsions:
REMARK  status: ('A' for Active; 'I' for Inactive)
ROOT
ATOM      1  C1  DEN d   1      -1.491  -0.059   1.720  0.00  0.00     0.130 A 
ATOM      2  C2  DEN d   1      -2.182   0.571   2.841  0.00  0.00    -0.031 A 
ATOM      3  C3  DEN d   1      -1.464   1.816   3.179  0.00  0.00     0.027 A 
ATOM      4  C4  DEN d   1       0.638   2.827   2.077  0.00  0.00     0.027 A 
ATOM      5  C5  DEN d   1       1.587   2.647   1.095  0.00  0.00    -0.003 A 
ATOM      6  C6  DEN d   1       1.597   1.545   0.282  0.00  0.00     0.001 A 
ATOM      7  C7  DEN d   1       0.612   0.601   0.406  0.00  0.00     0.017 A 
ATOM      8  C8  DEN d   1      -0.344   0.772   1.398  0.00  0.00    -0.094 A 
ATOM      9  C9  DEN d   1      -0.345   1.899   2.202  0.00  0.00    -0.072 A 
ENDROOT
TORSDOF 0
ENDMDL
