MODEL 1
REMARK minimizedAffinity -4.03123951
REMARK minimizedRMSD -1
REMARK  0 active torsions:
REMARK  status: ('A' for Active; 'I' for Inactive)
ROOT
ATOM      1  C1  DEN d   1       0.483  -0.111  -0.503  0.00  0.00     0.130 A 
ATOM      2  C2  DEN d   1      -0.119   0.173   0.797  0.00  0.00    -0.031 A 
ATOM      3  C3  DEN d   1      -1.471  -0.421   0.813  0.00  0.00     0.027 A 
ATOM      4  C4  DEN d   1      -2.682  -1.751  -1.035  0.00  0.00     0.027 A 
ATOM      5  C5  DEN d   1      -2.578  -2.237  -2.320  0.00  0.00    -0.003 A 
ATOM      6  C6  DEN d   1      -1.469  -2.021  -3.095  0.00  0.00     0.001 A 
ATOM      7  C7  DEN d   1      -0.401  -1.339  -2.576  0.00  0.00     0.017 A 
ATOM      8  C8  DEN d   1      -0.501  -0.839  -1.284  0.00  0.00    -0.094 A 
ATOM      9  C9  DEN d   1      -1.625  -1.078  -0.512  0.00  0.00    -0.072 A 
ENDROOT
TORSDOF 0
ENDMDL
