MODEL 1
REMARK minimizedAffinity -1.31720734
REMARK minimizedRMSD -1
REMARK  0 active torsions:
REMARK  status: ('A' for Active; 'I' for Inactive)
ROOT
ATOM      1  C1  DEN d   1      -0.409   0.323  -1.060  0.00  0.00     0.130 A 
ATOM      2  C2  DEN d   1      -0.232  -0.370   0.213  0.00  0.00    -0.031 A 
ATOM      3  C3  DEN d   1      -0.964  -1.651   0.141  0.00  0.00     0.027 A 
ATOM      4  C4  DEN d   1      -2.341  -2.625  -1.809  0.00  0.00     0.027 A 
ATOM      5  C5  DEN d   1      -2.789  -2.396  -3.092  0.00  0.00    -0.003 A 
ATOM      6  C6  DEN d   1      -2.506  -1.240  -3.768  0.00  0.00     0.001 A 
ATOM      7  C7  DEN d   1      -1.716  -0.287  -3.182  0.00  0.00     0.017 A 
ATOM      8  C8  DEN d   1      -1.267  -0.507  -1.887  0.00  0.00    -0.094 A 
ATOM      9  C9  DEN d   1      -1.553  -1.688  -1.224  0.00  0.00    -0.072 A 
ENDROOT
TORSDOF 0
ENDMDL
