MODEL 1
REMARK minimizedAffinity -5.4219203
REMARK minimizedRMSD -1
REMARK  0 active torsions:
REMARK  status: ('A' for Active; 'I' for Inactive)
ROOT
ATOM      1  C1  DEN d   1       2.260   0.916  -0.590  0.00  0.00     0.130 A 
ATOM      2  C2  DEN d   1       2.307   2.158   0.176  0.00  0.00    -0.031 A 
ATOM      3  C3  DEN d   1       1.131   2.189   1.068  0.00  0.00     0.027 A 
ATOM      4  C4  DEN d   1      -0.747   0.441   1.339  0.00  0.00     0.027 A 
ATOM      5  C5  DEN d   1      -1.223  -0.772   0.895  0.00  0.00    -0.003 A 
ATOM      6  C6  DEN d   1      -0.596  -1.486  -0.092  0.00  0.00     0.001 A 
ATOM      7  C7  DEN d   1       0.570  -1.014  -0.635  0.00  0.00     0.017 A 
ATOM      8  C8  DEN d   1       1.052   0.212  -0.197  0.00  0.00    -0.094 A 
ATOM      9  C9  DEN d   1       0.410   0.913   0.810  0.00  0.00    -0.072 A 
ENDROOT
TORSDOF 0
ENDMDL
