MODEL 1
REMARK minimizedAffinity -6.90193319
REMARK minimizedRMSD -1
REMARK  0 active torsions:
REMARK  status: ('A' for Active; 'I' for Inactive)
ROOT
ATOM      1  C1  DEN d   1       0.644  -1.166  -0.315  0.00  0.00     0.130 A 
ATOM      2  C2  DEN d   1      -0.658  -1.142   0.344  0.00  0.00    -0.031 A 
ATOM      3  C3  DEN d   1      -0.776   0.136   1.076  0.00  0.00     0.027 A 
ATOM      4  C4  DEN d   1       0.922   2.070   1.245  0.00  0.00     0.027 A 
ATOM      5  C5  DEN d   1       2.173   2.502   0.865  0.00  0.00    -0.003 A 
ATOM      6  C6  DEN d   1       3.009   1.734   0.099  0.00  0.00     0.001 A 
ATOM      7  C7  DEN d   1       2.586   0.510  -0.349  0.00  0.00     0.017 A 
ATOM      8  C8  DEN d   1       1.329   0.065   0.036  0.00  0.00    -0.094 A 
ATOM      9  C9  DEN d   1       0.493   0.862   0.801  0.00  0.00    -0.072 A 
ENDROOT
TORSDOF 0
ENDMDL
