MODEL 1
REMARK minimizedAffinity -1.5623709
REMARK minimizedRMSD -1
REMARK  0 active torsions:
REMARK  status: ('A' for Active; 'I' for Inactive)
ROOT
ATOM      1  C1  DEN d   1       1.515   0.699  -0.706  0.00  0.00     0.130 A 
ATOM      2  C2  DEN d   1       0.790  -0.310  -1.474  0.00  0.00    -0.031 A 
ATOM      3  C3  DEN d   1      -0.357  -0.765  -0.663  0.00  0.00     0.027 A 
ATOM      4  C4  DEN d   1      -1.079  -0.006   1.694  0.00  0.00     0.027 A 
ATOM      5  C5  DEN d   1      -0.769   0.820   2.752  0.00  0.00    -0.003 A 
ATOM      6  C6  DEN d   1       0.334   1.632   2.745  0.00  0.00     0.001 A 
ATOM      7  C7  DEN d   1       1.143   1.669   1.640  0.00  0.00     0.017 A 
ATOM      8  C8  DEN d   1       0.841   0.833   0.573  0.00  0.00    -0.094 A 
ATOM      9  C9  DEN d   1      -0.286   0.029   0.594  0.00  0.00    -0.072 A 
ENDROOT
TORSDOF 0
ENDMDL
