MODEL 1
REMARK minimizedAffinity -3.37580681
REMARK minimizedRMSD -1
REMARK  0 active torsions:
REMARK  status: ('A' for Active; 'I' for Inactive)
ROOT
ATOM      1  C1  DEN d   1      -0.449  -1.306   0.047  0.00  0.00     0.130 A 
ATOM      2  C2  DEN d   1       0.354  -2.207  -0.776  0.00  0.00    -0.031 A 
ATOM      3  C3  DEN d   1       1.580  -1.488  -1.178  0.00  0.00     0.027 A 
ATOM      4  C4  DEN d   1       2.312   0.917  -0.604  0.00  0.00     0.027 A 
ATOM      5  C5  DEN d   1       1.955   2.072   0.057  0.00  0.00    -0.003 A 
ATOM      6  C6  DEN d   1       0.766   2.192   0.727  0.00  0.00     0.001 A 
ATOM      7  C7  DEN d   1      -0.089   1.123   0.789  0.00  0.00     0.017 A 
ATOM      8  C8  DEN d   1       0.261  -0.042   0.119  0.00  0.00    -0.094 A 
ATOM      9  C9  DEN d   1       1.472  -0.147  -0.543  0.00  0.00    -0.072 A 
ENDROOT
TORSDOF 0
ENDMDL
