MODEL 1
REMARK minimizedAffinity -3.26277947
REMARK minimizedRMSD -1
REMARK  0 active torsions:
REMARK  status: ('A' for Active; 'I' for Inactive)
ROOT
ATOM      1  C1  DEN d   1       1.326  -0.104  -1.190  0.00  0.00     0.130 A 
ATOM      2  C2  DEN d   1       0.501  -1.238  -0.785  0.00  0.00    -0.031 A 
ATOM      3  C3  DEN d   1      -0.179  -0.881   0.476  0.00  0.00     0.027 A 
ATOM      4  C4  DEN d   1      -0.038   1.309   1.831  0.00  0.00     0.027 A 
ATOM      5  C5  DEN d   1       0.542   2.557   1.891  0.00  0.00    -0.003 A 
ATOM      6  C6  DEN d   1       1.443   2.989   0.954  0.00  0.00     0.001 A 
ATOM      7  C7  DEN d   1       1.756   2.183  -0.109  0.00  0.00     0.017 A 
ATOM      8  C8  DEN d   1       1.181   0.921  -0.172  0.00  0.00    -0.094 A 
ATOM      9  C9  DEN d   1       0.263   0.507   0.779  0.00  0.00    -0.072 A 
ENDROOT
TORSDOF 0
ENDMDL
